@<TRIPOS>MOLECULE
3-(2-Methyl-benzoylamino)-9-aza-bicyclo[3.3.1]nonane-9-carboxylic acid (4-fluoro-phenyl)-amide
55 58 1 0 0 
SMALL
USER_CHARGES


@<TRIPOS>ATOM
  1 F        5.3290    -2.5250    -4.1630 F     1 <1>  -0.1900 
  2 C        5.7860    -1.5430    -3.4290 C.ar  1 <1>   0.1900 
  3 C        7.1230    -1.2080    -3.5240 C.ar  1 <1>  -0.1500 
  4 C        4.9160    -0.8780    -2.5870 C.ar  1 <1>  -0.1500 
  5 C        7.5990    -0.1680    -2.7440 C.ar  1 <1>  -0.1500 
  6 C        5.4080     0.1580    -1.8130 C.ar  1 <1>  -0.1500 
  7 C        6.7510     0.5250    -1.8830 C.ar  1 <1>   0.1170 
  8 N        7.2850     1.5560    -1.1050 N.am  1 <1>  -0.5470 
  9 C        6.7200     2.6890    -0.6110 C.2   1 <1>   0.6900 
 10 O        5.5930     3.0370    -0.9120 O.2   1 <1>  -0.5700 
 11 N        7.4950     3.4690     0.1910 N.am  1 <1>  -0.6600 
 12 C        7.8830     3.1950     1.5810 C.3   1 <1>   0.2200 
 13 C        7.7570     4.8480    -0.0570 C.3   1 <1>   0.2200 
 14 C        9.2640     2.6020     1.4410 C.3   1 <1>  -0.1600 
 15 C        6.5900     3.3360     2.3630 C.3   1 <1>  -0.1600 
 16 C        9.3250     4.8700    -0.0610 C.3   1 <1>  -0.1600 
 17 C        6.9400     5.6360     1.0350 C.3   1 <1>  -0.1600 
 18 C       10.1000     3.7570     0.7720 C.3   1 <1>   0.2200 
 19 C        5.9970     4.7380     1.9480 C.3   1 <1>  -0.1600 
 20 N       11.2220     3.1940    -0.0130 N.am  1 <1>  -0.7300 
 21 C       11.1600     2.3500    -1.0880 C.2   1 <1>   0.5440 
 22 O       10.0790     1.9850    -1.5080 O.2   1 <1>  -0.5700 
 23 C       12.3910     1.8990    -1.7070 C.ar  1 <1>   0.0860 
 24 C       12.7660     0.5500    -1.7520 C.ar  1 <1>  -0.1430 
 25 C       13.2540     2.8380    -2.2730 C.ar  1 <1>  -0.1500 
 26 C       13.9620     0.1770    -2.3440 C.ar  1 <1>  -0.1500 
 27 C       11.8710    -0.5290    -1.1530 C.3   1 <1>  -0.0970 
 28 C       14.4460     2.4620    -2.8610 C.ar  1 <1>  -0.1500 
 29 C       14.8010     1.1270    -2.8970 C.ar  1 <1>  -0.1500 
 30 H        7.7700    -1.7450    -4.1930 H     1 <1>   0.1500 
 31 H        3.8810    -1.1640    -2.5400 H     1 <1>   0.1500 
 32 H        8.6350     0.1170    -2.8030 H     1 <1>   0.1500 
 33 H        4.7490     0.6890    -1.1490 H     1 <1>   0.1500 
 34 H        8.3100     1.6360    -1.1140 H     1 <1>   0.3700 
 35 H        8.2870     4.0650     2.0700 H     1 <1>   0.0800 
 36 H        7.3850     5.1110    -1.0340 H     1 <1>   0.0800 
 37 H        9.2240     1.7040     0.8550 H     1 <1>   0.0800 
 38 H        9.6670     2.3670     2.4080 H     1 <1>   0.0800 
 39 H        5.9110     2.5340     2.1290 H     1 <1>   0.0800 
 40 H        6.7970     3.3140     3.4190 H     1 <1>   0.0800 
 41 H        9.6570     5.8440     0.2470 H     1 <1>   0.0800 
 42 H        9.6150     4.7660    -1.0920 H     1 <1>   0.0800 
 43 H        6.3420     6.3810     0.5420 H     1 <1>   0.0800 
 44 H        7.6310     6.1690     1.6630 H     1 <1>   0.0800 
 45 H       10.5450     4.2910     1.5950 H     1 <1>   0.0800 
 46 H        5.7030     5.2890     2.8240 H     1 <1>   0.0800 
 47 H        5.0990     4.5470     1.3830 H     1 <1>   0.0800 
 48 H       12.1510     3.4440     0.3300 H     1 <1>   0.3700 
 49 H       12.9790     3.8780    -2.2560 H     1 <1>   0.1500 
 50 H       14.2510    -0.8590    -2.3820 H     1 <1>   0.1500 
 51 H       10.9660    -0.6140    -1.7280 H     1 <1>   0.0800 
 52 H       11.6130    -0.2790    -0.1390 H     1 <1>   0.0800 
 53 H       12.3630    -1.4850    -1.1500 H     1 <1>   0.0800 
 54 H       15.0970     3.2030    -3.2940 H     1 <1>   0.1500 
 55 H       15.7280     0.8270    -3.3540 H     1 <1>   0.1500 
@<TRIPOS>BOND
  1   1   2  1   
  2   2   3  ar  
  3   2   4  ar  
  4   3   5  ar  
  5   3  30  1   
  6   4   6  ar  
  7   4  31  1   
  8   5   7  ar  
  9   5  32  1   
 10   6   7  ar  
 11   6  33  1   
 12   7   8  1   
 13   8   9  am  
 14   8  34  1   
 15   9  10  2   
 16   9  11  am  
 17  11  12  1   
 18  11  13  1   
 19  12  14  1   
 20  12  15  1   
 21  12  35  1   
 22  13  16  1   
 23  13  17  1   
 24  13  36  1   
 25  14  18  1   
 26  14  37  1   
 27  14  38  1   
 28  15  19  1   
 29  15  39  1   
 30  15  40  1   
 31  16  18  1   
 32  16  41  1   
 33  16  42  1   
 34  17  19  1   
 35  17  43  1   
 36  17  44  1   
 37  18  20  1   
 38  18  45  1   
 39  19  46  1   
 40  19  47  1   
 41  20  21  am  
 42  20  48  1   
 43  21  22  2   
 44  21  23  1   
 45  23  24  ar  
 46  23  25  ar  
 47  24  26  ar  
 48  24  27  1   
 49  25  28  ar  
 50  25  49  1   
 51  26  29  ar  
 52  26  50  1   
 53  27  51  1   
 54  27  52  1   
 55  27  53  1   
 56  28  29  ar  
 57  28  54  1   
 58  29  55  1   
@<TRIPOS>SUBSTRUCTURE
  1 ****  22 GROUP 4 **** **** 0

# MOE 2024.06 (io_trps.svl 2023.06)
