@<TRIPOS>MOLECULE
NONAME
34 36 1 0 0 
SMALL
USER_CHARGES


@<TRIPOS>ATOM
  1 F        0.3390    -0.2340     0.6350 F     1 <1>  -0.3400 
  2 C       -0.9200    -0.6610     0.6180 C.3   1 <1>   1.0810 
  3 F       -1.5670     0.1360    -0.2290 F     1 <1>  -0.3400 
  4 F       -1.4180    -0.3850     1.8210 F     1 <1>  -0.3400 
  5 C       -1.0980    -2.1580     0.2510 C.2   1 <1>   0.3750 
  6 N       -0.0690    -2.9200    -0.0270 N.2   1 <1>  -0.5760 
  7 C       -2.4240    -2.6560     0.2310 C.2   1 <1>  -0.1360 
  8 C       -0.3330    -4.2250    -0.3410 C.2   1 <1>   0.3120 
  9 C       -2.7000    -3.9640    -0.0780 C.2   1 <1>   0.0690 
 10 N        0.5520    -5.1210    -0.6460 N.2   1 <1>  -0.5650 
 11 N       -1.5870    -4.7570    -0.3750 N.pl3 1 <1>   0.6010 
 12 N       -3.9760    -4.5090    -0.1150 N.pl3 1 <1>  -0.8690 
 13 C       -0.2150    -6.1900    -0.8610 C.2   1 <1>   0.3660 
 14 N       -1.4950    -6.0470    -0.7180 N.2   1 <1>  -0.7070 
 15 C       -5.2600    -3.8790     0.2390 C.3   1 <1>   0.2890 
 16 C       -6.1450    -4.9250     0.9210 C.3   1 <1>  -0.1600 
 17 C       -5.9160    -3.3440    -1.0370 C.3   1 <1>  -0.1600 
 18 C       -7.5430    -4.3610     1.2190 C.3   1 <1>  -0.1600 
 19 C       -7.3130    -2.7740    -0.7480 C.3   1 <1>  -0.1600 
 20 C       -8.2030    -3.8150    -0.0550 C.3   1 <1>  -0.1600 
 21 H       -3.2240    -1.9780     0.4620 H     1 <1>   0.1500 
 22 H       -4.0620    -5.4950    -0.4060 H     1 <1>   0.4000 
 23 H        0.2320    -7.1310    -1.1420 H     1 <1>   0.1500 
 24 H       -5.0950    -3.0670     0.9250 H     1 <1>   0.0800 
 25 H       -5.6830    -5.2380     1.8400 H     1 <1>   0.0800 
 26 H       -6.2460    -5.7830     0.2790 H     1 <1>   0.0800 
 27 H       -6.0030    -4.1420    -1.7530 H     1 <1>   0.0800 
 28 H       -5.2960    -2.5740    -1.4620 H     1 <1>   0.0800 
 29 H       -7.4620    -3.5700     1.9450 H     1 <1>   0.0800 
 30 H       -8.1610    -5.1340     1.6430 H     1 <1>   0.0800 
 31 H       -7.7730    -2.4640    -1.6710 H     1 <1>   0.0800 
 32 H       -7.2230    -1.9060    -0.1170 H     1 <1>   0.0800 
 33 H       -9.1520    -3.3700     0.1930 H     1 <1>   0.0800 
 34 H       -8.3920    -4.6300    -0.7340 H     1 <1>   0.0800 
@<TRIPOS>BOND
  1   1   2  1   
  2   2   3  1   
  3   2   4  1   
  4   2   5  1   
  5   5   6  2   
  6   5   7  1   
  7   6   8  1   
  8   7   9  2   
  9   7  21  1   
 10   8  10  2   
 11   8  11  1   
 12   9  11  1   
 13   9  12  1   
 14  10  13  1   
 15  11  14  1   
 16  12  15  1   
 17  12  22  1   
 18  13  14  2   
 19  13  23  1   
 20  15  16  1   
 21  15  17  1   
 22  15  24  1   
 23  16  18  1   
 24  16  25  1   
 25  16  26  1   
 26  17  19  1   
 27  17  27  1   
 28  17  28  1   
 29  18  20  1   
 30  18  29  1   
 31  18  30  1   
 32  19  20  1   
 33  19  31  1   
 34  19  32  1   
 35  20  33  1   
 36  20  34  1   
@<TRIPOS>SUBSTRUCTURE
  1 ****   9 GROUP 4 **** **** 0

# MOE 2024.06 (io_trps.svl 2023.06)
