@<TRIPOS>MOLECULE
9591
34 34 1 0 0 
SMALL
USER_CHARGES


@<TRIPOS>ATOM
  1 O        0.6640    -2.4590    -2.3820 O.co2 1 <1>  -0.9000 
  2 C        0.5440    -1.2880    -2.0020 C.2   1 <1>   0.9060 
  3 O        0.9790    -0.3390    -2.6510 O.co2 1 <1>  -0.9000 
  4 C       -0.1430    -1.0000    -0.6840 C.3   1 <1>  -0.2660 
  5 C       -0.4070    -2.2310     0.2180 C.3   1 <1>  -0.0990 
  6 C        0.8440    -2.8840     0.7890 C.2   1 <1>   0.5690 
  7 O        0.9960    -2.8870     1.9890 O.2   1 <1>  -0.5700 
  8 N        1.7170    -3.4480    -0.0890 N.am  1 <1>  -0.5470 
  9 C        2.9530    -4.0890     0.0590 C.ar  1 <1>   0.1170 
 10 C        3.7630    -4.2060    -1.0630 C.ar  1 <1>  -0.1500 
 11 C        3.4050    -4.6200     1.2620 C.ar  1 <1>  -0.1500 
 12 C        4.9930    -4.8360    -0.9960 C.ar  1 <1>  -0.1500 
 13 C        4.6340    -5.2520     1.3360 C.ar  1 <1>  -0.1500 
 14 C        5.4370    -5.3680     0.2130 C.ar  1 <1>   0.0820 
 15 O        6.6290    -6.0060     0.3810 O.3   1 <1>  -0.3630 
 16 C        7.5290    -6.2340    -0.6790 C.3   1 <1>   0.2000 
 17 C        7.0580    -7.4520    -1.4780 C.3   1 <1>  -0.2400 
 18 C        8.8990    -6.4850    -0.0550 C.3   1 <1>  -0.2400 
 19 H       -1.0770    -0.5280    -0.9210 H     1 <1>   0.0800 
 20 H        0.4600    -0.2890    -0.1530 H     1 <1>   0.0800 
 21 H       -0.9510    -2.9710    -0.3410 H     1 <1>   0.0800 
 22 H       -1.0280    -1.9270     1.0400 H     1 <1>   0.0800 
 23 H        1.4470    -3.2580    -1.0760 H     1 <1>   0.3700 
 24 H        3.4160    -3.7920    -1.9960 H     1 <1>   0.1500 
 25 H        2.7930    -4.5410     2.1410 H     1 <1>   0.1500 
 26 H        5.5790    -4.8990    -1.8910 H     1 <1>   0.1500 
 27 H        4.9760    -5.6590     2.2690 H     1 <1>   0.1500 
 28 H        7.5790    -5.3510    -1.2920 H     1 <1>   0.0800 
 29 H        7.0040    -8.3160    -0.8390 H     1 <1>   0.0800 
 30 H        7.7480    -7.6570    -2.2750 H     1 <1>   0.0800 
 31 H        6.0900    -7.2730    -1.9070 H     1 <1>   0.0800 
 32 H        8.8650    -7.3440     0.5910 H     1 <1>   0.0800 
 33 H        9.2040    -5.6250     0.5140 H     1 <1>   0.0800 
 34 H        9.6290    -6.6600    -0.8240 H     1 <1>   0.0800 
@<TRIPOS>BOND
  1   1   2  ar  
  2   2   3  ar  
  3   2   4  1   
  4   4   5  1   
  5   4  19  1   
  6   4  20  1   
  7   5   6  1   
  8   5  21  1   
  9   5  22  1   
 10   6   7  2   
 11   6   8  am  
 12   8   9  1   
 13   8  23  1   
 14   9  10  ar  
 15   9  11  ar  
 16  10  12  ar  
 17  10  24  1   
 18  11  13  ar  
 19  11  25  1   
 20  12  14  ar  
 21  12  26  1   
 22  13  14  ar  
 23  13  27  1   
 24  14  15  1   
 25  15  16  1   
 26  16  17  1   
 27  16  18  1   
 28  16  28  1   
 29  17  29  1   
 30  17  30  1   
 31  17  31  1   
 32  18  32  1   
 33  18  33  1   
 34  18  34  1   
@<TRIPOS>SUBSTRUCTURE
  1 ****   9 GROUP 4 **** **** 0

# MOE 2024.06 (io_trps.svl 2023.06)
