@<TRIPOS>MOLECULE
Cyclopropanecarboxylic acid [2-(3-cyano-6,8-dimethyl-quinolin-2-ylamino)-ethyl]-amide
43 45 1 0 0 
SMALL
USER_CHARGES


@<TRIPOS>ATOM
  1 O       -1.1030     0.6330    -0.0240 O.2   1 <1>  -0.5700 
  2 C       -1.4280     1.7260     0.3700 C.2   1 <1>   0.6300 
  3 N       -2.7080     2.0190     0.7060 N.am  1 <1>  -0.7300 
  4 C       -0.3820     2.8210     0.4950 C.3   1 <1>  -0.1000 
  5 C       -3.8360     1.0540     0.6620 C.3   1 <1>   0.1400 
  6 C       -0.6410     4.2250     0.0210 C.3   1 <1>  -0.2000 
  7 C        0.3180     3.3490    -0.7240 C.3   1 <1>  -0.2000 
  8 C       -4.2810     0.7950    -0.7820 C.3   1 <1>   0.2090 
  9 N       -5.4710    -0.0990    -0.8030 N.pl3 1 <1>  -0.8690 
 10 C       -6.7750     0.3280    -0.6510 C.ar  1 <1>   0.4100 
 11 N       -6.9400     1.5800    -0.3190 N.ar  1 <1>  -0.6200 
 12 C       -7.8560    -0.5710    -0.8420 C.ar  1 <1>   0.0730 
 13 C       -8.2020     2.0510    -0.1520 C.ar  1 <1>   0.3100 
 14 C       -7.5930    -1.9290    -1.2020 C.1   1 <1>   0.4840 
 15 C       -9.1310    -0.1150    -0.6760 C.ar  1 <1>  -0.1500 
 16 C       -9.3370     1.2270    -0.3220 C.ar  1 <1>   0.0000 
 17 C       -8.4040     3.4040     0.2030 C.ar  1 <1>  -0.1440 
 18 N       -7.3730    -3.0110    -1.4900 N.1   1 <1>  -0.5570 
 19 C      -10.6210     1.7690    -0.1330 C.ar  1 <1>  -0.1500 
 20 C       -9.6710     3.9000     0.3790 C.ar  1 <1>  -0.1500 
 21 C       -7.2030     4.3250     0.3920 C.3   1 <1>  -0.0970 
 22 C      -10.7930     3.0820     0.2120 C.ar  1 <1>  -0.1440 
 23 C      -12.1740     3.6770     0.4180 C.3   1 <1>  -0.0970 
 24 H       -2.9350     2.9670     1.0090 H     1 <1>   0.3700 
 25 H        0.2180     2.6870     1.3760 H     1 <1>   0.1000 
 26 H       -4.6620     1.4490     1.2280 H     1 <1>   0.0800 
 27 H       -3.5230     0.1240     1.1060 H     1 <1>   0.0800 
 28 H       -0.2470     5.0460     0.5960 H     1 <1>   0.1000 
 29 H       -1.5740     4.4650    -0.4580 H     1 <1>   0.1000 
 30 H        0.0320     2.9530    -1.6840 H     1 <1>   0.1000 
 31 H        1.3730     3.5510    -0.6600 H     1 <1>   0.1000 
 32 H       -3.4790     0.3320    -1.3300 H     1 <1>   0.0800 
 33 H       -4.5270     1.7300    -1.2560 H     1 <1>   0.0800 
 34 H       -5.2780    -1.0710    -1.0710 H     1 <1>   0.4000 
 35 H       -9.9820    -0.7580    -0.8100 H     1 <1>   0.1500 
 36 H      -11.4720     1.1250    -0.2660 H     1 <1>   0.1500 
 37 H       -9.8240     4.9300     0.6490 H     1 <1>   0.1500 
 38 H       -6.5730     3.9430     1.1760 H     1 <1>   0.0800 
 39 H       -7.5120     5.3200     0.6530 H     1 <1>   0.0800 
 40 H       -6.6330     4.3700    -0.5180 H     1 <1>   0.0800 
 41 H      -12.9390     2.9390     0.2570 H     1 <1>   0.0800 
 42 H      -12.3300     4.4870    -0.2720 H     1 <1>   0.0800 
 43 H      -12.2650     4.0520     1.4210 H     1 <1>   0.0800 
@<TRIPOS>BOND
  1   1   2  2   
  2   2   3  am  
  3   2   4  1   
  4   3   5  1   
  5   3  24  1   
  6   4   6  1   
  7   4   7  1   
  8   4  25  1   
  9   5   8  1   
 10   5  26  1   
 11   5  27  1   
 12   6   7  1   
 13   6  28  1   
 14   6  29  1   
 15   7  30  1   
 16   7  31  1   
 17   8   9  1   
 18   8  32  1   
 19   8  33  1   
 20   9  10  1   
 21   9  34  1   
 22  10  11  ar  
 23  10  12  ar  
 24  11  13  ar  
 25  12  14  1   
 26  12  15  ar  
 27  13  16  ar  
 28  13  17  ar  
 29  14  18  3   
 30  15  16  ar  
 31  15  35  1   
 32  16  19  ar  
 33  17  20  ar  
 34  17  21  1   
 35  19  22  ar  
 36  19  36  1   
 37  20  22  ar  
 38  20  37  1   
 39  21  38  1   
 40  21  39  1   
 41  21  40  1   
 42  22  23  1   
 43  23  41  1   
 44  23  42  1   
 45  23  43  1   
@<TRIPOS>SUBSTRUCTURE
  1 ****  11 GROUP 4 **** **** 0

# MOE 2024.06 (io_trps.svl 2023.06)
