@<TRIPOS>MOLECULE
(3-Oxo-2,3-dihydro-benzo[1,4]oxazin-4-yl)-acetic acid [(tetrahydro-furan-2-ylmethyl)-carbamoyl]-methyl ester
45 47 1 0 0 
SMALL
USER_CHARGES


@<TRIPOS>ATOM
  1 O        1.7510    -2.7800     2.4420 O.2   1 <1>  -0.5700 
  2 C        2.1120    -3.4600     1.5100 C.2   1 <1>   0.5690 
  3 N        2.7260    -2.9320     0.4000 N.am  1 <1>  -0.4770 
  4 C        1.8310    -4.9570     1.5530 C.3   1 <1>   0.1810 
  5 C        3.2120    -3.7920    -0.6160 C.ar  1 <1>   0.1170 
  6 C        2.9070    -1.4420     0.3210 C.3   1 <1>   0.2010 
  7 O        2.7160    -5.7220     0.7440 O.3   1 <1>  -0.3630 
  8 C        3.1790    -5.1790    -0.4130 C.ar  1 <1>   0.0830 
  9 C        3.7390    -3.3270    -1.8210 C.ar  1 <1>  -0.1500 
 10 C        4.3300    -0.9970     0.6310 C.2   1 <1>   0.6590 
 11 C        3.6410    -6.0550    -1.3790 C.ar  1 <1>  -0.1500 
 12 C        4.2040    -4.2060    -2.7850 C.ar  1 <1>  -0.1500 
 13 O        5.1100    -0.7160    -0.2460 O.2   1 <1>  -0.5700 
 14 O        4.6580    -0.9070     1.9130 O.3   1 <1>  -0.4300 
 15 C        4.1540    -5.5700    -2.5680 C.ar  1 <1>  -0.1500 
 16 C        5.9360    -0.4640     2.3570 C.3   1 <1>   0.1810 
 17 C        7.0080    -1.5450     2.2290 C.2   1 <1>   0.5690 
 18 O        7.5530    -1.9470     3.2290 O.2   1 <1>  -0.5700 
 19 N        7.3320    -2.0200     0.9990 N.am  1 <1>  -0.7300 
 20 C        8.3180    -3.1020     0.7330 C.3   1 <1>   0.1400 
 21 C        7.7990    -4.4660     1.2090 C.3   1 <1>   0.2000 
 22 O        8.6660    -5.4660     0.7840 O.3   1 <1>  -0.5600 
 23 C        6.4470    -4.8780     0.6340 C.3   1 <1>  -0.1600 
 24 C        8.0130    -6.6910     0.8380 C.3   1 <1>   0.1200 
 25 C        6.5510    -6.3920     0.5250 C.3   1 <1>  -0.1600 
 26 H        0.8320    -5.1390     1.2060 H     1 <1>   0.0800 
 27 H        1.9220    -5.3130     2.5630 H     1 <1>   0.0800 
 28 H        2.2480    -0.9490     1.0120 H     1 <1>   0.0800 
 29 H        2.6360    -1.1000    -0.6590 H     1 <1>   0.0800 
 30 H        3.8020    -2.2780    -2.0350 H     1 <1>   0.1500 
 31 H        3.6000    -7.1130    -1.1950 H     1 <1>   0.1500 
 32 H        4.6070    -3.8260    -3.7090 H     1 <1>   0.1500 
 33 H        4.5140    -6.2520    -3.3190 H     1 <1>   0.1500 
 34 H        5.8400    -0.1880     3.3910 H     1 <1>   0.0800 
 35 H        6.2200     0.4040     1.7910 H     1 <1>   0.0800 
 36 H        6.7920    -1.6850     0.1890 H     1 <1>   0.3700 
 37 H        9.2330    -2.8790     1.2530 H     1 <1>   0.0800 
 38 H        8.5180    -3.1440    -0.3230 H     1 <1>   0.0800 
 39 H        7.7760    -4.4970     2.2860 H     1 <1>   0.0800 
 40 H        6.3120    -4.4440    -0.3420 H     1 <1>   0.0800 
 41 H        5.6430    -4.5630     1.2740 H     1 <1>   0.0800 
 42 H        8.1260    -7.0840     1.8340 H     1 <1>   0.0800 
 43 H        8.4620    -7.3570     0.1220 H     1 <1>   0.0800 
 44 H        6.3070    -6.7230    -0.4690 H     1 <1>   0.0800 
 45 H        5.9060    -6.8860     1.2300 H     1 <1>   0.0800 
@<TRIPOS>BOND
  1   1   2  2   
  2   2   3  am  
  3   2   4  1   
  4   3   5  1   
  5   3   6  1   
  6   4   7  1   
  7   4  26  1   
  8   4  27  1   
  9   5   8  ar  
 10   5   9  ar  
 11   6  10  1   
 12   6  28  1   
 13   6  29  1   
 14   7   8  1   
 15   8  11  ar  
 16   9  12  ar  
 17   9  30  1   
 18  10  13  2   
 19  10  14  1   
 20  11  15  ar  
 21  11  31  1   
 22  12  15  ar  
 23  12  32  1   
 24  14  16  1   
 25  15  33  1   
 26  16  17  1   
 27  16  34  1   
 28  16  35  1   
 29  17  18  2   
 30  17  19  am  
 31  19  20  1   
 32  19  36  1   
 33  20  21  1   
 34  20  37  1   
 35  20  38  1   
 36  21  22  1   
 37  21  23  1   
 38  21  39  1   
 39  22  24  1   
 40  23  25  1   
 41  23  40  1   
 42  23  41  1   
 43  24  25  1   
 44  24  42  1   
 45  24  43  1   
 46  25  44  1   
 47  25  45  1   
@<TRIPOS>SUBSTRUCTURE
  1 ****  23 GROUP 4 **** **** 0

# MOE 2024.06 (io_trps.svl 2023.06)
