@<TRIPOS>MOLECULE
Pyrrolidine-1,2-dicarboxylic acid 2-(4-fluoro-benzylamide) 1-[(3-methoxy-phenyl)-amide]
49 51 1 0 0 
SMALL
USER_CHARGES


@<TRIPOS>ATOM
  1 F       -2.5190     3.0530     3.2310 F     1 <1>  -0.1900 
  2 C       -2.2620     3.7100     2.1320 C.ar  1 <1>   0.1900 
  3 C       -0.9450     3.9160     1.7700 C.ar  1 <1>  -0.1500 
  4 C       -3.3180     4.1740     1.3720 C.ar  1 <1>  -0.1500 
  5 C       -0.6810     4.6110     0.6020 C.ar  1 <1>  -0.1500 
  6 C       -3.0410     4.8680     0.2050 C.ar  1 <1>  -0.1500 
  7 C       -1.7240     5.0840    -0.1840 C.ar  1 <1>  -0.1430 
  8 C       -1.4120     5.8410    -1.4630 C.3   1 <1>   0.2840 
  9 N       -1.1290     7.2440    -1.1230 N.am  1 <1>  -0.7300 
 10 C        0.0900     7.8390    -1.1450 C.2   1 <1>   0.5690 
 11 O        1.0650     7.2270    -1.5220 O.2   1 <1>  -0.5700 
 12 C        0.2410     9.2990    -0.6440 C.3   1 <1>   0.2810 
 13 N       -0.9200    10.2130    -0.9210 N.am  1 <1>  -0.6600 
 14 C        1.4470    10.0280    -1.2690 C.3   1 <1>  -0.1600 
 15 C       -2.0580    10.2080    -0.1550 C.2   1 <1>   0.6900 
 16 C       -0.5040    11.3000    -1.8360 C.3   1 <1>   0.1400 
 17 C        0.9820    11.4530    -1.5580 C.3   1 <1>  -0.1600 
 18 O       -2.4150     9.1900     0.4020 O.2   1 <1>  -0.5700 
 19 N       -2.8470    11.3030     0.0040 N.am  1 <1>  -0.5470 
 20 C       -2.4860    12.6080     0.3530 C.ar  1 <1>   0.1170 
 21 C       -3.3210    13.6620     0.0130 C.ar  1 <1>  -0.1500 
 22 C       -1.3090    12.8830     1.0420 C.ar  1 <1>  -0.1500 
 23 C       -2.9960    14.9660     0.3410 C.ar  1 <1>   0.0830 
 24 C       -0.9730    14.1830     1.3740 C.ar  1 <1>  -0.1500 
 25 O       -3.8750    15.9260    -0.0400 O.3   1 <1>  -0.3630 
 26 C       -1.8120    15.2280     1.0260 C.ar  1 <1>  -0.1500 
 27 C       -3.6460    17.2870     0.2530 C.3   1 <1>   0.0400 
 28 H       -0.1490     3.5430     2.3890 H     1 <1>   0.1500 
 29 H       -4.3300     3.9980     1.6890 H     1 <1>   0.1500 
 30 H        0.3390     4.7910     0.3030 H     1 <1>   0.1500 
 31 H       -3.8520     5.2410    -0.3960 H     1 <1>   0.1500 
 32 H       -2.2480     5.8010    -2.1390 H     1 <1>   0.0800 
 33 H       -0.5610     5.3990    -1.9540 H     1 <1>   0.0800 
 34 H       -1.8840     7.7480    -0.6340 H     1 <1>   0.3700 
 35 H        0.3780     9.2570     0.4220 H     1 <1>   0.0800 
 36 H        1.7160     9.5580    -2.1990 H     1 <1>   0.0800 
 37 H        2.3020    10.0000    -0.6180 H     1 <1>   0.0800 
 38 H       -1.0350    12.2200    -1.6750 H     1 <1>   0.0800 
 39 H       -0.6620    10.9770    -2.8510 H     1 <1>   0.0800 
 40 H        1.5010    11.8930    -2.3920 H     1 <1>   0.0800 
 41 H        1.1170    12.0740    -0.6900 H     1 <1>   0.0800 
 42 H       -3.7810    11.0310     0.3010 H     1 <1>   0.3700 
 43 H       -4.2360    13.4720    -0.5170 H     1 <1>   0.1500 
 44 H       -0.6560    12.0760     1.3220 H     1 <1>   0.1500 
 45 H       -0.0590    14.3820     1.9070 H     1 <1>   0.1500 
 46 H       -1.5300    16.2280     1.2950 H     1 <1>   0.1500 
 47 H       -4.4700    17.8550    -0.1380 H     1 <1>   0.0800 
 48 H       -2.7310    17.5970    -0.2200 H     1 <1>   0.0800 
 49 H       -3.5910    17.4100     1.3200 H     1 <1>   0.0800 
@<TRIPOS>BOND
  1   1   2  1   
  2   2   3  ar  
  3   2   4  ar  
  4   3   5  ar  
  5   3  28  1   
  6   4   6  ar  
  7   4  29  1   
  8   5   7  ar  
  9   5  30  1   
 10   6   7  ar  
 11   6  31  1   
 12   7   8  1   
 13   8   9  1   
 14   8  32  1   
 15   8  33  1   
 16   9  10  am  
 17   9  34  1   
 18  10  11  2   
 19  10  12  1   
 20  12  13  1   
 21  12  14  1   
 22  12  35  1   
 23  13  15  am  
 24  13  16  1   
 25  14  17  1   
 26  14  36  1   
 27  14  37  1   
 28  15  18  2   
 29  15  19  am  
 30  16  17  1   
 31  16  38  1   
 32  16  39  1   
 33  17  40  1   
 34  17  41  1   
 35  19  20  1   
 36  19  42  1   
 37  20  21  ar  
 38  20  22  ar  
 39  21  23  ar  
 40  21  43  1   
 41  22  24  ar  
 42  22  44  1   
 43  23  25  1   
 44  23  26  ar  
 45  24  26  ar  
 46  24  45  1   
 47  25  27  1   
 48  26  46  1   
 49  27  47  1   
 50  27  48  1   
 51  27  49  1   
@<TRIPOS>SUBSTRUCTURE
  1 ****  15 GROUP 4 **** **** 0

# MOE 2024.06 (io_trps.svl 2023.06)
