@<TRIPOS>MOLECULE
4-(3-Methyl-benzoylamino)-piperidine-1-carboxylic acid (3,5-dimethyl-phenyl)-amide
54 56 1 0 0 
SMALL
USER_CHARGES


@<TRIPOS>ATOM
  1 O       -0.2800    -0.1350     0.8640 O.2   1 <1>  -0.5700 
  2 C       -0.7950     0.7260     0.1760 C.2   1 <1>   0.6900 
  3 N       -2.0620     0.5430    -0.3250 N.am  1 <1>  -0.6600 
  4 N       -0.1490     1.9000    -0.0880 N.am  1 <1>  -0.5470 
  5 C       -2.9290    -0.5600     0.1740 C.3   1 <1>   0.1400 
  6 C       -2.6130     1.2660    -1.5050 C.3   1 <1>   0.1400 
  7 C        1.1650     2.3220     0.1590 C.ar  1 <1>   0.1170 
  8 C       -4.3060    -0.0010     0.5380 C.3   1 <1>  -0.1600 
  9 C       -3.9770     1.8550    -1.1430 C.3   1 <1>  -0.1600 
 10 C        2.2230     1.4360     0.3330 C.ar  1 <1>  -0.1500 
 11 C        1.4310     3.6850     0.2110 C.ar  1 <1>  -0.1500 
 12 C       -4.9150     0.7550    -0.6450 C.3   1 <1>   0.2200 
 13 C        3.5100     1.8930     0.5580 C.ar  1 <1>  -0.1430 
 14 C        2.7120     4.1580     0.4340 C.ar  1 <1>  -0.1430 
 15 N       -6.1890     1.3620    -0.2290 N.am  1 <1>  -0.7300 
 16 C        3.7490     3.2570     0.6050 C.ar  1 <1>  -0.1500 
 17 C        4.6530     0.9130     0.7490 C.3   1 <1>  -0.0970 
 18 C        2.9940     5.6490     0.4900 C.3   1 <1>  -0.0970 
 19 C       -7.3130     1.4320    -1.0030 C.2   1 <1>   0.5440 
 20 O       -7.2650     0.9850    -2.1320 O.2   1 <1>  -0.5700 
 21 C       -8.5380     2.0160    -0.4820 C.ar  1 <1>   0.0860 
 22 C       -8.5260     3.0090     0.5010 C.ar  1 <1>  -0.1500 
 23 C       -9.7820     1.5980    -0.9530 C.ar  1 <1>  -0.1500 
 24 C       -9.6970     3.5510     1.0050 C.ar  1 <1>  -0.1430 
 25 C      -10.9580     2.1320    -0.4580 C.ar  1 <1>  -0.1500 
 26 C      -10.9150     3.1050     0.5230 C.ar  1 <1>  -0.1500 
 27 C       -9.6580     4.6260     2.0760 C.3   1 <1>  -0.0970 
 28 H       -0.7760     2.6180    -0.4270 H     1 <1>   0.3700 
 29 H       -2.4920    -1.0250     1.0430 H     1 <1>   0.0800 
 30 H       -3.0210    -1.3090    -0.5940 H     1 <1>   0.0800 
 31 H       -2.7250     0.5670    -2.3180 H     1 <1>   0.0800 
 32 H       -1.9510     2.0460    -1.8350 H     1 <1>   0.0800 
 33 H       -4.1950     0.6550     1.3830 H     1 <1>   0.0800 
 34 H       -4.9520    -0.8140     0.8160 H     1 <1>   0.0800 
 35 H       -4.4050     2.3160    -2.0150 H     1 <1>   0.0800 
 36 H       -3.8470     2.6060    -0.3850 H     1 <1>   0.0800 
 37 H        2.0370     0.3790     0.2880 H     1 <1>   0.1500 
 38 H        0.6240     4.3810     0.0790 H     1 <1>   0.1500 
 39 H       -5.0950     0.0580    -1.4480 H     1 <1>   0.0800 
 40 H       -6.2310     1.6740     0.7400 H     1 <1>   0.3700 
 41 H        4.7480     3.6170     0.7770 H     1 <1>   0.1500 
 42 H        4.2770    -0.0620     1.0020 H     1 <1>   0.0800 
 43 H        5.2970     1.2450     1.5430 H     1 <1>   0.0800 
 44 H        5.2240     0.8400    -0.1590 H     1 <1>   0.0800 
 45 H        2.0800     6.2110     0.5470 H     1 <1>   0.0800 
 46 H        3.5330     5.9510    -0.3900 H     1 <1>   0.0800 
 47 H        3.5880     5.8770     1.3570 H     1 <1>   0.0800 
 48 H       -7.5830     3.3670     0.8710 H     1 <1>   0.1500 
 49 H       -9.8220     0.8430    -1.7190 H     1 <1>   0.1500 
 50 H      -11.9060     1.7900    -0.8360 H     1 <1>   0.1500 
 51 H      -11.8340     3.5160     0.9060 H     1 <1>   0.1500 
 52 H       -8.6850     5.0800     2.1300 H     1 <1>   0.0800 
 53 H       -9.8940     4.1960     3.0330 H     1 <1>   0.0800 
 54 H      -10.3770     5.3950     1.8540 H     1 <1>   0.0800 
@<TRIPOS>BOND
  1   1   2  2   
  2   2   3  am  
  3   2   4  am  
  4   3   5  1   
  5   3   6  1   
  6   4   7  1   
  7   4  28  1   
  8   5   8  1   
  9   5  29  1   
 10   5  30  1   
 11   6   9  1   
 12   6  31  1   
 13   6  32  1   
 14   7  10  ar  
 15   7  11  ar  
 16   8  12  1   
 17   8  33  1   
 18   8  34  1   
 19   9  12  1   
 20   9  35  1   
 21   9  36  1   
 22  10  13  ar  
 23  10  37  1   
 24  11  14  ar  
 25  11  38  1   
 26  12  15  1   
 27  12  39  1   
 28  13  16  ar  
 29  13  17  1   
 30  14  16  ar  
 31  14  18  1   
 32  15  19  am  
 33  15  40  1   
 34  16  41  1   
 35  17  42  1   
 36  17  43  1   
 37  17  44  1   
 38  18  45  1   
 39  18  46  1   
 40  18  47  1   
 41  19  20  2   
 42  19  21  1   
 43  21  22  ar  
 44  21  23  ar  
 45  22  24  ar  
 46  22  48  1   
 47  23  25  ar  
 48  23  49  1   
 49  24  26  ar  
 50  24  27  1   
 51  25  26  ar  
 52  25  50  1   
 53  26  51  1   
 54  27  52  1   
 55  27  53  1   
 56  27  54  1   
@<TRIPOS>SUBSTRUCTURE
  1 ****   9 GROUP 4 **** **** 0

# MOE 2024.06 (io_trps.svl 2023.06)
