@<TRIPOS>MOLECULE
1-[2-(2-Ethyl-piperidin-1-yl)-2-oxo-ethyl]-3-methyl-1H-thieno[3,2-d]pyrimidine-2
44 46 1 0 0 
SMALL
USER_CHARGES


@<TRIPOS>ATOM
  1 S        2.9980    -1.3120    -3.3990 S.3   1 <1>  -0.0800 
  2 C        3.1760    -1.5860    -1.6600 C.2   1 <1>  -0.0450 
  3 C        1.8820    -2.6580    -3.5360 C.2   1 <1>  -0.1100 
  4 C        3.9730    -0.8130    -0.7780 C.2   1 <1>   0.7150 
  5 C        2.4290    -2.6460    -1.2700 C.2   1 <1>   0.0630 
  6 C        1.6870    -3.2450    -2.3400 C.2   1 <1>  -0.1500 
  7 O        4.6420     0.1370    -1.1510 O.2   1 <1>  -0.5700 
  8 N        3.9600    -1.1810     0.5570 N.am  1 <1>  -0.4200 
  9 N        2.4610    -3.0150     0.0780 N.am  1 <1>  -0.4230 
 10 C        3.1820    -2.2480     0.9890 C.2   1 <1>   0.6900 
 11 C        4.7460    -0.3860     1.5480 C.3   1 <1>   0.0600 
 12 C        1.7400    -4.2540     0.5410 C.3   1 <1>   0.2010 
 13 O        3.1360    -2.5130     2.1770 O.2   1 <1>  -0.5700 
 14 C        2.2620    -5.5400    -0.1040 C.2   1 <1>   0.5690 
 15 O        1.4930    -6.1280    -0.8300 O.2   1 <1>  -0.5700 
 16 N        3.5390    -6.0030     0.1080 N.am  1 <1>  -0.6600 
 17 C        4.0950    -7.0840    -0.7650 C.3   1 <1>   0.2200 
 18 C        4.4340    -5.5500     1.2090 C.3   1 <1>   0.1400 
 19 C        5.1930    -7.8930    -0.0420 C.3   1 <1>  -0.1600 
 20 C        4.6010    -6.4480    -2.0700 C.3   1 <1>  -0.1600 
 21 C        4.7450    -6.7200     2.1550 C.3   1 <1>  -0.1600 
 22 C        4.8650    -8.0800     1.4440 C.3   1 <1>  -0.1600 
 23 C        5.0780    -7.4770    -3.1050 C.3   1 <1>  -0.2400 
 24 H        1.4800    -2.8710    -4.5120 H     1 <1>   0.1500 
 25 H        1.0360    -4.0860    -2.1830 H     1 <1>   0.1500 
 26 H        5.6250     0.0310     1.0860 H     1 <1>   0.0800 
 27 H        5.0610    -1.0090     2.3670 H     1 <1>   0.0800 
 28 H        4.1370     0.4140     1.9280 H     1 <1>   0.0800 
 29 H        0.7000    -4.1500     0.2920 H     1 <1>   0.0800 
 30 H        1.7960    -4.3630     1.6070 H     1 <1>   0.0800 
 31 H        3.2930    -7.7650    -1.0030 H     1 <1>   0.0800 
 32 H        3.9940    -4.7560     1.7790 H     1 <1>   0.0800 
 33 H        5.3480    -5.1800     0.7760 H     1 <1>   0.0800 
 34 H        6.1410    -7.3920    -0.1370 H     1 <1>   0.0800 
 35 H        5.2890    -8.8540    -0.5140 H     1 <1>   0.0800 
 36 H        5.4040    -5.7670    -1.8500 H     1 <1>   0.0800 
 37 H        3.7970    -5.8820    -2.5090 H     1 <1>   0.0800 
 38 H        3.9740    -6.7830     2.9040 H     1 <1>   0.0800 
 39 H        5.6650    -6.4990     2.6670 H     1 <1>   0.0800 
 40 H        5.6170    -8.6830     1.9220 H     1 <1>   0.0800 
 41 H        3.9250    -8.6010     1.5220 H     1 <1>   0.0800 
 42 H        5.9400    -8.0130    -2.7490 H     1 <1>   0.0800 
 43 H        5.3470    -6.9760    -4.0190 H     1 <1>   0.0800 
 44 H        4.2930    -8.1800    -3.3220 H     1 <1>   0.0800 
@<TRIPOS>BOND
  1   1   2  1   
  2   1   3  1   
  3   2   4  1   
  4   2   5  2   
  5   3   6  2   
  6   3  24  1   
  7   4   7  2   
  8   4   8  am  
  9   5   6  1   
 10   5   9  1   
 11   6  25  1   
 12   8  10  am  
 13   8  11  1   
 14   9  10  am  
 15   9  12  1   
 16  10  13  2   
 17  11  26  1   
 18  11  27  1   
 19  11  28  1   
 20  12  14  1   
 21  12  29  1   
 22  12  30  1   
 23  14  15  2   
 24  14  16  am  
 25  16  17  1   
 26  16  18  1   
 27  17  19  1   
 28  17  20  1   
 29  17  31  1   
 30  18  21  1   
 31  18  32  1   
 32  18  33  1   
 33  19  22  1   
 34  19  34  1   
 35  19  35  1   
 36  20  23  1   
 37  20  36  1   
 38  20  37  1   
 39  21  22  1   
 40  21  38  1   
 41  21  39  1   
 42  22  40  1   
 43  22  41  1   
 44  23  42  1   
 45  23  43  1   
 46  23  44  1   
@<TRIPOS>SUBSTRUCTURE
  1 ****   9 GROUP 4 **** **** 0

# MOE 2024.06 (io_trps.svl 2023.06)
