@<TRIPOS>MOLECULE
4-(3-Methyl-benzoylamino)-piperidine-1-carboxylic acid phenylamide
48 50 1 0 0 
SMALL
USER_CHARGES


@<TRIPOS>ATOM
  1 O        0.5080     0.2230    -0.6320 O.2   1 <1>  -0.5700 
  2 C        1.0380     1.3060    -0.4720 C.2   1 <1>   0.6900 
  3 N        2.2820     1.5510    -1.0010 N.am  1 <1>  -0.6600 
  4 N        0.4310     2.2870     0.2600 N.am  1 <1>  -0.5470 
  5 C        2.8340     2.9090    -1.2650 C.3   1 <1>   0.1400 
  6 C        3.1220     0.4390    -1.5280 C.3   1 <1>   0.1400 
  7 C       -0.8570     2.3820     0.8040 C.ar  1 <1>   0.1170 
  8 C        4.2210     3.0190    -0.6310 C.3   1 <1>  -0.1600 
  9 C        4.5220     0.5270    -0.9150 C.3   1 <1>  -0.1600 
 10 C       -1.0700     3.2390     1.8780 C.ar  1 <1>  -0.1500 
 11 C       -1.9440     1.6710     0.3030 C.ar  1 <1>  -0.1500 
 12 C        5.1340     1.9080    -1.1520 C.3   1 <1>   0.2200 
 13 C       -2.3270     3.3810     2.4390 C.ar  1 <1>  -0.1500 
 14 C       -3.2020     1.8080     0.8610 C.ar  1 <1>  -0.1500 
 15 N        6.4300     1.9870    -0.4610 N.am  1 <1>  -0.7300 
 16 C       -3.3960     2.6640     1.9310 C.ar  1 <1>  -0.1500 
 17 C        7.5380     2.6260    -0.9430 C.2   1 <1>   0.5440 
 18 O        7.4490     3.2160    -2.0030 O.2   1 <1>  -0.5700 
 19 C        8.7820     2.6210    -0.1920 C.ar  1 <1>   0.0860 
 20 C        9.1190     1.5750     0.6720 C.ar  1 <1>  -0.1500 
 21 C        9.6910     3.6720    -0.3080 C.ar  1 <1>  -0.1500 
 22 C       10.2970     1.5820     1.4000 C.ar  1 <1>  -0.1440 
 23 C       10.8710     3.6880     0.4120 C.ar  1 <1>  -0.1500 
 24 C       11.1730     2.6450     1.2680 C.ar  1 <1>  -0.1500 
 25 C       10.6420     0.4350     2.3340 C.3   1 <1>  -0.0970 
 26 H        1.0760     3.0140     0.5400 H     1 <1>   0.3700 
 27 H        2.1900     3.6790    -0.8800 H     1 <1>   0.0800 
 28 H        2.9120     3.0500    -2.3310 H     1 <1>   0.0800 
 29 H        3.1780     0.5190    -2.6000 H     1 <1>   0.0800 
 30 H        2.6860    -0.5160    -1.2860 H     1 <1>   0.0800 
 31 H        4.1270     2.9540     0.4380 H     1 <1>   0.0800 
 32 H        4.6480     3.9740    -0.8820 H     1 <1>   0.0800 
 33 H        5.1470    -0.2250    -1.3620 H     1 <1>   0.0800 
 34 H        4.4450     0.3280     0.1390 H     1 <1>   0.0800 
 35 H       -0.2480     3.7990     2.2830 H     1 <1>   0.1500 
 36 H       -1.8090     1.0050    -0.5310 H     1 <1>   0.1500 
 37 H        5.2850     2.0460    -2.2110 H     1 <1>   0.0800 
 38 H       -2.4750     4.0470     3.2710 H     1 <1>   0.1500 
 39 H       -4.0290     1.2480     0.4610 H     1 <1>   0.1500 
 40 H        6.4440     1.6210     0.4900 H     1 <1>   0.3700 
 41 H       -4.3740     2.7710     2.3650 H     1 <1>   0.1500 
 42 H        8.4500     0.7400     0.7660 H     1 <1>   0.1500 
 43 H        9.4640     4.4850    -0.9750 H     1 <1>   0.1500 
 44 H       11.5560     4.5120     0.3060 H     1 <1>   0.1500 
 45 H       12.0930     2.6620     1.8260 H     1 <1>   0.1500 
 46 H        9.7940    -0.2070     2.4870 H     1 <1>   0.0800 
 47 H       10.9540     0.8190     3.2890 H     1 <1>   0.0800 
 48 H       11.4430    -0.1460     1.9160 H     1 <1>   0.0800 
@<TRIPOS>BOND
  1   1   2  2   
  2   2   3  am  
  3   2   4  am  
  4   3   5  1   
  5   3   6  1   
  6   4   7  1   
  7   4  26  1   
  8   5   8  1   
  9   5  27  1   
 10   5  28  1   
 11   6   9  1   
 12   6  29  1   
 13   6  30  1   
 14   7  10  ar  
 15   7  11  ar  
 16   8  12  1   
 17   8  31  1   
 18   8  32  1   
 19   9  12  1   
 20   9  33  1   
 21   9  34  1   
 22  10  13  ar  
 23  10  35  1   
 24  11  14  ar  
 25  11  36  1   
 26  12  15  1   
 27  12  37  1   
 28  13  16  ar  
 29  13  38  1   
 30  14  16  ar  
 31  14  39  1   
 32  15  17  am  
 33  15  40  1   
 34  16  41  1   
 35  17  18  2   
 36  17  19  1   
 37  19  20  ar  
 38  19  21  ar  
 39  20  22  ar  
 40  20  42  1   
 41  21  23  ar  
 42  21  43  1   
 43  22  24  ar  
 44  22  25  1   
 45  23  24  ar  
 46  23  44  1   
 47  24  45  1   
 48  25  46  1   
 49  25  47  1   
 50  25  48  1   
@<TRIPOS>SUBSTRUCTURE
  1 ****   8 GROUP 4 **** **** 0

# MOE 2024.06 (io_trps.svl 2023.06)
