@<TRIPOS>MOLECULE
NONAME
54 57 1 0 0 
SMALL
USER_CHARGES


@<TRIPOS>ATOM
  1 N       -0.8260    -4.5620    -2.8960 N.2   1 <1>   0.0000 
  2 N       -0.0110    -3.6410    -2.5370 N.2   1 <1>  -0.4180 
  3 N       -1.6830    -4.8290    -1.9240 N.2   1 <1>  -0.3380 
  4 N       -0.3380    -3.2980    -1.3080 N.pl3 1 <1>   0.3140 
  5 C       -1.3710    -4.0520    -0.9510 C.2   1 <1>   0.0060 
  6 C        0.3890    -2.2340    -0.5770 C.3   1 <1>   0.2390 
  7 C       -2.0550    -3.9520     0.4210 C.3   1 <1>   0.5140 
  8 C        0.9030    -2.7440     0.7620 C.ar  1 <1>  -0.1440 
  9 N       -3.0460    -5.0260     0.7020 N.3   1 <1>  -0.8100 
 10 C       -2.7110    -2.5860     0.6370 C.ar  1 <1>  -0.1440 
 11 C        0.5310    -2.1100     1.9380 C.ar  1 <1>  -0.1500 
 12 C        1.7340    -3.8530     0.8170 C.ar  1 <1>  -0.1500 
 13 C       -2.5000    -6.3720     1.0030 C.3   1 <1>   0.1100 
 14 C       -4.3140    -4.9950    -0.0740 C.3   1 <1>   0.1100 
 15 C       -3.1540    -1.7900    -0.4150 C.ar  1 <1>  -0.1500 
 16 C       -2.8620    -2.1170     1.9340 C.ar  1 <1>  -0.1500 
 17 C        0.9710    -2.5920     3.1580 C.ar  1 <1>  -0.1500 
 18 C        2.1750    -4.3330     2.0380 C.ar  1 <1>  -0.1500 
 19 C       -2.4720    -7.3510    -0.1980 C.3   1 <1>   0.3430 
 20 C       -4.6890    -6.3520    -0.7090 C.3   1 <1>   0.3430 
 21 C       -3.7180    -0.5510    -0.1700 C.ar  1 <1>  -0.1500 
 22 C       -3.4260    -0.8780     2.1780 C.ar  1 <1>  -0.1500 
 23 C        1.7920    -3.7040     3.2090 C.ar  1 <1>  -0.1500 
 24 N       -3.4690    -7.0120    -1.2690 N.4   1 <1>  -0.9590 
 25 C       -3.8560    -0.0870     1.1260 C.ar  1 <1>  -0.1430 
 26 C       -3.7660    -8.1590    -2.1710 C.3   1 <1>   0.2630 
 27 C       -4.4740     1.2740     1.3920 C.3   1 <1>  -0.0970 
 28 H       -0.2740    -1.3990    -0.4390 H     1 <1>   0.0800 
 29 H        1.2190    -1.9080    -1.1790 H     1 <1>   0.0800 
 30 H       -1.2850    -4.0500     1.1660 H     1 <1>   0.0800 
 31 H       -0.1050    -1.2400     1.9180 H     1 <1>   0.1500 
 32 H        2.0460    -4.3510    -0.0860 H     1 <1>   0.1500 
 33 H       -3.1200    -6.8100     1.7660 H     1 <1>   0.0800 
 34 H       -1.5110    -6.2910     1.4250 H     1 <1>   0.0800 
 35 H       -4.2430    -4.2670    -0.8620 H     1 <1>   0.0800 
 36 H       -5.1110    -4.6760     0.5760 H     1 <1>   0.0800 
 37 H       -3.0720    -2.1200    -1.4370 H     1 <1>   0.1500 
 38 H       -2.5410    -2.7190     2.7670 H     1 <1>   0.1500 
 39 H        0.6790    -2.0980     4.0700 H     1 <1>   0.1500 
 40 H        2.8220    -5.1930     2.0780 H     1 <1>   0.1500 
 41 H       -2.6520    -8.3460     0.1720 H     1 <1>   0.0800 
 42 H       -1.4840    -7.3400    -0.6270 H     1 <1>   0.0800 
 43 H       -5.4170    -6.1860    -1.4870 H     1 <1>   0.0800 
 44 H       -5.1360    -6.9840     0.0400 H     1 <1>   0.0800 
 45 H       -4.0520     0.0540    -0.9950 H     1 <1>   0.1500 
 46 H       -3.5320    -0.5330     3.1910 H     1 <1>   0.1500 
 47 H        2.1360    -4.0770     4.1590 H     1 <1>   0.1500 
 48 H       -2.9940    -6.2660    -1.8170 H     1 <1>   0.4500 
 49 H       -4.2510    -8.9500    -1.6240 H     1 <1>   0.0800 
 50 H       -2.8530    -8.5400    -2.6000 H     1 <1>   0.0800 
 51 H       -4.4140    -7.8430    -2.9730 H     1 <1>   0.0800 
 52 H       -3.7100     2.0310     1.3750 H     1 <1>   0.0800 
 53 H       -4.9540     1.2890     2.3540 H     1 <1>   0.0800 
 54 H       -5.2100     1.5060     0.6440 H     1 <1>   0.0800 
@<TRIPOS>BOND
  1   1   2  2   
  2   1   3  1   
  3   2   4  1   
  4   3   5  2   
  5   4   5  1   
  6   4   6  1   
  7   5   7  1   
  8   6   8  1   
  9   6  28  1   
 10   6  29  1   
 11   7   9  1   
 12   7  10  1   
 13   7  30  1   
 14   8  11  ar  
 15   8  12  ar  
 16   9  13  1   
 17   9  14  1   
 18  10  15  ar  
 19  10  16  ar  
 20  11  17  ar  
 21  11  31  1   
 22  12  18  ar  
 23  12  32  1   
 24  13  19  1   
 25  13  33  1   
 26  13  34  1   
 27  14  20  1   
 28  14  35  1   
 29  14  36  1   
 30  15  21  ar  
 31  15  37  1   
 32  16  22  ar  
 33  16  38  1   
 34  17  23  ar  
 35  17  39  1   
 36  18  23  ar  
 37  18  40  1   
 38  19  24  1   
 39  19  41  1   
 40  19  42  1   
 41  20  24  1   
 42  20  43  1   
 43  20  44  1   
 44  21  25  ar  
 45  21  45  1   
 46  22  25  ar  
 47  22  46  1   
 48  23  47  1   
 49  24  26  1   
 50  24  48  1   
 51  25  27  1   
 52  26  49  1   
 53  26  50  1   
 54  26  51  1   
 55  27  52  1   
 56  27  53  1   
 57  27  54  1   
@<TRIPOS>SUBSTRUCTURE
  1 ****   7 GROUP 4 **** **** 0

# MOE 2024.06 (io_trps.svl 2023.06)
