@<TRIPOS>MOLECULE
2-Benzoylamino-propionic acid ethyl ester
31 31 1 0 0 
SMALL
USER_CHARGES


@<TRIPOS>ATOM
  1 O       -2.5620     1.8720    -2.0160 O.2   1 <1>  -0.5700 
  2 C       -2.3160     1.2860    -0.9810 C.2   1 <1>   0.5440 
  3 N       -1.1480     1.5730    -0.3370 N.am  1 <1>  -0.7300 
  4 C       -3.2330     0.2920    -0.4470 C.ar  1 <1>   0.0860 
  5 C       -0.0970     2.5100    -0.8330 C.3   1 <1>   0.2810 
  6 C       -4.0940    -0.4120    -1.2910 C.ar  1 <1>  -0.1500 
  7 C       -3.2950    -0.0020     0.9170 C.ar  1 <1>  -0.1500 
  8 C        1.3120     1.8910    -0.7900 C.2   1 <1>   0.6590 
  9 C       -0.1830     3.7800     0.0170 C.3   1 <1>  -0.2400 
 10 C       -4.9640    -1.3700    -0.8040 C.ar  1 <1>  -0.1500 
 11 C       -4.1620    -0.9600     1.4110 C.ar  1 <1>  -0.1500 
 12 O        2.1420     2.1230    -1.6330 O.2   1 <1>  -0.5700 
 13 O        1.5690     1.0910     0.2440 O.3   1 <1>  -0.4300 
 14 C       -4.9980    -1.6480     0.5510 C.ar  1 <1>  -0.1500 
 15 C        2.8220     0.4650     0.3930 C.3   1 <1>   0.1200 
 16 C        2.7780    -0.3840     1.6590 C.3   1 <1>  -0.2400 
 17 H       -0.8470     0.9890     0.4450 H     1 <1>   0.3700 
 18 H       -0.3020     2.7680    -1.8580 H     1 <1>   0.0800 
 19 H       -4.0750    -0.1990    -2.3460 H     1 <1>   0.1500 
 20 H       -2.6640     0.5300     1.6050 H     1 <1>   0.1500 
 21 H        0.0240     3.5600     1.0480 H     1 <1>   0.0800 
 22 H       -1.1630     4.2130    -0.0710 H     1 <1>   0.0800 
 23 H        0.5370     4.4980    -0.3330 H     1 <1>   0.0800 
 24 H       -5.6150    -1.8990    -1.4780 H     1 <1>   0.1500 
 25 H       -4.1910    -1.1710     2.4670 H     1 <1>   0.1500 
 26 H       -5.6740    -2.3940     0.9320 H     1 <1>   0.1500 
 27 H        3.5790     1.2280     0.4630 H     1 <1>   0.0800 
 28 H        3.0040    -0.1450    -0.4770 H     1 <1>   0.0800 
 29 H        2.5850     0.2360     2.5160 H     1 <1>   0.0800 
 30 H        3.7250    -0.8740     1.7980 H     1 <1>   0.0800 
 31 H        2.0140    -1.1360     1.5760 H     1 <1>   0.0800 
@<TRIPOS>BOND
  1   1   2  2   
  2   2   3  am  
  3   2   4  1   
  4   3   5  1   
  5   3  17  1   
  6   4   6  ar  
  7   4   7  ar  
  8   5   8  1   
  9   5   9  1   
 10   5  18  1   
 11   6  10  ar  
 12   6  19  1   
 13   7  11  ar  
 14   7  20  1   
 15   8  12  2   
 16   8  13  1   
 17   9  21  1   
 18   9  22  1   
 19   9  23  1   
 20  10  14  ar  
 21  10  24  1   
 22  11  14  ar  
 23  11  25  1   
 24  13  15  1   
 25  14  26  1   
 26  15  16  1   
 27  15  27  1   
 28  15  28  1   
 29  16  29  1   
 30  16  30  1   
 31  16  31  1   
@<TRIPOS>SUBSTRUCTURE
  1 ****   3 GROUP 4 **** **** 0

# MOE 2024.06 (io_trps.svl 2023.06)
