@<TRIPOS>MOLECULE
NONAME
31 33 1 0 0 
SMALL
USER_CHARGES


@<TRIPOS>ATOM
  1 O       -0.0550    -0.4900    -1.2100 O.2   1 <1>  -0.5700 
  2 C       -0.2030    -1.5730    -0.7100 C.2   1 <1>   0.4950 
  3 C       -1.5040    -2.1450    -0.4730 C.2   1 <1>   0.0290 
  4 C        1.0530    -2.3340    -0.3210 C.3   1 <1>  -0.0990 
  5 C       -1.6310    -3.4320     0.1550 C.2   1 <1>   0.3750 
  6 C       -2.6570    -1.4980    -0.8340 C.2   1 <1>  -0.1810 
  7 C        0.8280    -3.8520    -0.2980 C.3   1 <1>  -0.0800 
  8 N       -2.7630    -4.0080     0.3890 N.2   1 <1>  -0.5760 
  9 C       -0.3800    -4.1810     0.5870 C.3   1 <1>  -0.0990 
 10 N       -3.8560    -2.1060    -0.5850 N.pl3 1 <1>   0.6010 
 11 C        2.0830    -4.5800     0.1990 C.3   1 <1>  -0.2400 
 12 C       -3.8950    -3.3310     0.0100 C.2   1 <1>   0.3120 
 13 N       -5.0950    -1.7090    -0.8340 N.2   1 <1>  -0.7070 
 14 N       -5.1160    -3.7280     0.1500 N.2   1 <1>  -0.5650 
 15 C       -5.7900    -2.7030    -0.3770 C.2   1 <1>   0.3350 
 16 C       -7.3070    -2.7270    -0.4280 C.3   1 <1>   0.0210 
 17 C       -7.9270    -2.3860     0.9340 C.3   1 <1>  -0.2400 
 18 H        1.3680    -1.9890     0.6470 H     1 <1>   0.0800 
 19 H        1.8310    -2.0970    -1.0250 H     1 <1>   0.0800 
 20 H       -2.6890    -0.5340    -1.3070 H     1 <1>   0.1500 
 21 H        0.6190    -4.1850    -1.3020 H     1 <1>   0.0800 
 22 H       -0.5730    -5.2390     0.5490 H     1 <1>   0.0800 
 23 H       -0.1690    -3.9260     1.6110 H     1 <1>   0.0800 
 24 H        2.3310    -4.2800     1.2020 H     1 <1>   0.0800 
 25 H        2.9210    -4.3600    -0.4400 H     1 <1>   0.0800 
 26 H        1.9260    -5.6450     0.1890 H     1 <1>   0.0800 
 27 H       -7.6260    -3.7060    -0.7370 H     1 <1>   0.0800 
 28 H       -7.6420    -2.0180    -1.1630 H     1 <1>   0.0800 
 29 H       -7.6050    -3.0990     1.6730 H     1 <1>   0.0800 
 30 H       -9.0000    -2.4100     0.8710 H     1 <1>   0.0800 
 31 H       -7.6160    -1.4040     1.2430 H     1 <1>   0.0800 
@<TRIPOS>BOND
  1   1   2  2   
  2   2   3  1   
  3   2   4  1   
  4   3   5  1   
  5   3   6  2   
  6   4   7  1   
  7   4  18  1   
  8   4  19  1   
  9   5   8  2   
 10   5   9  1   
 11   6  10  1   
 12   6  20  1   
 13   7   9  1   
 14   7  11  1   
 15   7  21  1   
 16   8  12  1   
 17   9  22  1   
 18   9  23  1   
 19  10  12  1   
 20  10  13  1   
 21  11  24  1   
 22  11  25  1   
 23  11  26  1   
 24  12  14  2   
 25  13  15  2   
 26  14  15  1   
 27  15  16  1   
 28  16  17  1   
 29  16  27  1   
 30  16  28  1   
 31  17  29  1   
 32  17  30  1   
 33  17  31  1   
@<TRIPOS>SUBSTRUCTURE
  1 ****   5 GROUP 4 **** **** 0

# MOE 2024.06 (io_trps.svl 2023.06)
