@<TRIPOS>MOLECULE
2-(2-Ethyl-5,6-dimethyl-thieno[2,3-d]pyrimidin-4-ylsulfanyl)-N-(2-methoxy-phenyl)-acetamide
47 49 1 0 0 
SMALL
USER_CHARGES


@<TRIPOS>ATOM
  1 S       -0.4440    -0.2830    -1.1760 S.3   1 <1>  -0.0800 
  2 C       -0.1120    -1.7560    -0.2780 C.ar  1 <1>   0.2970 
  3 C        1.1970    -0.2350    -1.8150 C.2   1 <1>  -0.1400 
  4 N       -1.0230    -2.3440     0.4660 N.ar  1 <1>  -0.5670 
  5 C        1.1890    -2.1680    -0.4730 C.ar  1 <1>   0.0000 
  6 C        1.9220    -1.2770    -1.3610 C.2   1 <1>  -0.1810 
  7 C        1.4830     0.9390    -2.7340 C.3   1 <1>  -0.0600 
  8 C       -0.5900    -3.4340     1.0630 C.ar  1 <1>   0.4770 
  9 C        1.4820    -3.3350     0.2270 C.ar  1 <1>   0.4120 
 10 C        3.3780    -1.5290    -1.7240 C.3   1 <1>  -0.0590 
 11 N        0.6220    -3.9740     0.9870 N.ar  1 <1>  -0.6200 
 12 C       -1.5890    -4.1640     1.9470 C.3   1 <1>  -0.0160 
 13 S        3.1070    -4.0830     0.1500 S.3   1 <1>  -0.3320 
 14 C       -1.4460    -3.7740     3.4250 C.3   1 <1>  -0.2400 
 15 C        2.9840    -5.5840     1.2480 C.3   1 <1>   0.1310 
 16 C        4.2950    -6.3520     1.3230 C.2   1 <1>   0.5690 
 17 O        4.3040    -7.3770     1.9610 O.2   1 <1>  -0.5700 
 18 N        5.3900    -5.8520     0.6760 N.am  1 <1>  -0.5470 
 19 C        6.7250    -6.2760     0.5340 C.ar  1 <1>   0.1170 
 20 C        7.5880    -5.4860    -0.2350 C.ar  1 <1>   0.0820 
 21 C        7.2220    -7.4360     1.1190 C.ar  1 <1>  -0.1500 
 22 O        7.0650    -4.3530    -0.7950 O.3   1 <1>  -0.3630 
 23 C        8.9170    -5.8650    -0.4040 C.ar  1 <1>  -0.1500 
 24 C        8.5440    -7.8070     0.9480 C.ar  1 <1>  -0.1500 
 25 C        7.8580    -3.4920    -1.5830 C.3   1 <1>   0.0400 
 26 C        9.3910    -7.0230     0.1880 C.ar  1 <1>  -0.1500 
 27 H        0.8180     0.9090    -3.5780 H     1 <1>   0.0800 
 28 H        2.4940     0.9210    -3.0950 H     1 <1>   0.0800 
 29 H        1.3260     1.8610    -2.2040 H     1 <1>   0.0800 
 30 H        3.7550    -0.7750    -2.3870 H     1 <1>   0.0800 
 31 H        3.4760    -2.4800    -2.2150 H     1 <1>   0.0800 
 32 H        3.9860    -1.5240    -0.8370 H     1 <1>   0.0800 
 33 H       -1.4410    -5.2240     1.8380 H     1 <1>   0.0800 
 34 H       -2.5860    -3.9380     1.6130 H     1 <1>   0.0800 
 35 H       -0.4590    -4.0140     3.7780 H     1 <1>   0.0800 
 36 H       -2.1670    -4.3050     4.0210 H     1 <1>   0.0800 
 37 H       -1.6080    -2.7170     3.5450 H     1 <1>   0.0800 
 38 H        2.2110    -6.2110     0.8450 H     1 <1>   0.0800 
 39 H        2.7010    -5.2420     2.2260 H     1 <1>   0.0800 
 40 H        5.2190    -4.9780     0.1700 H     1 <1>   0.3700 
 41 H        6.5830    -8.0600     1.7140 H     1 <1>   0.1500 
 42 H        9.6000    -5.2790    -0.9880 H     1 <1>   0.1500 
 43 H        8.9100    -8.7080     1.4090 H     1 <1>   0.1500 
 44 H        7.2410    -2.6750    -1.9120 H     1 <1>   0.0800 
 45 H        8.2250    -4.0370    -2.4350 H     1 <1>   0.0800 
 46 H        8.6690    -3.1180    -0.9840 H     1 <1>   0.0800 
 47 H       10.4190    -7.3150     0.0560 H     1 <1>   0.1500 
@<TRIPOS>BOND
  1   1   2  1   
  2   1   3  1   
  3   2   4  ar  
  4   2   5  ar  
  5   3   6  2   
  6   3   7  1   
  7   4   8  ar  
  8   5   6  1   
  9   5   9  ar  
 10   6  10  1   
 11   7  27  1   
 12   7  28  1   
 13   7  29  1   
 14   8  11  ar  
 15   8  12  1   
 16   9  11  ar  
 17   9  13  1   
 18  10  30  1   
 19  10  31  1   
 20  10  32  1   
 21  12  14  1   
 22  12  33  1   
 23  12  34  1   
 24  13  15  1   
 25  14  35  1   
 26  14  36  1   
 27  14  37  1   
 28  15  16  1   
 29  15  38  1   
 30  15  39  1   
 31  16  17  2   
 32  16  18  am  
 33  18  19  1   
 34  18  40  1   
 35  19  20  ar  
 36  19  21  ar  
 37  20  22  1   
 38  20  23  ar  
 39  21  24  ar  
 40  21  41  1   
 41  22  25  1   
 42  23  26  ar  
 43  23  42  1   
 44  24  26  ar  
 45  24  43  1   
 46  25  44  1   
 47  25  45  1   
 48  25  46  1   
 49  26  47  1   
@<TRIPOS>SUBSTRUCTURE
  1 ****  13 GROUP 4 **** **** 0

# MOE 2024.06 (io_trps.svl 2023.06)
