@<TRIPOS>MOLECULE
NONAME
56 58 1 0 0 
SMALL
USER_CHARGES


@<TRIPOS>ATOM
  1 S        0.0780     1.4720     0.0480 S.3   1 <1>   0.1810 
  2 N        1.1020     1.1930    -1.2710 N.2   1 <1>  -0.2210 
  3 C        1.3980     1.6610     1.1310 C.2   1 <1>  -0.1100 
  4 N        2.3090     1.2430    -0.9190 N.2   1 <1>  -0.2270 
  5 C        2.5340     1.5010     0.4330 C.2   1 <1>   0.1410 
  6 C        3.8820     1.5870     0.9740 C.2   1 <1>   0.7160 
  7 O        4.0390     1.8790     2.1470 O.2   1 <1>  -0.5700 
  8 N        4.9990     1.3190     0.2280 N.am  1 <1>  -0.6600 
  9 C        6.2420     2.1390     0.4510 C.3   1 <1>   0.4250 
 10 C        5.1500    -0.0120    -0.4190 C.3   1 <1>   0.2840 
 11 C        5.8690     3.6270     0.4460 C.ar  1 <1>  -0.1440 
 12 C        7.4210     1.8950    -0.5270 C.2   1 <1>   0.5690 
 13 C        6.1430    -0.8720     0.3540 C.ar  1 <1>  -0.1440 
 14 C        6.0060     4.3860     1.6040 C.ar  1 <1>  -0.1500 
 15 C        5.3810     4.2250    -0.7130 C.ar  1 <1>  -0.1500 
 16 O        7.2180     1.8740    -1.7220 O.2   1 <1>  -0.5700 
 17 N        8.6770     1.7270    -0.0100 N.am  1 <1>  -0.7300 
 18 C        7.2190    -1.4480    -0.3040 C.ar  1 <1>  -0.1500 
 19 C        5.9870    -1.0940     1.7160 C.ar  1 <1>  -0.1500 
 20 C        5.6680     5.7290     1.6070 C.ar  1 <1>  -0.1500 
 21 C        5.0400     5.5670    -0.7220 C.ar  1 <1>  -0.1500 
 22 C        9.9700     1.6980    -0.7090 C.3   1 <1>   0.3000 
 23 C        8.1260    -2.2320     0.3860 C.ar  1 <1>  -0.1500 
 24 C        6.8960    -1.8740     2.4080 C.ar  1 <1>  -0.1500 
 25 C        5.1910     6.2950     0.4410 C.ar  1 <1>   0.1900 
 26 C       10.1590     3.0340    -1.4630 C.3   1 <1>  -0.1600 
 27 C       11.0200     1.5250     0.3900 C.3   1 <1>  -0.2400 
 28 C       10.0190     0.4860    -1.6420 C.3   1 <1>  -0.2400 
 29 C        7.9670    -2.4440     1.7440 C.ar  1 <1>  -0.1500 
 30 F        4.8710     7.5610     0.4400 F     1 <1>  -0.1900 
 31 C       11.5260     3.2370    -2.1410 C.3   1 <1>  -0.2400 
 32 H        1.2050     1.8720     2.1670 H     1 <1>   0.1500 
 33 H        6.6020     1.8880     1.4330 H     1 <1>   0.0800 
 34 H        5.4660     0.1170    -1.4400 H     1 <1>   0.0800 
 35 H        4.2050    -0.5250    -0.4400 H     1 <1>   0.0800 
 36 H        6.3670     3.9340     2.5120 H     1 <1>   0.1500 
 37 H        5.2660     3.6430    -1.6130 H     1 <1>   0.1500 
 38 H        8.7840     1.6380     0.9990 H     1 <1>   0.3700 
 39 H        7.3570    -1.2850    -1.3600 H     1 <1>   0.1500 
 40 H        5.1580    -0.6590     2.2480 H     1 <1>   0.1500 
 41 H        5.7680     6.3280     2.4950 H     1 <1>   0.1500 
 42 H        4.6630     6.0380    -1.6120 H     1 <1>   0.1500 
 43 H        8.9570    -2.6770    -0.1330 H     1 <1>   0.1500 
 44 H        6.7680    -2.0400     3.4640 H     1 <1>   0.1500 
 45 H       10.0030     3.8460    -0.7740 H     1 <1>   0.0800 
 46 H        9.4040     3.1120    -2.2260 H     1 <1>   0.0800 
 47 H       11.0360     2.3840     1.0370 H     1 <1>   0.0800 
 48 H       11.9990     1.4120    -0.0400 H     1 <1>   0.0800 
 49 H       10.8170     0.6440     0.9720 H     1 <1>   0.0800 
 50 H        9.3100     0.5920    -2.4420 H     1 <1>   0.0800 
 51 H        9.8040    -0.4130    -1.0970 H     1 <1>   0.0800 
 52 H       10.9950     0.3850    -2.0770 H     1 <1>   0.0800 
 53 H        8.6730    -3.0540     2.2810 H     1 <1>   0.1500 
 54 H       12.3210     3.2510    -1.4190 H     1 <1>   0.0800 
 55 H       11.5320     4.1800    -2.6600 H     1 <1>   0.0800 
 56 H       11.7170     2.4620    -2.8610 H     1 <1>   0.0800 
@<TRIPOS>BOND
  1   1   2  1   
  2   1   3  1   
  3   2   4  2   
  4   3   5  2   
  5   3  32  1   
  6   4   5  1   
  7   5   6  1   
  8   6   7  2   
  9   6   8  am  
 10   8   9  1   
 11   8  10  1   
 12   9  11  1   
 13   9  12  1   
 14   9  33  1   
 15  10  13  1   
 16  10  34  1   
 17  10  35  1   
 18  11  14  ar  
 19  11  15  ar  
 20  12  16  2   
 21  12  17  am  
 22  13  18  ar  
 23  13  19  ar  
 24  14  20  ar  
 25  14  36  1   
 26  15  21  ar  
 27  15  37  1   
 28  17  22  1   
 29  17  38  1   
 30  18  23  ar  
 31  18  39  1   
 32  19  24  ar  
 33  19  40  1   
 34  20  25  ar  
 35  20  41  1   
 36  21  25  ar  
 37  21  42  1   
 38  22  26  1   
 39  22  27  1   
 40  22  28  1   
 41  23  29  ar  
 42  23  43  1   
 43  24  29  ar  
 44  24  44  1   
 45  25  30  1   
 46  26  31  1   
 47  26  45  1   
 48  26  46  1   
 49  27  47  1   
 50  27  48  1   
 51  27  49  1   
 52  28  50  1   
 53  28  51  1   
 54  28  52  1   
 55  29  53  1   
 56  31  54  1   
 57  31  55  1   
 58  31  56  1   
@<TRIPOS>SUBSTRUCTURE
  1 ****   9 GROUP 4 **** **** 0

# MOE 2024.06 (io_trps.svl 2023.06)
