@<TRIPOS>MOLECULE
ka-03071
21 21 1 0 0 
SMALL
USER_CHARGES


@<TRIPOS>ATOM
  1 O       -0.1950    -0.2850    -0.7960 O.3   1 <1>  -0.6800 
  2 C       -0.0700    -1.4830    -0.1050 C.3   1 <1>   0.2640 
  3 C       -1.3990    -2.2370    -0.0700 C.ar  1 <1>  -0.1430 
  4 C       -1.4450    -3.6300    -0.0140 C.ar  1 <1>   0.1670 
  5 C       -2.5960    -1.5440    -0.0780 C.ar  1 <1>  -0.1500 
  6 N       -2.5610    -4.3390     0.0230 N.ar  1 <1>  -0.6200 
  7 C       -0.1760    -4.4640     0.0140 C.3   1 <1>  -0.0970 
  8 C       -3.7610    -2.2770    -0.0400 C.ar  1 <1>  -0.1500 
  9 C       -3.6920    -3.6580     0.0080 C.ar  1 <1>   0.1670 
 10 C       -4.9590    -4.4840     0.0470 C.3   1 <1>  -0.0970 
 11 H        0.6610     0.1800    -0.8350 H     1 <1>   0.4000 
 12 H        0.2500    -1.2590     0.8980 H     1 <1>   0.0800 
 13 H        0.6890    -2.0600    -0.6030 H     1 <1>   0.0800 
 14 H       -2.6250    -0.4690    -0.1170 H     1 <1>   0.1500 
 15 H        0.5160    -4.0780     0.7380 H     1 <1>   0.0800 
 16 H        0.2770    -4.4640    -0.9600 H     1 <1>   0.0800 
 17 H       -0.4050    -5.4810     0.2810 H     1 <1>   0.0800 
 18 H       -4.7100    -1.7760    -0.0490 H     1 <1>   0.1500 
 19 H       -4.9700    -5.0780     0.9430 H     1 <1>   0.0800 
 20 H       -4.9840    -5.1400    -0.8040 H     1 <1>   0.0800 
 21 H       -5.8310    -3.8580     0.0320 H     1 <1>   0.0800 
@<TRIPOS>BOND
  1   1   2  1   
  2   1  11  1   
  3   2   3  1   
  4   2  12  1   
  5   2  13  1   
  6   3   4  ar  
  7   3   5  ar  
  8   4   6  ar  
  9   4   7  1   
 10   5   8  ar  
 11   5  14  1   
 12   6   9  ar  
 13   7  15  1   
 14   7  16  1   
 15   7  17  1   
 16   8   9  ar  
 17   8  18  1   
 18   9  10  1   
 19  10  19  1   
 20  10  20  1   
 21  10  21  1   
@<TRIPOS>SUBSTRUCTURE
  1 ****   3 GROUP 4 **** **** 0

# MOE 2024.06 (io_trps.svl 2023.06)
