@<TRIPOS>MOLECULE
[6-(3,4-Dimethoxy-phenyl)-pyridazin-3-yl]-(2-morpholin-4-yl-ethyl)-amine
50 52 1 0 0 
SMALL
USER_CHARGES


@<TRIPOS>ATOM
  1 O       -3.0060     0.4320     0.8310 O.3   1 <1>  -0.5600 
  2 C       -4.3810     0.2190     1.0210 C.3   1 <1>   0.1200 
  3 C       -2.5850     0.2990    -0.5000 C.3   1 <1>   0.1200 
  4 C       -4.8120    -1.1690     0.4980 C.3   1 <1>   0.3430 
  5 C       -2.9150    -1.1080    -1.0550 C.3   1 <1>   0.3430 
  6 N       -3.6380    -1.9460    -0.0420 N.4   1 <1>  -0.9590 
  7 C       -4.0260    -3.2910    -0.5930 C.3   1 <1>   0.3430 
  8 C       -4.5290    -4.2880     0.4760 C.3   1 <1>   0.2090 
  9 N       -5.7520    -4.9970     0.0050 N.pl3 1 <1>  -0.8690 
 10 C       -6.9950    -4.3960    -0.0260 C.ar  1 <1>   0.4100 
 11 N       -7.0480    -3.0600    -0.0250 N.ar  1 <1>  -0.3100 
 12 C       -8.1430    -5.1640    -0.0580 C.ar  1 <1>  -0.1500 
 13 N       -8.1960    -2.4330    -0.0370 N.ar  1 <1>  -0.3100 
 14 C       -9.3490    -4.5090    -0.0700 C.ar  1 <1>  -0.1500 
 15 C       -9.3460    -3.1230    -0.0520 C.ar  1 <1>   0.3100 
 16 C      -10.5920    -2.3890    -0.0460 C.ar  1 <1>   0.0000 
 17 C      -10.8470    -1.3920    -0.9860 C.ar  1 <1>  -0.1500 
 18 C      -11.5780    -2.6580     0.9000 C.ar  1 <1>  -0.1500 
 19 C      -12.0460    -0.6880    -0.9940 C.ar  1 <1>   0.0820 
 20 C      -12.7750    -1.9670     0.9080 C.ar  1 <1>  -0.1500 
 21 O      -12.3170     0.2880    -1.9090 O.3   1 <1>  -0.3620 
 22 C      -13.0230    -0.9770    -0.0380 C.ar  1 <1>   0.0820 
 23 C      -11.4140     0.6160    -2.9400 C.3   1 <1>   0.0400 
 24 O      -14.1870    -0.2700    -0.0710 O.3   1 <1>  -0.3630 
 25 C      -15.2030    -0.4570     0.8880 C.3   1 <1>   0.0400 
 26 H       -4.9260     1.0000     0.5170 H     1 <1>   0.0800 
 27 H       -4.5830     0.2960     2.0750 H     1 <1>   0.0800 
 28 H       -1.5230     0.4690    -0.5260 H     1 <1>   0.0800 
 29 H       -3.0620     1.0630    -1.0900 H     1 <1>   0.0800 
 30 H       -5.5520    -1.0370    -0.2750 H     1 <1>   0.0800 
 31 H       -5.2880    -1.7130     1.2970 H     1 <1>   0.0800 
 32 H       -1.9980    -1.5920    -1.3490 H     1 <1>   0.0800 
 33 H       -3.5200    -0.9970    -1.9400 H     1 <1>   0.0800 
 34 H       -2.9860    -2.0420     0.7500 H     1 <1>   0.4500 
 35 H       -3.1830    -3.7320    -1.0970 H     1 <1>   0.0800 
 36 H       -4.8110    -3.1560    -1.3200 H     1 <1>   0.0800 
 37 H       -4.7590    -3.7790     1.3960 H     1 <1>   0.0800 
 38 H       -3.7580    -5.0120     0.6760 H     1 <1>   0.0800 
 39 H       -5.7560    -6.0080     0.1830 H     1 <1>   0.4000 
 40 H       -8.0880    -6.2360    -0.0730 H     1 <1>   0.1500 
 41 H      -10.2770    -5.0510    -0.0970 H     1 <1>   0.1500 
 42 H      -10.0830    -1.1840    -1.7090 H     1 <1>   0.1500 
 43 H      -11.4060    -3.4140     1.6450 H     1 <1>   0.1500 
 44 H      -13.5020    -2.2120     1.6580 H     1 <1>   0.1500 
 45 H      -11.8600     1.3910    -3.5380 H     1 <1>   0.0800 
 46 H      -11.2410    -0.2570    -3.5440 H     1 <1>   0.0800 
 47 H      -10.5000     0.9740    -2.5020 H     1 <1>   0.0800 
 48 H      -16.0020     0.2270     0.6630 H     1 <1>   0.0800 
 49 H      -14.8040    -0.2430     1.8640 H     1 <1>   0.0800 
 50 H      -15.5600    -1.4690     0.8260 H     1 <1>   0.0800 
@<TRIPOS>BOND
  1   1   2  1   
  2   1   3  1   
  3   2   4  1   
  4   2  26  1   
  5   2  27  1   
  6   3   5  1   
  7   3  28  1   
  8   3  29  1   
  9   4   6  1   
 10   4  30  1   
 11   4  31  1   
 12   5   6  1   
 13   5  32  1   
 14   5  33  1   
 15   6   7  1   
 16   6  34  1   
 17   7   8  1   
 18   7  35  1   
 19   7  36  1   
 20   8   9  1   
 21   8  37  1   
 22   8  38  1   
 23   9  10  1   
 24   9  39  1   
 25  10  11  ar  
 26  10  12  ar  
 27  11  13  ar  
 28  12  14  ar  
 29  12  40  1   
 30  13  15  ar  
 31  14  15  ar  
 32  14  41  1   
 33  15  16  1   
 34  16  17  ar  
 35  16  18  ar  
 36  17  19  ar  
 37  17  42  1   
 38  18  20  ar  
 39  18  43  1   
 40  19  21  1   
 41  19  22  ar  
 42  20  22  ar  
 43  20  44  1   
 44  21  23  1   
 45  22  24  1   
 46  23  45  1   
 47  23  46  1   
 48  23  47  1   
 49  24  25  1   
 50  25  48  1   
 51  25  49  1   
 52  25  50  1   
@<TRIPOS>SUBSTRUCTURE
  1 ****  13 GROUP 4 **** **** 0

# MOE 2024.06 (io_trps.svl 2023.06)
