@<TRIPOS>MOLECULE
5063
46 48 1 0 0 
SMALL
USER_CHARGES


@<TRIPOS>ATOM
  1 S        3.0870    -0.0990     0.3110 S.3   1 <1>  -0.0800 
  2 C        2.9870     1.1520    -0.9300 C.2   1 <1>   0.1040 
  3 C        1.9490     0.7690     1.3070 C.2   1 <1>  -0.1400 
  4 N        3.8440     0.9610    -1.9990 N.am  1 <1>  -0.4940 
  5 C        2.0700     2.1220    -0.5920 C.2   1 <1>  -0.0860 
  6 C        1.5260     1.8720     0.7170 C.2   1 <1>  -0.1810 
  7 C        1.4120     0.4730     2.6690 C.3   1 <1>   0.0200 
  8 C        4.7090     1.7960    -2.6540 C.2   1 <1>   0.5690 
  9 C        1.6310     3.2310    -1.3930 C.2   1 <1>   0.8060 
 10 C        0.5510     2.5980     1.6110 C.3   1 <1>   0.0210 
 11 C        0.4870     1.6990     2.8800 C.3   1 <1>  -0.1600 
 12 O        5.3550     1.3480    -3.5690 O.2   1 <1>  -0.5700 
 13 C        4.9490     3.2610    -2.2740 C.3   1 <1>   0.1810 
 14 O        1.0270     4.1900    -0.9470 O.2   1 <1>  -0.5700 
 15 O        1.8600     3.1910    -2.7130 O.3   1 <1>  -0.4300 
 16 O        4.8070     3.5350    -0.8880 O.3   1 <1>  -0.3630 
 17 C        1.4000     4.2080    -3.5820 C.3   1 <1>   0.0400 
 18 C        5.5800     2.9220     0.0440 C.ar  1 <1>   0.0820 
 19 C        6.7740     2.2700    -0.2450 C.ar  1 <1>  -0.1500 
 20 C        5.1210     2.9510     1.3480 C.ar  1 <1>  -0.1500 
 21 C        7.4980     1.6460     0.7600 C.ar  1 <1>  -0.1430 
 22 C        5.8400     2.3330     2.3540 C.ar  1 <1>  -0.1500 
 23 C        7.0280     1.6780     2.0700 C.ar  1 <1>  -0.1430 
 24 C        8.7960     0.9370     0.4010 C.3   1 <1>  -0.0970 
 25 C        7.7890     1.0060     3.2040 C.3   1 <1>  -0.0970 
 26 H        4.0210    -0.0130    -2.2460 H     1 <1>   0.3700 
 27 H        2.2080     0.4420     3.3920 H     1 <1>   0.0800 
 28 H        0.8610    -0.4500     2.6690 H     1 <1>   0.0800 
 29 H       -0.4100     2.6740     1.1340 H     1 <1>   0.0800 
 30 H        0.9190     3.5810     1.8450 H     1 <1>   0.0800 
 31 H        0.8140     2.2590     3.7380 H     1 <1>   0.0800 
 32 H       -0.5240     1.3730     3.0470 H     1 <1>   0.0800 
 33 H        4.2530     3.8840    -2.7990 H     1 <1>   0.0800 
 34 H        5.9380     3.5550    -2.5700 H     1 <1>   0.0800 
 35 H        0.3270     4.2580    -3.5220 H     1 <1>   0.0800 
 36 H        1.7030     3.9620    -4.5840 H     1 <1>   0.0800 
 37 H        1.8330     5.1460    -3.2820 H     1 <1>   0.0800 
 38 H        7.1510     2.2410    -1.2490 H     1 <1>   0.1500 
 39 H        4.1960     3.4520     1.5680 H     1 <1>   0.1500 
 40 H        5.4630     2.3650     3.3600 H     1 <1>   0.1500 
 41 H        8.9980     1.0070    -0.6530 H     1 <1>   0.0800 
 42 H        8.7300    -0.1040     0.6610 H     1 <1>   0.0800 
 43 H        9.6180     1.3810     0.9320 H     1 <1>   0.0800 
 44 H        8.7720     1.4310     3.2910 H     1 <1>   0.0800 
 45 H        7.8760    -0.0490     3.0140 H     1 <1>   0.0800 
 46 H        7.2790     1.1380     4.1410 H     1 <1>   0.0800 
@<TRIPOS>BOND
  1   1   2  1   
  2   1   3  1   
  3   2   4  1   
  4   2   5  2   
  5   3   6  2   
  6   3   7  1   
  7   4   8  am  
  8   4  26  1   
  9   5   6  1   
 10   5   9  1   
 11   6  10  1   
 12   7  11  1   
 13   7  27  1   
 14   7  28  1   
 15   8  12  2   
 16   8  13  1   
 17   9  14  2   
 18   9  15  1   
 19  10  11  1   
 20  10  29  1   
 21  10  30  1   
 22  11  31  1   
 23  11  32  1   
 24  13  16  1   
 25  13  33  1   
 26  13  34  1   
 27  15  17  1   
 28  16  18  1   
 29  17  35  1   
 30  17  36  1   
 31  17  37  1   
 32  18  19  ar  
 33  18  20  ar  
 34  19  21  ar  
 35  19  38  1   
 36  20  22  ar  
 37  20  39  1   
 38  21  23  ar  
 39  21  24  1   
 40  22  23  ar  
 41  22  40  1   
 42  23  25  1   
 43  24  41  1   
 44  24  42  1   
 45  24  43  1   
 46  25  44  1   
 47  25  45  1   
 48  25  46  1   
@<TRIPOS>SUBSTRUCTURE
  1 ****   2 GROUP 4 **** **** 0

# MOE 2024.06 (io_trps.svl 2023.06)
