@<TRIPOS>MOLECULE
NONAME
42 44 1 0 0 
SMALL
USER_CHARGES


@<TRIPOS>ATOM
  1 O       -0.6870     2.0760     1.5110 O.2   1 <1>  -0.5700 
  2 C       -0.9170     2.4270     0.3790 C.2   1 <1>   0.5690 
  3 N        0.0430     2.5150    -0.5930 N.am  1 <1>  -0.5470 
  4 C       -2.3440     2.8090    -0.0220 C.3   1 <1>  -0.0190 
  5 C        1.4110     2.2020    -0.5710 C.ar  1 <1>   0.1170 
  6 C       -3.2070     3.2610     1.1730 C.3   1 <1>  -0.1600 
  7 C       -3.0420     1.6450    -0.7480 C.3   1 <1>  -0.1600 
  8 C        1.9740     1.3170     0.3430 C.ar  1 <1>  -0.1500 
  9 C        2.2420     2.7870    -1.5200 C.ar  1 <1>  -0.1500 
 10 C       -4.6290     3.6290     0.7450 C.3   1 <1>   0.2090 
 11 C       -4.4570     2.0250    -1.1860 C.3   1 <1>   0.2090 
 12 C        3.3280     1.0260     0.3210 C.ar  1 <1>  -0.1440 
 13 C        3.5950     2.5000    -1.5520 C.ar  1 <1>  -0.1500 
 14 N       -5.2340     2.4950    -0.0080 N.pl3 1 <1>  -0.8380 
 15 C        4.1370     1.6210    -0.6330 C.ar  1 <1>  -0.1500 
 16 C        3.9230     0.0600     1.3290 C.3   1 <1>  -0.0970 
 17 C       -6.4670     1.9680     0.3220 C.ar  1 <1>   0.7200 
 18 N       -6.7470     0.7450    -0.1300 N.ar  1 <1>  -0.6200 
 19 N       -7.2760     2.7270     1.0600 N.ar  1 <1>  -0.6200 
 20 C       -7.9190     0.2570     0.1930 C.ar  1 <1>   0.1600 
 21 C       -8.4420     2.2140     1.3660 C.ar  1 <1>   0.1600 
 22 C       -8.8200     0.9610     0.9520 C.ar  1 <1>  -0.1500 
 23 H       -0.2810     2.8890    -1.4810 H     1 <1>   0.3700 
 24 H       -2.2770     3.6390    -0.7010 H     1 <1>   0.0800 
 25 H       -2.7500     4.1070     1.6530 H     1 <1>   0.0800 
 26 H       -3.2680     2.4690     1.9000 H     1 <1>   0.0800 
 27 H       -3.1030     0.7920    -0.0930 H     1 <1>   0.0800 
 28 H       -2.4740     1.3530    -1.6130 H     1 <1>   0.0800 
 29 H        1.3480     0.8460     1.0780 H     1 <1>   0.1500 
 30 H        1.8350     3.4750    -2.2370 H     1 <1>   0.1500 
 31 H       -4.6150     4.5010     0.1140 H     1 <1>   0.0800 
 32 H       -5.2040     3.8640     1.6250 H     1 <1>   0.0800 
 33 H       -4.9250     1.1780    -1.6570 H     1 <1>   0.0800 
 34 H       -4.4160     2.8190    -1.9110 H     1 <1>   0.0800 
 35 H        4.2280     2.9610    -2.2900 H     1 <1>   0.1500 
 36 H        5.1900     1.4010    -0.6610 H     1 <1>   0.1500 
 37 H        3.2840    -0.0310     2.1890 H     1 <1>   0.0800 
 38 H        4.8850     0.4120     1.6580 H     1 <1>   0.0800 
 39 H        4.0400    -0.9090     0.8800 H     1 <1>   0.0800 
 40 H       -8.1670    -0.7310    -0.1570 H     1 <1>   0.1500 
 41 H       -9.1130     2.8080     1.9630 H     1 <1>   0.1500 
 42 H       -9.7770     0.5510     1.2100 H     1 <1>   0.1500 
@<TRIPOS>BOND
  1   1   2  2   
  2   2   3  am  
  3   2   4  1   
  4   3   5  1   
  5   3  23  1   
  6   4   6  1   
  7   4   7  1   
  8   4  24  1   
  9   5   8  ar  
 10   5   9  ar  
 11   6  10  1   
 12   6  25  1   
 13   6  26  1   
 14   7  11  1   
 15   7  27  1   
 16   7  28  1   
 17   8  12  ar  
 18   8  29  1   
 19   9  13  ar  
 20   9  30  1   
 21  10  14  1   
 22  10  31  1   
 23  10  32  1   
 24  11  14  1   
 25  11  33  1   
 26  11  34  1   
 27  12  15  ar  
 28  12  16  1   
 29  13  15  ar  
 30  13  35  1   
 31  14  17  1   
 32  15  36  1   
 33  16  37  1   
 34  16  38  1   
 35  16  39  1   
 36  17  18  ar  
 37  17  19  ar  
 38  18  20  ar  
 39  19  21  ar  
 40  20  22  ar  
 41  20  40  1   
 42  21  22  ar  
 43  21  41  1   
 44  22  42  1   
@<TRIPOS>SUBSTRUCTURE
  1 ****   4 GROUP 4 **** **** 0

# MOE 2024.06 (io_trps.svl 2023.06)
