@<TRIPOS>MOLECULE
NONAME
37 38 1 0 0 
SMALL
USER_CHARGES


@<TRIPOS>ATOM
  1 O       -0.6870     1.3510    -1.3830 O.2   1 <1>  -0.5700 
  2 C       -0.7470     2.0030    -0.3690 C.2   1 <1>   0.5690 
  3 N        0.3630     2.5720     0.1570 N.am  1 <1>  -0.7300 
  4 C       -2.0780     2.2130     0.3520 C.3   1 <1>  -0.0190 
  5 C        1.6910     2.4810    -0.4570 C.3   1 <1>   0.3400 
  6 C       -3.0960     1.0900     0.0730 C.3   1 <1>  -0.1600 
  7 C       -2.6960     3.5730    -0.0170 C.3   1 <1>  -0.1600 
  8 C        2.6160     3.3350     0.3380 C.1   1 <1>  -0.2000 
  9 C       -4.4230     1.3270     0.7980 C.3   1 <1>   0.2090 
 10 C       -4.0130     3.8080     0.7250 C.3   1 <1>   0.2090 
 11 C        3.3560     4.0160     0.9730 C.1   1 <1>  -0.1770 
 12 N       -4.9440     2.6790     0.4580 N.pl3 1 <1>  -0.8380 
 13 C       -6.2320     2.8780     0.0010 C.ar  1 <1>   0.7200 
 14 N       -7.1210     1.9160     0.2530 N.ar  1 <1>  -0.6200 
 15 N       -6.4790     4.0150    -0.6480 N.ar  1 <1>  -0.6200 
 16 C       -8.3390     2.1090    -0.1840 C.ar  1 <1>   0.1670 
 17 C       -7.7050     4.1830    -1.0770 C.ar  1 <1>   0.1600 
 18 C       -8.6880     3.2480    -0.8680 C.ar  1 <1>  -0.1500 
 19 C       -9.3500     1.0190     0.0990 C.3   1 <1>  -0.0970 
 20 H        0.3270     3.1390     1.0030 H     1 <1>   0.3700 
 21 H       -1.8740     2.2100     1.4080 H     1 <1>   0.0800 
 22 H        1.6450     2.8260    -1.4760 H     1 <1>   0.0800 
 23 H        2.0250     1.4580    -0.4480 H     1 <1>   0.0800 
 24 H       -2.6880     0.1440     0.3790 H     1 <1>   0.0800 
 25 H       -3.2940     1.0320    -0.9840 H     1 <1>   0.0800 
 26 H       -2.8860     3.6110    -1.0760 H     1 <1>   0.0800 
 27 H       -2.0120     4.3670     0.2230 H     1 <1>   0.0800 
 28 H       -4.2820     1.2640     1.8630 H     1 <1>   0.0800 
 29 H       -5.1170     0.5580     0.5070 H     1 <1>   0.0800 
 30 H       -4.4340     4.7500     0.4170 H     1 <1>   0.0800 
 31 H       -3.8320     3.8630     1.7840 H     1 <1>   0.0800 
 32 H        4.0310     4.6310     1.5440 H     1 <1>   0.1770 
 33 H       -7.9310     5.0910    -1.6080 H     1 <1>   0.1500 
 34 H       -9.6860     3.4070    -1.2280 H     1 <1>   0.1500 
 35 H       -9.4360     0.8770     1.1610 H     1 <1>   0.0800 
 36 H       -9.0190     0.0990    -0.3470 H     1 <1>   0.0800 
 37 H      -10.3150     1.2730    -0.2990 H     1 <1>   0.0800 
@<TRIPOS>BOND
  1   1   2  2   
  2   2   3  am  
  3   2   4  1   
  4   3   5  1   
  5   3  20  1   
  6   4   6  1   
  7   4   7  1   
  8   4  21  1   
  9   5   8  1   
 10   5  22  1   
 11   5  23  1   
 12   6   9  1   
 13   6  24  1   
 14   6  25  1   
 15   7  10  1   
 16   7  26  1   
 17   7  27  1   
 18   8  11  3   
 19   9  12  1   
 20   9  28  1   
 21   9  29  1   
 22  10  12  1   
 23  10  30  1   
 24  10  31  1   
 25  11  32  1   
 26  12  13  1   
 27  13  14  ar  
 28  13  15  ar  
 29  14  16  ar  
 30  15  17  ar  
 31  16  18  ar  
 32  16  19  1   
 33  17  18  ar  
 34  17  33  1   
 35  18  34  1   
 36  19  35  1   
 37  19  36  1   
 38  19  37  1   
@<TRIPOS>SUBSTRUCTURE
  1 ****   7 GROUP 4 **** **** 0

# MOE 2024.06 (io_trps.svl 2023.06)
