@<TRIPOS>MOLECULE
NONAME
61 64 1 0 0 
SMALL
USER_CHARGES


@<TRIPOS>ATOM
  1 O       -1.1040     0.3130    -1.9810 O.2   1 <1>  -0.5700 
  2 C       -1.7380     0.0970    -0.9700 C.2   1 <1>   0.5690 
  3 N       -2.6170    -0.9560    -0.8840 N.am  1 <1>  -0.4770 
  4 C       -1.5750     1.0390     0.2560 C.3   1 <1>   0.3410 
  5 C       -3.3980    -1.1080     0.2800 C.ar  1 <1>   0.1170 
  6 C       -2.6050    -2.0300    -1.9510 C.3   1 <1>   0.2010 
  7 O       -1.9740     0.4050     1.4700 O.3   1 <1>  -0.3630 
  8 C       -2.4480     2.2930     0.1060 C.3   1 <1>  -0.2400 
  9 C       -0.1110     1.4490     0.4740 C.3   1 <1>  -0.2400 
 10 C       -3.0090    -0.4680     1.4590 C.ar  1 <1>   0.0830 
 11 C       -4.5300    -1.9040     0.3120 C.ar  1 <1>  -0.1500 
 12 C       -2.6790    -3.4760    -1.4230 C.2   1 <1>   0.5690 
 13 C       -3.6770    -0.7220     2.6440 C.ar  1 <1>  -0.1500 
 14 C       -5.1720    -2.2440     1.5000 C.ar  1 <1>   0.0860 
 15 O       -3.7060    -4.0690    -1.6840 O.2   1 <1>  -0.5700 
 16 N       -1.7200    -4.0800    -0.6360 N.am  1 <1>  -0.6600 
 17 C       -4.7370    -1.6120     2.6650 C.ar  1 <1>  -0.1500 
 18 C       -6.2100    -3.2550     1.5030 C.2   1 <1>   0.5440 
 19 C       -0.2970    -3.6920    -0.3990 C.3   1 <1>   0.2200 
 20 C       -2.1700    -5.1610     0.3000 C.3   1 <1>   0.2200 
 21 O       -7.0800    -3.2560     2.3530 O.2   1 <1>  -0.5700 
 22 N       -6.1840    -4.2460     0.5550 N.am  1 <1>  -0.5790 
 23 C       -0.1890    -2.9870     0.9620 C.3   1 <1>  -0.1600 
 24 C        0.3910    -2.9320    -1.5300 C.3   1 <1>  -0.2400 
 25 C       -1.4510    -5.0800     1.6660 C.3   1 <1>  -0.1600 
 26 C       -1.9690    -6.5250    -0.3600 C.3   1 <1>  -0.2400 
 27 C       -7.1070    -5.3820     0.4550 C.3   1 <1>   0.0490 
 28 C       -1.0890    -3.6320     2.0370 C.3   1 <1>  -0.1600 
 29 C       -6.5400    -6.6950     0.0260 C.3   1 <1>  -0.2000 
 30 C       -7.4130    -5.9110    -0.9060 C.3   1 <1>  -0.2000 
 31 H       -1.7510    -1.9310    -2.5900 H     1 <1>   0.0800 
 32 H       -3.4620    -1.8690    -2.5780 H     1 <1>   0.0800 
 33 H       -3.4800     2.0170    -0.0110 H     1 <1>   0.0800 
 34 H       -2.1470     2.8440    -0.7680 H     1 <1>   0.0800 
 35 H       -2.3450     2.9300     0.9660 H     1 <1>   0.0800 
 36 H        0.5000     0.5730     0.5950 H     1 <1>   0.0800 
 37 H       -0.0180     2.0720     1.3450 H     1 <1>   0.0800 
 38 H        0.2510     1.9960    -0.3790 H     1 <1>   0.0800 
 39 H       -4.9270    -2.2890    -0.6060 H     1 <1>   0.1500 
 40 H       -3.3600    -0.2280     3.5460 H     1 <1>   0.1500 
 41 H       -5.2400    -1.8300     3.5930 H     1 <1>   0.1500 
 42 H        0.2530    -4.6150    -0.3180 H     1 <1>   0.0800 
 43 H       -3.2220    -5.0300     0.4920 H     1 <1>   0.0800 
 44 H       -5.4340    -4.2530    -0.1460 H     1 <1>   0.3700 
 45 H       -0.4450    -1.9480     0.8630 H     1 <1>   0.0800 
 46 H        0.8370    -3.0330     1.2820 H     1 <1>   0.0800 
 47 H        0.1350    -1.8930    -1.5230 H     1 <1>   0.0800 
 48 H        0.1550    -3.3740    -2.4820 H     1 <1>   0.0800 
 49 H        1.4560    -2.9910    -1.3930 H     1 <1>   0.0800 
 50 H       -0.5520    -5.6710     1.6450 H     1 <1>   0.0800 
 51 H       -2.0890    -5.5020     2.4220 H     1 <1>   0.0800 
 52 H       -0.9310    -6.6980    -0.5740 H     1 <1>   0.0800 
 53 H       -2.5310    -6.5720    -1.2750 H     1 <1>   0.0800 
 54 H       -2.3220    -7.3020     0.2930 H     1 <1>   0.0800 
 55 H       -7.8900    -5.3690     1.1970 H     1 <1>   0.1000 
 56 H       -2.0010    -3.0670     2.1160 H     1 <1>   0.0800 
 57 H       -0.6010    -3.6000     2.9960 H     1 <1>   0.0800 
 58 H       -6.9390    -7.5940     0.4610 H     1 <1>   0.1000 
 59 H       -5.4880    -6.7640    -0.1850 H     1 <1>   0.1000 
 60 H       -6.9660    -5.4330    -1.7610 H     1 <1>   0.1000 
 61 H       -8.4050    -6.2770    -1.1050 H     1 <1>   0.1000 
@<TRIPOS>BOND
  1   1   2  2   
  2   2   3  am  
  3   2   4  1   
  4   3   5  1   
  5   3   6  1   
  6   4   7  1   
  7   4   8  1   
  8   4   9  1   
  9   5  10  ar  
 10   5  11  ar  
 11   6  12  1   
 12   6  31  1   
 13   6  32  1   
 14   7  10  1   
 15   8  33  1   
 16   8  34  1   
 17   8  35  1   
 18   9  36  1   
 19   9  37  1   
 20   9  38  1   
 21  10  13  ar  
 22  11  14  ar  
 23  11  39  1   
 24  12  15  2   
 25  12  16  am  
 26  13  17  ar  
 27  13  40  1   
 28  14  17  ar  
 29  14  18  1   
 30  16  19  1   
 31  16  20  1   
 32  17  41  1   
 33  18  21  2   
 34  18  22  am  
 35  19  23  1   
 36  19  24  1   
 37  19  42  1   
 38  20  25  1   
 39  20  26  1   
 40  20  43  1   
 41  22  27  1   
 42  22  44  1   
 43  23  28  1   
 44  23  45  1   
 45  23  46  1   
 46  24  47  1   
 47  24  48  1   
 48  24  49  1   
 49  25  28  1   
 50  25  50  1   
 51  25  51  1   
 52  26  52  1   
 53  26  53  1   
 54  26  54  1   
 55  27  29  1   
 56  27  30  1   
 57  27  55  1   
 58  28  56  1   
 59  28  57  1   
 60  29  30  1   
 61  29  58  1   
 62  29  59  1   
 63  30  60  1   
 64  30  61  1   
@<TRIPOS>SUBSTRUCTURE
  1 ****   5 GROUP 4 **** **** 0

# MOE 2024.06 (io_trps.svl 2023.06)
