@<TRIPOS>MOLECULE
NONAME
65 68 1 0 0 
SMALL
USER_CHARGES


@<TRIPOS>ATOM
  1 S        0.1310    -0.9260     0.1190 S.3   1 <1>  -0.0800 
  2 C        0.0010     0.8220     0.2450 C.2   1 <1>   0.1040 
  3 C       -1.6000    -1.0980    -0.0430 C.2   1 <1>  -0.1400 
  4 N        1.2220     1.4550     0.4000 N.am  1 <1>  -0.4940 
  5 C       -1.3140     1.2170     0.2020 C.2   1 <1>  -0.0860 
  6 C       -2.2060     0.0940     0.0310 C.2   1 <1>  -0.1810 
  7 C       -2.2260    -2.4610    -0.2390 C.3   1 <1>   0.0200 
  8 C        1.7390     2.5950    -0.1590 C.2   1 <1>   0.5690 
  9 C       -1.8310     2.5490     0.3570 C.2   1 <1>   0.7160 
 10 C       -3.7220     0.2060    -0.0710 C.3   1 <1>   0.0210 
 11 C       -3.6830    -2.2820    -0.7130 C.3   1 <1>  -0.0800 
 12 O        1.1370     3.2590    -0.9680 O.2   1 <1>  -0.5700 
 13 C        3.1440     3.0280     0.2790 C.3   1 <1>   0.1710 
 14 O       -2.5620     2.8530     1.2780 O.2   1 <1>  -0.5700 
 15 N       -1.5540     3.5280    -0.5240 N.am  1 <1>  -0.8000 
 16 C       -4.3990    -1.1720     0.0860 C.3   1 <1>  -0.1600 
 17 C       -4.4530    -3.6050    -0.6160 C.3   1 <1>  -0.2400 
 18 N        4.2830     2.3840    -0.4360 N.3   1 <1>  -0.8100 
 19 C        5.5640     2.9950    -0.0140 C.3   1 <1>   0.1100 
 20 C        4.3340     0.9110    -0.3020 C.3   1 <1>   0.1100 
 21 C        6.7620     2.4180    -0.7850 C.3   1 <1>   0.1400 
 22 C        5.5180     0.3010    -1.0750 C.3   1 <1>   0.1400 
 23 N        6.8030     0.9310    -0.6500 N.am  1 <1>  -0.6600 
 24 C        7.8900     0.2930    -0.1010 C.2   1 <1>   0.5690 
 25 O        8.8080     0.9270     0.3700 O.2   1 <1>  -0.5700 
 26 C        7.9690    -1.2400    -0.0500 C.3   1 <1>  -0.0190 
 27 C        7.2770    -1.7860     1.2160 C.3   1 <1>  -0.1600 
 28 C        9.4180    -1.7680    -0.1250 C.3   1 <1>  -0.1600 
 29 C        7.3180    -3.3200     1.2670 C.3   1 <1>  -0.1600 
 30 C        9.4630    -3.3020    -0.0810 C.3   1 <1>  -0.1600 
 31 C        8.7580    -3.8390     1.1710 C.3   1 <1>  -0.1600 
 32 H        1.9160     0.8900     0.8850 H     1 <1>   0.3700 
 33 H       -2.1950    -2.9900     0.6970 H     1 <1>   0.0800 
 34 H       -1.6700    -3.0200    -0.9700 H     1 <1>   0.0800 
 35 H       -3.9710     0.6270    -1.0300 H     1 <1>   0.0800 
 36 H       -4.1000     0.8630     0.6920 H     1 <1>   0.0800 
 37 H       -3.6590    -1.9810    -1.7470 H     1 <1>   0.0800 
 38 H        3.2430     2.8570     1.3350 H     1 <1>   0.0800 
 39 H        3.2030     4.0910     0.1190 H     1 <1>   0.0800 
 40 H       -1.8680     4.4690    -0.3020 H     1 <1>   0.3700 
 41 H       -0.6790     3.4720    -1.0620 H     1 <1>   0.3700 
 42 H       -5.4250    -1.0930    -0.2290 H     1 <1>   0.0800 
 43 H       -4.3970    -1.4370     1.1290 H     1 <1>   0.0800 
 44 H       -4.5150    -3.9350     0.4060 H     1 <1>   0.0800 
 45 H       -3.9600    -4.3670    -1.1950 H     1 <1>   0.0800 
 46 H       -5.4510    -3.4840    -0.9990 H     1 <1>   0.0800 
 47 H        5.7210     2.8330     1.0390 H     1 <1>   0.0800 
 48 H        5.5280     4.0570    -0.1880 H     1 <1>   0.0800 
 49 H        3.4310     0.4820    -0.6990 H     1 <1>   0.0800 
 50 H        4.4190     0.6390     0.7360 H     1 <1>   0.0800 
 51 H        7.6690     2.8620    -0.4140 H     1 <1>   0.0800 
 52 H        6.6720     2.6760    -1.8250 H     1 <1>   0.0800 
 53 H        5.3740     0.4720    -2.1280 H     1 <1>   0.0800 
 54 H        5.5250    -0.7590    -0.9110 H     1 <1>   0.0800 
 55 H        7.4660    -1.6270    -0.9150 H     1 <1>   0.0800 
 56 H        6.2540    -1.4550     1.2480 H     1 <1>   0.0800 
 57 H        7.7750    -1.3880     2.0840 H     1 <1>   0.0800 
 58 H        9.9860    -1.3760     0.7030 H     1 <1>   0.0800 
 59 H        9.8810    -1.4180    -1.0310 H     1 <1>   0.0800 
 60 H        6.7400    -3.7220     0.4520 H     1 <1>   0.0800 
 61 H        6.8750    -3.6620     2.1870 H     1 <1>   0.0800 
 62 H       10.4880    -3.6300    -0.0850 H     1 <1>   0.0800 
 63 H        8.9860    -3.7000    -0.9600 H     1 <1>   0.0800 
 64 H        8.7540    -4.9150     1.1490 H     1 <1>   0.0800 
 65 H        9.3060    -3.5300     2.0450 H     1 <1>   0.0800 
@<TRIPOS>BOND
  1   1   2  1   
  2   1   3  1   
  3   2   4  1   
  4   2   5  2   
  5   3   6  2   
  6   3   7  1   
  7   4   8  am  
  8   4  32  1   
  9   5   6  1   
 10   5   9  1   
 11   6  10  1   
 12   7  11  1   
 13   7  33  1   
 14   7  34  1   
 15   8  12  2   
 16   8  13  1   
 17   9  14  2   
 18   9  15  am  
 19  10  16  1   
 20  10  35  1   
 21  10  36  1   
 22  11  16  1   
 23  11  17  1   
 24  11  37  1   
 25  13  18  1   
 26  13  38  1   
 27  13  39  1   
 28  15  40  1   
 29  15  41  1   
 30  16  42  1   
 31  16  43  1   
 32  17  44  1   
 33  17  45  1   
 34  17  46  1   
 35  18  19  1   
 36  18  20  1   
 37  19  21  1   
 38  19  47  1   
 39  19  48  1   
 40  20  22  1   
 41  20  49  1   
 42  20  50  1   
 43  21  23  1   
 44  21  51  1   
 45  21  52  1   
 46  22  23  1   
 47  22  53  1   
 48  22  54  1   
 49  23  24  am  
 50  24  25  2   
 51  24  26  1   
 52  26  27  1   
 53  26  28  1   
 54  26  55  1   
 55  27  29  1   
 56  27  56  1   
 57  27  57  1   
 58  28  30  1   
 59  28  58  1   
 60  28  59  1   
 61  29  31  1   
 62  29  60  1   
 63  29  61  1   
 64  30  31  1   
 65  30  62  1   
 66  30  63  1   
 67  31  64  1   
 68  31  65  1   
@<TRIPOS>SUBSTRUCTURE
  1 ****   4 GROUP 4 **** **** 0

# MOE 2024.06 (io_trps.svl 2023.06)
