@<TRIPOS>MOLECULE
NONAME
52 55 1 0 0 
SMALL
USER_CHARGES


@<TRIPOS>ATOM
  1 O        0.4880     0.8800     0.9180 O.2   1 <1>  -0.5700 
  2 C        0.3700     1.7690     0.1100 C.2   1 <1>   0.5690 
  3 N       -0.8360     2.2210    -0.3550 N.am  1 <1>  -0.5470 
  4 C        1.6300     2.4540    -0.4190 C.3   1 <1>  -0.0190 
  5 C       -2.1510     1.8070    -0.0880 C.ar  1 <1>   0.1170 
  6 C        2.6450     1.4320    -0.9700 C.3   1 <1>  -0.1600 
  7 C        2.2880     3.3200     0.6720 C.3   1 <1>  -0.1600 
  8 C       -2.4670     0.5610     0.4460 C.ar  1 <1>  -0.1500 
  9 C       -3.1910     2.6780    -0.3870 C.ar  1 <1>  -0.1500 
 10 C        3.9260     2.1140    -1.4510 C.3   1 <1>   0.2090 
 11 C        3.5770     3.9780     0.1750 C.3   1 <1>   0.2090 
 12 C       -3.7810     0.1970     0.6820 C.ar  1 <1>  -0.1430 
 13 C       -4.5110     2.3260    -0.1620 C.ar  1 <1>  -0.1430 
 14 N        4.4910     2.9260    -0.3400 N.pl3 1 <1>  -0.8220 
 15 C       -4.8000     1.0830     0.3750 C.ar  1 <1>  -0.1500 
 16 C       -4.1080    -1.1640     1.2680 C.3   1 <1>  -0.0970 
 17 C       -5.6400     3.2860    -0.4900 C.3   1 <1>  -0.0970 
 18 C        5.8730     3.1900    -0.3370 C.2   1 <1>   0.2700 
 19 N        6.3710     4.3760    -0.3760 N.2   1 <1>  -0.3380 
 20 N        6.8760     2.2860    -0.3020 N.pl3 1 <1>   0.5930 
 21 N        7.6910     4.2200    -0.3840 N.2   1 <1>   0.0000 
 22 N        8.0120     2.9830    -0.3450 N.2   1 <1>  -0.4180 
 23 C        6.8250     0.8630    -0.2210 C.ar  1 <1>  -0.0230 
 24 C        5.8970     0.2230     0.5980 C.ar  1 <1>  -0.1500 
 25 C        7.7020     0.0790    -0.9670 C.ar  1 <1>  -0.1500 
 26 C        5.8400    -1.1570     0.6620 C.ar  1 <1>  -0.1500 
 27 C        7.6470    -1.3020    -0.9040 C.ar  1 <1>  -0.1500 
 28 C        6.7140    -1.9220    -0.0910 C.ar  1 <1>  -0.1500 
 29 H       -0.7810     3.0210    -0.9790 H     1 <1>   0.3700 
 30 H        1.3490     3.1010    -1.2300 H     1 <1>   0.0800 
 31 H        2.2050     0.8850    -1.7840 H     1 <1>   0.0800 
 32 H        2.9010     0.7210    -0.2020 H     1 <1>   0.0800 
 33 H        2.5230     2.7080     1.5270 H     1 <1>   0.0800 
 34 H        1.6030     4.0830     0.9970 H     1 <1>   0.0800 
 35 H       -1.6820    -0.1340     0.6770 H     1 <1>   0.1500 
 36 H       -2.9670     3.6440    -0.7980 H     1 <1>   0.1500 
 37 H        3.7120     2.7570    -2.2870 H     1 <1>   0.0800 
 38 H        4.6340     1.3690    -1.7720 H     1 <1>   0.0800 
 39 H        4.0500     4.5060     0.9860 H     1 <1>   0.0800 
 40 H        3.3630     4.6820    -0.6110 H     1 <1>   0.0800 
 41 H       -5.8230     0.8030     0.5550 H     1 <1>   0.1500 
 42 H       -3.2550    -1.5680     1.7840 H     1 <1>   0.0800 
 43 H       -4.3900    -1.8410     0.4820 H     1 <1>   0.0800 
 44 H       -4.9200    -1.0830     1.9680 H     1 <1>   0.0800 
 45 H       -5.2970     4.0810    -1.1270 H     1 <1>   0.0800 
 46 H       -6.0280     3.7130     0.4170 H     1 <1>   0.0800 
 47 H       -6.4330     2.7640    -0.9950 H     1 <1>   0.0800 
 48 H        5.2120     0.8060     1.1920 H     1 <1>   0.1500 
 49 H        8.4350     0.5500    -1.6010 H     1 <1>   0.1500 
 50 H        5.1150    -1.6370     1.2970 H     1 <1>   0.1500 
 51 H        8.3300    -1.8960    -1.4860 H     1 <1>   0.1500 
 52 H        6.6710    -2.9960    -0.0410 H     1 <1>   0.1500 
@<TRIPOS>BOND
  1   1   2  2   
  2   2   3  am  
  3   2   4  1   
  4   3   5  1   
  5   3  29  1   
  6   4   6  1   
  7   4   7  1   
  8   4  30  1   
  9   5   8  ar  
 10   5   9  ar  
 11   6  10  1   
 12   6  31  1   
 13   6  32  1   
 14   7  11  1   
 15   7  33  1   
 16   7  34  1   
 17   8  12  ar  
 18   8  35  1   
 19   9  13  ar  
 20   9  36  1   
 21  10  14  1   
 22  10  37  1   
 23  10  38  1   
 24  11  14  1   
 25  11  39  1   
 26  11  40  1   
 27  12  15  ar  
 28  12  16  1   
 29  13  15  ar  
 30  13  17  1   
 31  14  18  1   
 32  15  41  1   
 33  16  42  1   
 34  16  43  1   
 35  16  44  1   
 36  17  45  1   
 37  17  46  1   
 38  17  47  1   
 39  18  19  2   
 40  18  20  1   
 41  19  21  1   
 42  20  22  1   
 43  20  23  1   
 44  21  22  2   
 45  23  24  ar  
 46  23  25  ar  
 47  24  26  ar  
 48  24  48  1   
 49  25  27  ar  
 50  25  49  1   
 51  26  28  ar  
 52  26  50  1   
 53  27  28  ar  
 54  27  51  1   
 55  28  52  1   
@<TRIPOS>SUBSTRUCTURE
  1 ****   6 GROUP 4 **** **** 0

# MOE 2024.06 (io_trps.svl 2023.06)
