@<TRIPOS>MOLECULE
Piperidine-1,3-dicarboxylic acid 1-[(4-fluoro-phenyl)-amide] 3-p-tolylamide
48 50 1 0 0 
SMALL
USER_CHARGES


@<TRIPOS>ATOM
  1 F        0.4970    -0.0380     0.3100 F     1 <1>  -0.1900 
  2 C        1.5060    -0.8390     0.0840 C.ar  1 <1>   0.1900 
  3 C        1.8990    -1.7150     1.0770 C.ar  1 <1>  -0.1500 
  4 C        2.1450    -0.7800    -1.1390 C.ar  1 <1>  -0.1500 
  5 C        2.9690    -2.5590     0.8310 C.ar  1 <1>  -0.1500 
  6 C        3.2120    -1.6310    -1.3700 C.ar  1 <1>  -0.1500 
  7 C        3.6370    -2.5300    -0.3940 C.ar  1 <1>   0.1170 
  8 N        4.7310    -3.3590    -0.6760 N.am  1 <1>  -0.5470 
  9 C        5.0980    -4.5750    -0.1720 C.2   1 <1>   0.6900 
 10 O        4.3680    -5.1860     0.5840 O.2   1 <1>  -0.5700 
 11 N        6.3040    -5.1090    -0.5520 N.am  1 <1>  -0.6600 
 12 C        7.4780    -4.2990    -0.9940 C.3   1 <1>   0.1400 
 13 C        6.6140    -6.5470    -0.3210 C.3   1 <1>   0.1400 
 14 C        8.5930    -4.3850     0.0600 C.3   1 <1>  -0.0190 
 15 C        7.7270    -6.6740     0.7250 C.3   1 <1>  -0.1600 
 16 C        9.8110    -3.5730    -0.3650 C.2   1 <1>   0.5690 
 17 C        8.9690    -5.8550     0.3380 C.3   1 <1>  -0.1600 
 18 O       10.0080    -3.3880    -1.5410 O.2   1 <1>  -0.5700 
 19 N       10.6180    -3.0870     0.6280 N.am  1 <1>  -0.5470 
 20 C       11.7980    -2.3300     0.5760 C.ar  1 <1>   0.1170 
 21 C       12.1890    -1.6310     1.7120 C.ar  1 <1>  -0.1500 
 22 C       12.6100    -2.2560    -0.5510 C.ar  1 <1>  -0.1500 
 23 C       13.3490    -0.8760     1.7230 C.ar  1 <1>  -0.1500 
 24 C       13.7700    -1.5010    -0.5440 C.ar  1 <1>  -0.1500 
 25 C       14.1460    -0.8050     0.5930 C.ar  1 <1>  -0.1430 
 26 C       15.4190     0.0210     0.5990 C.3   1 <1>  -0.0970 
 27 H        1.3790    -1.7360     2.0180 H     1 <1>   0.1500 
 28 H        1.8090    -0.0840    -1.8870 H     1 <1>   0.1500 
 29 H        3.2860    -3.2420     1.5980 H     1 <1>   0.1500 
 30 H        3.7160    -1.5970    -2.3190 H     1 <1>   0.1500 
 31 H        5.2840    -3.0980    -1.4850 H     1 <1>   0.3700 
 32 H        7.2100    -3.2680    -1.1360 H     1 <1>   0.0800 
 33 H        7.8320    -4.6840    -1.9360 H     1 <1>   0.0800 
 34 H        6.9330    -6.9890    -1.2500 H     1 <1>   0.0800 
 35 H        5.7380    -7.0780     0.0130 H     1 <1>   0.0800 
 36 H        8.2080    -3.9490     0.9650 H     1 <1>   0.0800 
 37 H        7.9950    -7.7100     0.8310 H     1 <1>   0.0800 
 38 H        7.3450    -6.3370     1.6730 H     1 <1>   0.0800 
 39 H        9.6960    -5.9080     1.1300 H     1 <1>   0.0800 
 40 H        9.4140    -6.2790    -0.5470 H     1 <1>   0.0800 
 41 H       10.2960    -3.2840     1.5730 H     1 <1>   0.3700 
 42 H       11.5830    -1.6700     2.5980 H     1 <1>   0.1500 
 43 H       12.3460    -2.7900    -1.4440 H     1 <1>   0.1500 
 44 H       13.6300    -0.3430     2.6140 H     1 <1>   0.1500 
 45 H       14.3780    -1.4600    -1.4300 H     1 <1>   0.1500 
 46 H       15.3300     0.8450     1.2840 H     1 <1>   0.0800 
 47 H       15.6140     0.4170    -0.3820 H     1 <1>   0.0800 
 48 H       16.2490    -0.5920     0.8980 H     1 <1>   0.0800 
@<TRIPOS>BOND
  1   1   2  1   
  2   2   3  ar  
  3   2   4  ar  
  4   3   5  ar  
  5   3  27  1   
  6   4   6  ar  
  7   4  28  1   
  8   5   7  ar  
  9   5  29  1   
 10   6   7  ar  
 11   6  30  1   
 12   7   8  1   
 13   8   9  am  
 14   8  31  1   
 15   9  10  2   
 16   9  11  am  
 17  11  12  1   
 18  11  13  1   
 19  12  14  1   
 20  12  32  1   
 21  12  33  1   
 22  13  15  1   
 23  13  34  1   
 24  13  35  1   
 25  14  16  1   
 26  14  17  1   
 27  14  36  1   
 28  15  17  1   
 29  15  37  1   
 30  15  38  1   
 31  16  18  2   
 32  16  19  am  
 33  17  39  1   
 34  17  40  1   
 35  19  20  1   
 36  19  41  1   
 37  20  21  ar  
 38  20  22  ar  
 39  21  23  ar  
 40  21  42  1   
 41  22  24  ar  
 42  22  43  1   
 43  23  25  ar  
 44  23  44  1   
 45  24  25  ar  
 46  24  45  1   
 47  25  26  1   
 48  26  46  1   
 49  26  47  1   
 50  26  48  1   
@<TRIPOS>SUBSTRUCTURE
  1 ****  14 GROUP 4 **** **** 0

# MOE 2024.06 (io_trps.svl 2023.06)
