@<TRIPOS>MOLECULE
5065
40 42 1 0 0 
SMALL
USER_CHARGES


@<TRIPOS>ATOM
  1 CL      -7.4070     0.5590     3.9000 Cl    1 <1>  -0.1770 
  2 C       -6.6160     0.7160     2.3520 C.ar  1 <1>   0.1770 
  3 C       -6.9590    -0.1430     1.3280 C.ar  1 <1>  -0.1500 
  4 C       -5.6620     1.7020     2.1760 C.ar  1 <1>  -0.1500 
  5 C       -6.3450    -0.0060     0.0940 C.ar  1 <1>   0.0830 
  6 C       -5.0370     1.8290     0.9460 C.ar  1 <1>  -0.1500 
  7 O       -6.7450    -0.8460    -0.8860 O.3   1 <1>  -0.3630 
  8 C       -5.3760     0.9770    -0.0930 C.ar  1 <1>  -0.1500 
  9 C       -6.7040    -0.4400    -2.2480 C.3   1 <1>   0.1810 
 10 C       -7.8300    -1.0770    -3.0630 C.2   1 <1>   0.5690 
 11 O       -7.5700    -1.4740    -4.1710 O.2   1 <1>  -0.5700 
 12 N       -9.1000    -1.2550    -2.5830 N.am  1 <1>  -0.4940 
 13 C       -9.7100    -0.9160    -1.3880 C.2   1 <1>   0.1040 
 14 S      -10.6750    -2.2090    -0.6740 S.3   1 <1>  -0.0800 
 15 C       -9.7270     0.2140    -0.6000 C.2   1 <1>  -0.0860 
 16 C      -11.0100    -1.2200     0.7220 C.2   1 <1>  -0.1400 
 17 C      -10.4640    -0.0220     0.6170 C.2   1 <1>  -0.1810 
 18 C       -9.1380     1.4870    -0.9100 C.2   1 <1>   0.8060 
 19 C      -11.7840    -1.5160     1.9660 C.3   1 <1>   0.0200 
 20 C      -10.7810     0.7950     1.8460 C.3   1 <1>   0.0210 
 21 O       -8.8200     1.8290    -2.0340 O.2   1 <1>  -0.5700 
 22 O       -8.9200     2.3460     0.0950 O.3   1 <1>  -0.4300 
 23 C      -11.5760    -0.1930     2.7470 C.3   1 <1>  -0.1600 
 24 C       -8.2880     3.5940    -0.1090 C.3   1 <1>   0.0400 
 25 H       -7.7020    -0.9040     1.4800 H     1 <1>   0.1500 
 26 H       -5.4130     2.3560     2.9930 H     1 <1>   0.1500 
 27 H       -4.2870     2.5880     0.7990 H     1 <1>   0.1500 
 28 H       -4.8760     1.0810    -1.0390 H     1 <1>   0.1500 
 29 H       -5.7570    -0.7470    -2.6490 H     1 <1>   0.0800 
 30 H       -6.7770     0.6270    -2.3110 H     1 <1>   0.0800 
 31 H       -9.6310    -1.8850    -3.1840 H     1 <1>   0.3700 
 32 H      -11.3670    -2.3590     2.4880 H     1 <1>   0.0800 
 33 H      -12.8200    -1.6850     1.7350 H     1 <1>   0.0800 
 34 H      -11.3810     1.6480     1.5820 H     1 <1>   0.0800 
 35 H       -9.8790     1.1210     2.3340 H     1 <1>   0.0800 
 36 H      -11.0130    -0.3910     3.6420 H     1 <1>   0.0800 
 37 H      -12.5250     0.2320     3.0230 H     1 <1>   0.0800 
 38 H       -8.2190     4.0980     0.8380 H     1 <1>   0.0800 
 39 H       -8.8770     4.1760    -0.7970 H     1 <1>   0.0800 
 40 H       -7.3040     3.4240    -0.5100 H     1 <1>   0.0800 
@<TRIPOS>BOND
  1   1   2  1   
  2   2   3  ar  
  3   2   4  ar  
  4   3   5  ar  
  5   3  25  1   
  6   4   6  ar  
  7   4  26  1   
  8   5   7  1   
  9   5   8  ar  
 10   6   8  ar  
 11   6  27  1   
 12   7   9  1   
 13   8  28  1   
 14   9  10  1   
 15   9  29  1   
 16   9  30  1   
 17  10  11  2   
 18  10  12  am  
 19  12  13  1   
 20  12  31  1   
 21  13  14  1   
 22  13  15  2   
 23  14  16  1   
 24  15  17  1   
 25  15  18  1   
 26  16  17  2   
 27  16  19  1   
 28  17  20  1   
 29  18  21  2   
 30  18  22  1   
 31  19  23  1   
 32  19  32  1   
 33  19  33  1   
 34  20  23  1   
 35  20  34  1   
 36  20  35  1   
 37  22  24  1   
 38  23  36  1   
 39  23  37  1   
 40  24  38  1   
 41  24  39  1   
 42  24  40  1   
@<TRIPOS>SUBSTRUCTURE
  1 ****  15 GROUP 4 **** **** 0

# MOE 2024.06 (io_trps.svl 2023.06)
