@<TRIPOS>MOLECULE
1-[3-(4-Fluoro-phenyl)-ureido]-cyclohexanecarboxylic acid (2,3-dihydro-benzo[1,4]dioxin-6-yl)-amide
54 57 1 0 0 
SMALL
USER_CHARGES


@<TRIPOS>ATOM
  1 F       -3.2980    -2.2460    -0.9810 F     1 <1>  -0.1900 
  2 C       -3.9570    -1.1910    -0.5780 C.ar  1 <1>   0.1900 
  3 C       -4.5320    -0.3620    -1.5210 C.ar  1 <1>  -0.1500 
  4 C       -4.0520    -0.9420     0.7770 C.ar  1 <1>  -0.1500 
  5 C       -5.2260     0.7550    -1.0850 C.ar  1 <1>  -0.1500 
  6 C       -4.7500     0.1780     1.1970 C.ar  1 <1>  -0.1500 
  7 C       -5.3460     1.0370     0.2760 C.ar  1 <1>   0.1170 
  8 N       -6.0270     2.1670     0.7500 N.am  1 <1>  -0.5470 
  9 C       -7.0620     2.8640     0.2070 C.2   1 <1>   0.6900 
 10 O       -7.6590     2.4640    -0.7720 O.2   1 <1>  -0.5700 
 11 N       -7.4180     4.0200     0.8140 N.am  1 <1>  -0.7300 
 12 C       -8.4460     5.0270     0.3900 C.3   1 <1>   0.3610 
 13 C       -9.9000     4.4650     0.5360 C.2   1 <1>   0.5690 
 14 C       -8.2150     6.2700     1.2980 C.3   1 <1>  -0.1600 
 15 C       -8.1770     5.4780    -1.0650 C.3   1 <1>  -0.1600 
 16 O      -10.7130     5.0520     1.2160 O.2   1 <1>  -0.5700 
 17 N      -10.2150     3.3030    -0.1200 N.am  1 <1>  -0.5470 
 18 C       -7.0680     7.2200     0.8800 C.3   1 <1>  -0.1600 
 19 C       -6.7390     5.9800    -1.3240 C.3   1 <1>  -0.1600 
 20 C      -11.3930     2.5440    -0.2090 C.ar  1 <1>   0.1170 
 21 C       -6.0580     6.5930    -0.0880 C.3   1 <1>  -0.1600 
 22 C      -11.2860     1.2240    -0.6290 C.ar  1 <1>  -0.1500 
 23 C      -12.6560     3.0510     0.0880 C.ar  1 <1>  -0.1500 
 24 C      -12.4090     0.4250    -0.7420 C.ar  1 <1>   0.0830 
 25 C      -13.7870     2.2590    -0.0270 C.ar  1 <1>  -0.1500 
 26 O      -12.2590    -0.8660    -1.1370 O.3   1 <1>  -0.3620 
 27 C      -13.6700     0.9470    -0.4480 C.ar  1 <1>   0.0830 
 28 C      -13.3600    -1.7280    -0.9270 C.3   1 <1>   0.1200 
 29 O      -14.7940     0.1900    -0.5690 O.3   1 <1>  -0.3630 
 30 C      -14.6690    -1.0170    -1.2960 C.3   1 <1>   0.1200 
 31 H       -4.4390    -0.5870    -2.5680 H     1 <1>   0.1500 
 32 H       -3.5900    -1.6110     1.4800 H     1 <1>   0.1500 
 33 H       -5.6740     1.4100    -1.8110 H     1 <1>   0.1500 
 34 H       -4.8350     0.3810     2.2490 H     1 <1>   0.1500 
 35 H       -5.8040     2.4370     1.7020 H     1 <1>   0.3700 
 36 H       -6.7630     4.4190     1.4810 H     1 <1>   0.3700 
 37 H       -8.0810     5.9450     2.3150 H     1 <1>   0.0800 
 38 H       -9.1060     6.8720     1.2960 H     1 <1>   0.0800 
 39 H       -8.8600     6.2800    -1.2830 H     1 <1>   0.0800 
 40 H       -8.4110     4.6900    -1.7580 H     1 <1>   0.0800 
 41 H       -9.3960     2.8550    -0.5550 H     1 <1>   0.3700 
 42 H       -6.5580     7.5820     1.7560 H     1 <1>   0.0800 
 43 H       -7.4990     8.0780     0.3910 H     1 <1>   0.0800 
 44 H       -6.7720     6.7100    -2.1140 H     1 <1>   0.0800 
 45 H       -6.1350     5.1600    -1.6750 H     1 <1>   0.0800 
 46 H       -5.5000     5.8320     0.4280 H     1 <1>   0.0800 
 47 H       -5.3480     7.3380    -0.4050 H     1 <1>   0.0800 
 48 H      -10.3240     0.8080    -0.8650 H     1 <1>   0.1500 
 49 H      -12.7660     4.0700     0.4100 H     1 <1>   0.1500 
 50 H      -14.7580     2.6560     0.2040 H     1 <1>   0.1500 
 51 H      -13.3680    -2.0120     0.1110 H     1 <1>   0.0800 
 52 H      -13.2150    -2.6040    -1.5330 H     1 <1>   0.0800 
 53 H      -15.5180    -1.6330    -1.0630 H     1 <1>   0.0800 
 54 H      -14.6820    -0.7790    -2.3450 H     1 <1>   0.0800 
@<TRIPOS>BOND
  1   1   2  1   
  2   2   3  ar  
  3   2   4  ar  
  4   3   5  ar  
  5   3  31  1   
  6   4   6  ar  
  7   4  32  1   
  8   5   7  ar  
  9   5  33  1   
 10   6   7  ar  
 11   6  34  1   
 12   7   8  1   
 13   8   9  am  
 14   8  35  1   
 15   9  10  2   
 16   9  11  am  
 17  11  12  1   
 18  11  36  1   
 19  12  13  1   
 20  12  14  1   
 21  12  15  1   
 22  13  16  2   
 23  13  17  am  
 24  14  18  1   
 25  14  37  1   
 26  14  38  1   
 27  15  19  1   
 28  15  39  1   
 29  15  40  1   
 30  17  20  1   
 31  17  41  1   
 32  18  21  1   
 33  18  42  1   
 34  18  43  1   
 35  19  21  1   
 36  19  44  1   
 37  19  45  1   
 38  20  22  ar  
 39  20  23  ar  
 40  21  46  1   
 41  21  47  1   
 42  22  24  ar  
 43  22  48  1   
 44  23  25  ar  
 45  23  49  1   
 46  24  26  1   
 47  24  27  ar  
 48  25  27  ar  
 49  25  50  1   
 50  26  28  1   
 51  27  29  1   
 52  28  30  1   
 53  28  51  1   
 54  28  52  1   
 55  29  30  1   
 56  30  53  1   
 57  30  54  1   
@<TRIPOS>SUBSTRUCTURE
  1 ****  10 GROUP 4 **** **** 0

# MOE 2024.06 (io_trps.svl 2023.06)
