@<TRIPOS>MOLECULE
4-(4-Fluoro-benzoyl)-piperidine-1-carboxylic acid adamantan-1-ylamide
57 61 1 0 0 
SMALL
USER_CHARGES


@<TRIPOS>ATOM
  1 F        0.9320    -2.0340     0.1110 F     1 <1>  -0.1900 
  2 C       -0.3430    -2.2200    -0.0810 C.ar  1 <1>   0.1900 
  3 C       -1.2400    -1.3210     0.4600 C.ar  1 <1>  -0.1500 
  4 C       -0.7590    -3.3080    -0.8220 C.ar  1 <1>  -0.1500 
  5 C       -2.5930    -1.5250     0.2530 C.ar  1 <1>  -0.1500 
  6 C       -2.1150    -3.4960    -1.0160 C.ar  1 <1>  -0.1500 
  7 C       -3.0700    -2.6200    -0.4830 C.ar  1 <1>   0.0860 
  8 C       -4.4800    -2.8740    -0.7160 C.2   1 <1>   0.4230 
  9 O       -4.8610    -3.5680    -1.6240 O.2   1 <1>  -0.5700 
 10 C       -5.5440    -2.2670     0.2100 C.3   1 <1>  -0.0190 
 11 C       -6.6880    -3.2590     0.5070 C.3   1 <1>  -0.1600 
 12 C       -6.1230    -0.9710    -0.3900 C.3   1 <1>  -0.1600 
 13 C       -7.7520    -2.6320     1.4110 C.3   1 <1>   0.1400 
 14 C       -7.2050    -0.3590     0.5060 C.3   1 <1>   0.1400 
 15 N       -8.2490    -1.3770     0.7870 N.am  1 <1>  -0.6600 
 16 C       -9.5770    -1.0820     0.6250 C.2   1 <1>   0.6900 
 17 O       -9.9490     0.0760     0.5860 O.2   1 <1>  -0.5700 
 18 N      -10.4530    -2.1070     0.4850 N.am  1 <1>  -0.7300 
 19 C      -11.9040    -2.0570     0.2440 C.3   1 <1>   0.3000 
 20 C      -12.2150    -1.3600    -1.0940 C.3   1 <1>  -0.1600 
 21 C      -12.6340    -1.3370     1.3940 C.3   1 <1>  -0.1600 
 22 C      -12.4060    -3.5120     0.1730 C.3   1 <1>  -0.1600 
 23 C      -13.7350    -1.3720    -1.3530 C.3   1 <1>  -0.0800 
 24 C      -14.1550    -1.3490     1.1420 C.3   1 <1>  -0.0800 
 25 C      -13.9260    -3.5450    -0.0820 C.3   1 <1>  -0.0800 
 26 C      -14.4500    -0.6440    -0.1970 C.3   1 <1>  -0.1600 
 27 C      -14.2280    -2.8300    -1.4130 C.3   1 <1>  -0.1600 
 28 C      -14.6450    -2.8070     1.0640 C.3   1 <1>  -0.1600 
 29 H       -0.8780    -0.4820     1.0260 H     1 <1>   0.1500 
 30 H       -0.0350    -3.9880    -1.2340 H     1 <1>   0.1500 
 31 H       -3.2780    -0.8090     0.6690 H     1 <1>   0.1500 
 32 H       -2.4500    -4.3400    -1.5960 H     1 <1>   0.1500 
 33 H       -5.0860    -2.0340     1.1540 H     1 <1>   0.0800 
 34 H       -6.2900    -4.1390     0.9820 H     1 <1>   0.0800 
 35 H       -7.1560    -3.5680    -0.4120 H     1 <1>   0.0800 
 36 H       -6.5560    -1.1840    -1.3530 H     1 <1>   0.0800 
 37 H       -5.3420    -0.2490    -0.5410 H     1 <1>   0.0800 
 38 H       -7.3230    -2.3940     2.3700 H     1 <1>   0.0800 
 39 H       -8.5540    -3.3290     1.5750 H     1 <1>   0.0800 
 40 H       -7.6370     0.4950     0.0110 H     1 <1>   0.0800 
 41 H       -6.7800    -0.0270     1.4370 H     1 <1>   0.0800 
 42 H      -10.0320    -2.9990     0.2570 H     1 <1>   0.3700 
 43 H      -11.7050    -1.8610    -1.8970 H     1 <1>   0.0800 
 44 H      -11.8740    -0.3410    -1.0640 H     1 <1>   0.0800 
 45 H      -12.3010    -0.3170     1.4610 H     1 <1>   0.0800 
 46 H      -12.4140    -1.8230     2.3270 H     1 <1>   0.0800 
 47 H      -12.1920    -4.0150     1.0990 H     1 <1>   0.0800 
 48 H      -11.9040    -4.0340    -0.6220 H     1 <1>   0.0800 
 49 H      -13.9490    -0.8750    -2.2840 H     1 <1>   0.0800 
 50 H      -14.6590    -0.8360     1.9430 H     1 <1>   0.0800 
 51 H      -14.2670    -4.5650    -0.1300 H     1 <1>   0.0800 
 52 H      -15.5110    -0.6310    -0.3760 H     1 <1>   0.0800 
 53 H      -14.1140     0.3780    -0.1500 H     1 <1>   0.0800 
 54 H      -13.7420    -3.3460    -2.2230 H     1 <1>   0.0800 
 55 H      -15.2870    -2.8480    -1.6040 H     1 <1>   0.0800 
 56 H      -15.7080    -2.8250     0.8980 H     1 <1>   0.0800 
 57 H      -14.4520    -3.3060     1.9970 H     1 <1>   0.0800 
@<TRIPOS>BOND
  1   1   2  1   
  2   2   3  ar  
  3   2   4  ar  
  4   3   5  ar  
  5   3  29  1   
  6   4   6  ar  
  7   4  30  1   
  8   5   7  ar  
  9   5  31  1   
 10   6   7  ar  
 11   6  32  1   
 12   7   8  1   
 13   8   9  2   
 14   8  10  1   
 15  10  11  1   
 16  10  12  1   
 17  10  33  1   
 18  11  13  1   
 19  11  34  1   
 20  11  35  1   
 21  12  14  1   
 22  12  36  1   
 23  12  37  1   
 24  13  15  1   
 25  13  38  1   
 26  13  39  1   
 27  14  15  1   
 28  14  40  1   
 29  14  41  1   
 30  15  16  am  
 31  16  17  2   
 32  16  18  am  
 33  18  19  1   
 34  18  42  1   
 35  19  20  1   
 36  19  21  1   
 37  19  22  1   
 38  20  23  1   
 39  20  43  1   
 40  20  44  1   
 41  21  24  1   
 42  21  45  1   
 43  21  46  1   
 44  22  25  1   
 45  22  47  1   
 46  22  48  1   
 47  23  26  1   
 48  23  27  1   
 49  23  49  1   
 50  24  26  1   
 51  24  28  1   
 52  24  50  1   
 53  25  27  1   
 54  25  28  1   
 55  25  51  1   
 56  26  52  1   
 57  26  53  1   
 58  27  54  1   
 59  27  55  1   
 60  28  56  1   
 61  28  57  1   
@<TRIPOS>SUBSTRUCTURE
  1 ****  15 GROUP 4 **** **** 0

# MOE 2024.06 (io_trps.svl 2023.06)
