@<TRIPOS>MOLECULE
NONAME
63 65 1 0 0 
SMALL
USER_CHARGES


@<TRIPOS>ATOM
  1 S       -0.3650     0.2780     3.5560 S.o2  1 <1>   1.4470 
  2 O        0.0170     1.3820     4.4080 O.2   1 <1>  -0.6500 
  3 O       -1.2930    -0.7200     4.0440 O.2   1 <1>  -0.6500 
  4 N       -1.1140     0.9570     2.1880 N.am  1 <1>  -0.8490 
  5 C        1.1250    -0.5080     2.8750 C.ar  1 <1>  -0.0090 
  6 C       -2.1360     1.9250     2.5900 C.3   1 <1>   0.1960 
  7 C       -1.6560    -0.0730     1.3010 C.3   1 <1>   0.1960 
  8 C        2.1640     0.2550     2.3590 C.ar  1 <1>  -0.1500 
  9 C        1.2620    -1.8900     2.8330 C.ar  1 <1>  -0.1500 
 10 C       -2.6660     2.6510     1.3540 C.3   1 <1>  -0.1600 
 11 C       -2.1520     0.5790     0.0110 C.3   1 <1>  -0.1600 
 12 C        3.2940    -0.3380     1.8210 C.ar  1 <1>  -0.1500 
 13 C        2.3910    -2.4830     2.2920 C.ar  1 <1>  -0.1500 
 14 C       -3.2070     1.6410     0.3410 C.3   1 <1>   0.4230 
 15 C        3.4320    -1.7200     1.7780 C.ar  1 <1>  -0.0090 
 16 N       -3.7140     2.3480    -0.8740 N.4   1 <1>  -0.9590 
 17 S        4.8990    -2.5110     1.0540 S.o2  1 <1>   1.4470 
 18 C       -4.5850     1.4600    -1.7000 C.3   1 <1>   0.3430 
 19 C       -2.6490     2.9920    -1.7070 C.3   1 <1>   0.3430 
 20 O        5.9520    -1.5440     0.8510 O.2   1 <1>  -0.6500 
 21 O        5.1710    -3.7620     1.7240 O.2   1 <1>  -0.6500 
 22 N        4.4060    -2.8740    -0.5050 N.am  1 <1>  -0.9140 
 23 C       -5.2720     2.2810    -2.7920 C.3   1 <1>  -0.1600 
 24 C       -3.2960     3.8480    -2.7980 C.3   1 <1>  -0.1600 
 25 C        5.1170    -4.0090    -1.0730 C.3   1 <1>   0.1960 
 26 C       -4.2570     3.0270    -3.6680 C.3   1 <1>  -0.1600 
 27 C        4.7950    -4.1430    -2.5700 C.3   1 <1>  -0.0800 
 28 C        5.4740    -5.3940    -3.1410 C.3   1 <1>  -0.2400 
 29 C        5.2380    -2.9090    -3.3750 C.3   1 <1>  -0.2400 
 30 H       -2.9340     1.4230     3.1150 H     1 <1>   0.0800 
 31 H       -1.7090     2.6570     3.2580 H     1 <1>   0.0800 
 32 H       -2.4590    -0.6020     1.7900 H     1 <1>   0.0800 
 33 H       -0.8860    -0.7880     1.0570 H     1 <1>   0.0800 
 34 H        2.0880     1.3300     2.3840 H     1 <1>   0.1500 
 35 H        0.4780    -2.5150     3.2300 H     1 <1>   0.1500 
 36 H       -1.8560     3.2250     0.9410 H     1 <1>   0.0800 
 37 H       -3.4460     3.3230     1.6600 H     1 <1>   0.0800 
 38 H       -1.3020     1.0100    -0.4850 H     1 <1>   0.0800 
 39 H       -2.5700    -0.1860    -0.6160 H     1 <1>   0.0800 
 40 H        4.0840     0.2840     1.4310 H     1 <1>   0.1500 
 41 H        2.4690    -3.5580     2.2720 H     1 <1>   0.1500 
 42 H       -4.0370     1.1380     0.8110 H     1 <1>   0.0800 
 43 H       -4.3170     3.1120    -0.5450 H     1 <1>   0.4500 
 44 H       -3.9890     0.6860    -2.1570 H     1 <1>   0.0800 
 45 H       -5.3330     0.9920    -1.0810 H     1 <1>   0.0800 
 46 H       -2.0350     2.2350    -2.1660 H     1 <1>   0.0800 
 47 H       -2.0180     3.6160    -1.0960 H     1 <1>   0.0800 
 48 H        4.7090    -2.0620    -1.0370 H     1 <1>   0.4200 
 49 H       -5.9530     2.9820    -2.3400 H     1 <1>   0.0800 
 50 H       -5.8580     1.6230    -3.4120 H     1 <1>   0.0800 
 51 H       -3.8210     4.6700    -2.3440 H     1 <1>   0.0800 
 52 H       -2.5240     4.2660    -3.4210 H     1 <1>   0.0800 
 53 H        4.8200    -4.9090    -0.5580 H     1 <1>   0.0800 
 54 H        6.1800    -3.8800    -0.9410 H     1 <1>   0.0800 
 55 H       -4.7740     3.6770    -4.3550 H     1 <1>   0.0800 
 56 H       -3.6960     2.3160    -4.2520 H     1 <1>   0.0800 
 57 H        3.7300    -4.2660    -2.6760 H     1 <1>   0.0800 
 58 H        6.5450    -5.3180    -3.0600 H     1 <1>   0.0800 
 59 H        5.2170    -5.5190    -4.1780 H     1 <1>   0.0800 
 60 H        5.1510    -6.2720    -2.6080 H     1 <1>   0.0800 
 61 H        6.2900    -2.7270    -3.2440 H     1 <1>   0.0800 
 62 H        4.6930    -2.0340    -3.0700 H     1 <1>   0.0800 
 63 H        5.0470    -3.0630    -4.4230 H     1 <1>   0.0800 
@<TRIPOS>BOND
  1   1   2  2   
  2   1   3  2   
  3   1   4  am  
  4   1   5  1   
  5   4   6  1   
  6   4   7  1   
  7   5   8  ar  
  8   5   9  ar  
  9   6  10  1   
 10   6  30  1   
 11   6  31  1   
 12   7  11  1   
 13   7  32  1   
 14   7  33  1   
 15   8  12  ar  
 16   8  34  1   
 17   9  13  ar  
 18   9  35  1   
 19  10  14  1   
 20  10  36  1   
 21  10  37  1   
 22  11  14  1   
 23  11  38  1   
 24  11  39  1   
 25  12  15  ar  
 26  12  40  1   
 27  13  15  ar  
 28  13  41  1   
 29  14  16  1   
 30  14  42  1   
 31  15  17  1   
 32  16  18  1   
 33  16  19  1   
 34  16  43  1   
 35  17  20  2   
 36  17  21  2   
 37  17  22  am  
 38  18  23  1   
 39  18  44  1   
 40  18  45  1   
 41  19  24  1   
 42  19  46  1   
 43  19  47  1   
 44  22  25  1   
 45  22  48  1   
 46  23  26  1   
 47  23  49  1   
 48  23  50  1   
 49  24  26  1   
 50  24  51  1   
 51  24  52  1   
 52  25  27  1   
 53  25  53  1   
 54  25  54  1   
 55  26  55  1   
 56  26  56  1   
 57  27  28  1   
 58  27  29  1   
 59  27  57  1   
 60  28  58  1   
 61  28  59  1   
 62  28  60  1   
 63  29  61  1   
 64  29  62  1   
 65  29  63  1   
@<TRIPOS>SUBSTRUCTURE
  1 ****   7 GROUP 4 **** **** 0

# MOE 2024.06 (io_trps.svl 2023.06)
