@<TRIPOS>MOLECULE
4-Methyl-4H-furo[3,2-b]pyrrole-5-carboxylic acid cyclohexylcarbamoyl-phenyl-methyl ester
52 55 1 0 0 
SMALL
USER_CHARGES


@<TRIPOS>ATOM
  1 O       -0.2070    -1.1520     1.5420 O.2   1 <1>  -0.5700 
  2 C        0.0210    -1.8980     0.6110 C.2   1 <1>   0.8050 
  3 O        1.2720    -2.2820     0.3750 O.3   1 <1>  -0.4300 
  4 C       -0.9890    -2.4000    -0.2830 C.2   1 <1>  -0.2370 
  5 C        2.3550    -1.7680     1.1340 C.3   1 <1>   0.4040 
  6 N       -2.3350    -2.0480    -0.2450 N.pl3 1 <1>  -0.0400 
  7 C       -0.8140    -3.2970    -1.3180 C.2   1 <1>  -0.1630 
  8 C        2.7550    -0.3980     0.5700 C.ar  1 <1>  -0.1440 
  9 C        3.5270    -2.7630     1.1050 C.2   1 <1>   0.5690 
 10 C       -2.9730    -2.7230    -1.2510 C.2   1 <1>  -0.0510 
 11 C       -3.0030    -1.1120     0.6810 C.3   1 <1>   0.0160 
 12 C       -2.0590    -3.4790    -1.9010 C.2   1 <1>   0.1820 
 13 C        3.2100     0.5900     1.4310 C.ar  1 <1>  -0.1500 
 14 C        2.6890    -0.1270    -0.7920 C.ar  1 <1>  -0.1500 
 15 O        3.5600    -3.6510     1.9270 O.2   1 <1>  -0.5700 
 16 N        4.5140    -2.6260     0.1730 N.am  1 <1>  -0.7300 
 17 C       -4.1990    -2.9570    -1.8940 C.2   1 <1>  -0.1630 
 18 O       -2.6240    -4.1650    -2.9010 O.3   1 <1>  -0.3090 
 19 C        3.5960     1.8250     0.9410 C.ar  1 <1>  -0.1500 
 20 C        3.0740     1.1080    -1.2830 C.ar  1 <1>  -0.1500 
 21 C        5.6950    -3.4880     0.0310 C.3   1 <1>   0.2200 
 22 C       -3.9180    -3.8370    -2.8820 C.2   1 <1>  -0.0100 
 23 C        3.5300     2.0850    -0.4160 C.ar  1 <1>  -0.1500 
 24 C        6.9480    -2.6540     0.3190 C.3   1 <1>  -0.1600 
 25 C        5.7190    -4.0600    -1.3890 C.3   1 <1>  -0.1600 
 26 C        8.2260    -3.4710     0.0740 C.3   1 <1>  -0.1600 
 27 C        6.9940    -4.8790    -1.6360 C.3   1 <1>  -0.1600 
 28 C        8.2520    -4.0480    -1.3480 C.3   1 <1>  -0.1600 
 29 H        2.0410    -1.6740     2.1590 H     1 <1>   0.0800 
 30 H        0.0900    -3.7810    -1.6390 H     1 <1>   0.1500 
 31 H       -2.5450    -0.1420     0.6010 H     1 <1>   0.0800 
 32 H       -2.8980    -1.4720     1.6890 H     1 <1>   0.0800 
 33 H       -4.0460    -1.0360     0.4350 H     1 <1>   0.0800 
 34 H        3.2670     0.4050     2.4900 H     1 <1>   0.1500 
 35 H        2.3340    -0.8750    -1.4820 H     1 <1>   0.1500 
 36 H        4.4880    -1.8160    -0.4510 H     1 <1>   0.3700 
 37 H       -5.1390    -2.5100    -1.6260 H     1 <1>   0.1500 
 38 H        3.9470     2.5860     1.6170 H     1 <1>   0.1500 
 39 H        3.0170     1.3100    -2.3380 H     1 <1>   0.1500 
 40 H        5.6410    -4.3000     0.7390 H     1 <1>   0.0800 
 41 H       -4.5650    -4.2860    -3.6160 H     1 <1>   0.1500 
 42 H        3.8300     3.0460    -0.7960 H     1 <1>   0.1500 
 43 H        6.9270    -2.3250     1.3430 H     1 <1>   0.0800 
 44 H        6.9590    -1.7880    -0.3190 H     1 <1>   0.0800 
 45 H        5.6770    -3.2560    -2.1030 H     1 <1>   0.0800 
 46 H        4.8590    -4.6900    -1.5320 H     1 <1>   0.0800 
 47 H        8.2750    -4.2770     0.7870 H     1 <1>   0.0800 
 48 H        9.0880    -2.8450     0.2260 H     1 <1>   0.0800 
 49 H        7.0130    -5.2200    -2.6570 H     1 <1>   0.0800 
 50 H        6.9880    -5.7470    -0.9990 H     1 <1>   0.0800 
 51 H        9.1260    -4.6640    -1.4700 H     1 <1>   0.0800 
 52 H        8.3170    -3.2410    -2.0580 H     1 <1>   0.0800 
@<TRIPOS>BOND
  1   1   2  2   
  2   2   3  1   
  3   2   4  1   
  4   3   5  1   
  5   4   6  1   
  6   4   7  2   
  7   5   8  1   
  8   5   9  1   
  9   5  29  1   
 10   6  10  1   
 11   6  11  1   
 12   7  12  1   
 13   7  30  1   
 14   8  13  ar  
 15   8  14  ar  
 16   9  15  2   
 17   9  16  am  
 18  10  12  2   
 19  10  17  1   
 20  11  31  1   
 21  11  32  1   
 22  11  33  1   
 23  12  18  1   
 24  13  19  ar  
 25  13  34  1   
 26  14  20  ar  
 27  14  35  1   
 28  16  21  1   
 29  16  36  1   
 30  17  22  2   
 31  17  37  1   
 32  18  22  1   
 33  19  23  ar  
 34  19  38  1   
 35  20  23  ar  
 36  20  39  1   
 37  21  24  1   
 38  21  25  1   
 39  21  40  1   
 40  22  41  1   
 41  23  42  1   
 42  24  26  1   
 43  24  43  1   
 44  24  44  1   
 45  25  27  1   
 46  25  45  1   
 47  25  46  1   
 48  26  28  1   
 49  26  47  1   
 50  26  48  1   
 51  27  28  1   
 52  27  49  1   
 53  27  50  1   
 54  28  51  1   
 55  28  52  1   
@<TRIPOS>SUBSTRUCTURE
  1 ****   3 GROUP 4 **** **** 0

# MOE 2024.06 (io_trps.svl 2023.06)
