@<TRIPOS>MOLECULE
NONAME
59 62 1 0 0 
SMALL
USER_CHARGES


@<TRIPOS>ATOM
  1 N        1.4240     1.2910     2.8090 N.2   1 <1>   0.0000 
  2 N        1.1260     0.4250     1.9130 N.2   1 <1>  -0.4180 
  3 N        2.0950     2.2990     2.2750 N.2   1 <1>  -0.3380 
  4 N        1.6020     0.8740     0.7700 N.pl3 1 <1>   0.3140 
  5 C        2.2010     2.0340     1.0220 C.2   1 <1>   0.0060 
  6 C        1.4260     0.0500    -0.4640 C.3   1 <1>   0.1760 
  7 C        2.9170     2.9100    -0.0170 C.3   1 <1>   0.5140 
  8 C        2.7540    -0.5740    -0.9200 C.3   1 <1>  -0.2400 
  9 C        0.7370     0.8170    -1.5990 C.3   1 <1>  -0.2400 
 10 N        4.1810     3.4870     0.5080 N.3   1 <1>  -0.8100 
 11 C        1.9860     4.0160    -0.5310 C.ar  1 <1>  -0.1430 
 12 C        5.1240     2.4310     0.9670 C.3   1 <1>   0.1100 
 13 C        4.8570     4.3790    -0.4720 C.3   1 <1>   0.1100 
 14 C        1.3070     4.8440     0.3530 C.ar  1 <1>  -0.1500 
 15 C        1.8190     4.2190    -1.8970 C.ar  1 <1>  -0.1500 
 16 C        6.4340     3.0120     1.5250 C.3   1 <1>   0.2090 
 17 C        6.1720     4.9680     0.0710 C.3   1 <1>   0.2090 
 18 C        0.4650     5.8390    -0.1140 C.ar  1 <1>  -0.1500 
 19 C        0.9780     5.2130    -2.3660 C.ar  1 <1>  -0.1500 
 20 N        7.0910     3.8840     0.5130 N.pl3 1 <1>  -0.8380 
 21 C        0.2980     6.0220    -1.4750 C.ar  1 <1>  -0.1500 
 22 C        8.4080     4.2600     0.7800 C.ar  1 <1>   0.1000 
 23 C        9.4620     3.8210    -0.0270 C.ar  1 <1>  -0.1430 
 24 C        8.6800     5.0850     1.8650 C.ar  1 <1>  -0.1500 
 25 C       10.7680     4.2110     0.2630 C.ar  1 <1>  -0.1430 
 26 C        9.1230     2.9160    -1.2120 C.3   1 <1>  -0.0970 
 27 C        9.9730     5.4720     2.1530 C.ar  1 <1>  -0.1500 
 28 C       11.0110     5.0350     1.3530 C.ar  1 <1>  -0.1500 
 29 C       11.9590     3.7660    -0.5740 C.3   1 <1>  -0.0970 
 30 H        0.7700    -0.7600    -0.1900 H     1 <1>   0.0800 
 31 H        3.1810     2.2930    -0.8530 H     1 <1>   0.0800 
 32 H        3.4530     0.1680    -1.2550 H     1 <1>   0.0800 
 33 H        2.5730    -1.2540    -1.7350 H     1 <1>   0.0800 
 34 H        3.1920    -1.1340    -0.1120 H     1 <1>   0.0800 
 35 H        1.4040     1.5110    -2.0690 H     1 <1>   0.0800 
 36 H       -0.1260     1.3440    -1.2270 H     1 <1>   0.0800 
 37 H        0.4050     0.1240    -2.3510 H     1 <1>   0.0800 
 38 H        5.3650     1.7740     0.1500 H     1 <1>   0.0800 
 39 H        4.6700     1.8460     1.7480 H     1 <1>   0.0800 
 40 H        4.2120     5.2040    -0.7200 H     1 <1>   0.0800 
 41 H        5.0740     3.8360    -1.3750 H     1 <1>   0.0800 
 42 H        1.4360     4.7190     1.4150 H     1 <1>   0.1500 
 43 H        2.3470     3.6090    -2.6080 H     1 <1>   0.1500 
 44 H        7.1020     2.2110     1.7900 H     1 <1>   0.0800 
 45 H        6.2190     3.5800     2.4140 H     1 <1>   0.0800 
 46 H        5.9530     5.6190     0.8980 H     1 <1>   0.0800 
 47 H        6.6530     5.5480    -0.6970 H     1 <1>   0.0800 
 48 H       -0.0580     6.4680     0.5850 H     1 <1>   0.1500 
 49 H        0.8520     5.3600    -3.4250 H     1 <1>   0.1500 
 50 H       -0.3570     6.7950    -1.8370 H     1 <1>   0.1500 
 51 H        7.8710     5.4220     2.4840 H     1 <1>   0.1500 
 52 H        8.4210     3.4170    -1.8530 H     1 <1>   0.0800 
 53 H        8.6650     2.0140    -0.8490 H     1 <1>   0.0800 
 54 H        9.9780     2.6470    -1.7990 H     1 <1>   0.0800 
 55 H       10.1720     6.1100     2.9950 H     1 <1>   0.1500 
 56 H       12.0140     5.3440     1.5880 H     1 <1>   0.1500 
 57 H       12.0270     2.6930    -0.5740 H     1 <1>   0.0800 
 58 H       12.8790     4.1600    -0.1820 H     1 <1>   0.0800 
 59 H       11.8470     4.1150    -1.5850 H     1 <1>   0.0800 
@<TRIPOS>BOND
  1   1   2  2   
  2   1   3  1   
  3   2   4  1   
  4   3   5  2   
  5   4   5  1   
  6   4   6  1   
  7   5   7  1   
  8   6   8  1   
  9   6   9  1   
 10   6  30  1   
 11   7  10  1   
 12   7  11  1   
 13   7  31  1   
 14   8  32  1   
 15   8  33  1   
 16   8  34  1   
 17   9  35  1   
 18   9  36  1   
 19   9  37  1   
 20  10  12  1   
 21  10  13  1   
 22  11  14  ar  
 23  11  15  ar  
 24  12  16  1   
 25  12  38  1   
 26  12  39  1   
 27  13  17  1   
 28  13  40  1   
 29  13  41  1   
 30  14  18  ar  
 31  14  42  1   
 32  15  19  ar  
 33  15  43  1   
 34  16  20  1   
 35  16  44  1   
 36  16  45  1   
 37  17  20  1   
 38  17  46  1   
 39  17  47  1   
 40  18  21  ar  
 41  18  48  1   
 42  19  21  ar  
 43  19  49  1   
 44  20  22  1   
 45  21  50  1   
 46  22  23  ar  
 47  22  24  ar  
 48  23  25  ar  
 49  23  26  1   
 50  24  27  ar  
 51  24  51  1   
 52  25  28  ar  
 53  25  29  1   
 54  26  52  1   
 55  26  53  1   
 56  26  54  1   
 57  27  28  ar  
 58  27  55  1   
 59  28  56  1   
 60  29  57  1   
 61  29  58  1   
 62  29  59  1   
@<TRIPOS>SUBSTRUCTURE
  1 ****  10 GROUP 4 **** **** 0

# MOE 2024.06 (io_trps.svl 2023.06)
