@<TRIPOS>MOLECULE
4-(2-Methoxy-benzoylamino)-piperidine-1-carboxylic acid p-tolylamide
52 54 1 0 0 
SMALL
USER_CHARGES


@<TRIPOS>ATOM
  1 O        0.4450     0.1950    -1.2570 O.2   1 <1>  -0.5700 
  2 C        0.9400     1.2820    -1.0260 C.2   1 <1>   0.6900 
  3 N        2.1860     1.5920    -1.5120 N.am  1 <1>  -0.6600 
  4 N        0.2920     2.2040    -0.2530 N.am  1 <1>  -0.5470 
  5 C        2.6970     2.9780    -1.7030 C.3   1 <1>   0.1400 
  6 C        3.0920     0.5310    -2.0310 C.3   1 <1>   0.1400 
  7 C       -1.0060     2.2340     0.2730 C.ar  1 <1>   0.1170 
  8 C        4.0430     3.1180    -0.9920 C.3   1 <1>  -0.1600 
  9 C        4.4540     0.6490    -1.3430 C.3   1 <1>  -0.1600 
 10 C       -2.0630     1.5180    -0.2780 C.ar  1 <1>  -0.1500 
 11 C       -1.2600     3.0290     1.3840 C.ar  1 <1>  -0.1500 
 12 C        5.0250     2.0590    -1.4980 C.3   1 <1>   0.2200 
 13 C       -3.3320     1.5920     0.2660 C.ar  1 <1>  -0.1500 
 14 C       -2.5290     3.1070     1.9300 C.ar  1 <1>  -0.1500 
 15 N        6.2690     2.1600    -0.7250 N.am  1 <1>  -0.7300 
 16 C       -3.5740     2.3890     1.3730 C.ar  1 <1>  -0.1430 
 17 C        7.4490     2.6990    -1.1460 C.2   1 <1>   0.5440 
 18 C       -4.9670     2.4680     1.9710 C.3   1 <1>  -0.0970 
 19 O        7.4680     3.1900    -2.2610 O.2   1 <1>  -0.5700 
 20 C        8.6410     2.7160    -0.3030 C.ar  1 <1>   0.0860 
 21 C        8.7800     2.0000     0.9050 C.ar  1 <1>   0.0820 
 22 C        9.7320     3.4940    -0.7060 C.ar  1 <1>  -0.1500 
 23 O        7.7540     1.2200     1.3400 O.3   1 <1>  -0.3620 
 24 C        9.9610     2.0890     1.6430 C.ar  1 <1>  -0.1500 
 25 C       10.8980     3.5750     0.0280 C.ar  1 <1>  -0.1500 
 26 C        7.8380     0.3940     2.4830 C.3   1 <1>   0.0400 
 27 C       11.0130     2.8710     1.2100 C.ar  1 <1>  -0.1500 
 28 H        0.9140     2.9300     0.0800 H     1 <1>   0.3700 
 29 H        2.0030     3.7090    -1.3290 H     1 <1>   0.0800 
 30 H        2.8240     3.1570    -2.7570 H     1 <1>   0.0800 
 31 H        3.2010     0.6510    -3.0960 H     1 <1>   0.0800 
 32 H        2.6810    -0.4470    -1.8450 H     1 <1>   0.0800 
 33 H        3.8970     3.0110     0.0680 H     1 <1>   0.0800 
 34 H        4.4470     4.0950    -1.1870 H     1 <1>   0.0800 
 35 H        5.1320    -0.0620    -1.7800 H     1 <1>   0.0800 
 36 H        4.3330     0.4100    -0.3010 H     1 <1>   0.0800 
 37 H       -1.8970     0.8980    -1.1400 H     1 <1>   0.1500 
 38 H       -0.4610     3.5910     1.8310 H     1 <1>   0.1500 
 39 H        5.2320     2.2410    -2.5410 H     1 <1>   0.0800 
 40 H       -4.1300     1.0250    -0.1780 H     1 <1>   0.1500 
 41 H       -2.7010     3.7270     2.7930 H     1 <1>   0.1500 
 42 H        6.2750     1.7060     0.1940 H     1 <1>   0.3700 
 43 H       -5.0910     1.6920     2.7050 H     1 <1>   0.0800 
 44 H       -5.7110     2.3430     1.2050 H     1 <1>   0.0800 
 45 H       -5.1220     3.4220     2.4410 H     1 <1>   0.0800 
 46 H        9.6650     4.0530    -1.6240 H     1 <1>   0.1500 
 47 H       10.0870     1.5570     2.5660 H     1 <1>   0.1500 
 48 H       11.7140     4.1860    -0.3180 H     1 <1>   0.1500 
 49 H        6.9130    -0.1470     2.5750 H     1 <1>   0.0800 
 50 H        7.9850     1.0120     3.3520 H     1 <1>   0.0800 
 51 H        8.6530    -0.2970     2.3580 H     1 <1>   0.0800 
 52 H       11.9200     2.9320     1.7870 H     1 <1>   0.1500 
@<TRIPOS>BOND
  1   1   2  2   
  2   2   3  am  
  3   2   4  am  
  4   3   5  1   
  5   3   6  1   
  6   4   7  1   
  7   4  28  1   
  8   5   8  1   
  9   5  29  1   
 10   5  30  1   
 11   6   9  1   
 12   6  31  1   
 13   6  32  1   
 14   7  10  ar  
 15   7  11  ar  
 16   8  12  1   
 17   8  33  1   
 18   8  34  1   
 19   9  12  1   
 20   9  35  1   
 21   9  36  1   
 22  10  13  ar  
 23  10  37  1   
 24  11  14  ar  
 25  11  38  1   
 26  12  15  1   
 27  12  39  1   
 28  13  16  ar  
 29  13  40  1   
 30  14  16  ar  
 31  14  41  1   
 32  15  17  am  
 33  15  42  1   
 34  16  18  1   
 35  17  19  2   
 36  17  20  1   
 37  18  43  1   
 38  18  44  1   
 39  18  45  1   
 40  20  21  ar  
 41  20  22  ar  
 42  21  23  1   
 43  21  24  ar  
 44  22  25  ar  
 45  22  46  1   
 46  23  26  1   
 47  24  27  ar  
 48  24  47  1   
 49  25  27  ar  
 50  25  48  1   
 51  26  49  1   
 52  26  50  1   
 53  26  51  1   
 54  27  52  1   
@<TRIPOS>SUBSTRUCTURE
  1 ****   8 GROUP 4 **** **** 0

# MOE 2024.06 (io_trps.svl 2023.06)
