@<TRIPOS>MOLECULE
NONAME
56 58 1 0 0 
SMALL
USER_CHARGES


@<TRIPOS>ATOM
  1 S       -0.2190    -0.4210    -2.1420 S.3   1 <1>  -0.3220 
  2 C       -1.1490    -0.2560    -0.6400 C.cat 1 <1>   0.8920 
  3 C        0.8150    -1.9660    -2.0130 C.3   1 <1>   0.1310 
  4 N       -0.9980    -1.0070     0.4350 N.pl3 1 <1>  -0.7000 
  5 N       -2.0770     0.6690    -0.4660 N.pl3 1 <1>  -0.7640 
  6 C        1.6590    -1.9340    -0.7530 C.2   1 <1>   0.5690 
  7 C       -1.8590    -0.5390     1.3710 C.2   1 <1>   0.4260 
  8 C       -2.5540     0.4980     0.8410 C.2   1 <1>   0.2770 
  9 C       -2.5380     1.7170    -1.4110 C.3   1 <1>   0.3540 
 10 O        1.2400    -2.5410     0.2050 O.2   1 <1>  -0.5700 
 11 N        2.7850    -1.1610    -0.7260 N.am  1 <1>  -0.5470 
 12 N       -2.0250    -0.9960     2.6630 N.am  1 <1>  -0.4360 
 13 C       -3.5380     1.1480     1.6580 C.2   1 <1>   0.7030 
 14 C       -1.7870     3.0200    -1.1290 C.3   1 <1>  -0.1600 
 15 C        3.6510    -0.8950     0.3450 C.ar  1 <1>   0.1170 
 16 C       -2.9910    -0.3890     3.4520 C.2   1 <1>   0.6900 
 17 C       -1.1710    -2.1020     3.1950 C.3   1 <1>   0.0600 
 18 O       -4.1790     2.0960     1.2380 O.2   1 <1>  -0.5700 
 19 N       -3.7430     0.6670     2.9450 N.am  1 <1>  -0.4200 
 20 C       -2.2190     4.1350    -2.0900 C.3   1 <1>  -0.1600 
 21 C        3.9320    -1.8360     1.3290 C.ar  1 <1>  -0.1500 
 22 C        4.2570     0.3540     0.4190 C.ar  1 <1>  -0.1500 
 23 O       -3.1830    -0.7810     4.5850 O.2   1 <1>  -0.5700 
 24 C       -4.7690     1.3060     3.8290 C.3   1 <1>   0.0600 
 25 C       -1.4610     5.4330    -1.7980 C.3   1 <1>  -0.2400 
 26 C        4.7920    -1.5300     2.3780 C.ar  1 <1>   0.0830 
 27 C        5.1140     0.6650     1.4590 C.ar  1 <1>  -0.1500 
 28 O        5.1090    -2.3960     3.3740 O.3   1 <1>  -0.3620 
 29 C        5.3770    -0.2760     2.4380 C.ar  1 <1>  -0.1500 
 30 C        4.6470    -3.7290     3.3630 C.3   1 <1>   0.0400 
 31 H        1.4330    -2.0140    -2.8910 H     1 <1>   0.0800 
 32 H        0.1420    -2.8040    -2.0000 H     1 <1>   0.0800 
 33 H       -0.3030    -1.7560     0.5670 H     1 <1>   0.4500 
 34 H       -3.5990     1.8720    -1.2950 H     1 <1>   0.0800 
 35 H       -2.3580     1.4060    -2.4270 H     1 <1>   0.0800 
 36 H        3.0050    -0.6400    -1.5770 H     1 <1>   0.3700 
 37 H       -0.7300     2.8540    -1.2360 H     1 <1>   0.0800 
 38 H       -1.9880     3.3350    -0.1190 H     1 <1>   0.0800 
 39 H       -0.1500    -1.9730     2.8780 H     1 <1>   0.0800 
 40 H       -1.5380    -3.0490     2.8380 H     1 <1>   0.0800 
 41 H       -1.1860    -2.1120     4.2720 H     1 <1>   0.0800 
 42 H       -3.2760     4.3180    -1.9870 H     1 <1>   0.0800 
 43 H       -2.0280     3.8400    -3.1090 H     1 <1>   0.0800 
 44 H        3.4790    -2.8050     1.2640 H     1 <1>   0.1500 
 45 H        4.0610     1.0950    -0.3350 H     1 <1>   0.1500 
 46 H       -5.4950     1.8530     3.2510 H     1 <1>   0.0800 
 47 H       -4.2860     1.9820     4.5120 H     1 <1>   0.0800 
 48 H       -5.2900     0.5540     4.3960 H     1 <1>   0.0800 
 49 H       -1.6560     5.7680    -0.7940 H     1 <1>   0.0800 
 50 H       -1.7780     6.2050    -2.4790 H     1 <1>   0.0800 
 51 H       -0.4010     5.2910    -1.9180 H     1 <1>   0.0800 
 52 H        5.5780     1.6350     1.5110 H     1 <1>   0.1500 
 53 H        6.0410    -0.0460     3.2530 H     1 <1>   0.1500 
 54 H        5.0490    -4.2280     4.2260 H     1 <1>   0.0800 
 55 H        4.9940    -4.2120     2.4670 H     1 <1>   0.0800 
 56 H        3.5720    -3.7260     3.4100 H     1 <1>   0.0800 
@<TRIPOS>BOND
  1   1   2  1   
  2   1   3  1   
  3   2   4  ar  
  4   2   5  ar  
  5   3   6  1   
  6   3  31  1   
  7   3  32  1   
  8   4   7  1   
  9   4  33  1   
 10   5   8  1   
 11   5   9  1   
 12   6  10  2   
 13   6  11  am  
 14   7   8  2   
 15   7  12  1   
 16   8  13  1   
 17   9  14  1   
 18   9  34  1   
 19   9  35  1   
 20  11  15  1   
 21  11  36  1   
 22  12  16  am  
 23  12  17  1   
 24  13  18  2   
 25  13  19  am  
 26  14  20  1   
 27  14  37  1   
 28  14  38  1   
 29  15  21  ar  
 30  15  22  ar  
 31  16  19  am  
 32  16  23  2   
 33  17  39  1   
 34  17  40  1   
 35  17  41  1   
 36  19  24  1   
 37  20  25  1   
 38  20  42  1   
 39  20  43  1   
 40  21  26  ar  
 41  21  44  1   
 42  22  27  ar  
 43  22  45  1   
 44  24  46  1   
 45  24  47  1   
 46  24  48  1   
 47  25  49  1   
 48  25  50  1   
 49  25  51  1   
 50  26  28  1   
 51  26  29  ar  
 52  27  29  ar  
 53  27  52  1   
 54  28  30  1   
 55  29  53  1   
 56  30  54  1   
 57  30  55  1   
 58  30  56  1   
@<TRIPOS>SUBSTRUCTURE
  1 ****   4 GROUP 4 **** **** 0

# MOE 2024.06 (io_trps.svl 2023.06)
