@<TRIPOS>MOLECULE
3-(6,7-Dimethoxy-2-propionyl-1,2,3,4-tetrahydro-isoquinolin-1-yl)-6,7-dimethyl-1H-quinolin-2-one
59 62 1 0 0 
SMALL
USER_CHARGES


@<TRIPOS>ATOM
  1 O        0.8370    -1.7810    -2.1140 O.2   1 <1>  -0.5700 
  2 C        1.7630    -1.7060    -1.3280 C.2   1 <1>   0.6160 
  3 N        2.8530    -1.0000    -1.7390 N.am  1 <1>  -0.5470 
  4 C        1.8050    -2.3040    -0.0240 C.2   1 <1>  -0.1240 
  5 C        4.0080    -0.8510    -0.9810 C.ar  1 <1>   0.1170 
  6 C        2.9220    -2.1780     0.7420 C.2   1 <1>  -0.1780 
  7 C        0.6000    -3.0800     0.5020 C.3   1 <1>   0.5020 
  8 C        4.0640    -1.4480     0.2840 C.ar  1 <1>   0.0280 
  9 C        5.1000    -0.1300    -1.4530 C.ar  1 <1>  -0.1500 
 10 N        0.5840    -4.4620    -0.0670 N.am  1 <1>  -0.6600 
 11 C       -0.7330    -2.3350     0.3520 C.ar  1 <1>  -0.1430 
 12 C        5.2280    -1.3050     1.0380 C.ar  1 <1>  -0.1500 
 13 C        6.2470     0.0060    -0.6960 C.ar  1 <1>  -0.1430 
 14 C        1.3560    -5.4290     0.5220 C.2   1 <1>   0.5690 
 15 C       -0.2910    -4.6520    -1.2580 C.3   1 <1>   0.1400 
 16 C       -1.8250    -2.8900    -0.3040 C.ar  1 <1>  -0.1430 
 17 C       -0.8520    -1.0650     0.8960 C.ar  1 <1>  -0.1500 
 18 C        6.3110    -0.5900     0.5650 C.ar  1 <1>  -0.1440 
 19 C        7.4180     0.8030    -1.2540 C.3   1 <1>  -0.0970 
 20 O        1.9940    -5.2060     1.5240 O.2   1 <1>  -0.5700 
 21 C        1.4550    -6.8350    -0.0540 C.3   1 <1>  -0.0990 
 22 C       -1.7320    -4.2820    -0.9080 C.3   1 <1>  -0.0170 
 23 C       -3.0110    -2.1790    -0.4050 C.ar  1 <1>  -0.1500 
 24 C       -2.0270    -0.3420     0.7910 C.ar  1 <1>   0.0830 
 25 C        7.5560    -0.4690     1.4330 C.3   1 <1>  -0.0970 
 26 C        2.3670    -6.9080    -1.2900 C.3   1 <1>  -0.2400 
 27 C       -3.1350    -0.9040     0.1420 C.ar  1 <1>   0.0830 
 28 O       -2.0100     0.8980     1.3530 O.3   1 <1>  -0.3620 
 29 O       -4.3050    -0.2030     0.0790 O.3   1 <1>  -0.3620 
 30 C       -2.5320     1.9880     0.6270 C.3   1 <1>   0.0400 
 31 C       -5.4830    -0.7620    -0.4550 C.3   1 <1>   0.0400 
 32 H        2.7730    -0.5850    -2.6640 H     1 <1>   0.3700 
 33 H        2.9910    -2.6300     1.7170 H     1 <1>   0.1500 
 34 H        0.7340    -3.1790     1.5660 H     1 <1>   0.0800 
 35 H        5.0370     0.3210    -2.4260 H     1 <1>   0.1500 
 36 H        5.2670    -1.7700     2.0060 H     1 <1>   0.1500 
 37 H       -0.2660    -5.6660    -1.6090 H     1 <1>   0.0800 
 38 H        0.0560    -4.0290    -2.0610 H     1 <1>   0.0800 
 39 H       -0.0240    -0.6120     1.4100 H     1 <1>   0.1500 
 40 H        7.1920     1.1910    -2.2310 H     1 <1>   0.0800 
 41 H        8.2870     0.1750    -1.3340 H     1 <1>   0.0800 
 42 H        7.6420     1.6330    -0.6080 H     1 <1>   0.0800 
 43 H        0.4740    -7.2060    -0.2830 H     1 <1>   0.0800 
 44 H        1.8610    -7.4780     0.7070 H     1 <1>   0.0800 
 45 H       -2.1230    -4.9990    -0.2080 H     1 <1>   0.0800 
 46 H       -2.3260    -4.3310    -1.8030 H     1 <1>   0.0800 
 47 H       -3.8340    -2.6390    -0.9150 H     1 <1>   0.1500 
 48 H        7.4300    -0.9900     2.3650 H     1 <1>   0.0800 
 49 H        7.7560     0.5650     1.6500 H     1 <1>   0.0800 
 50 H        8.4030    -0.8910     0.9240 H     1 <1>   0.0800 
 51 H        1.9960    -6.2780    -2.0790 H     1 <1>   0.0800 
 52 H        2.4230    -7.9190    -1.6510 H     1 <1>   0.0800 
 53 H        3.3590    -6.5790    -1.0320 H     1 <1>   0.0800 
 54 H       -2.0650     2.8860     0.9880 H     1 <1>   0.0800 
 55 H       -3.5930     2.0400     0.7920 H     1 <1>   0.0800 
 56 H       -2.3160     1.8520    -0.4180 H     1 <1>   0.0800 
 57 H       -6.2730    -0.0410    -0.3490 H     1 <1>   0.0800 
 58 H       -5.7270    -1.6540     0.0950 H     1 <1>   0.0800 
 59 H       -5.3250    -0.9790    -1.4970 H     1 <1>   0.0800 
@<TRIPOS>BOND
  1   1   2  2   
  2   2   3  am  
  3   2   4  1   
  4   3   5  1   
  5   3  32  1   
  6   4   6  2   
  7   4   7  1   
  8   5   8  ar  
  9   5   9  ar  
 10   6   8  1   
 11   6  33  1   
 12   7  10  1   
 13   7  11  1   
 14   7  34  1   
 15   8  12  ar  
 16   9  13  ar  
 17   9  35  1   
 18  10  14  am  
 19  10  15  1   
 20  11  16  ar  
 21  11  17  ar  
 22  12  18  ar  
 23  12  36  1   
 24  13  18  ar  
 25  13  19  1   
 26  14  20  2   
 27  14  21  1   
 28  15  22  1   
 29  15  37  1   
 30  15  38  1   
 31  16  22  1   
 32  16  23  ar  
 33  17  24  ar  
 34  17  39  1   
 35  18  25  1   
 36  19  40  1   
 37  19  41  1   
 38  19  42  1   
 39  21  26  1   
 40  21  43  1   
 41  21  44  1   
 42  22  45  1   
 43  22  46  1   
 44  23  27  ar  
 45  23  47  1   
 46  24  27  ar  
 47  24  28  1   
 48  25  48  1   
 49  25  49  1   
 50  25  50  1   
 51  26  51  1   
 52  26  52  1   
 53  26  53  1   
 54  27  29  1   
 55  28  30  1   
 56  29  31  1   
 57  30  54  1   
 58  30  55  1   
 59  30  56  1   
 60  31  57  1   
 61  31  58  1   
 62  31  59  1   
@<TRIPOS>SUBSTRUCTURE
  1 ****   4 GROUP 4 **** **** 0

# MOE 2024.06 (io_trps.svl 2023.06)
