@<TRIPOS>MOLECULE
NONAME
58 61 1 0 0 
SMALL
USER_CHARGES


@<TRIPOS>ATOM
  1 CL      -2.5780     1.2580     1.6970 Cl    1 <1>  -0.1770 
  2 C       -3.6390     1.1790     0.3130 C.ar  1 <1>   0.1770 
  3 C       -4.9370     1.6300     0.4330 C.ar  1 <1>  -0.1500 
  4 C       -3.1570     0.6680    -0.8780 C.ar  1 <1>  -0.1500 
  5 C       -5.7940     1.5740    -0.6610 C.ar  1 <1>   0.1000 
  6 C       -4.0030     0.6100    -1.9730 C.ar  1 <1>  -0.1500 
  7 N       -7.1110     2.0230    -0.5940 N.pl3 1 <1>  -0.8380 
  8 C       -5.3080     1.0600    -1.8590 C.ar  1 <1>  -0.1500 
  9 C       -7.4640     3.2810    -1.3150 C.3   1 <1>   0.2090 
 10 C       -7.9580     1.7490     0.6060 C.3   1 <1>   0.2090 
 11 C       -7.6080     4.4680    -0.3440 C.3   1 <1>   0.1100 
 12 C       -8.1270     2.9960     1.4990 C.3   1 <1>   0.1100 
 13 N       -8.5790     4.1870     0.7440 N.3   1 <1>  -0.8100 
 14 C       -8.7110     5.3500     1.6430 C.3   1 <1>   0.2900 
 15 C       -9.3490     6.5500     0.9580 C.2   1 <1>   0.0070 
 16 N       -8.9330     7.7510     1.0940 N.2   1 <1>  -0.3380 
 17 N      -10.4040     6.5310     0.1550 N.pl3 1 <1>   0.3140 
 18 N       -9.7480     8.4990     0.3610 N.2   1 <1>   0.0000 
 19 N      -10.6400     7.7730    -0.2090 N.2   1 <1>  -0.4180 
 20 C      -11.2280     5.4100    -0.3370 C.3   1 <1>   0.0960 
 21 C      -12.0920     4.8170     0.7790 C.3   1 <1>  -0.0170 
 22 C      -12.8170     3.5890     0.2580 C.ar  1 <1>  -0.1430 
 23 C      -14.1620     3.6430    -0.0710 C.ar  1 <1>  -0.1500 
 24 C      -12.1220     2.4020     0.0990 C.ar  1 <1>  -0.1500 
 25 C      -14.8190     2.5160    -0.5580 C.ar  1 <1>   0.0830 
 26 C      -12.7610     1.2750    -0.3850 C.ar  1 <1>  -0.1500 
 27 O      -16.1420     2.5270    -0.8940 O.3   1 <1>  -0.3620 
 28 C      -14.1120     1.3200    -0.7180 C.ar  1 <1>   0.0830 
 29 C      -16.9460     3.6710    -0.7200 C.3   1 <1>   0.0400 
 30 O      -14.7840     0.2350    -1.2000 O.3   1 <1>  -0.3630 
 31 C      -14.1520    -1.0110    -1.3860 C.3   1 <1>   0.0400 
 32 H       -5.2730     2.0270     1.3690 H     1 <1>   0.1500 
 33 H       -2.1410     0.3240    -0.9430 H     1 <1>   0.1500 
 34 H       -3.6490     0.2140    -2.9090 H     1 <1>   0.1500 
 35 H       -5.9710     1.0110    -2.7030 H     1 <1>   0.1500 
 36 H       -8.3910     3.1360    -1.8410 H     1 <1>   0.0800 
 37 H       -6.7030     3.5090    -2.0420 H     1 <1>   0.0800 
 38 H       -7.5240     0.9490     1.1800 H     1 <1>   0.0800 
 39 H       -8.9260     1.4200     0.2730 H     1 <1>   0.0800 
 40 H       -7.9250     5.3280    -0.9070 H     1 <1>   0.0800 
 41 H       -6.6400     4.6870     0.0740 H     1 <1>   0.0800 
 42 H       -7.1850     3.2070     1.9770 H     1 <1>   0.0800 
 43 H       -8.8430     2.7680     2.2690 H     1 <1>   0.0800 
 44 H       -7.7410     5.6330     2.0170 H     1 <1>   0.0800 
 45 H       -9.3210     5.0820     2.4870 H     1 <1>   0.0800 
 46 H      -10.5810     4.6590    -0.7490 H     1 <1>   0.0800 
 47 H      -11.8610     5.7700    -1.1280 H     1 <1>   0.0800 
 48 H      -12.8000     5.5530     1.1190 H     1 <1>   0.0800 
 49 H      -11.4790     4.5240     1.6110 H     1 <1>   0.0800 
 50 H      -14.6870     4.5700     0.0550 H     1 <1>   0.1500 
 51 H      -11.0770     2.3530     0.3490 H     1 <1>   0.1500 
 52 H      -12.1900     0.3740    -0.4960 H     1 <1>   0.1500 
 53 H      -17.9450     3.4240    -1.0320 H     1 <1>   0.0800 
 54 H      -16.5590     4.4660    -1.3320 H     1 <1>   0.0800 
 55 H      -16.9450     3.9440     0.3200 H     1 <1>   0.0800 
 56 H      -14.8830    -1.6990    -1.7710 H     1 <1>   0.0800 
 57 H      -13.7850    -1.3610    -0.4380 H     1 <1>   0.0800 
 58 H      -13.3520    -0.8950    -2.0940 H     1 <1>   0.0800 
@<TRIPOS>BOND
  1   1   2  1   
  2   2   3  ar  
  3   2   4  ar  
  4   3   5  ar  
  5   3  32  1   
  6   4   6  ar  
  7   4  33  1   
  8   5   7  1   
  9   5   8  ar  
 10   6   8  ar  
 11   6  34  1   
 12   7   9  1   
 13   7  10  1   
 14   8  35  1   
 15   9  11  1   
 16   9  36  1   
 17   9  37  1   
 18  10  12  1   
 19  10  38  1   
 20  10  39  1   
 21  11  13  1   
 22  11  40  1   
 23  11  41  1   
 24  12  13  1   
 25  12  42  1   
 26  12  43  1   
 27  13  14  1   
 28  14  15  1   
 29  14  44  1   
 30  14  45  1   
 31  15  16  2   
 32  15  17  1   
 33  16  18  1   
 34  17  19  1   
 35  17  20  1   
 36  18  19  2   
 37  20  21  1   
 38  20  46  1   
 39  20  47  1   
 40  21  22  1   
 41  21  48  1   
 42  21  49  1   
 43  22  23  ar  
 44  22  24  ar  
 45  23  25  ar  
 46  23  50  1   
 47  24  26  ar  
 48  24  51  1   
 49  25  27  1   
 50  25  28  ar  
 51  26  28  ar  
 52  26  52  1   
 53  27  29  1   
 54  28  30  1   
 55  29  53  1   
 56  29  54  1   
 57  29  55  1   
 58  30  31  1   
 59  31  56  1   
 60  31  57  1   
 61  31  58  1   
@<TRIPOS>SUBSTRUCTURE
  1 ****  13 GROUP 4 **** **** 0

# MOE 2024.06 (io_trps.svl 2023.06)
