@<TRIPOS>MOLECULE
N-Cyclohexyl-2-(5-furan-2-yl-4-furan-2-ylmethyl-4H-[1,2,4]triazol-3-ylsulfanyl)-acetamide
49 52 1 0 0 
SMALL
USER_CHARGES


@<TRIPOS>ATOM
  1 S        0.7800    -1.4930    -0.9460 S.3   1 <1>  -0.2860 
  2 C       -0.9410    -1.9460    -0.7100 C.2   1 <1>   0.2420 
  3 C        0.8030     0.3070    -0.4730 C.3   1 <1>   0.1310 
  4 N       -1.8310    -1.1260    -0.2830 N.2   1 <1>  -0.3380 
  5 N       -1.4090    -3.1650    -0.9570 N.pl3 1 <1>   0.0480 
  6 C        2.2120     0.8750    -0.5160 C.2   1 <1>   0.5690 
  7 N       -2.9650    -1.8210    -0.2300 N.2   1 <1>  -0.3380 
  8 C       -2.7150    -3.0410    -0.6290 C.2   1 <1>   0.1860 
  9 C       -0.6450    -4.3340    -1.4380 C.3   1 <1>   0.2760 
 10 O        2.3480     2.0600    -0.7050 O.2   1 <1>  -0.5700 
 11 N        3.2750     0.0490    -0.3310 N.am  1 <1>  -0.7300 
 12 C       -3.7100    -4.0830    -0.6890 C.2   1 <1>   0.1400 
 13 C       -0.2290    -5.2330    -0.2860 C.2   1 <1>  -0.0400 
 14 C        4.6890     0.4510    -0.3480 C.3   1 <1>   0.2200 
 15 O       -3.4140    -5.3120    -1.0970 O.3   1 <1>  -0.2800 
 16 C       -5.0320    -4.0420    -0.3690 C.2   1 <1>  -0.1500 
 17 O        0.5180    -6.2830    -0.5640 O.3   1 <1>  -0.2800 
 18 C       -0.4840    -5.1750     1.0410 C.2   1 <1>  -0.1500 
 19 C        5.3810    -0.2280    -1.5340 C.3   1 <1>  -0.1600 
 20 C        5.3350     0.0450     0.9810 C.3   1 <1>  -0.1600 
 21 C       -4.5030    -6.0500    -1.0420 C.2   1 <1>  -0.0100 
 22 C       -5.5460    -5.3190    -0.5980 C.2   1 <1>  -0.1500 
 23 C        0.7550    -6.9170     0.5680 C.2   1 <1>  -0.0100 
 24 C        0.1640    -6.2830     1.6010 C.2   1 <1>  -0.1500 
 25 C        6.8880     0.0660    -1.5410 C.3   1 <1>  -0.1600 
 26 C        6.8420     0.3400     0.9790 C.3   1 <1>  -0.1600 
 27 C        7.5380    -0.3370    -0.2100 C.3   1 <1>  -0.1600 
 28 H        0.4000     0.3850     0.5200 H     1 <1>   0.0800 
 29 H        0.1670     0.8260    -1.1650 H     1 <1>   0.0800 
 30 H        0.2340    -3.9970    -1.9540 H     1 <1>   0.0800 
 31 H       -1.2400    -4.8900    -2.1380 H     1 <1>   0.0800 
 32 H        3.1070    -0.9530    -0.2260 H     1 <1>   0.3700 
 33 H        4.7620     1.5210    -0.4630 H     1 <1>   0.0800 
 34 H       -5.5870    -3.1950    -0.0060 H     1 <1>   0.1500 
 35 H       -1.0590    -4.4520     1.5940 H     1 <1>   0.1500 
 36 H        4.9450     0.1300    -2.4500 H     1 <1>   0.0800 
 37 H        5.2330    -1.2930    -1.4770 H     1 <1>   0.0800 
 38 H        5.1860    -1.0070     1.1480 H     1 <1>   0.0800 
 39 H        4.8670     0.5890     1.7830 H     1 <1>   0.0800 
 40 H       -4.4490    -7.0840    -1.3360 H     1 <1>   0.1500 
 41 H       -6.5660    -5.6240    -0.4420 H     1 <1>   0.1500 
 42 H        1.3540    -7.8110     0.5470 H     1 <1>   0.1500 
 43 H        0.1660    -6.5460     2.6450 H     1 <1>   0.1500 
 44 H        7.0440     1.1190    -1.7080 H     1 <1>   0.0800 
 45 H        7.3580    -0.4680    -2.3490 H     1 <1>   0.0800 
 46 H        7.2800    -0.0070     1.8990 H     1 <1>   0.0800 
 47 H        6.9960     1.4050     0.9220 H     1 <1>   0.0800 
 48 H        8.5800    -0.0640    -0.2210 H     1 <1>   0.0800 
 49 H        7.4810    -1.4060    -0.0950 H     1 <1>   0.0800 
@<TRIPOS>BOND
  1   1   2  1   
  2   1   3  1   
  3   2   4  2   
  4   2   5  1   
  5   3   6  1   
  6   3  28  1   
  7   3  29  1   
  8   4   7  1   
  9   5   8  1   
 10   5   9  1   
 11   6  10  2   
 12   6  11  am  
 13   7   8  2   
 14   8  12  1   
 15   9  13  1   
 16   9  30  1   
 17   9  31  1   
 18  11  14  1   
 19  11  32  1   
 20  12  15  1   
 21  12  16  2   
 22  13  17  1   
 23  13  18  2   
 24  14  19  1   
 25  14  20  1   
 26  14  33  1   
 27  15  21  1   
 28  16  22  1   
 29  16  34  1   
 30  17  23  1   
 31  18  24  1   
 32  18  35  1   
 33  19  25  1   
 34  19  36  1   
 35  19  37  1   
 36  20  26  1   
 37  20  38  1   
 38  20  39  1   
 39  21  22  2   
 40  21  40  1   
 41  22  41  1   
 42  23  24  2   
 43  23  42  1   
 44  24  43  1   
 45  25  27  1   
 46  25  44  1   
 47  25  45  1   
 48  26  27  1   
 49  26  46  1   
 50  26  47  1   
 51  27  48  1   
 52  27  49  1   
@<TRIPOS>SUBSTRUCTURE
  1 ****   1 GROUP 4 **** **** 0

# MOE 2024.06 (io_trps.svl 2023.06)
