@<TRIPOS>MOLECULE
N-[1,4]Dioxan-2-ylmethyl-2-[3-(4-methoxy-phenyl)-6-oxo-6H-pyridazin-1-yl]-acetamide
47 49 1 0 0 
SMALL
USER_CHARGES


@<TRIPOS>ATOM
  1 O       -1.7220    -1.6280     0.0670 O.2   1 <1>  -0.5700 
  2 C       -0.7900    -2.3920     0.2830 C.2   1 <1>   0.6160 
  3 N       -0.2690    -3.2160    -0.7100 N.am  1 <1>  -0.2980 
  4 C       -0.1850    -2.4820     1.5570 C.2   1 <1>  -0.1360 
  5 N        0.7610    -4.1000    -0.5210 N.2   1 <1>  -0.5120 
  6 C       -0.9250    -3.2200    -2.0550 C.3   1 <1>   0.2010 
  7 C        0.8390    -3.3530     1.7430 C.2   1 <1>  -0.1360 
  8 C        1.3000    -4.1730     0.6700 C.2   1 <1>   0.3490 
  9 C       -2.2580    -3.9590    -2.0370 C.2   1 <1>   0.5690 
 10 C        2.3910    -5.0940     0.9090 C.ar  1 <1>   0.0860 
 11 O       -3.1180    -3.6540    -2.8300 O.2   1 <1>  -0.5700 
 12 N       -2.4520    -4.9330    -1.1100 N.am  1 <1>  -0.7300 
 13 C        2.4420    -5.8940     2.0520 C.ar  1 <1>  -0.1500 
 14 C        3.4400    -5.2120    -0.0040 C.ar  1 <1>  -0.1500 
 15 C       -3.7720    -5.3950    -0.6330 C.3   1 <1>   0.1400 
 16 C        3.5010    -6.7540     2.2800 C.ar  1 <1>  -0.1500 
 17 C        4.5010    -6.0710     0.2160 C.ar  1 <1>  -0.1500 
 18 C       -4.1050    -4.7090     0.7000 C.3   1 <1>   0.2000 
 19 C        4.5400    -6.8480     1.3690 C.ar  1 <1>   0.0820 
 20 O       -3.0400    -4.9050     1.6010 O.3   1 <1>  -0.5600 
 21 C       -5.4110    -5.2530     1.3110 C.3   1 <1>   0.1200 
 22 O        5.5410    -7.7090     1.6680 O.3   1 <1>  -0.3630 
 23 C       -3.2690    -4.3120     2.8450 C.3   1 <1>   0.1200 
 24 O       -5.6350    -4.6920     2.5730 O.3   1 <1>  -0.5600 
 25 C        6.6410    -7.8890     0.8040 C.3   1 <1>   0.0400 
 26 C       -4.5680    -4.8640     3.4600 C.3   1 <1>   0.1200 
 27 H       -0.5690    -1.8430     2.3270 H     1 <1>   0.1500 
 28 H       -0.2760    -3.6960    -2.7650 H     1 <1>   0.0800 
 29 H       -1.0920    -2.2070    -2.3720 H     1 <1>   0.0800 
 30 H        1.3290    -3.4400     2.6950 H     1 <1>   0.1500 
 31 H       -1.7020    -5.0700    -0.4220 H     1 <1>   0.3700 
 32 H        1.6430    -5.8520     2.7700 H     1 <1>   0.1500 
 33 H        3.4170    -4.6160    -0.9000 H     1 <1>   0.1500 
 34 H       -3.7510    -6.4620    -0.5030 H     1 <1>   0.0800 
 35 H       -4.5280    -5.1560    -1.3630 H     1 <1>   0.0800 
 36 H        3.5320    -7.3640     3.1650 H     1 <1>   0.1500 
 37 H        5.2840    -6.1220    -0.5170 H     1 <1>   0.1500 
 38 H       -4.2070    -3.6510     0.5240 H     1 <1>   0.0800 
 39 H       -5.3640    -6.3230     1.4160 H     1 <1>   0.0800 
 40 H       -6.2490    -5.0000     0.6860 H     1 <1>   0.0800 
 41 H       -3.3360    -3.2450     2.7140 H     1 <1>   0.0800 
 42 H       -2.4300    -4.5350     3.4780 H     1 <1>   0.0800 
 43 H        7.2980    -8.6150     1.2460 H     1 <1>   0.0800 
 44 H        7.1540    -6.9500     0.6920 H     1 <1>   0.0800 
 45 H        6.2840    -8.2490    -0.1450 H     1 <1>   0.0800 
 46 H       -4.8060    -4.3400     4.3680 H     1 <1>   0.0800 
 47 H       -4.4660    -5.9130     3.6790 H     1 <1>   0.0800 
@<TRIPOS>BOND
  1   1   2  2   
  2   2   3  am  
  3   2   4  1   
  4   3   5  1   
  5   3   6  1   
  6   4   7  2   
  7   4  27  1   
  8   5   8  2   
  9   6   9  1   
 10   6  28  1   
 11   6  29  1   
 12   7   8  1   
 13   7  30  1   
 14   8  10  1   
 15   9  11  2   
 16   9  12  am  
 17  10  13  ar  
 18  10  14  ar  
 19  12  15  1   
 20  12  31  1   
 21  13  16  ar  
 22  13  32  1   
 23  14  17  ar  
 24  14  33  1   
 25  15  18  1   
 26  15  34  1   
 27  15  35  1   
 28  16  19  ar  
 29  16  36  1   
 30  17  19  ar  
 31  17  37  1   
 32  18  20  1   
 33  18  21  1   
 34  18  38  1   
 35  19  22  1   
 36  20  23  1   
 37  21  24  1   
 38  21  39  1   
 39  21  40  1   
 40  22  25  1   
 41  23  26  1   
 42  23  41  1   
 43  23  42  1   
 44  24  26  1   
 45  25  43  1   
 46  25  44  1   
 47  25  45  1   
 48  26  46  1   
 49  26  47  1   
@<TRIPOS>SUBSTRUCTURE
  1 ****   8 GROUP 4 **** **** 0

# MOE 2024.06 (io_trps.svl 2023.06)
