@<TRIPOS>MOLECULE
N-(5-Chloro-2-methoxy-phenyl)-2-[4-(2,3-dihydro-benzo[1,4]dioxine-6-carbonyl)-piperidin-1-yl]-acetamide
56 59 1 0 0 
SMALL
USER_CHARGES


@<TRIPOS>ATOM
  1 CL       1.1630    -3.1490    -0.7420 Cl    1 <1>  -0.1770 
  2 C        2.7720    -3.0230    -0.0770 C.ar  1 <1>   0.1770 
  3 C        3.6770    -2.1520    -0.6500 C.ar  1 <1>  -0.1500 
  4 C        3.1090    -3.8000     1.0150 C.ar  1 <1>  -0.1500 
  5 C        4.9590    -2.0470    -0.1250 C.ar  1 <1>   0.1170 
  6 C        4.3840    -3.7040     1.5480 C.ar  1 <1>  -0.1500 
  7 N        5.9240    -1.1780    -0.6550 N.am  1 <1>  -0.5470 
  8 C        5.3100    -2.8310     0.9820 C.ar  1 <1>   0.0830 
  9 C        6.0530    -0.4740    -1.8140 C.2   1 <1>   0.5690 
 10 O        6.5850    -2.6930     1.4580 O.3   1 <1>  -0.3630 
 11 O        5.2060    -0.4130    -2.6730 O.2   1 <1>  -0.5700 
 12 C        7.3820     0.2640    -2.0040 C.3   1 <1>   0.1710 
 13 C        7.0180    -3.3500     2.6280 C.3   1 <1>   0.0400 
 14 N        8.4650    -0.2440    -1.1080 N.3   1 <1>  -0.8100 
 15 C        9.5310     0.7400    -0.8970 C.3   1 <1>   0.1100 
 16 C        8.9960    -1.5360    -1.5670 C.3   1 <1>   0.1100 
 17 C       10.4620     0.2370     0.2100 C.3   1 <1>  -0.1600 
 18 C        9.9050    -2.1190    -0.4830 C.3   1 <1>  -0.1600 
 19 C       11.0450    -1.1490    -0.1280 C.3   1 <1>  -0.0190 
 20 C       11.9070    -1.7110     1.0100 C.2   1 <1>   0.4230 
 21 O       11.4740    -1.6390     2.1330 O.2   1 <1>  -0.5700 
 22 C       13.1990    -2.2950     0.7190 C.ar  1 <1>   0.0860 
 23 C       14.2000    -2.2850     1.6940 C.ar  1 <1>  -0.1500 
 24 C       13.5140    -2.8900    -0.5100 C.ar  1 <1>  -0.1500 
 25 C       15.4510    -2.8180     1.4550 C.ar  1 <1>   0.0830 
 26 C       14.7620    -3.4330    -0.7590 C.ar  1 <1>  -0.1500 
 27 O       16.3910    -2.7550     2.4320 O.3   1 <1>  -0.3630 
 28 C       15.7360    -3.4050     0.2220 C.ar  1 <1>   0.0830 
 29 C       17.7320    -2.9980     2.0490 C.3   1 <1>   0.1200 
 30 O       16.9440    -3.9550    -0.0330 O.3   1 <1>  -0.3630 
 31 C       17.8020    -4.1800     1.0710 C.3   1 <1>   0.1200 
 32 H        3.3790    -1.5630    -1.4960 H     1 <1>   0.1500 
 33 H        2.3810    -4.4690     1.4390 H     1 <1>   0.1500 
 34 H        4.6340    -4.3140     2.3950 H     1 <1>   0.1500 
 35 H        6.7930    -1.1480    -0.1030 H     1 <1>   0.3700 
 36 H        7.1960     1.3010    -1.7890 H     1 <1>   0.0800 
 37 H        7.6850     0.1870    -3.0330 H     1 <1>   0.0800 
 38 H        8.0340    -3.0520     2.8200 H     1 <1>   0.0800 
 39 H        6.9740    -4.4130     2.4700 H     1 <1>   0.0800 
 40 H        6.3900    -3.0540     3.4500 H     1 <1>   0.0800 
 41 H        9.1020     1.6800    -0.5920 H     1 <1>   0.0800 
 42 H       10.0800     0.8940    -1.8110 H     1 <1>   0.0800 
 43 H        9.5460    -1.4040    -2.4840 H     1 <1>   0.0800 
 44 H        8.1900    -2.2260    -1.7520 H     1 <1>   0.0800 
 45 H        9.9010     0.1840     1.1270 H     1 <1>   0.0800 
 46 H       11.2600     0.9420     0.3560 H     1 <1>   0.0800 
 47 H       10.3070    -3.0560    -0.8220 H     1 <1>   0.0800 
 48 H        9.3120    -2.3160     0.3940 H     1 <1>   0.0800 
 49 H       11.6610    -1.0160    -0.9990 H     1 <1>   0.0800 
 50 H       13.9970    -1.8480     2.6560 H     1 <1>   0.1500 
 51 H       12.7760    -2.9450    -1.2890 H     1 <1>   0.1500 
 52 H       14.9890    -3.8880    -1.7070 H     1 <1>   0.1500 
 53 H       18.2990    -3.2040     2.9380 H     1 <1>   0.0800 
 54 H       18.1140    -2.1060     1.5840 H     1 <1>   0.0800 
 55 H       17.4880    -5.0860     1.5580 H     1 <1>   0.0800 
 56 H       18.8000    -4.3080     0.6950 H     1 <1>   0.0800 
@<TRIPOS>BOND
  1   1   2  1   
  2   2   3  ar  
  3   2   4  ar  
  4   3   5  ar  
  5   3  32  1   
  6   4   6  ar  
  7   4  33  1   
  8   5   7  1   
  9   5   8  ar  
 10   6   8  ar  
 11   6  34  1   
 12   7   9  am  
 13   7  35  1   
 14   8  10  1   
 15   9  11  2   
 16   9  12  1   
 17  10  13  1   
 18  12  14  1   
 19  12  36  1   
 20  12  37  1   
 21  13  38  1   
 22  13  39  1   
 23  13  40  1   
 24  14  15  1   
 25  14  16  1   
 26  15  17  1   
 27  15  41  1   
 28  15  42  1   
 29  16  18  1   
 30  16  43  1   
 31  16  44  1   
 32  17  19  1   
 33  17  45  1   
 34  17  46  1   
 35  18  19  1   
 36  18  47  1   
 37  18  48  1   
 38  19  20  1   
 39  19  49  1   
 40  20  21  2   
 41  20  22  1   
 42  22  23  ar  
 43  22  24  ar  
 44  23  25  ar  
 45  23  50  1   
 46  24  26  ar  
 47  24  51  1   
 48  25  27  1   
 49  25  28  ar  
 50  26  28  ar  
 51  26  52  1   
 52  27  29  1   
 53  28  30  1   
 54  29  31  1   
 55  29  53  1   
 56  29  54  1   
 57  30  31  1   
 58  31  55  1   
 59  31  56  1   
@<TRIPOS>SUBSTRUCTURE
  1 ****  18 GROUP 4 **** **** 0

# MOE 2024.06 (io_trps.svl 2023.06)
