@<TRIPOS>MOLECULE
N-(3,4-Dimethyl-phenyl)-propionamide
28 28 1 0 0 
SMALL
USER_CHARGES


@<TRIPOS>ATOM
  1 O        0.5620    -0.3880     1.7930 O.2   1 <1>  -0.5700 
  2 C        1.5000    -0.9590     1.2980 C.2   1 <1>   0.5690 
  3 N        2.7590    -0.5290     1.5750 N.am  1 <1>  -0.5470 
  4 C        1.2610    -2.1480     0.3710 C.3   1 <1>  -0.0990 
  5 C        4.0040    -1.0570     1.2220 C.ar  1 <1>   0.1170 
  6 C        0.0140    -1.9970    -0.5170 C.3   1 <1>  -0.2400 
  7 C        4.9540    -0.2430     0.6220 C.ar  1 <1>  -0.1500 
  8 C        4.3250    -2.3830     1.4720 C.ar  1 <1>  -0.1500 
  9 C        6.1990    -0.7340     0.2620 C.ar  1 <1>  -0.1430 
 10 C        5.5630    -2.8840     1.1170 C.ar  1 <1>  -0.1500 
 11 C        6.5060    -2.0680     0.5100 C.ar  1 <1>  -0.1430 
 12 C        7.2010     0.2020    -0.3980 C.3   1 <1>  -0.0970 
 13 C        7.8590    -2.6570     0.1340 C.3   1 <1>  -0.0970 
 14 H        2.7680     0.3340     2.1180 H     1 <1>   0.3700 
 15 H        1.1590    -3.0290     0.9770 H     1 <1>   0.0800 
 16 H        2.1140    -2.2790    -0.2690 H     1 <1>   0.0800 
 17 H       -0.8690    -1.9120     0.0930 H     1 <1>   0.0800 
 18 H       -0.0920    -2.8530    -1.1590 H     1 <1>   0.0800 
 19 H        0.0960    -1.1140    -1.1260 H     1 <1>   0.0800 
 20 H        4.7060     0.7850     0.4320 H     1 <1>   0.1500 
 21 H        3.6070    -3.0230     1.9520 H     1 <1>   0.1500 
 22 H        5.7890    -3.9160     1.3190 H     1 <1>   0.1500 
 23 H        6.7930     1.1900    -0.5100 H     1 <1>   0.0800 
 24 H        7.4630    -0.1670    -1.3730 H     1 <1>   0.0800 
 25 H        8.0910     0.2710     0.2020 H     1 <1>   0.0800 
 26 H        8.6440    -2.1340     0.6490 H     1 <1>   0.0800 
 27 H        8.0150    -2.5710    -0.9260 H     1 <1>   0.0800 
 28 H        7.9150    -3.6970     0.3990 H     1 <1>   0.0800 
@<TRIPOS>BOND
  1   1   2  2   
  2   2   3  am  
  3   2   4  1   
  4   3   5  1   
  5   3  14  1   
  6   4   6  1   
  7   4  15  1   
  8   4  16  1   
  9   5   7  ar  
 10   5   8  ar  
 11   6  17  1   
 12   6  18  1   
 13   6  19  1   
 14   7   9  ar  
 15   7  20  1   
 16   8  10  ar  
 17   8  21  1   
 18   9  11  ar  
 19   9  12  1   
 20  10  11  ar  
 21  10  22  1   
 22  11  13  1   
 23  12  23  1   
 24  12  24  1   
 25  12  25  1   
 26  13  26  1   
 27  13  27  1   
 28  13  28  1   
@<TRIPOS>SUBSTRUCTURE
  1 ****   5 GROUP 4 **** **** 0

# MOE 2024.06 (io_trps.svl 2023.06)
