@<TRIPOS>MOLECULE
9357
39 39 1 0 0 
SMALL
USER_CHARGES


@<TRIPOS>ATOM
  1 O        0.4110    -2.6220    -1.9050 O.2   1 <1>  -0.5700 
  2 C       -0.1110    -2.7970    -0.8330 C.2   1 <1>   0.5690 
  3 N        0.4650    -2.4140     0.3330 N.am  1 <1>  -0.7300 
  4 C       -1.4660    -3.4740    -0.7790 C.3   1 <1>  -0.0990 
  5 C        1.7580    -1.7340     0.4540 C.3   1 <1>   0.2200 
  6 C       -2.5900    -2.4950    -0.4010 C.3   1 <1>  -0.1600 
  7 C        2.6640    -2.5870     1.3350 C.3   1 <1>  -0.2400 
  8 C        1.5170    -0.3600     1.0690 C.3   1 <1>  -0.2400 
  9 C       -3.9550    -3.1830    -0.4050 C.3   1 <1>   0.1200 
 10 O       -4.9170    -2.2450     0.0140 O.3   1 <1>  -0.3630 
 11 C       -6.2300    -2.5810     0.1090 C.ar  1 <1>   0.0820 
 12 C       -6.7340    -3.8420    -0.2010 C.ar  1 <1>  -0.1500 
 13 C       -7.0950    -1.5890     0.5420 C.ar  1 <1>  -0.1500 
 14 C       -8.0900    -4.0930    -0.0730 C.ar  1 <1>  -0.1500 
 15 C       -8.4500    -1.8400     0.6700 C.ar  1 <1>  -0.1500 
 16 C       -8.9550    -3.1010     0.3610 C.ar  1 <1>   0.0820 
 17 O      -10.2680    -3.4360     0.4580 O.3   1 <1>  -0.3620 
 18 C      -11.2270    -2.4970     0.8900 C.3   1 <1>   0.0400 
 19 H       -0.0260    -2.5640     1.2130 H     1 <1>   0.3700 
 20 H       -1.4200    -4.2790    -0.0680 H     1 <1>   0.0800 
 21 H       -1.6690    -3.8980    -1.7460 H     1 <1>   0.0800 
 22 H        2.2050    -1.6200    -0.5210 H     1 <1>   0.0800 
 23 H       -2.6040    -1.6840    -1.1090 H     1 <1>   0.0800 
 24 H       -2.4020    -2.0910     0.5790 H     1 <1>   0.0800 
 25 H        2.2410    -2.7120     2.3150 H     1 <1>   0.0800 
 26 H        3.6240    -2.1140     1.4330 H     1 <1>   0.0800 
 27 H        2.8090    -3.5510     0.8820 H     1 <1>   0.0800 
 28 H        1.0740    -0.4470     2.0450 H     1 <1>   0.0800 
 29 H        0.8690     0.2150     0.4320 H     1 <1>   0.0800 
 30 H        2.4500     0.1660     1.1610 H     1 <1>   0.0800 
 31 H       -3.9690    -4.0100     0.2840 H     1 <1>   0.0800 
 32 H       -4.2120    -3.5160    -1.3960 H     1 <1>   0.0800 
 33 H       -6.0960    -4.6340    -0.5410 H     1 <1>   0.1500 
 34 H       -6.6980    -0.6190     0.7780 H     1 <1>   0.1500 
 35 H       -8.4890    -5.0620    -0.3090 H     1 <1>   0.1500 
 36 H       -9.0900    -1.0490     1.0090 H     1 <1>   0.1500 
 37 H      -12.1890    -2.9780     0.8890 H     1 <1>   0.0800 
 38 H      -11.2330    -1.6650     0.2080 H     1 <1>   0.0800 
 39 H      -10.9790    -2.1790     1.8870 H     1 <1>   0.0800 
@<TRIPOS>BOND
  1   1   2  2   
  2   2   3  am  
  3   2   4  1   
  4   3   5  1   
  5   3  19  1   
  6   4   6  1   
  7   4  20  1   
  8   4  21  1   
  9   5   7  1   
 10   5   8  1   
 11   5  22  1   
 12   6   9  1   
 13   6  23  1   
 14   6  24  1   
 15   7  25  1   
 16   7  26  1   
 17   7  27  1   
 18   8  28  1   
 19   8  29  1   
 20   8  30  1   
 21   9  10  1   
 22   9  31  1   
 23   9  32  1   
 24  10  11  1   
 25  11  12  ar  
 26  11  13  ar  
 27  12  14  ar  
 28  12  33  1   
 29  13  15  ar  
 30  13  34  1   
 31  14  16  ar  
 32  14  35  1   
 33  15  16  ar  
 34  15  36  1   
 35  16  17  1   
 36  17  18  1   
 37  18  37  1   
 38  18  38  1   
 39  18  39  1   
@<TRIPOS>SUBSTRUCTURE
  1 ****   9 GROUP 4 **** **** 0

# MOE 2024.06 (io_trps.svl 2023.06)
