@<TRIPOS>MOLECULE
ka-04808
26 26 1 0 0 
SMALL
USER_CHARGES


@<TRIPOS>ATOM
  1 CL      -2.2900    -2.4900     1.5260 Cl    1 <1>  -0.2900 
  2 C       -1.6200    -1.1040     0.6620 C.3   1 <1>   0.2710 
  3 C       -2.7160    -0.0710     0.3800 C.2   1 <1>   0.5690 
  4 C       -0.9590    -1.6420    -0.6120 C.3   1 <1>  -0.2400 
  5 O       -2.3760     1.0630     0.1430 O.2   1 <1>  -0.5700 
  6 N       -4.0250    -0.4800     0.4080 N.am  1 <1>  -0.5470 
  7 C       -5.2300     0.1980     0.1640 C.ar  1 <1>   0.1170 
  8 C       -6.4140    -0.3840     0.5950 C.ar  1 <1>  -0.1500 
  9 C       -5.3000     1.4190    -0.5010 C.ar  1 <1>  -0.1500 
 10 C       -7.6380     0.2240     0.3800 C.ar  1 <1>   0.0830 
 11 C       -6.5170     2.0390    -0.7210 C.ar  1 <1>  -0.1500 
 12 O       -8.7330    -0.4300     0.8430 O.3   1 <1>  -0.3630 
 13 C       -7.6890     1.4470    -0.2830 C.ar  1 <1>  -0.1500 
 14 C      -10.0260     0.1120     0.6910 C.3   1 <1>   0.0400 
 15 H       -0.8820    -0.6610     1.3060 H     1 <1>   0.0800 
 16 H       -1.6920    -2.1110    -1.2440 H     1 <1>   0.0800 
 17 H       -0.1920    -2.3520    -0.3610 H     1 <1>   0.0800 
 18 H       -0.5100    -0.8300    -1.1560 H     1 <1>   0.0800 
 19 H       -4.1440    -1.4460     0.7210 H     1 <1>   0.3700 
 20 H       -6.3960    -1.3250     1.1110 H     1 <1>   0.1500 
 21 H       -4.4040     1.8950    -0.8550 H     1 <1>   0.1500 
 22 H       -6.5500     2.9840    -1.2350 H     1 <1>   0.1500 
 23 H       -8.6200     1.9470    -0.4670 H     1 <1>   0.1500 
 24 H      -10.7280    -0.5700     1.1360 H     1 <1>   0.0800 
 25 H      -10.2380     0.2230    -0.3580 H     1 <1>   0.0800 
 26 H      -10.0690     1.0610     1.1960 H     1 <1>   0.0800 
@<TRIPOS>BOND
  1   1   2  1   
  2   2   3  1   
  3   2   4  1   
  4   2  15  1   
  5   3   5  2   
  6   3   6  am  
  7   4  16  1   
  8   4  17  1   
  9   4  18  1   
 10   6   7  1   
 11   6  19  1   
 12   7   8  ar  
 13   7   9  ar  
 14   8  10  ar  
 15   8  20  1   
 16   9  11  ar  
 17   9  21  1   
 18  10  12  1   
 19  10  13  ar  
 20  11  13  ar  
 21  11  22  1   
 22  12  14  1   
 23  13  23  1   
 24  14  24  1   
 25  14  25  1   
 26  14  26  1   
@<TRIPOS>SUBSTRUCTURE
  1 ****   7 GROUP 4 **** **** 0

# MOE 2024.06 (io_trps.svl 2023.06)
