@<TRIPOS>MOLECULE
NONAME
51 54 1 0 0 
SMALL
USER_CHARGES


@<TRIPOS>ATOM
  1 F        0.1420     3.2730     0.2920 F     1 <1>  -0.1900 
  2 C        1.2700     2.6090     0.2990 C.ar  1 <1>   0.1900 
  3 C        2.4590     3.3150     0.3130 C.ar  1 <1>  -0.1500 
  4 C        1.2310     1.2270     0.2930 C.ar  1 <1>  -0.1500 
  5 C        3.6480     2.6060     0.3200 C.ar  1 <1>  -0.1500 
  6 C        2.4280     0.5340     0.3000 C.ar  1 <1>  -0.1500 
  7 C        3.6430     1.2120     0.3130 C.ar  1 <1>   0.1000 
  8 N        4.8250     0.4810     0.3200 N.pl3 1 <1>  -0.8380 
  9 C        5.6340     0.5570     1.5710 C.3   1 <1>   0.2090 
 10 C        5.6970     0.6300    -0.8800 C.3   1 <1>   0.2090 
 11 C        6.7640    -0.4900     1.5570 C.3   1 <1>   0.1100 
 12 C        6.8160    -0.4270    -0.8730 C.3   1 <1>   0.1100 
 13 N        7.6330    -0.3750     0.3610 N.3   1 <1>  -0.8100 
 14 C        8.7090    -1.3870     0.4190 C.3   1 <1>   0.2900 
 15 C        9.6550    -1.3480    -0.7780 C.2   1 <1>   0.0070 
 16 N       10.6920    -0.6000    -0.8470 N.2   1 <1>  -0.3380 
 17 N        9.5630    -2.0780    -1.8840 N.pl3 1 <1>   0.3140 
 18 N       11.2510    -0.8620    -2.0200 N.2   1 <1>   0.0000 
 19 N       10.5790    -1.7510    -2.6550 N.2   1 <1>  -0.4180 
 20 C        8.5750    -3.0870    -2.3310 C.3   1 <1>   0.2390 
 21 C        8.2570    -4.1150    -1.2530 C.ar  1 <1>  -0.1430 
 22 C        9.2790    -4.8240    -0.6380 C.ar  1 <1>  -0.1500 
 23 C        6.9430    -4.3430    -0.8690 C.ar  1 <1>  -0.1500 
 24 C        8.9880    -5.7380     0.3590 C.ar  1 <1>  -0.1500 
 25 C        6.6520    -5.2580     0.1280 C.ar  1 <1>  -0.1500 
 26 C        7.6790    -5.9600     0.7510 C.ar  1 <1>   0.0830 
 27 O        7.4830    -6.8690     1.7380 O.3   1 <1>  -0.3630 
 28 C        6.1860    -7.2200     2.1680 C.3   1 <1>   0.0400 
 29 H        2.4480     4.3890     0.3180 H     1 <1>   0.1500 
 30 H        0.2870     0.7130     0.2830 H     1 <1>   0.1500 
 31 H        4.5860     3.1280     0.3320 H     1 <1>   0.1500 
 32 H        2.4390    -0.5400     0.2960 H     1 <1>   0.1500 
 33 H        4.9930     0.3840     2.4190 H     1 <1>   0.0800 
 34 H        6.0630     1.5390     1.6680 H     1 <1>   0.0800 
 35 H        6.1400     1.6110    -0.8900 H     1 <1>   0.0800 
 36 H        5.1010     0.5200    -1.7680 H     1 <1>   0.0800 
 37 H        6.3180    -1.4700     1.5910 H     1 <1>   0.0800 
 38 H        7.3600    -0.3620     2.4440 H     1 <1>   0.0800 
 39 H        7.4450    -0.2450    -1.7260 H     1 <1>   0.0800 
 40 H        6.3660    -1.3980    -0.9710 H     1 <1>   0.0800 
 41 H        8.2820    -2.3640     0.5380 H     1 <1>   0.0800 
 42 H        9.3000    -1.1950     1.2980 H     1 <1>   0.0800 
 43 H        8.9770    -3.5950    -3.1890 H     1 <1>   0.0800 
 44 H        7.6850    -2.5720    -2.6390 H     1 <1>   0.0800 
 45 H       10.3060    -4.6690    -0.9250 H     1 <1>   0.1500 
 46 H        6.1320    -3.8120    -1.3380 H     1 <1>   0.1500 
 47 H        9.7770    -6.2870     0.8410 H     1 <1>   0.1500 
 48 H        5.6260    -5.4120     0.4060 H     1 <1>   0.1500 
 49 H        6.2810    -7.9700     2.9330 H     1 <1>   0.0800 
 50 H        5.6370    -7.6170     1.3340 H     1 <1>   0.0800 
 51 H        5.7030    -6.3470     2.5700 H     1 <1>   0.0800 
@<TRIPOS>BOND
  1   1   2  1   
  2   2   3  ar  
  3   2   4  ar  
  4   3   5  ar  
  5   3  29  1   
  6   4   6  ar  
  7   4  30  1   
  8   5   7  ar  
  9   5  31  1   
 10   6   7  ar  
 11   6  32  1   
 12   7   8  1   
 13   8   9  1   
 14   8  10  1   
 15   9  11  1   
 16   9  33  1   
 17   9  34  1   
 18  10  12  1   
 19  10  35  1   
 20  10  36  1   
 21  11  13  1   
 22  11  37  1   
 23  11  38  1   
 24  12  13  1   
 25  12  39  1   
 26  12  40  1   
 27  13  14  1   
 28  14  15  1   
 29  14  41  1   
 30  14  42  1   
 31  15  16  2   
 32  15  17  1   
 33  16  18  1   
 34  17  19  1   
 35  17  20  1   
 36  18  19  2   
 37  20  21  1   
 38  20  43  1   
 39  20  44  1   
 40  21  22  ar  
 41  21  23  ar  
 42  22  24  ar  
 43  22  45  1   
 44  23  25  ar  
 45  23  46  1   
 46  24  26  ar  
 47  24  47  1   
 48  25  26  ar  
 49  25  48  1   
 50  26  27  1   
 51  27  28  1   
 52  28  49  1   
 53  28  50  1   
 54  28  51  1   
@<TRIPOS>SUBSTRUCTURE
  1 ****  12 GROUP 4 **** **** 0

# MOE 2024.06 (io_trps.svl 2023.06)
