@<TRIPOS>MOLECULE
4-(3-Methyl-benzoylamino)-piperidine-1-carboxylic acid (3-methoxy-phenyl)-amide
52 54 1 0 0 
SMALL
USER_CHARGES


@<TRIPOS>ATOM
  1 O        0.8690     0.2640    -0.0820 O.2   1 <1>  -0.5700 
  2 C        0.9310     1.3550     0.4530 C.2   1 <1>   0.6900 
  3 N        2.0110     1.6800     1.2380 N.am  1 <1>  -0.6600 
  4 N       -0.0730     2.2700     0.3110 N.am  1 <1>  -0.5470 
  5 C        2.9480     0.6250     1.7160 C.3   1 <1>   0.1400 
  6 C        2.4890     3.0740     1.4580 C.3   1 <1>   0.1400 
  7 C       -1.2190     2.2880    -0.4970 C.ar  1 <1>   0.1170 
  8 C        4.3000     0.7910     1.0200 C.3   1 <1>  -0.1600 
  9 C        3.8410     3.2600     0.7670 C.3   1 <1>  -0.1600 
 10 C       -2.2760     3.1110    -0.1340 C.ar  1 <1>  -0.1500 
 11 C       -1.3400     1.5320    -1.6600 C.ar  1 <1>  -0.1500 
 12 C        4.8430     2.2040     1.2350 C.3   1 <1>   0.2200 
 13 C       -3.4270     3.1850    -0.8980 C.ar  1 <1>   0.0820 
 14 C       -2.4860     1.5960    -2.4320 C.ar  1 <1>  -0.1500 
 15 N        6.0930     2.3590     0.4760 N.am  1 <1>  -0.7300 
 16 O       -4.4000     4.0210    -0.4550 O.3   1 <1>  -0.3630 
 17 C       -3.5330     2.4200    -2.0570 C.ar  1 <1>  -0.1500 
 18 C        7.2200     2.9850     0.9310 C.2   1 <1>   0.5440 
 19 C       -5.6240     4.1470    -1.1440 C.3   1 <1>   0.0400 
 20 O        7.1940     3.4900     2.0370 O.2   1 <1>  -0.5700 
 21 C        8.4100     3.0630     0.1000 C.ar  1 <1>   0.0860 
 22 C        8.7040     2.0930    -0.8620 C.ar  1 <1>  -0.1500 
 23 C        9.3080     4.1210     0.2360 C.ar  1 <1>  -0.1500 
 24 C        9.8290     2.1800    -1.6640 C.ar  1 <1>  -0.1440 
 25 C       10.4360     4.2170    -0.5570 C.ar  1 <1>  -0.1500 
 26 C       10.6950     3.2480    -1.5090 C.ar  1 <1>  -0.1500 
 27 C       10.1280     1.1150    -2.7050 C.3   1 <1>  -0.0970 
 28 H       -0.0290     2.9990     1.0120 H     1 <1>   0.3700 
 29 H        2.5520    -0.3560     1.5150 H     1 <1>   0.0800 
 30 H        3.0680     0.7200     2.7820 H     1 <1>   0.0800 
 31 H        2.5910     3.2480     2.5160 H     1 <1>   0.0800 
 32 H        1.7930     3.7920     1.0630 H     1 <1>   0.0800 
 33 H        4.1700     0.5940    -0.0290 H     1 <1>   0.0800 
 34 H        4.9920     0.0740     1.4220 H     1 <1>   0.0800 
 35 H        4.2240     4.2380     0.9980 H     1 <1>   0.0800 
 36 H        3.6990     3.1890    -0.2970 H     1 <1>   0.0800 
 37 H       -2.2150     3.7070     0.7560 H     1 <1>   0.1500 
 38 H       -0.5350     0.8900    -1.9690 H     1 <1>   0.1500 
 39 H        5.0400     2.3470     2.2860 H     1 <1>   0.0800 
 40 H       -2.5620     1.0010    -3.3250 H     1 <1>   0.1500 
 41 H        6.0500     2.0620    -0.4980 H     1 <1>   0.3700 
 42 H       -4.4110     2.4520    -2.6720 H     1 <1>   0.1500 
 43 H       -6.2380     4.8480    -0.6070 H     1 <1>   0.0800 
 44 H       -6.1070     3.1870    -1.1750 H     1 <1>   0.0800 
 45 H       -5.4300     4.5150    -2.1350 H     1 <1>   0.0800 
 46 H        8.0430     1.2530    -0.9750 H     1 <1>   0.1500 
 47 H        9.1130     4.8770     0.9780 H     1 <1>   0.1500 
 48 H       11.1120     5.0450    -0.4340 H     1 <1>   0.1500 
 49 H       11.5750     3.3270    -2.1240 H     1 <1>   0.1500 
 50 H        9.2770     0.4750    -2.8580 H     1 <1>   0.0800 
 51 H       10.9580     0.5130    -2.3810 H     1 <1>   0.0800 
 52 H       10.3790     1.5760    -3.6430 H     1 <1>   0.0800 
@<TRIPOS>BOND
  1   1   2  2   
  2   2   3  am  
  3   2   4  am  
  4   3   5  1   
  5   3   6  1   
  6   4   7  1   
  7   4  28  1   
  8   5   8  1   
  9   5  29  1   
 10   5  30  1   
 11   6   9  1   
 12   6  31  1   
 13   6  32  1   
 14   7  10  ar  
 15   7  11  ar  
 16   8  12  1   
 17   8  33  1   
 18   8  34  1   
 19   9  12  1   
 20   9  35  1   
 21   9  36  1   
 22  10  13  ar  
 23  10  37  1   
 24  11  14  ar  
 25  11  38  1   
 26  12  15  1   
 27  12  39  1   
 28  13  16  1   
 29  13  17  ar  
 30  14  17  ar  
 31  14  40  1   
 32  15  18  am  
 33  15  41  1   
 34  16  19  1   
 35  17  42  1   
 36  18  20  2   
 37  18  21  1   
 38  19  43  1   
 39  19  44  1   
 40  19  45  1   
 41  21  22  ar  
 42  21  23  ar  
 43  22  24  ar  
 44  22  46  1   
 45  23  25  ar  
 46  23  47  1   
 47  24  26  ar  
 48  24  27  1   
 49  25  26  ar  
 50  25  48  1   
 51  26  49  1   
 52  27  50  1   
 53  27  51  1   
 54  27  52  1   
@<TRIPOS>SUBSTRUCTURE
  1 ****   9 GROUP 4 **** **** 0

# MOE 2024.06 (io_trps.svl 2023.06)
