@<TRIPOS>MOLECULE
NONAME
54 58 1 0 0 
SMALL
USER_CHARGES


@<TRIPOS>ATOM
  1 S        0.5630     0.4300     2.6710 S.3   1 <1>  -0.2860 
  2 C        1.2620     1.0440     1.1440 C.2   1 <1>   0.2420 
  3 C       -1.0650     1.3140     2.8210 C.3   1 <1>   0.1310 
  4 N        0.9130     2.1700     0.6320 N.2   1 <1>  -0.5650 
  5 N        2.1780     0.3240     0.4450 N.pl3 1 <1>   0.0480 
  6 C       -2.1990     0.3580     2.4710 C.2   1 <1>   0.5690 
  7 C        1.6590     2.2320    -0.5050 C.ar  1 <1>   0.2270 
  8 C        2.4430     1.0980    -0.6450 C.ar  1 <1>  -0.1520 
  9 C        2.6980    -1.0330     0.7210 C.3   1 <1>   0.1570 
 10 O       -2.7190    -0.2120     3.4000 O.2   1 <1>  -0.5700 
 11 N       -2.5950     0.1620     1.1580 N.am  1 <1>  -0.4770 
 12 C        1.7040     3.2360    -1.4700 C.ar  1 <1>  -0.1500 
 13 C        3.2790     0.9370    -1.7530 C.ar  1 <1>  -0.1500 
 14 C        2.1890    -2.0220    -0.3130 C.2   1 <1>   0.5690 
 15 C       -3.5850    -0.7030     0.6650 C.ar  1 <1>   0.1170 
 16 C       -1.9560     0.8460    -0.0060 C.3   1 <1>   0.1400 
 17 C        2.5300     3.0840    -2.5620 C.ar  1 <1>  -0.1500 
 18 C        3.3150     1.9330    -2.7030 C.ar  1 <1>  -0.1500 
 19 O        2.9370    -2.3110    -1.2190 O.2   1 <1>  -0.5700 
 20 N        0.9390    -2.5760    -0.2220 N.am  1 <1>  -0.6600 
 21 C       -3.6990    -0.6160    -0.7060 C.ar  1 <1>  -0.1430 
 22 C       -4.4050    -1.5920     1.3530 C.ar  1 <1>  -0.1500 
 23 C       -2.7400     0.4090    -1.2500 C.3   1 <1>  -0.0170 
 24 C       -0.0240    -2.4450     0.8960 C.3   1 <1>   0.1400 
 25 C        0.3900    -3.4500    -1.2820 C.3   1 <1>   0.1400 
 26 C       -4.5950    -1.3910    -1.4160 C.ar  1 <1>  -0.1500 
 27 C       -5.3090    -2.3760     0.6550 C.ar  1 <1>  -0.1500 
 28 C       -1.0840    -3.5030     0.6230 C.3   1 <1>  -0.1600 
 29 C       -1.0670    -3.6730    -0.8920 C.3   1 <1>  -0.1600 
 30 C       -5.4040    -2.2790    -0.7250 C.ar  1 <1>  -0.1500 
 31 H       -1.0550     2.1810     2.1920 H     1 <1>   0.0800 
 32 H       -1.1510     1.6220     3.8460 H     1 <1>   0.0800 
 33 H        2.4120    -1.3490     1.7040 H     1 <1>   0.0800 
 34 H        3.7700    -1.0020     0.6750 H     1 <1>   0.0800 
 35 H        1.0930     4.1100    -1.3380 H     1 <1>   0.1500 
 36 H        3.8790     0.0490    -1.8610 H     1 <1>   0.1500 
 37 H       -0.9420     0.5120    -0.1050 H     1 <1>   0.0800 
 38 H       -1.9850     1.9150     0.1130 H     1 <1>   0.0800 
 39 H        2.5800     3.8490    -3.3180 H     1 <1>   0.1500 
 40 H        3.9510     1.8330    -3.5660 H     1 <1>   0.1500 
 41 H       -4.3430    -1.6770     2.4210 H     1 <1>   0.1500 
 42 H       -2.0830    -0.0180    -1.9870 H     1 <1>   0.0800 
 43 H       -3.2730     1.2410    -1.6740 H     1 <1>   0.0800 
 44 H       -0.4730    -1.4710     0.8610 H     1 <1>   0.0800 
 45 H        0.4480    -2.6010     1.8510 H     1 <1>   0.0800 
 46 H        0.9300    -4.3820    -1.2820 H     1 <1>   0.0800 
 47 H        0.4780    -2.9840    -2.2490 H     1 <1>   0.0800 
 48 H       -4.6660    -1.3080    -2.4860 H     1 <1>   0.1500 
 49 H       -5.9430    -3.0630     1.1900 H     1 <1>   0.1500 
 50 H       -2.0490    -3.2060     0.9920 H     1 <1>   0.0800 
 51 H       -0.7950    -4.4230     1.1000 H     1 <1>   0.0800 
 52 H       -1.4230    -4.6390    -1.2010 H     1 <1>   0.0800 
 53 H       -1.6760    -2.9120    -1.3490 H     1 <1>   0.0800 
 54 H       -6.1100    -2.8910    -1.2590 H     1 <1>   0.1500 
@<TRIPOS>BOND
  1   1   2  1   
  2   1   3  1   
  3   2   4  2   
  4   2   5  1   
  5   3   6  1   
  6   3  31  1   
  7   3  32  1   
  8   4   7  1   
  9   5   8  1   
 10   5   9  1   
 11   6  10  2   
 12   6  11  am  
 13   7   8  ar  
 14   7  12  ar  
 15   8  13  ar  
 16   9  14  1   
 17   9  33  1   
 18   9  34  1   
 19  11  15  1   
 20  11  16  1   
 21  12  17  ar  
 22  12  35  1   
 23  13  18  ar  
 24  13  36  1   
 25  14  19  2   
 26  14  20  am  
 27  15  21  ar  
 28  15  22  ar  
 29  16  23  1   
 30  16  37  1   
 31  16  38  1   
 32  17  18  ar  
 33  17  39  1   
 34  18  40  1   
 35  20  24  1   
 36  20  25  1   
 37  21  23  1   
 38  21  26  ar  
 39  22  27  ar  
 40  22  41  1   
 41  23  42  1   
 42  23  43  1   
 43  24  28  1   
 44  24  44  1   
 45  24  45  1   
 46  25  29  1   
 47  25  46  1   
 48  25  47  1   
 49  26  30  ar  
 50  26  48  1   
 51  27  30  ar  
 52  27  49  1   
 53  28  29  1   
 54  28  50  1   
 55  28  51  1   
 56  29  52  1   
 57  29  53  1   
 58  30  54  1   
@<TRIPOS>SUBSTRUCTURE
  1 ****  16 GROUP 4 **** **** 0

# MOE 2024.06 (io_trps.svl 2023.06)
