@<TRIPOS>MOLECULE
NONAME
27 28 1 0 0 
SMALL
USER_CHARGES


@<TRIPOS>ATOM
  1 BR      -0.8890    -0.6140     2.2140 Br    1 <1>  -0.1110 
  2 C       -0.5220    -1.9660     0.8810 C.ar  1 <1>   0.1110 
  3 C       -1.4340    -2.2170    -0.1490 C.ar  1 <1>   0.1000 
  4 C        0.6700    -2.6540     1.0070 C.ar  1 <1>  -0.1500 
  5 N       -2.6510    -1.5530    -0.3240 N.pl3 1 <1>  -0.8380 
  6 C       -1.0910    -3.2050    -1.0630 C.ar  1 <1>  -0.1500 
  7 C        0.9820    -3.6340     0.0780 C.ar  1 <1>  -0.1500 
  8 C       -2.6050    -0.1400    -0.7750 C.3   1 <1>   0.2090 
  9 C       -3.7390    -1.8460     0.6430 C.3   1 <1>   0.2090 
 10 C        0.0990    -3.9060    -0.9550 C.ar  1 <1>  -0.1500 
 11 C       -3.9380     0.2160    -1.4410 C.3   1 <1>  -0.1600 
 12 C       -5.0870    -1.5120    -0.0040 C.3   1 <1>  -0.1600 
 13 C       -5.1290    -0.0610    -0.5100 C.3   1 <1>  -0.1600 
 14 H        1.3410    -2.4280     1.8150 H     1 <1>   0.1500 
 15 H       -1.7750    -3.4170    -1.8640 H     1 <1>   0.1500 
 16 H        1.9060    -4.1800     0.1590 H     1 <1>   0.1500 
 17 H       -1.7970    -0.0110    -1.4740 H     1 <1>   0.0800 
 18 H       -2.4350     0.5040     0.0700 H     1 <1>   0.0800 
 19 H       -3.6020    -1.2530     1.5310 H     1 <1>   0.0800 
 20 H       -3.7080    -2.8870     0.9170 H     1 <1>   0.0800 
 21 H        0.3380    -4.6660    -1.6780 H     1 <1>   0.1500 
 22 H       -4.0370    -0.3670    -2.3390 H     1 <1>   0.0800 
 23 H       -3.9290     1.2540    -1.7210 H     1 <1>   0.0800 
 24 H       -5.8730    -1.6710     0.7120 H     1 <1>   0.0800 
 25 H       -5.2470    -2.1870    -0.8260 H     1 <1>   0.0800 
 26 H       -6.0520     0.1160    -1.0340 H     1 <1>   0.0800 
 27 H       -5.0870     0.6100     0.3310 H     1 <1>   0.0800 
@<TRIPOS>BOND
  1   1   2  1   
  2   2   3  ar  
  3   2   4  ar  
  4   3   5  1   
  5   3   6  ar  
  6   4   7  ar  
  7   4  14  1   
  8   5   8  1   
  9   5   9  1   
 10   6  10  ar  
 11   6  15  1   
 12   7  10  ar  
 13   7  16  1   
 14   8  11  1   
 15   8  17  1   
 16   8  18  1   
 17   9  12  1   
 18   9  19  1   
 19   9  20  1   
 20  10  21  1   
 21  11  13  1   
 22  11  22  1   
 23  11  23  1   
 24  12  13  1   
 25  12  24  1   
 26  12  25  1   
 27  13  26  1   
 28  13  27  1   
@<TRIPOS>SUBSTRUCTURE
  1 ****   3 GROUP 4 **** **** 0

# MOE 2024.06 (io_trps.svl 2023.06)
