@<TRIPOS>MOLECULE
NONAME
32 34 1 0 0 
SMALL
USER_CHARGES


@<TRIPOS>ATOM
  1 N       -0.5040    -0.7760    -2.1640 N.2   1 <1>   0.0000 
  2 N       -1.7440    -0.9760    -1.9240 N.2   1 <1>  -0.4180 
  3 N        0.2550    -1.7060    -1.5930 N.2   1 <1>  -0.3380 
  4 N       -1.8190    -2.0630    -1.1610 N.pl3 1 <1>   0.5930 
  5 C       -0.5530    -2.5030    -0.9890 C.2   1 <1>   0.2700 
  6 C       -3.0340    -2.6200    -0.6740 C.ar  1 <1>  -0.0230 
  7 N       -0.1230    -3.6500    -0.2860 N.pl3 1 <1>  -0.8220 
  8 C       -4.0880    -2.8900    -1.5420 C.ar  1 <1>  -0.1500 
  9 C       -3.1860    -2.9200     0.6780 C.ar  1 <1>  -0.1500 
 10 C        1.3260    -3.6770     0.1010 C.3   1 <1>   0.2090 
 11 C       -0.6640    -4.9720    -0.7450 C.3   1 <1>   0.2090 
 12 C       -5.2570    -3.4620    -1.0730 C.ar  1 <1>  -0.1500 
 13 C       -4.3560    -3.4910     1.1460 C.ar  1 <1>  -0.1500 
 14 C        1.6270    -4.8130     1.1010 C.3   1 <1>   0.3430 
 15 C       -0.3410    -6.0960     0.2640 C.3   1 <1>   0.3430 
 16 C       -5.3910    -3.7650     0.2700 C.ar  1 <1>  -0.1500 
 17 N        1.1210    -6.1470     0.6200 N.4   1 <1>  -0.9060 
 18 H       -3.9970    -2.6500    -2.5880 H     1 <1>   0.1500 
 19 H       -2.3890    -2.7020     1.3690 H     1 <1>   0.1500 
 20 H        1.5900    -2.7340     0.5520 H     1 <1>   0.0800 
 21 H        1.9320    -3.7960    -0.7810 H     1 <1>   0.0800 
 22 H       -0.2420    -5.2140    -1.7060 H     1 <1>   0.0800 
 23 H       -1.7320    -4.9140    -0.8650 H     1 <1>   0.0800 
 24 H       -6.0680    -3.6660    -1.7530 H     1 <1>   0.1500 
 25 H       -4.4690    -3.7150     2.1940 H     1 <1>   0.1500 
 26 H        1.1550    -4.5660     2.0380 H     1 <1>   0.0800 
 27 H        2.6900    -4.8600     1.2720 H     1 <1>   0.0800 
 28 H       -0.6540    -7.0410    -0.1480 H     1 <1>   0.0800 
 29 H       -0.9210    -5.9200     1.1560 H     1 <1>   0.0800 
 30 H       -6.3040    -4.2060     0.6340 H     1 <1>   0.1500 
 31 H        1.2830    -6.8630     1.3400 H     1 <1>   0.4500 
 32 H        1.6590    -6.4260    -0.2110 H     1 <1>   0.4500 
@<TRIPOS>BOND
  1   1   2  2   
  2   1   3  1   
  3   2   4  1   
  4   3   5  2   
  5   4   5  1   
  6   4   6  1   
  7   5   7  1   
  8   6   8  ar  
  9   6   9  ar  
 10   7  10  1   
 11   7  11  1   
 12   8  12  ar  
 13   8  18  1   
 14   9  13  ar  
 15   9  19  1   
 16  10  14  1   
 17  10  20  1   
 18  10  21  1   
 19  11  15  1   
 20  11  22  1   
 21  11  23  1   
 22  12  16  ar  
 23  12  24  1   
 24  13  16  ar  
 25  13  25  1   
 26  14  17  1   
 27  14  26  1   
 28  14  27  1   
 29  15  17  1   
 30  15  28  1   
 31  15  29  1   
 32  16  30  1   
 33  17  31  1   
 34  17  32  1   
@<TRIPOS>SUBSTRUCTURE
  1 ****   5 GROUP 4 **** **** 0

# MOE 2024.06 (io_trps.svl 2023.06)
