@<TRIPOS>MOLECULE
NONAME
47 51 1 0 0 
SMALL
USER_CHARGES


@<TRIPOS>ATOM
  1 S       -0.5360    -1.3350    -0.6910 S.3   1 <1>  -0.3320 
  2 C       -2.0830    -0.4530    -0.8120 C.ar  1 <1>   0.7220 
  3 C       -0.8880    -2.7030     0.5230 C.3   1 <1>   0.1310 
  4 N       -2.0750     0.6000    -1.6490 N.ar  1 <1>  -0.3100 
  5 N       -3.0720    -0.9130    -0.0790 N.ar  1 <1>  -0.6200 
  6 C        0.3290    -3.5830     0.7660 C.2   1 <1>   0.5690 
  7 N       -3.1620     1.3140    -1.8090 N.ar  1 <1>  -0.3100 
  8 C       -4.1650    -0.1810    -0.2510 C.ar  1 <1>   0.3100 
  9 O        0.2160    -4.5060     1.5370 O.2   1 <1>  -0.5700 
 10 N        1.4980    -3.3210     0.1250 N.am  1 <1>  -0.7300 
 11 C       -4.2170     0.9170    -1.1010 C.ar  1 <1>   0.3100 
 12 C       -5.4520    -0.3490     0.3620 C.ar  1 <1>   0.0000 
 13 C        2.7470    -4.0830     0.2640 C.3   1 <1>   0.2200 
 14 C       -5.5370     1.4810    -1.0550 C.ar  1 <1>   0.0000 
 15 C       -6.2440     0.6790    -0.1560 C.ar  1 <1>   0.0000 
 16 C       -6.0170    -1.2220     1.2640 C.ar  1 <1>  -0.1500 
 17 C        3.8380    -3.1520     0.8040 C.3   1 <1>  -0.1600 
 18 C        3.1320    -4.6570    -1.1040 C.3   1 <1>  -0.1600 
 19 C       -6.1890     2.5370    -1.6480 C.ar  1 <1>  -0.1500 
 20 C       -7.5800     0.8800     0.1820 C.ar  1 <1>   0.0000 
 21 C       -7.3610    -1.0540     1.6320 C.ar  1 <1>  -0.1500 
 22 C        5.1970    -3.8660     0.8670 C.3   1 <1>  -0.1600 
 23 C        4.4890    -5.3740    -1.0440 C.3   1 <1>  -0.1600 
 24 C       -7.5370     2.7750    -1.3340 C.ar  1 <1>  -0.1500 
 25 C       -8.2160     1.9720    -0.4450 C.ar  1 <1>  -0.1500 
 26 C       -8.1240    -0.0330     1.1090 C.ar  1 <1>  -0.1500 
 27 C        5.5830    -4.4450    -0.5010 C.3   1 <1>  -0.1600 
 28 H       -1.6910    -3.2910     0.1200 H     1 <1>   0.0800 
 29 H       -1.1990    -2.2440     1.4430 H     1 <1>   0.0800 
 30 H        1.5360    -2.5260    -0.5170 H     1 <1>   0.3700 
 31 H        2.6020    -4.8950     0.9580 H     1 <1>   0.0800 
 32 H       -5.4370    -2.0250     1.6830 H     1 <1>   0.1500 
 33 H        3.5650    -2.8210     1.7900 H     1 <1>   0.0800 
 34 H        3.9250    -2.2910     0.1650 H     1 <1>   0.0800 
 35 H        3.1880    -3.8610    -1.8260 H     1 <1>   0.0800 
 36 H        2.3750    -5.3530    -1.4200 H     1 <1>   0.0800 
 37 H       -5.6750     3.1760    -2.3460 H     1 <1>   0.1500 
 38 H       -7.7920    -1.7430     2.3390 H     1 <1>   0.1500 
 39 H        5.1460    -4.6640     1.5890 H     1 <1>   0.0800 
 40 H        5.9540    -3.1750     1.1940 H     1 <1>   0.0800 
 41 H        4.7600    -5.7160    -2.0280 H     1 <1>   0.0800 
 42 H        4.4070    -6.2380    -0.4060 H     1 <1>   0.0800 
 43 H       -8.0370     3.6050    -1.8050 H     1 <1>   0.1500 
 44 H       -9.2480     2.1640    -0.2120 H     1 <1>   0.1500 
 45 H       -9.1530     0.0850     1.3990 H     1 <1>   0.1500 
 46 H        6.5070    -4.9900    -0.4130 H     1 <1>   0.0800 
 47 H        5.7440    -3.6380    -1.1970 H     1 <1>   0.0800 
@<TRIPOS>BOND
  1   1   2  1   
  2   1   3  1   
  3   2   4  ar  
  4   2   5  ar  
  5   3   6  1   
  6   3  28  1   
  7   3  29  1   
  8   4   7  ar  
  9   5   8  ar  
 10   6   9  2   
 11   6  10  am  
 12   7  11  ar  
 13   8  11  ar  
 14   8  12  1   
 15  10  13  1   
 16  10  30  1   
 17  11  14  1   
 18  12  15  ar  
 19  12  16  ar  
 20  13  17  1   
 21  13  18  1   
 22  13  31  1   
 23  14  15  ar  
 24  14  19  ar  
 25  15  20  ar  
 26  16  21  ar  
 27  16  32  1   
 28  17  22  1   
 29  17  33  1   
 30  17  34  1   
 31  18  23  1   
 32  18  35  1   
 33  18  36  1   
 34  19  24  ar  
 35  19  37  1   
 36  20  25  ar  
 37  20  26  ar  
 38  21  26  ar  
 39  21  38  1   
 40  22  27  1   
 41  22  39  1   
 42  22  40  1   
 43  23  27  1   
 44  23  41  1   
 45  23  42  1   
 46  24  25  ar  
 47  24  43  1   
 48  25  44  1   
 49  26  45  1   
 50  27  46  1   
 51  27  47  1   
@<TRIPOS>SUBSTRUCTURE
  1 ****   5 GROUP 4 **** **** 0

# MOE 2024.06 (io_trps.svl 2023.06)
