@<TRIPOS>MOLECULE
8428
51 52 1 0 0 
SMALL
USER_CHARGES


@<TRIPOS>ATOM
  1 O       -0.7280     0.6570     0.8630 O.2   1 <1>  -0.5700 
  2 C       -1.5960     0.2490     0.1170 C.2   1 <1>   0.6340 
  3 O       -1.2460    -0.5530    -0.8940 O.3   1 <1>  -0.4300 
  4 C       -2.9980     0.5860     0.2660 C.ar  1 <1>   0.0860 
  5 C        0.0960    -0.9290    -1.1080 C.3   1 <1>   0.1200 
  6 C       -3.9790     0.1040    -0.6060 C.ar  1 <1>  -0.1500 
  7 C       -3.4360     1.4190     1.2990 C.ar  1 <1>  -0.1500 
  8 C        0.1430    -1.8380    -2.3320 C.3   1 <1>  -0.2400 
  9 C       -5.3120     0.4340    -0.4530 C.ar  1 <1>  -0.1500 
 10 C       -4.7690     1.7500     1.4540 C.ar  1 <1>  -0.1500 
 11 C       -5.7360     1.2630     0.5790 C.ar  1 <1>   0.1170 
 12 N       -7.1000     1.5590     0.6790 N.am  1 <1>  -0.5470 
 13 C       -7.8330     2.3240     1.5490 C.2   1 <1>   0.5690 
 14 O       -7.3610     2.9350     2.4760 O.2   1 <1>  -0.5700 
 15 C       -9.3380     2.4070     1.3310 C.3   1 <1>   0.1810 
 16 O       -9.7380     1.6330     0.2060 O.3   1 <1>  -0.3630 
 17 C      -11.0400     1.5670    -0.1690 C.ar  1 <1>   0.0830 
 18 C      -12.0750     2.2260     0.4850 C.ar  1 <1>  -0.1500 
 19 C      -11.3330     0.7900    -1.2720 C.ar  1 <1>  -0.1500 
 20 C      -13.3880     2.1140     0.0480 C.ar  1 <1>  -0.1430 
 21 C      -12.6360     0.6760    -1.7150 C.ar  1 <1>  -0.1500 
 22 C      -13.6830     1.3320    -1.0750 C.ar  1 <1>  -0.1430 
 23 C      -14.4330     2.8820     0.8490 C.3   1 <1>  -0.0970 
 24 C      -15.0790     1.1110    -1.6850 C.3   1 <1>   0.0630 
 25 C      -15.8710     2.3970    -1.9500 C.3   1 <1>  -0.2400 
 26 C      -15.8940     0.0970    -0.8770 C.3   1 <1>  -0.2400 
 27 H        0.4500    -1.4430    -0.2300 H     1 <1>   0.0800 
 28 H        0.6790    -0.0370    -1.2650 H     1 <1>   0.0800 
 29 H       -3.6900    -0.5410    -1.4180 H     1 <1>   0.1500 
 30 H       -2.7130     1.8130     1.9930 H     1 <1>   0.1500 
 31 H       -0.4520    -2.7180    -2.1640 H     1 <1>   0.0800 
 32 H        1.1570    -2.1410    -2.5190 H     1 <1>   0.0800 
 33 H       -0.2230    -1.3140    -3.1970 H     1 <1>   0.0800 
 34 H       -6.0340     0.0410    -1.1450 H     1 <1>   0.1500 
 35 H       -5.0490     2.3940     2.2660 H     1 <1>   0.1500 
 36 H       -7.6910     1.1260    -0.0340 H     1 <1>   0.3700 
 37 H       -9.6150     3.4300     1.1570 H     1 <1>   0.0800 
 38 H       -9.8430     2.0300     2.2010 H     1 <1>   0.0800 
 39 H      -11.8700     2.8350     1.3430 H     1 <1>   0.1500 
 40 H      -10.5410     0.2750    -1.7830 H     1 <1>   0.1500 
 41 H      -12.8250     0.0610    -2.5760 H     1 <1>   0.1500 
 42 H      -14.0530     3.1580     1.8160 H     1 <1>   0.0800 
 43 H      -15.3100     2.2880     1.0120 H     1 <1>   0.0800 
 44 H      -14.7020     3.7820     0.3270 H     1 <1>   0.0800 
 45 H      -14.9350     0.6690    -2.6570 H     1 <1>   0.0800 
 46 H      -16.3100     2.7870    -1.0530 H     1 <1>   0.0800 
 47 H      -16.6680     2.1960    -2.6430 H     1 <1>   0.0800 
 48 H      -15.2270     3.1430    -2.3810 H     1 <1>   0.0800 
 49 H      -16.1310     0.4700     0.1000 H     1 <1>   0.0800 
 50 H      -15.3320    -0.8130    -0.7640 H     1 <1>   0.0800 
 51 H      -16.8130    -0.1310    -1.3870 H     1 <1>   0.0800 
@<TRIPOS>BOND
  1   1   2  2   
  2   2   3  1   
  3   2   4  1   
  4   3   5  1   
  5   4   6  ar  
  6   4   7  ar  
  7   5   8  1   
  8   5  27  1   
  9   5  28  1   
 10   6   9  ar  
 11   6  29  1   
 12   7  10  ar  
 13   7  30  1   
 14   8  31  1   
 15   8  32  1   
 16   8  33  1   
 17   9  11  ar  
 18   9  34  1   
 19  10  11  ar  
 20  10  35  1   
 21  11  12  1   
 22  12  13  am  
 23  12  36  1   
 24  13  14  2   
 25  13  15  1   
 26  15  16  1   
 27  15  37  1   
 28  15  38  1   
 29  16  17  1   
 30  17  18  ar  
 31  17  19  ar  
 32  18  20  ar  
 33  18  39  1   
 34  19  21  ar  
 35  19  40  1   
 36  20  22  ar  
 37  20  23  1   
 38  21  22  ar  
 39  21  41  1   
 40  22  24  1   
 41  23  42  1   
 42  23  43  1   
 43  23  44  1   
 44  24  25  1   
 45  24  26  1   
 46  24  45  1   
 47  25  46  1   
 48  25  47  1   
 49  25  48  1   
 50  26  49  1   
 51  26  50  1   
 52  26  51  1   
@<TRIPOS>SUBSTRUCTURE
  1 ****  12 GROUP 4 **** **** 0

# MOE 2024.06 (io_trps.svl 2023.06)
