@<TRIPOS>MOLECULE
248
36 37 1 0 0 
SMALL
USER_CHARGES


@<TRIPOS>ATOM
  1 CL       2.9450     0.2580     3.8550 Cl    1 <1>  -0.1770 
  2 C        3.1300    -0.4200     2.2570 C.ar  1 <1>   0.1770 
  3 C        4.3980    -0.6050     1.7430 C.ar  1 <1>  -0.1500 
  4 C        2.0030    -0.7620     1.5330 C.ar  1 <1>  -0.1500 
  5 C        4.5490    -1.1430     0.4750 C.ar  1 <1>   0.0830 
  6 C        2.1510    -1.3000     0.2660 C.ar  1 <1>  -0.1500 
  7 O        5.8190    -1.2980     0.0290 O.3   1 <1>  -0.3630 
  8 C        3.4180    -1.4900    -0.2630 C.ar  1 <1>  -0.1500 
  9 C        6.0870    -1.8420    -1.2600 C.3   1 <1>   0.1810 
 10 C        7.5830    -1.9190    -1.5390 C.2   1 <1>   0.5690 
 11 O        7.9450    -2.3640    -2.6020 O.2   1 <1>  -0.5700 
 12 N        8.4640    -1.4910    -0.5980 N.am  1 <1>  -0.7300 
 13 C        9.9290    -1.4990    -0.7140 C.3   1 <1>   0.2200 
 14 C       10.5090    -2.3850     0.3930 C.3   1 <1>  -0.1600 
 15 C       10.4430    -0.0610    -0.6030 C.3   1 <1>  -0.1600 
 16 C       12.0440    -2.3470     0.3880 C.3   1 <1>  -0.1600 
 17 C       11.9790    -0.0170    -0.6100 C.3   1 <1>  -0.1600 
 18 C       12.5640    -0.9060     0.4960 C.3   1 <1>  -0.1600 
 19 H        5.2600    -0.3320     2.3230 H     1 <1>   0.1500 
 20 H        1.0270    -0.6070     1.9590 H     1 <1>   0.1500 
 21 H        1.2800    -1.5690    -0.3080 H     1 <1>   0.1500 
 22 H        3.4990    -1.9090    -1.2490 H     1 <1>   0.1500 
 23 H        5.6250    -1.2120    -1.9980 H     1 <1>   0.0800 
 24 H        5.6710    -2.8310    -1.3050 H     1 <1>   0.0800 
 25 H        8.0860    -1.1260     0.2790 H     1 <1>   0.3700 
 26 H       10.2140    -1.9020    -1.6730 H     1 <1>   0.0800 
 27 H       10.1780    -3.3980     0.2460 H     1 <1>   0.0800 
 28 H       10.1540    -2.0450     1.3500 H     1 <1>   0.0800 
 29 H       10.0850     0.3810     0.3110 H     1 <1>   0.0800 
 30 H       10.0680     0.5140    -1.4310 H     1 <1>   0.0800 
 31 H       12.4080    -2.7880    -0.5250 H     1 <1>   0.0800 
 32 H       12.4230    -2.9300     1.2100 H     1 <1>   0.0800 
 33 H       12.3120     0.9970    -0.4730 H     1 <1>   0.0800 
 34 H       12.3390    -0.3560    -1.5670 H     1 <1>   0.0800 
 35 H       13.6380    -0.9050     0.4280 H     1 <1>   0.0800 
 36 H       12.2960    -0.5020     1.4570 H     1 <1>   0.0800 
@<TRIPOS>BOND
  1   1   2  1   
  2   2   3  ar  
  3   2   4  ar  
  4   3   5  ar  
  5   3  19  1   
  6   4   6  ar  
  7   4  20  1   
  8   5   7  1   
  9   5   8  ar  
 10   6   8  ar  
 11   6  21  1   
 12   7   9  1   
 13   8  22  1   
 14   9  10  1   
 15   9  23  1   
 16   9  24  1   
 17  10  11  2   
 18  10  12  am  
 19  12  13  1   
 20  12  25  1   
 21  13  14  1   
 22  13  15  1   
 23  13  26  1   
 24  14  16  1   
 25  14  27  1   
 26  14  28  1   
 27  15  17  1   
 28  15  29  1   
 29  15  30  1   
 30  16  18  1   
 31  16  31  1   
 32  16  32  1   
 33  17  18  1   
 34  17  33  1   
 35  17  34  1   
 36  18  35  1   
 37  18  36  1   
@<TRIPOS>SUBSTRUCTURE
  1 ****   7 GROUP 4 **** **** 0

# MOE 2024.06 (io_trps.svl 2023.06)
