@<TRIPOS>MOLECULE
1-(4-Methoxy-6-methyl-pyrimidin-2-yl)-piperidine-4-carboxylic acid (furan-2-ylmethyl)-amide
46 48 1 0 0 
SMALL
USER_CHARGES


@<TRIPOS>ATOM
  1 O        0.3320    -0.4180    -1.6080 O.2   1 <1>  -0.5700 
  2 C       -0.5020    -1.0750    -1.0330 C.2   1 <1>   0.5690 
  3 N       -0.1770    -1.8830     0.0040 N.am  1 <1>  -0.7300 
  4 C       -1.9570    -0.9930    -1.4810 C.3   1 <1>  -0.0190 
  5 C        1.1900    -2.1280     0.4900 C.3   1 <1>   0.3200 
  6 C       -2.8480    -0.3620    -0.3910 C.3   1 <1>  -0.1600 
  7 C       -2.5030    -2.3720    -1.9040 C.3   1 <1>  -0.1600 
  8 C        1.2980    -3.5820     0.9110 C.2   1 <1>  -0.0400 
  9 C       -4.3190    -0.3200    -0.8120 C.3   1 <1>   0.2090 
 10 C       -3.9750    -2.2920    -2.3070 C.3   1 <1>   0.2090 
 11 O        0.5180    -4.0270     1.8800 O.3   1 <1>  -0.2800 
 12 C        2.0870    -4.5750     0.4470 C.2   1 <1>  -0.1500 
 13 N       -4.7460    -1.6920    -1.1860 N.pl3 1 <1>  -0.8380 
 14 C        0.7900    -5.3040     2.0540 C.2   1 <1>  -0.0100 
 15 C        1.7530    -5.7080     1.1990 C.2   1 <1>  -0.1500 
 16 C       -5.5800    -2.4420    -0.3800 C.ar  1 <1>   0.7200 
 17 N       -5.4150    -3.7580    -0.4010 N.ar  1 <1>  -0.6200 
 18 N       -6.4700    -1.7720     0.3490 N.ar  1 <1>  -0.6200 
 19 C       -6.2110    -4.4510     0.3700 C.ar  1 <1>   0.3930 
 20 C       -7.2590    -2.4850     1.1110 C.ar  1 <1>   0.1670 
 21 O       -6.0220    -5.7850     0.3310 O.3   1 <1>  -0.3630 
 22 C       -7.1710    -3.8510     1.1610 C.ar  1 <1>  -0.1500 
 23 C       -8.2770    -1.7270     1.9370 C.3   1 <1>  -0.0970 
 24 C       -6.7790    -6.6910     1.1010 C.3   1 <1>   0.0400 
 25 H       -0.8870    -2.4630     0.4550 H     1 <1>   0.3700 
 26 H       -1.9880    -0.3500    -2.3430 H     1 <1>   0.0800 
 27 H        1.3880    -1.4910     1.3340 H     1 <1>   0.0800 
 28 H        1.9040    -1.9120    -0.2860 H     1 <1>   0.0800 
 29 H       -2.5100     0.6380    -0.1840 H     1 <1>   0.0800 
 30 H       -2.7760    -0.9290     0.5200 H     1 <1>   0.0800 
 31 H       -2.4180    -3.0760    -1.0950 H     1 <1>   0.0800 
 32 H       -1.9300    -2.7510    -2.7310 H     1 <1>   0.0800 
 33 H       -4.4460     0.3310    -1.6600 H     1 <1>   0.0800 
 34 H       -4.9120     0.0710    -0.0030 H     1 <1>   0.0800 
 35 H       -4.3470    -3.2720    -2.5550 H     1 <1>   0.0800 
 36 H       -4.0860    -1.6700    -3.1790 H     1 <1>   0.0800 
 37 H        2.8240    -4.5420    -0.3360 H     1 <1>   0.1500 
 38 H        0.2500    -5.8510     2.8080 H     1 <1>   0.1500 
 39 H        2.1920    -6.6840     1.0910 H     1 <1>   0.1500 
 40 H       -7.8250    -4.4170     1.7910 H     1 <1>   0.1500 
 41 H       -8.9200    -1.1640     1.2850 H     1 <1>   0.0800 
 42 H       -7.7690    -1.0440     2.5940 H     1 <1>   0.0800 
 43 H       -8.8760    -2.3960     2.5260 H     1 <1>   0.0800 
 44 H       -6.4250    -7.6840     0.8870 H     1 <1>   0.0800 
 45 H       -7.8150    -6.6060     0.8230 H     1 <1>   0.0800 
 46 H       -6.6370    -6.4700     2.1440 H     1 <1>   0.0800 
@<TRIPOS>BOND
  1   1   2  2   
  2   2   3  am  
  3   2   4  1   
  4   3   5  1   
  5   3  25  1   
  6   4   6  1   
  7   4   7  1   
  8   4  26  1   
  9   5   8  1   
 10   5  27  1   
 11   5  28  1   
 12   6   9  1   
 13   6  29  1   
 14   6  30  1   
 15   7  10  1   
 16   7  31  1   
 17   7  32  1   
 18   8  11  1   
 19   8  12  2   
 20   9  13  1   
 21   9  33  1   
 22   9  34  1   
 23  10  13  1   
 24  10  35  1   
 25  10  36  1   
 26  11  14  1   
 27  12  15  1   
 28  12  37  1   
 29  13  16  1   
 30  14  15  2   
 31  14  38  1   
 32  15  39  1   
 33  16  17  ar  
 34  16  18  ar  
 35  17  19  ar  
 36  18  20  ar  
 37  19  21  1   
 38  19  22  ar  
 39  20  22  ar  
 40  20  23  1   
 41  21  24  1   
 42  22  40  1   
 43  23  41  1   
 44  23  42  1   
 45  23  43  1   
 46  24  44  1   
 47  24  45  1   
 48  24  46  1   
@<TRIPOS>SUBSTRUCTURE
  1 ****   7 GROUP 4 **** **** 0

# MOE 2024.06 (io_trps.svl 2023.06)
