@<TRIPOS>MOLECULE
2-(3-Ethyl-2,4-dioxo-3,4-dihydro-2H-thieno[3,2-d]pyrimidin-1-yl)-N-(1-methyl-3-p
50 52 1 0 0 
SMALL
USER_CHARGES


@<TRIPOS>ATOM
  1 S        2.5510    -0.1890     2.8400 S.3   1 <1>  -0.0800 
  2 C        3.1800    -0.7910     1.2990 C.2   1 <1>  -0.0450 
  3 C        1.5770    -1.6340     3.0520 C.2   1 <1>  -0.1100 
  4 C        4.1340    -0.1370     0.4790 C.2   1 <1>   0.7150 
  5 C        2.6340    -1.9950     1.0080 C.2   1 <1>   0.0630 
  6 C        1.7340    -2.4780     2.0140 C.2   1 <1>  -0.1500 
  7 O        4.5890     0.9630     0.7500 O.2   1 <1>  -0.5700 
  8 N        4.5440    -0.8100    -0.6610 N.am  1 <1>  -0.4200 
  9 N        3.0070    -2.6140    -0.1870 N.am  1 <1>  -0.4230 
 10 C        3.9850    -2.0370    -0.9940 C.2   1 <1>   0.6900 
 11 C        5.6320    -0.2320    -1.4980 C.3   1 <1>   0.1400 
 12 C        2.5060    -3.9890    -0.5170 C.3   1 <1>   0.2010 
 13 O        4.3650    -2.6310    -1.9910 O.2   1 <1>  -0.5700 
 14 C        6.9970    -0.6690    -0.9610 C.3   1 <1>  -0.2400 
 15 C        3.4800    -5.0480    -0.0210 C.2   1 <1>   0.5690 
 16 O        3.1970    -5.7030     0.9530 O.2   1 <1>  -0.5700 
 17 N        4.6640    -5.1710    -0.6710 N.am  1 <1>  -0.7300 
 18 C        5.8910    -5.7220    -0.0950 C.3   1 <1>   0.2200 
 19 C        6.8680    -4.5470     0.0120 C.3   1 <1>  -0.1600 
 20 C        6.3880    -6.8330    -1.0150 C.3   1 <1>  -0.2400 
 21 C        8.1630    -4.8630     0.7670 C.3   1 <1>  -0.0170 
 22 C        8.9990    -3.5970     0.8560 C.ar  1 <1>  -0.1430 
 23 C        8.7800    -2.6860     1.8770 C.ar  1 <1>  -0.1500 
 24 C        9.9730    -3.3310    -0.0940 C.ar  1 <1>  -0.1500 
 25 C        9.5230    -1.5200     1.9470 C.ar  1 <1>  -0.1500 
 26 C       10.7180    -2.1660    -0.0250 C.ar  1 <1>  -0.1500 
 27 C       10.4930    -1.2600     0.9960 C.ar  1 <1>  -0.1500 
 28 H        0.9850    -1.7020     3.9480 H     1 <1>   0.1500 
 29 H        1.2470    -3.4320     1.9350 H     1 <1>   0.1500 
 30 H        5.5670     0.8430    -1.4910 H     1 <1>   0.0800 
 31 H        5.5230    -0.5540    -2.5200 H     1 <1>   0.0800 
 32 H        2.3950    -4.0890    -1.5820 H     1 <1>   0.0800 
 33 H        1.5420    -4.1550    -0.0770 H     1 <1>   0.0800 
 34 H        7.1280    -0.3400     0.0540 H     1 <1>   0.0800 
 35 H        7.7780    -0.2360    -1.5590 H     1 <1>   0.0800 
 36 H        7.0960    -1.7380    -1.0050 H     1 <1>   0.0800 
 37 H        4.8300    -4.5350    -1.4630 H     1 <1>   0.3700 
 38 H        5.6830    -6.1220     0.8850 H     1 <1>   0.0800 
 39 H        6.3750    -3.7440     0.5330 H     1 <1>   0.0800 
 40 H        7.1180    -4.1990    -0.9740 H     1 <1>   0.0800 
 41 H        6.6250    -6.4440    -1.9890 H     1 <1>   0.0800 
 42 H        5.6300    -7.5900    -1.1110 H     1 <1>   0.0800 
 43 H        7.2670    -7.2940    -0.6040 H     1 <1>   0.0800 
 44 H        8.7190    -5.6300     0.2580 H     1 <1>   0.0800 
 45 H        7.9350    -5.2180     1.7580 H     1 <1>   0.0800 
 46 H        8.0260    -2.8780     2.6210 H     1 <1>   0.1500 
 47 H       10.1540    -4.0270    -0.8940 H     1 <1>   0.1500 
 48 H        9.3460    -0.8170     2.7420 H     1 <1>   0.1500 
 49 H       11.4730    -1.9650    -0.7650 H     1 <1>   0.1500 
 50 H       11.0710    -0.3540     1.0500 H     1 <1>   0.1500 
@<TRIPOS>BOND
  1   1   2  1   
  2   1   3  1   
  3   2   4  1   
  4   2   5  2   
  5   3   6  2   
  6   3  28  1   
  7   4   7  2   
  8   4   8  am  
  9   5   6  1   
 10   5   9  1   
 11   6  29  1   
 12   8  10  am  
 13   8  11  1   
 14   9  10  am  
 15   9  12  1   
 16  10  13  2   
 17  11  14  1   
 18  11  30  1   
 19  11  31  1   
 20  12  15  1   
 21  12  32  1   
 22  12  33  1   
 23  14  34  1   
 24  14  35  1   
 25  14  36  1   
 26  15  16  2   
 27  15  17  am  
 28  17  18  1   
 29  17  37  1   
 30  18  19  1   
 31  18  20  1   
 32  18  38  1   
 33  19  21  1   
 34  19  39  1   
 35  19  40  1   
 36  20  41  1   
 37  20  42  1   
 38  20  43  1   
 39  21  22  1   
 40  21  44  1   
 41  21  45  1   
 42  22  23  ar  
 43  22  24  ar  
 44  23  25  ar  
 45  23  46  1   
 46  24  26  ar  
 47  24  47  1   
 48  25  27  ar  
 49  25  48  1   
 50  26  27  ar  
 51  26  49  1   
 52  27  50  1   
@<TRIPOS>SUBSTRUCTURE
  1 ****  10 GROUP 4 **** **** 0

# MOE 2024.06 (io_trps.svl 2023.06)
