@<TRIPOS>MOLECULE
NONAME
41 43 1 0 0 
SMALL
USER_CHARGES


@<TRIPOS>ATOM
  1 O        0.0730    -0.3780    -0.9550 O.3   1 <1>  -0.3630 
  2 C       -1.0630    -1.1120    -0.8260 C.ar  1 <1>   0.0830 
  3 C        1.2680    -0.7780    -0.3230 C.3   1 <1>   0.1200 
  4 C       -2.1770    -0.6610    -1.5150 C.ar  1 <1>  -0.1500 
  5 C       -1.1620    -2.2660    -0.0520 C.ar  1 <1>  -0.1500 
  6 C        2.3570     0.2370    -0.6770 C.3   1 <1>  -0.1600 
  7 C       -3.3750    -1.3480    -1.4390 C.ar  1 <1>  -0.1500 
  8 C       -2.3640    -2.9470     0.0220 C.ar  1 <1>  -0.1500 
  9 C        3.7370    -0.1460    -0.1180 C.3   1 <1>  -0.1600 
 10 C       -3.4830    -2.5000    -0.6700 C.ar  1 <1>   0.1000 
 11 C        3.7800    -0.1410     1.4150 C.3   1 <1>  -0.2400 
 12 N       -4.7180    -3.1560    -0.5820 N.pl3 1 <1>  -0.6000 
 13 C       -5.0030    -4.5230    -0.5480 C.2   1 <1>   0.0690 
 14 N       -4.1500    -5.5170    -1.0620 N.pl3 1 <1>   0.6010 
 15 C       -6.1760    -4.9780    -0.0070 C.2   1 <1>  -0.1360 
 16 N       -2.9760    -5.4580    -1.7040 N.2   1 <1>  -0.7070 
 17 C       -4.5190    -6.8320    -0.9890 C.2   1 <1>   0.3120 
 18 C       -6.4740    -6.3550     0.0370 C.2   1 <1>   0.3750 
 19 C       -2.7300    -6.7040    -1.9470 C.2   1 <1>   0.3660 
 20 N       -5.6870    -7.2700    -0.4270 N.2   1 <1>  -0.5760 
 21 N       -3.6270    -7.5970    -1.5360 N.2   1 <1>  -0.5650 
 22 C       -7.7820    -6.7900     0.6610 C.3   1 <1>  -0.1790 
 23 H        1.5290    -1.7580    -0.6830 H     1 <1>   0.0800 
 24 H        1.0940    -0.8010     0.7380 H     1 <1>   0.0800 
 25 H       -2.0950     0.2280    -2.1130 H     1 <1>   0.1500 
 26 H       -0.3210    -2.6480     0.4940 H     1 <1>   0.1500 
 27 H        2.0730     1.2050    -0.3020 H     1 <1>   0.0800 
 28 H        2.4290     0.3000    -1.7490 H     1 <1>   0.0800 
 29 H       -4.2280    -0.9900    -1.9840 H     1 <1>   0.1500 
 30 H       -2.4340    -3.8350     0.6210 H     1 <1>   0.1500 
 31 H        4.4620     0.5610    -0.4840 H     1 <1>   0.0800 
 32 H        4.0190    -1.1190    -0.4840 H     1 <1>   0.0800 
 33 H        3.4730     0.8170     1.7970 H     1 <1>   0.0800 
 34 H        4.7830    -0.3350     1.7510 H     1 <1>   0.0800 
 35 H        3.1370    -0.9010     1.8220 H     1 <1>   0.0800 
 36 H       -5.5130    -2.5140    -0.5280 H     1 <1>   0.4000 
 37 H       -6.8920    -4.2920     0.4030 H     1 <1>   0.1500 
 38 H       -1.8390    -7.0270    -2.4620 H     1 <1>   0.1500 
 39 H       -8.6060    -6.4050     0.0890 H     1 <1>   0.0800 
 40 H       -7.8480    -6.4280     1.6700 H     1 <1>   0.0800 
 41 H       -7.8480    -7.8640     0.6780 H     1 <1>   0.0800 
@<TRIPOS>BOND
  1   1   2  1   
  2   1   3  1   
  3   2   4  ar  
  4   2   5  ar  
  5   3   6  1   
  6   3  23  1   
  7   3  24  1   
  8   4   7  ar  
  9   4  25  1   
 10   5   8  ar  
 11   5  26  1   
 12   6   9  1   
 13   6  27  1   
 14   6  28  1   
 15   7  10  ar  
 16   7  29  1   
 17   8  10  ar  
 18   8  30  1   
 19   9  11  1   
 20   9  31  1   
 21   9  32  1   
 22  10  12  1   
 23  11  33  1   
 24  11  34  1   
 25  11  35  1   
 26  12  13  1   
 27  12  36  1   
 28  13  14  1   
 29  13  15  2   
 30  14  16  1   
 31  14  17  1   
 32  15  18  1   
 33  15  37  1   
 34  16  19  2   
 35  17  20  1   
 36  17  21  2   
 37  18  20  2   
 38  18  22  1   
 39  19  21  1   
 40  19  38  1   
 41  22  39  1   
 42  22  40  1   
 43  22  41  1   
@<TRIPOS>SUBSTRUCTURE
  1 ****   8 GROUP 4 **** **** 0

# MOE 2024.06 (io_trps.svl 2023.06)
