@<TRIPOS>MOLECULE
2-[4-(3-Methoxy-phenyl)-5-pyridin-4-yl-4H-[1,2,4]triazol-3-ylsulfanyl]-1-morpholin-4-yl-ethanone
50 53 1 0 0 
SMALL
USER_CHARGES


@<TRIPOS>ATOM
  1 S        0.0970    -0.9540     2.0460 S.3   1 <1>  -0.2860 
  2 C        1.0650     0.4050     1.3800 C.2   1 <1>   0.2420 
  3 C       -1.5640    -0.2210     2.4480 C.3   1 <1>   0.1310 
  4 N        0.7170     1.6380     1.4830 N.2   1 <1>  -0.3380 
  5 N        2.2230     0.2180     0.7360 N.pl3 1 <1>   0.3260 
  6 C       -2.5530    -0.5510     1.3360 C.2   1 <1>   0.5690 
  7 N        1.6690     2.3370     0.8760 N.2   1 <1>  -0.3380 
  8 C        2.9260    -0.9900     0.4760 C.ar  1 <1>  -0.0230 
  9 C        2.5640     1.4960     0.4300 C.2   1 <1>   0.1330 
 10 O       -3.2010    -1.5630     1.4740 O.2   1 <1>  -0.5700 
 11 N       -2.7090     0.2430     0.2220 N.am  1 <1>  -0.6600 
 12 C        4.2360    -1.1490     0.9140 C.ar  1 <1>  -0.1500 
 13 C        2.3230    -2.0210    -0.2380 C.ar  1 <1>  -0.1500 
 14 C        3.7630     1.8880    -0.2740 C.ar  1 <1>   0.0530 
 15 C       -3.5170    -0.2270    -0.9470 C.3   1 <1>   0.1400 
 16 C       -2.0860     1.5870     0.0050 C.3   1 <1>   0.1400 
 17 C        4.9410    -2.3130     0.6280 C.ar  1 <1>   0.0830 
 18 C        3.0160    -3.1850    -0.5130 C.ar  1 <1>  -0.1500 
 19 C        4.4660     3.0280     0.0860 C.ar  1 <1>  -0.1500 
 20 C        4.3080     1.1860    -1.3420 C.ar  1 <1>  -0.1500 
 21 C       -4.4420     0.8820    -1.4680 C.3   1 <1>   0.1200 
 22 C       -3.0860     2.5830    -0.6080 C.3   1 <1>   0.1200 
 23 O        6.2270    -2.5250     1.0010 O.3   1 <1>  -0.3630 
 24 C        4.3220    -3.3290    -0.0820 C.ar  1 <1>  -0.1500 
 25 C        5.6250     3.3790    -0.5780 C.ar  1 <1>   0.1600 
 26 C        5.4760     1.6170    -1.9400 C.ar  1 <1>   0.1600 
 27 O       -3.7100     2.0420    -1.7360 O.3   1 <1>  -0.5600 
 28 C        6.9990    -1.5050     1.5960 C.3   1 <1>   0.0400 
 29 N        6.1530     2.6940    -1.5790 N.ar  1 <1>  -0.6200 
 30 H       -1.4520     0.8300     2.6140 H     1 <1>   0.0800 
 31 H       -1.8860    -0.6870     3.3610 H     1 <1>   0.0800 
 32 H        4.6970    -0.3570     1.4740 H     1 <1>   0.1500 
 33 H        1.3060    -1.9220    -0.5810 H     1 <1>   0.1500 
 34 H       -4.1140    -1.0820    -0.6790 H     1 <1>   0.0800 
 35 H       -2.8510    -0.5270    -1.7360 H     1 <1>   0.0800 
 36 H       -1.2410     1.4850    -0.6540 H     1 <1>   0.0800 
 37 H       -1.7410     2.0040     0.9300 H     1 <1>   0.0800 
 38 H        2.5410    -3.9810    -1.0620 H     1 <1>   0.1500 
 39 H        4.1060     3.6440     0.8900 H     1 <1>   0.1500 
 40 H        3.8290     0.3010    -1.7180 H     1 <1>   0.1500 
 41 H       -5.2060     1.1100    -0.7450 H     1 <1>   0.0800 
 42 H       -4.9140     0.5720    -2.3830 H     1 <1>   0.0800 
 43 H       -2.5740     3.4780    -0.9130 H     1 <1>   0.0800 
 44 H       -3.8430     2.8470     0.1090 H     1 <1>   0.0800 
 45 H        4.8710    -4.2290    -0.2930 H     1 <1>   0.1500 
 46 H        6.1490     4.2690    -0.2720 H     1 <1>   0.1500 
 47 H        5.8780     1.0470    -2.7620 H     1 <1>   0.1500 
 48 H        7.9940    -1.8830     1.7430 H     1 <1>   0.0800 
 49 H        6.5650    -1.2460     2.5450 H     1 <1>   0.0800 
 50 H        7.0250    -0.6550     0.9370 H     1 <1>   0.0800 
@<TRIPOS>BOND
  1   1   2  1   
  2   1   3  1   
  3   2   4  2   
  4   2   5  1   
  5   3   6  1   
  6   3  30  1   
  7   3  31  1   
  8   4   7  1   
  9   5   8  1   
 10   5   9  1   
 11   6  10  2   
 12   6  11  am  
 13   7   9  2   
 14   8  12  ar  
 15   8  13  ar  
 16   9  14  1   
 17  11  15  1   
 18  11  16  1   
 19  12  17  ar  
 20  12  32  1   
 21  13  18  ar  
 22  13  33  1   
 23  14  19  ar  
 24  14  20  ar  
 25  15  21  1   
 26  15  34  1   
 27  15  35  1   
 28  16  22  1   
 29  16  36  1   
 30  16  37  1   
 31  17  23  1   
 32  17  24  ar  
 33  18  24  ar  
 34  18  38  1   
 35  19  25  ar  
 36  19  39  1   
 37  20  26  ar  
 38  20  40  1   
 39  21  27  1   
 40  21  41  1   
 41  21  42  1   
 42  22  27  1   
 43  22  43  1   
 44  22  44  1   
 45  23  28  1   
 46  24  45  1   
 47  25  29  ar  
 48  25  46  1   
 49  26  29  ar  
 50  26  47  1   
 51  28  48  1   
 52  28  49  1   
 53  28  50  1   
@<TRIPOS>SUBSTRUCTURE
  1 ****   5 GROUP 4 **** **** 0

# MOE 2024.06 (io_trps.svl 2023.06)
