@<TRIPOS>MOLECULE
N-Cyclopentyl-2-(4-furan-2-ylmethyl-5-propyl-4H-[1,2,4]triazol-3-ylsulfanyl)-acetamide
48 50 1 0 0 
SMALL
USER_CHARGES


@<TRIPOS>ATOM
  1 S       -0.3910     0.0480    -0.5730 S.3   1 <1>  -0.2860 
  2 C       -1.9740    -0.7980    -0.6540 C.2   1 <1>   0.2420 
  3 C        0.5110    -0.6400    -2.0490 C.3   1 <1>   0.1310 
  4 N       -2.2480    -1.7060    -1.5210 N.2   1 <1>  -0.3380 
  5 N       -2.9720    -0.5450     0.1890 N.pl3 1 <1>   0.0480 
  6 C        1.9390    -0.1230    -2.1240 C.2   1 <1>   0.5690 
  7 N       -3.5020    -2.0890    -1.2580 N.2   1 <1>  -0.3380 
  8 C       -3.9150    -1.3940    -0.2490 C.2   1 <1>   0.0060 
  9 C       -2.9900     0.4200     1.3040 C.3   1 <1>   0.2760 
 10 O        2.4770    -0.0680    -3.2040 O.2   1 <1>  -0.5700 
 11 N        2.5780     0.2500    -0.9860 N.am  1 <1>  -0.7300 
 12 C       -5.3040    -1.5330     0.3530 C.3   1 <1>   0.0200 
 13 C       -3.4850     1.7720     0.8290 C.2   1 <1>  -0.0400 
 14 C        3.9510     0.7710    -0.8980 C.3   1 <1>   0.2200 
 15 C       -5.2890    -2.4660     1.5710 C.3   1 <1>  -0.1600 
 16 O       -4.7730     1.9330     0.5940 O.3   1 <1>  -0.2800 
 17 C       -2.8140     2.9190     0.5870 C.2   1 <1>  -0.1500 
 18 C        4.7140    -0.0350     0.1450 C.3   1 <1>  -0.1600 
 19 C        3.9070     2.1700    -0.2980 C.3   1 <1>  -0.1600 
 20 C       -6.6820    -2.6000     2.1950 C.3   1 <1>  -0.2400 
 21 C       -4.9540     3.1760     0.1960 C.2   1 <1>  -0.0100 
 22 C       -3.7800     3.8430     0.1710 C.2   1 <1>  -0.1500 
 23 C        4.3130     0.5540     1.5030 C.3   1 <1>  -0.1600 
 24 C        3.7950     1.9700     1.2180 C.3   1 <1>  -0.1600 
 25 H       -0.0420    -0.3470    -2.9230 H     1 <1>   0.0800 
 26 H        0.5070    -1.7100    -1.9590 H     1 <1>   0.0800 
 27 H       -1.9960     0.5160     1.6990 H     1 <1>   0.0800 
 28 H       -3.6310     0.0560     2.0850 H     1 <1>   0.0800 
 29 H        2.0720     0.2360    -0.1000 H     1 <1>   0.3700 
 30 H       -5.9620    -1.9390    -0.3960 H     1 <1>   0.0800 
 31 H       -5.6840    -0.5650     0.6270 H     1 <1>   0.0800 
 32 H        4.4300     0.7520    -1.8650 H     1 <1>   0.0800 
 33 H       -4.6040    -2.0940     2.3120 H     1 <1>   0.0800 
 34 H       -4.9430    -3.4380     1.2610 H     1 <1>   0.0800 
 35 H       -1.7610     3.1220     0.6780 H     1 <1>   0.1500 
 36 H        5.7670     0.1260    -0.0070 H     1 <1>   0.0800 
 37 H        4.5150    -1.0900     0.0710 H     1 <1>   0.0800 
 38 H        3.1040     2.7600    -0.7030 H     1 <1>   0.0800 
 39 H        4.8380     2.6620    -0.5180 H     1 <1>   0.0800 
 40 H       -7.0410    -1.6420     2.5290 H     1 <1>   0.0800 
 41 H       -6.6450    -3.2640     3.0400 H     1 <1>   0.0800 
 42 H       -7.3780    -3.0000     1.4780 H     1 <1>   0.0800 
 43 H       -5.9490     3.5050    -0.0490 H     1 <1>   0.1500 
 44 H       -3.5920     4.8650    -0.1080 H     1 <1>   0.1500 
 45 H        5.1540     0.5710     2.1760 H     1 <1>   0.0800 
 46 H        3.5290    -0.0380     1.9420 H     1 <1>   0.0800 
 47 H        2.7650     2.0480     1.5230 H     1 <1>   0.0800 
 48 H        4.3690     2.7130     1.7450 H     1 <1>   0.0800 
@<TRIPOS>BOND
  1   1   2  1   
  2   1   3  1   
  3   2   4  2   
  4   2   5  1   
  5   3   6  1   
  6   3  25  1   
  7   3  26  1   
  8   4   7  1   
  9   5   8  1   
 10   5   9  1   
 11   6  10  2   
 12   6  11  am  
 13   7   8  2   
 14   8  12  1   
 15   9  13  1   
 16   9  27  1   
 17   9  28  1   
 18  11  14  1   
 19  11  29  1   
 20  12  15  1   
 21  12  30  1   
 22  12  31  1   
 23  13  16  1   
 24  13  17  2   
 25  14  18  1   
 26  14  19  1   
 27  14  32  1   
 28  15  20  1   
 29  15  33  1   
 30  15  34  1   
 31  16  21  1   
 32  17  22  1   
 33  17  35  1   
 34  18  23  1   
 35  18  36  1   
 36  18  37  1   
 37  19  24  1   
 38  19  38  1   
 39  19  39  1   
 40  20  40  1   
 41  20  41  1   
 42  20  42  1   
 43  21  22  2   
 44  21  43  1   
 45  22  44  1   
 46  23  24  1   
 47  23  45  1   
 48  23  46  1   
 49  24  47  1   
 50  24  48  1   
@<TRIPOS>SUBSTRUCTURE
  1 ****   1 GROUP 4 **** **** 0

# MOE 2024.06 (io_trps.svl 2023.06)
