@<TRIPOS>MOLECULE
N-Cyclohexyl-2-(6-fluoro-9-methyl-9H-1,3,4,9-tetraaza-fluoren-2-ylsulfanyl)-acetamide
46 49 1 0 0 
SMALL
USER_CHARGES


@<TRIPOS>ATOM
  1 S       -0.1900    -0.5920     0.2100 S.3   1 <1>  -0.3320 
  2 C        1.5850    -0.7330     0.0570 C.ar  1 <1>   0.7220 
  3 C       -0.8590    -1.9030    -0.9340 C.3   1 <1>   0.1310 
  4 N        2.0320    -1.6900    -0.7920 N.ar  1 <1>  -0.3100 
  5 N        2.2850     0.1020     0.7810 N.ar  1 <1>  -0.5670 
  6 C       -2.3800    -1.9370    -0.9390 C.2   1 <1>   0.5690 
  7 N        3.3120    -1.8580    -0.9600 N.ar  1 <1>  -0.2560 
  8 C        3.5950    -0.0830     0.5980 C.ar  1 <1>   0.1050 
  9 O       -2.9270    -2.7480    -1.6450 O.2   1 <1>  -0.5700 
 10 N       -3.0820    -1.0700    -0.1640 N.am  1 <1>  -0.7300 
 11 C        4.1060    -1.0440    -0.2560 C.ar  1 <1>   0.2560 
 12 N        4.6300     0.6000     1.1830 N.pl3 1 <1>   0.0480 
 13 C       -4.5470    -0.9890    -0.0690 C.3   1 <1>   0.2200 
 14 C        5.5220    -0.9500    -0.1950 C.ar  1 <1>   0.0000 
 15 C        5.8190     0.0760     0.7040 C.ar  1 <1>  -0.1520 
 16 C        4.5050     1.7030     2.1560 C.3   1 <1>   0.0160 
 17 C       -4.9970     0.4040    -0.5210 C.3   1 <1>  -0.1600 
 18 C       -4.9650    -1.2670     1.3780 C.3   1 <1>  -0.1600 
 19 C        6.5550    -1.6470    -0.8240 C.ar  1 <1>  -0.1500 
 20 C        7.1420     0.4250     0.9900 C.ar  1 <1>  -0.1500 
 21 C       -6.5110     0.5840    -0.3400 C.3   1 <1>  -0.1600 
 22 C       -6.4800    -1.0900     1.5630 C.3   1 <1>  -0.1600 
 23 C        7.8470    -1.2850    -0.5260 C.ar  1 <1>   0.1900 
 24 C        8.1630    -0.2630     0.3690 C.ar  1 <1>  -0.1500 
 25 C       -6.9340     0.3040     1.1080 C.3   1 <1>  -0.1600 
 26 F        8.8330    -1.9230    -1.1030 F     1 <1>  -0.1900 
 27 H       -0.4730    -2.8490    -0.6010 H     1 <1>   0.0800 
 28 H       -0.4940    -1.6870    -1.9210 H     1 <1>   0.0800 
 29 H       -2.5660    -0.4030     0.4150 H     1 <1>   0.3700 
 30 H       -4.9940    -1.7300    -0.7130 H     1 <1>   0.0800 
 31 H        3.4660     1.9020     2.3490 H     1 <1>   0.0800 
 32 H        4.9680     2.5850     1.7540 H     1 <1>   0.0800 
 33 H        4.9900     1.4240     3.0730 H     1 <1>   0.0800 
 34 H       -4.7440     0.5380    -1.5580 H     1 <1>   0.0800 
 35 H       -4.4840     1.1530     0.0560 H     1 <1>   0.0800 
 36 H       -4.4510    -0.5910     2.0380 H     1 <1>   0.0800 
 37 H       -4.6910    -2.2740     1.6390 H     1 <1>   0.0800 
 38 H        6.3390    -2.4390    -1.5180 H     1 <1>   0.1500 
 39 H        7.3590     1.2180     1.6850 H     1 <1>   0.1500 
 40 H       -7.0310    -0.0900    -0.9990 H     1 <1>   0.0800 
 41 H       -6.7900     1.5880    -0.6110 H     1 <1>   0.0800 
 42 H       -6.7380    -1.2340     2.5980 H     1 <1>   0.0800 
 43 H       -6.9990    -1.8380     0.9870 H     1 <1>   0.0800 
 44 H        9.1950    -0.0290     0.5580 H     1 <1>   0.1500 
 45 H       -8.0050     0.3790     1.1920 H     1 <1>   0.0800 
 46 H       -6.5020     1.0490     1.7560 H     1 <1>   0.0800 
@<TRIPOS>BOND
  1   1   2  1   
  2   1   3  1   
  3   2   4  ar  
  4   2   5  ar  
  5   3   6  1   
  6   3  27  1   
  7   3  28  1   
  8   4   7  ar  
  9   5   8  ar  
 10   6   9  2   
 11   6  10  am  
 12   7  11  ar  
 13   8  11  ar  
 14   8  12  1   
 15  10  13  1   
 16  10  29  1   
 17  11  14  1   
 18  12  15  1   
 19  12  16  1   
 20  13  17  1   
 21  13  18  1   
 22  13  30  1   
 23  14  15  ar  
 24  14  19  ar  
 25  15  20  ar  
 26  16  31  1   
 27  16  32  1   
 28  16  33  1   
 29  17  21  1   
 30  17  34  1   
 31  17  35  1   
 32  18  22  1   
 33  18  36  1   
 34  18  37  1   
 35  19  23  ar  
 36  19  38  1   
 37  20  24  ar  
 38  20  39  1   
 39  21  25  1   
 40  21  40  1   
 41  21  41  1   
 42  22  25  1   
 43  22  42  1   
 44  22  43  1   
 45  23  24  ar  
 46  23  26  1   
 47  24  44  1   
 48  25  45  1   
 49  25  46  1   
@<TRIPOS>SUBSTRUCTURE
  1 ****   2 GROUP 4 **** **** 0

# MOE 2024.06 (io_trps.svl 2023.06)
