@<TRIPOS>MOLECULE
2997
47 48 1 0 0 
SMALL
USER_CHARGES


@<TRIPOS>ATOM
  1 O       -1.7000    -4.7960    -0.9150 O.co2 1 <1>  -0.9000 
  2 C       -2.0860    -4.0950     0.0210 C.2   1 <1>   0.9060 
  3 O       -2.6710    -4.5640     1.0010 O.co2 1 <1>  -0.9000 
  4 C       -1.9240    -2.6040    -0.0610 C.3   1 <1>  -0.2660 
  5 C       -3.2830    -1.9100    -0.1120 C.3   1 <1>   0.1400 
  6 N       -3.8410    -1.9230    -1.4870 N.am  1 <1>  -0.7300 
  7 C       -4.5290    -2.9030    -2.1340 C.2   1 <1>   0.5690 
  8 O       -4.8960    -2.6880    -3.2670 O.2   1 <1>  -0.5700 
  9 C       -4.8170    -4.2520    -1.4720 C.3   1 <1>   0.1810 
 10 O       -6.1460    -4.7050    -1.6960 O.3   1 <1>  -0.3630 
 11 C       -6.5600    -5.8680    -1.1330 C.ar  1 <1>   0.0820 
 12 C       -7.8430    -6.2880    -1.4310 C.ar  1 <1>  -0.1500 
 13 C       -5.7730    -6.6430    -0.2860 C.ar  1 <1>  -0.1500 
 14 C       -8.3390    -7.4630    -0.8950 C.ar  1 <1>  -0.1500 
 15 C       -6.2750    -7.8170     0.2480 C.ar  1 <1>  -0.1500 
 16 C       -7.5650    -8.2510    -0.0490 C.ar  1 <1>  -0.1430 
 17 C       -8.1710    -9.5480     0.5290 C.3   1 <1>   0.2870 
 18 C       -8.8640   -10.3610    -0.5880 C.ar  1 <1>  -0.1430 
 19 C       -7.1170   -10.4760     1.1560 C.3   1 <1>  -0.2400 
 20 C       -9.1350    -9.1180     1.6470 C.3   1 <1>  -0.2400 
 21 C       -8.2030   -10.5370    -1.8000 C.ar  1 <1>  -0.1500 
 22 C      -10.1190   -10.9460    -0.4400 C.ar  1 <1>  -0.1500 
 23 C       -8.7730   -11.2620    -2.8310 C.ar  1 <1>  -0.1500 
 24 C      -10.6930   -11.6720    -1.4690 C.ar  1 <1>  -0.1500 
 25 C      -10.0210   -11.8320    -2.6670 C.ar  1 <1>  -0.1500 
 26 H       -1.3240    -2.3490    -0.9140 H     1 <1>   0.0800 
 27 H       -1.4050    -2.3030     0.8270 H     1 <1>   0.0800 
 28 H       -3.1670    -0.8850     0.1940 H     1 <1>   0.0800 
 29 H       -3.9680    -2.3790     0.5760 H     1 <1>   0.0800 
 30 H       -3.6050    -1.1210    -2.0690 H     1 <1>   0.3700 
 31 H       -4.6890    -4.1710    -0.4120 H     1 <1>   0.0800 
 32 H       -4.1370    -4.9870    -1.8620 H     1 <1>   0.0800 
 33 H       -8.4470    -5.6880    -2.0860 H     1 <1>   0.1500 
 34 H       -4.7680    -6.3520    -0.0230 H     1 <1>   0.1500 
 35 H       -9.3400    -7.7660    -1.1450 H     1 <1>   0.1500 
 36 H       -5.6270    -8.3720     0.8990 H     1 <1>   0.1500 
 37 H       -6.6650   -10.0220     2.0190 H     1 <1>   0.0800 
 38 H       -6.3500   -10.7060     0.4380 H     1 <1>   0.0800 
 39 H       -7.5760   -11.3980     1.4630 H     1 <1>   0.0800 
 40 H       -8.6240    -8.4780     2.3430 H     1 <1>   0.0800 
 41 H       -9.5090    -9.9690     2.1850 H     1 <1>   0.0800 
 42 H       -9.9630    -8.5700     1.2350 H     1 <1>   0.0800 
 43 H       -7.2300   -10.1000    -1.9490 H     1 <1>   0.1500 
 44 H      -10.6740   -10.8520     0.4740 H     1 <1>   0.1500 
 45 H       -8.2440   -11.3810    -3.7600 H     1 <1>   0.1500 
 46 H      -11.6640   -12.1160    -1.3360 H     1 <1>   0.1500 
 47 H      -10.4680   -12.3960    -3.4670 H     1 <1>   0.1500 
@<TRIPOS>BOND
  1   1   2  ar  
  2   2   3  ar  
  3   2   4  1   
  4   4   5  1   
  5   4  26  1   
  6   4  27  1   
  7   5   6  1   
  8   5  28  1   
  9   5  29  1   
 10   6   7  am  
 11   6  30  1   
 12   7   8  2   
 13   7   9  1   
 14   9  10  1   
 15   9  31  1   
 16   9  32  1   
 17  10  11  1   
 18  11  12  ar  
 19  11  13  ar  
 20  12  14  ar  
 21  12  33  1   
 22  13  15  ar  
 23  13  34  1   
 24  14  16  ar  
 25  14  35  1   
 26  15  16  ar  
 27  15  36  1   
 28  16  17  1   
 29  17  18  1   
 30  17  19  1   
 31  17  20  1   
 32  18  21  ar  
 33  18  22  ar  
 34  19  37  1   
 35  19  38  1   
 36  19  39  1   
 37  20  40  1   
 38  20  41  1   
 39  20  42  1   
 40  21  23  ar  
 41  21  43  1   
 42  22  24  ar  
 43  22  44  1   
 44  23  25  ar  
 45  23  45  1   
 46  24  25  ar  
 47  24  46  1   
 48  25  47  1   
@<TRIPOS>SUBSTRUCTURE
  1 ****  13 GROUP 4 **** **** 0

# MOE 2024.06 (io_trps.svl 2023.06)
