@<TRIPOS>MOLECULE
NONAME
65 68 1 0 0 
SMALL
USER_CHARGES


@<TRIPOS>ATOM
  1 O       -0.7350     1.8820     1.2210 O.2   1 <1>  -0.5700 
  2 C        0.1710     1.8850     0.4090 C.2   1 <1>   0.5440 
  3 N        0.0110     2.6330    -0.7270 N.am  1 <1>  -0.7300 
  4 C        1.3750     1.1060     0.6250 C.ar  1 <1>   0.0860 
  5 C       -1.1210     3.5050    -1.1150 C.3   1 <1>   0.2200 
  6 C        1.3490    -0.0570     1.3940 C.ar  1 <1>  -0.1500 
  7 C        2.6030     1.4830     0.0830 C.ar  1 <1>  -0.1500 
  8 C       -1.3710     4.6090    -0.0140 C.3   1 <1>  -0.1600 
  9 C       -2.3570     2.6120    -1.4780 C.3   1 <1>  -0.1600 
 10 C        2.4780    -0.8290     1.6020 C.ar  1 <1>   0.0820 
 11 C        3.7460     0.7290     0.2770 C.ar  1 <1>   0.0820 
 12 C       -2.6730     4.4760     0.8380 C.3   1 <1>   0.4230 
 13 C       -3.5790     3.2090    -0.7990 C.3   1 <1>   0.4230 
 14 O        2.3010    -1.9360     2.3730 O.3   1 <1>  -0.3630 
 15 C        3.6930    -0.4570     1.0160 C.ar  1 <1>   0.0820 
 16 O        4.8840     1.1970    -0.2950 O.3   1 <1>  -0.3630 
 17 N       -3.1160     3.1230     0.6010 N.4   1 <1>  -0.9590 
 18 C       -3.8970     5.2690     0.3180 C.3   1 <1>  -0.1600 
 19 C       -4.6420     4.2840    -0.6180 C.3   1 <1>  -0.1600 
 20 C        3.2680    -2.2680     3.3460 C.3   1 <1>   0.0400 
 21 O        4.7940    -1.2420     1.1380 O.3   1 <1>  -0.3630 
 22 C        5.9600     1.5040     0.5660 C.3   1 <1>   0.0400 
 23 C       -4.0340     2.5190     1.6060 C.3   1 <1>   0.4860 
 24 C        5.1230    -2.0130     0.0040 C.3   1 <1>   0.0400 
 25 C       -4.4340     1.1330     1.1330 C.ar  1 <1>  -0.1430 
 26 C       -3.5510     0.0690     1.2570 C.ar  1 <1>  -0.1500 
 27 C       -5.6820     0.9160     0.5650 C.ar  1 <1>  -0.1500 
 28 C       -3.9000    -1.1920     0.8070 C.ar  1 <1>  -0.1500 
 29 C       -6.0320    -0.3450     0.1150 C.ar  1 <1>  -0.1500 
 30 C       -5.1480    -1.4040     0.2280 C.ar  1 <1>   0.0820 
 31 O       -5.5690    -2.6030    -0.2430 O.3   1 <1>  -0.3630 
 32 C       -4.7650    -3.7570    -0.1390 C.3   1 <1>   0.0400 
 33 H        0.7310     2.5340    -1.4490 H     1 <1>   0.3700 
 34 H       -0.8200     4.0230    -2.0120 H     1 <1>   0.0800 
 35 H        0.4250    -0.3730     1.8440 H     1 <1>   0.1500 
 36 H        2.6880     2.3840    -0.4950 H     1 <1>   0.1500 
 37 H       -1.3780     5.5720    -0.4930 H     1 <1>   0.0800 
 38 H       -0.5340     4.6340     0.6610 H     1 <1>   0.0800 
 39 H       -2.2290     1.5850    -1.1760 H     1 <1>   0.0800 
 40 H       -2.5080     2.6190    -2.5430 H     1 <1>   0.0800 
 41 H       -2.4760     4.6650     1.8810 H     1 <1>   0.0800 
 42 H       -3.1540     4.0570    -1.3070 H     1 <1>   0.0800 
 43 H       -2.2630     2.5280     0.6320 H     1 <1>   0.4500 
 44 H       -3.5890     6.1610    -0.2000 H     1 <1>   0.0800 
 45 H       -4.5290     5.5600     1.1380 H     1 <1>   0.0800 
 46 H       -5.5350     3.8890    -0.1690 H     1 <1>   0.0800 
 47 H       -4.9080     4.7400    -1.5570 H     1 <1>   0.0800 
 48 H        2.7940    -2.8720     4.0980 H     1 <1>   0.0800 
 49 H        3.6530    -1.3650     3.7860 H     1 <1>   0.0800 
 50 H        4.0570    -2.8280     2.8780 H     1 <1>   0.0800 
 51 H        6.6810     2.0770     0.0110 H     1 <1>   0.0800 
 52 H        6.4130     0.5930     0.9130 H     1 <1>   0.0800 
 53 H        5.5920     2.0810     1.3970 H     1 <1>   0.0800 
 54 H       -4.9120     3.1280     1.7330 H     1 <1>   0.0800 
 55 H       -3.5320     2.4400     2.5560 H     1 <1>   0.0800 
 56 H        5.9860    -2.6090     0.2400 H     1 <1>   0.0800 
 57 H        5.3420    -1.3560    -0.8180 H     1 <1>   0.0800 
 58 H        4.2890    -2.6500    -0.2350 H     1 <1>   0.0800 
 59 H       -2.5820     0.2090     1.7060 H     1 <1>   0.1500 
 60 H       -6.3950     1.7150     0.4670 H     1 <1>   0.1500 
 61 H       -3.1940    -1.9930     0.9150 H     1 <1>   0.1500 
 62 H       -6.9970    -0.5210    -0.3260 H     1 <1>   0.1500 
 63 H       -5.3080    -4.5820    -0.5630 H     1 <1>   0.0800 
 64 H       -4.5610    -3.9490     0.9000 H     1 <1>   0.0800 
 65 H       -3.8540    -3.5990    -0.6890 H     1 <1>   0.0800 
@<TRIPOS>BOND
  1   1   2  2   
  2   2   3  am  
  3   2   4  1   
  4   3   5  1   
  5   3  33  1   
  6   4   6  ar  
  7   4   7  ar  
  8   5   8  1   
  9   5   9  1   
 10   5  34  1   
 11   6  10  ar  
 12   6  35  1   
 13   7  11  ar  
 14   7  36  1   
 15   8  12  1   
 16   8  37  1   
 17   8  38  1   
 18   9  13  1   
 19   9  39  1   
 20   9  40  1   
 21  10  14  1   
 22  10  15  ar  
 23  11  15  ar  
 24  11  16  1   
 25  12  17  1   
 26  12  18  1   
 27  12  41  1   
 28  13  17  1   
 29  13  19  1   
 30  13  42  1   
 31  14  20  1   
 32  15  21  1   
 33  16  22  1   
 34  17  23  1   
 35  17  43  1   
 36  18  19  1   
 37  18  44  1   
 38  18  45  1   
 39  19  46  1   
 40  19  47  1   
 41  20  48  1   
 42  20  49  1   
 43  20  50  1   
 44  21  24  1   
 45  22  51  1   
 46  22  52  1   
 47  22  53  1   
 48  23  25  1   
 49  23  54  1   
 50  23  55  1   
 51  24  56  1   
 52  24  57  1   
 53  24  58  1   
 54  25  26  ar  
 55  25  27  ar  
 56  26  28  ar  
 57  26  59  1   
 58  27  29  ar  
 59  27  60  1   
 60  28  30  ar  
 61  28  61  1   
 62  29  30  ar  
 63  29  62  1   
 64  30  31  1   
 65  31  32  1   
 66  32  63  1   
 67  32  64  1   
 68  32  65  1   
@<TRIPOS>SUBSTRUCTURE
  1 ****   1 GROUP 4 **** **** 0

# MOE 2024.06 (io_trps.svl 2023.06)
