@<TRIPOS>MOLECULE
N-(5-Methyl-isoxazol-3-yl)-2-[5-propyl-4-(tetrahydro-furan-2-ylmethyl)-4H-[1,2,4]triazol-3-ylsulfanyl]-aceta
48 50 1 0 0 
SMALL
USER_CHARGES


@<TRIPOS>ATOM
  1 S        0.6720    -0.4370    -0.4340 S.3   1 <1>  -0.2860 
  2 C       -1.0590    -0.7010    -0.0380 C.2   1 <1>   0.2420 
  3 C        1.4960    -1.9160     0.3420 C.3   1 <1>   0.1310 
  4 N       -1.4750    -1.7010     0.6520 N.2   1 <1>  -0.3380 
  5 N       -2.0340     0.1190    -0.4330 N.pl3 1 <1>   0.0480 
  6 C        3.0090    -1.8660     0.1900 C.2   1 <1>   0.5690 
  7 N       -2.8000    -1.5600     0.7280 N.2   1 <1>  -0.3380 
  8 C       -3.1190    -0.4850     0.0810 C.2   1 <1>   0.0060 
  9 C       -1.9390     1.3660    -1.2210 C.3   1 <1>   0.0960 
 10 O        3.6380    -2.8600     0.4590 O.2   1 <1>  -0.5700 
 11 N        3.5970    -0.7110    -0.2310 N.am  1 <1>  -0.4930 
 12 C       -4.5390     0.0470    -0.0930 C.3   1 <1>   0.0200 
 13 C       -1.9830     2.5910    -0.3040 C.3   1 <1>   0.2000 
 14 C        4.9410    -0.4010    -0.4310 C.2   1 <1>   0.3520 
 15 C       -5.6120    -0.8910     0.4820 C.3   1 <1>  -0.1600 
 16 O       -1.9800     3.7330    -1.0900 O.3   1 <1>  -0.5600 
 17 C       -0.7810     2.7660     0.6130 C.3   1 <1>  -0.1600 
 18 N        5.3030     0.7640    -0.8400 N.2   1 <1>  -0.4100 
 19 C        6.0510    -1.2240    -0.2410 C.2   1 <1>  -0.1500 
 20 C       -7.0240    -0.3290     0.2780 C.3   1 <1>  -0.2400 
 21 C       -1.5080     4.8290    -0.3680 C.3   1 <1>   0.1200 
 22 C       -0.7590     4.2660     0.8390 C.3   1 <1>  -0.1600 
 23 O        6.6100     0.7270    -0.9230 O.3   1 <1>  -0.0190 
 24 C        7.0850    -0.4400    -0.5740 C.2   1 <1>  -0.0400 
 25 C        8.5770    -0.6880    -0.6010 C.3   1 <1>  -0.0600 
 26 H        1.1000    -2.7900    -0.1410 H     1 <1>   0.0800 
 27 H        1.2260    -1.9240     1.3810 H     1 <1>   0.0800 
 28 H       -2.7630     1.4040    -1.9080 H     1 <1>   0.0800 
 29 H       -1.0240     1.3650    -1.7840 H     1 <1>   0.0800 
 30 H        2.9740     0.0620    -0.4590 H     1 <1>   0.3700 
 31 H       -4.7310     0.1880    -1.1410 H     1 <1>   0.0800 
 32 H       -4.6160     1.0010     0.3960 H     1 <1>   0.0800 
 33 H       -2.8950     2.6080     0.2670 H     1 <1>   0.0800 
 34 H       -5.4340    -1.0340     1.5350 H     1 <1>   0.0800 
 35 H       -5.5380    -1.8520     0.0030 H     1 <1>   0.0800 
 36 H        0.1170     2.4610     0.1050 H     1 <1>   0.0800 
 37 H       -0.8830     2.2080     1.5280 H     1 <1>   0.0800 
 38 H        6.0370    -2.2440     0.0950 H     1 <1>   0.1500 
 39 H       -7.1270     0.6220     0.7720 H     1 <1>   0.0800 
 40 H       -7.7490    -1.0070     0.6910 H     1 <1>   0.0800 
 41 H       -7.2330    -0.2030    -0.7700 H     1 <1>   0.0800 
 42 H       -2.3500     5.4290    -0.0670 H     1 <1>   0.0800 
 43 H       -0.8600     5.4000    -1.0110 H     1 <1>   0.0800 
 44 H        0.2430     4.6520     0.8990 H     1 <1>   0.0800 
 45 H       -1.2880     4.5250     1.7400 H     1 <1>   0.0800 
 46 H        8.7920    -1.6930    -0.2860 H     1 <1>   0.0800 
 47 H        9.0730    -0.0010     0.0610 H     1 <1>   0.0800 
 48 H        8.9520    -0.5460    -1.5980 H     1 <1>   0.0800 
@<TRIPOS>BOND
  1   1   2  1   
  2   1   3  1   
  3   2   4  2   
  4   2   5  1   
  5   3   6  1   
  6   3  26  1   
  7   3  27  1   
  8   4   7  1   
  9   5   8  1   
 10   5   9  1   
 11   6  10  2   
 12   6  11  am  
 13   7   8  2   
 14   8  12  1   
 15   9  13  1   
 16   9  28  1   
 17   9  29  1   
 18  11  14  1   
 19  11  30  1   
 20  12  15  1   
 21  12  31  1   
 22  12  32  1   
 23  13  16  1   
 24  13  17  1   
 25  13  33  1   
 26  14  18  2   
 27  14  19  1   
 28  15  20  1   
 29  15  34  1   
 30  15  35  1   
 31  16  21  1   
 32  17  22  1   
 33  17  36  1   
 34  17  37  1   
 35  18  23  1   
 36  19  24  2   
 37  19  38  1   
 38  20  39  1   
 39  20  40  1   
 40  20  41  1   
 41  21  22  1   
 42  21  42  1   
 43  21  43  1   
 44  22  44  1   
 45  22  45  1   
 46  23  24  1   
 47  24  25  1   
 48  25  46  1   
 49  25  47  1   
 50  25  48  1   
@<TRIPOS>SUBSTRUCTURE
  1 ****   1 GROUP 4 **** **** 0

# MOE 2024.06 (io_trps.svl 2023.06)
