@<TRIPOS>MOLECULE
NONAME
47 50 1 0 0 
SMALL
USER_CHARGES


@<TRIPOS>ATOM
  1 S        0.2570     0.2870    -0.0820 S.3   1 <1>  -0.0800 
  2 C        1.0500    -1.2980    -0.0290 C.2   1 <1>   0.4620 
  3 C       -1.0450    -0.3930    -1.0260 C.ar  1 <1>   0.0400 
  4 N        0.4010    -2.2160    -0.6490 N.2   1 <1>  -0.5650 
  5 N        2.2510    -1.4420     0.6390 N.pl3 1 <1>  -0.8220 
  6 C       -0.7690    -1.7340    -1.2130 C.ar  1 <1>   0.2270 
  7 C       -2.1690     0.2370    -1.5250 C.ar  1 <1>  -0.1500 
  8 C        2.9610    -2.7490     0.6260 C.3   1 <1>   0.2090 
  9 C        2.9550    -0.3500     1.3650 C.3   1 <1>   0.2090 
 10 C       -1.6770    -2.4880    -1.9440 C.ar  1 <1>  -0.1500 
 11 C       -3.0630    -0.5320    -2.2520 C.ar  1 <1>  -0.1500 
 12 C        4.3540    -2.5660     0.0190 C.3   1 <1>  -0.1600 
 13 C        4.3460    -0.1540     0.7580 C.3   1 <1>  -0.1600 
 14 C       -2.8160    -1.8870    -2.4590 C.ar  1 <1>  -0.1500 
 15 C        5.1510    -1.4680     0.7470 C.3   1 <1>  -0.0190 
 16 C        6.5330    -1.2850     0.1200 C.2   1 <1>   0.5690 
 17 O        6.6240    -0.7240    -0.9430 O.2   1 <1>  -0.5700 
 18 N        7.6070    -1.7920     0.8010 N.am  1 <1>  -0.5470 
 19 C        8.9800    -1.7430     0.5120 C.ar  1 <1>   0.1170 
 20 C        9.5540    -0.7580    -0.2830 C.ar  1 <1>  -0.1500 
 21 C        9.8110    -2.7120     1.0640 C.ar  1 <1>  -0.1500 
 22 C       10.9160    -0.7350    -0.5270 C.ar  1 <1>   0.0830 
 23 C       11.1730    -2.7010     0.8270 C.ar  1 <1>  -0.1500 
 24 O       11.3800     0.2690    -1.3140 O.3   1 <1>  -0.3630 
 25 C       11.7310    -1.7150     0.0320 C.ar  1 <1>  -0.1500 
 26 C       12.7420     0.3540    -1.6690 C.3   1 <1>   0.0400 
 27 H       -2.3350     1.2850    -1.3500 H     1 <1>   0.1500 
 28 H        2.4150    -3.4780     0.0510 H     1 <1>   0.0800 
 29 H        3.0380    -3.1150     1.6350 H     1 <1>   0.0800 
 30 H        3.0430    -0.6230     2.4020 H     1 <1>   0.0800 
 31 H        2.4140     0.5760     1.3160 H     1 <1>   0.0800 
 32 H       -1.4770    -3.5320    -2.0990 H     1 <1>   0.1500 
 33 H       -3.9520    -0.0820    -2.6590 H     1 <1>   0.1500 
 34 H        4.2420    -2.3040    -1.0190 H     1 <1>   0.0800 
 35 H        4.8850    -3.4990     0.0650 H     1 <1>   0.0800 
 36 H        4.8770     0.5940     1.3180 H     1 <1>   0.0800 
 37 H        4.2310     0.2120    -0.2480 H     1 <1>   0.0800 
 38 H       -3.5180    -2.4740    -3.0260 H     1 <1>   0.1500 
 39 H        5.2840    -1.7760     1.7690 H     1 <1>   0.0800 
 40 H        7.3770    -2.3220     1.6370 H     1 <1>   0.3700 
 41 H        8.9450     0.0100    -0.7220 H     1 <1>   0.1500 
 42 H        9.3920    -3.4850     1.6820 H     1 <1>   0.1500 
 43 H       11.8020    -3.4590     1.2600 H     1 <1>   0.1500 
 44 H       12.7900    -1.7260    -0.1380 H     1 <1>   0.1500 
 45 H       12.8660     1.2090    -2.3090 H     1 <1>   0.0800 
 46 H       13.0210    -0.5410    -2.1960 H     1 <1>   0.0800 
 47 H       13.3280     0.4770    -0.7760 H     1 <1>   0.0800 
@<TRIPOS>BOND
  1   1   2  1   
  2   1   3  1   
  3   2   4  2   
  4   2   5  1   
  5   3   6  ar  
  6   3   7  ar  
  7   4   6  1   
  8   5   8  1   
  9   5   9  1   
 10   6  10  ar  
 11   7  11  ar  
 12   7  27  1   
 13   8  12  1   
 14   8  28  1   
 15   8  29  1   
 16   9  13  1   
 17   9  30  1   
 18   9  31  1   
 19  10  14  ar  
 20  10  32  1   
 21  11  14  ar  
 22  11  33  1   
 23  12  15  1   
 24  12  34  1   
 25  12  35  1   
 26  13  15  1   
 27  13  36  1   
 28  13  37  1   
 29  14  38  1   
 30  15  16  1   
 31  15  39  1   
 32  16  17  2   
 33  16  18  am  
 34  18  19  1   
 35  18  40  1   
 36  19  20  ar  
 37  19  21  ar  
 38  20  22  ar  
 39  20  41  1   
 40  21  23  ar  
 41  21  42  1   
 42  22  24  1   
 43  22  25  ar  
 44  23  25  ar  
 45  23  43  1   
 46  24  26  1   
 47  25  44  1   
 48  26  45  1   
 49  26  46  1   
 50  26  47  1   
@<TRIPOS>SUBSTRUCTURE
  1 ****  15 GROUP 4 **** **** 0

# MOE 2024.06 (io_trps.svl 2023.06)
