@<TRIPOS>MOLECULE
1-(1-Phenyl-1H-tetrazol-5-yl)-piperidine-4-carboxylic acid allylamide
43 45 1 0 0 
SMALL
USER_CHARGES


@<TRIPOS>ATOM
  1 O        1.1280    -1.0170     1.3950 O.2   1 <1>  -0.5700 
  2 C        0.2670    -1.6980     0.8960 C.2   1 <1>   0.5690 
  3 N        0.5190    -2.5100    -0.1600 N.am  1 <1>  -0.7300 
  4 C       -1.1450    -1.6380     1.4690 C.3   1 <1>  -0.0190 
  5 C        1.8180    -2.6440    -0.8280 C.3   1 <1>   0.2780 
  6 C       -1.6250    -3.0200     1.9550 C.3   1 <1>  -0.1600 
  7 C       -2.1390    -1.0430     0.4540 C.3   1 <1>  -0.1600 
  8 C        1.5450    -2.7890    -2.3090 C.2   1 <1>  -0.2880 
  9 C       -3.0660    -2.9740     2.4700 C.3   1 <1>   0.2090 
 10 C       -3.5610    -1.0070     1.0160 C.3   1 <1>   0.2090 
 11 C        1.8140    -3.8720    -3.0450 C.2   1 <1>  -0.3000 
 12 N       -3.9600    -2.3780     1.4370 N.pl3 1 <1>  -0.8220 
 13 C       -4.5600    -3.2330     0.4890 C.2   1 <1>   0.2700 
 14 N       -4.1050    -4.4000     0.1900 N.2   1 <1>  -0.3380 
 15 N       -5.6600    -2.9850    -0.2550 N.pl3 1 <1>   0.5930 
 16 N       -4.9040    -4.8770    -0.7580 N.2   1 <1>   0.0000 
 17 N       -5.8330    -4.0470    -1.0420 N.2   1 <1>  -0.4180 
 18 C       -6.5330    -1.8590    -0.2530 C.ar  1 <1>  -0.0230 
 19 C       -6.9760    -1.3040    -1.4510 C.ar  1 <1>  -0.1500 
 20 C       -6.9600    -1.2860     0.9430 C.ar  1 <1>  -0.1500 
 21 C       -7.8130    -0.2030    -1.4540 C.ar  1 <1>  -0.1500 
 22 C       -7.7970    -0.1850     0.9410 C.ar  1 <1>  -0.1500 
 23 C       -8.2230     0.3590    -0.2570 C.ar  1 <1>  -0.1500 
 24 H       -0.2250    -3.0840    -0.5570 H     1 <1>   0.3700 
 25 H       -1.1140    -0.9830     2.3220 H     1 <1>   0.0800 
 26 H        2.3250    -3.5140    -0.4490 H     1 <1>   0.0800 
 27 H        2.4290    -1.7760    -0.6410 H     1 <1>   0.0800 
 28 H       -0.9800    -3.3680     2.7420 H     1 <1>   0.0800 
 29 H       -1.5740    -3.7350     1.1540 H     1 <1>   0.0800 
 30 H       -2.1420    -1.6260    -0.4500 H     1 <1>   0.0800 
 31 H       -1.8340    -0.0430     0.1990 H     1 <1>   0.0800 
 32 H        1.0980    -1.9020    -2.7250 H     1 <1>   0.1500 
 33 H       -3.1180    -2.3780     3.3660 H     1 <1>   0.0800 
 34 H       -3.4000    -3.9690     2.7150 H     1 <1>   0.0800 
 35 H       -4.2340    -0.6280     0.2660 H     1 <1>   0.0800 
 36 H       -3.6070    -0.3480     1.8660 H     1 <1>   0.0800 
 37 H        1.6080    -3.9470    -4.1000 H     1 <1>   0.1500 
 38 H        2.2590    -4.7740    -2.6610 H     1 <1>   0.1500 
 39 H       -6.6670    -1.7370    -2.3880 H     1 <1>   0.1500 
 40 H       -6.6350    -1.7020     1.8830 H     1 <1>   0.1500 
 41 H       -8.1490     0.2170    -2.3870 H     1 <1>   0.1500 
 42 H       -8.1210     0.2490     1.8720 H     1 <1>   0.1500 
 43 H       -8.8750     1.2150    -0.2600 H     1 <1>   0.1500 
@<TRIPOS>BOND
  1   1   2  2   
  2   2   3  am  
  3   2   4  1   
  4   3   5  1   
  5   3  24  1   
  6   4   6  1   
  7   4   7  1   
  8   4  25  1   
  9   5   8  1   
 10   5  26  1   
 11   5  27  1   
 12   6   9  1   
 13   6  28  1   
 14   6  29  1   
 15   7  10  1   
 16   7  30  1   
 17   7  31  1   
 18   8  11  2   
 19   8  32  1   
 20   9  12  1   
 21   9  33  1   
 22   9  34  1   
 23  10  12  1   
 24  10  35  1   
 25  10  36  1   
 26  11  37  1   
 27  11  38  1   
 28  12  13  1   
 29  13  14  2   
 30  13  15  1   
 31  14  16  1   
 32  15  17  1   
 33  15  18  1   
 34  16  17  2   
 35  18  19  ar  
 36  18  20  ar  
 37  19  21  ar  
 38  19  39  1   
 39  20  22  ar  
 40  20  40  1   
 41  21  23  ar  
 42  21  41  1   
 43  22  23  ar  
 44  22  42  1   
 45  23  43  1   
@<TRIPOS>SUBSTRUCTURE
  1 ****  12 GROUP 4 **** **** 0

# MOE 2024.06 (io_trps.svl 2023.06)
