@<TRIPOS>MOLECULE
NONAME
46 48 1 0 0 
SMALL
USER_CHARGES


@<TRIPOS>ATOM
  1 F        1.0280     1.4260    -1.6020 F     1 <1>  -0.1900 
  2 C        0.3820     1.8920    -0.5590 C.ar  1 <1>   0.1900 
  3 C        1.0570     2.1110     0.6510 C.ar  1 <1>   0.1000 
  4 C       -0.9630     2.1560    -0.7270 C.ar  1 <1>  -0.1500 
  5 N        2.4200     1.8670     0.8890 N.pl3 1 <1>  -0.8380 
  6 C        0.2950     2.6180     1.6990 C.ar  1 <1>  -0.1500 
  7 C       -1.6890     2.6610     0.3390 C.ar  1 <1>  -0.1500 
  8 C        3.3370     3.0290     1.0890 C.3   1 <1>   0.2090 
  9 C        3.0980     0.6330     0.3860 C.3   1 <1>   0.2090 
 10 C       -1.0550     2.8910     1.5500 C.ar  1 <1>  -0.1500 
 11 C        4.2740     3.2370    -0.1140 C.3   1 <1>   0.1100 
 12 C        4.0690     0.9270    -0.7770 C.3   1 <1>   0.1100 
 13 N        5.0300     2.0070    -0.4610 N.3   1 <1>  -0.8100 
 14 C        5.9420     2.2370    -1.5960 C.3   1 <1>   0.2900 
 15 C        6.9980     3.2880    -1.2850 C.2   1 <1>   0.0070 
 16 N        6.9190     4.4840    -1.7370 N.2   1 <1>  -0.3380 
 17 N        8.1050     3.1470    -0.5560 N.pl3 1 <1>   0.3140 
 18 N        7.9890     5.1150    -1.2840 N.2   1 <1>   0.0000 
 19 N        8.7120     4.3260    -0.5810 N.2   1 <1>  -0.4180 
 20 C        8.7290     1.9450     0.1350 C.3   1 <1>   0.2560 
 21 C        9.3110     0.9940    -0.9250 C.3   1 <1>  -0.2400 
 22 C        9.8830     2.3830     1.0630 C.3   1 <1>  -0.2400 
 23 C        7.7140     1.1850     1.0060 C.3   1 <1>  -0.2400 
 24 H       -1.4330     1.9700    -1.6750 H     1 <1>   0.1500 
 25 H        0.7760     2.7930     2.6440 H     1 <1>   0.1500 
 26 H       -2.7390     2.8730     0.2280 H     1 <1>   0.1500 
 27 H        3.9300     2.8570     1.9700 H     1 <1>   0.0800 
 28 H        2.7610     3.9240     1.2460 H     1 <1>   0.0800 
 29 H        2.3600    -0.0820     0.0690 H     1 <1>   0.0800 
 30 H        3.6510     0.1930     1.1970 H     1 <1>   0.0800 
 31 H       -1.6160     3.2810     2.3820 H     1 <1>   0.1500 
 32 H        4.9580     4.0300     0.1340 H     1 <1>   0.0800 
 33 H        3.6870     3.5580    -0.9580 H     1 <1>   0.0800 
 34 H        3.4960     1.1960    -1.6470 H     1 <1>   0.0800 
 35 H        4.6080     0.0240    -1.0030 H     1 <1>   0.0800 
 36 H        5.3720     2.5630    -2.4500 H     1 <1>   0.0800 
 37 H        6.4250     1.3150    -1.8620 H     1 <1>   0.0800 
 38 H       10.0420     1.5080    -1.5240 H     1 <1>   0.0800 
 39 H        8.5410     0.6120    -1.5690 H     1 <1>   0.0800 
 40 H        9.7930     0.1570    -0.4510 H     1 <1>   0.0800 
 41 H       10.6620     2.8710     0.5030 H     1 <1>   0.0800 
 42 H       10.3200     1.5340     1.5570 H     1 <1>   0.0800 
 43 H        9.5210     3.0610     1.8160 H     1 <1>   0.0800 
 44 H        7.0260     0.6240     0.4050 H     1 <1>   0.0800 
 45 H        7.1640     1.8710     1.6270 H     1 <1>   0.0800 
 46 H        8.2160     0.4800     1.6440 H     1 <1>   0.0800 
@<TRIPOS>BOND
  1   1   2  1   
  2   2   3  ar  
  3   2   4  ar  
  4   3   5  1   
  5   3   6  ar  
  6   4   7  ar  
  7   4  24  1   
  8   5   8  1   
  9   5   9  1   
 10   6  10  ar  
 11   6  25  1   
 12   7  10  ar  
 13   7  26  1   
 14   8  11  1   
 15   8  27  1   
 16   8  28  1   
 17   9  12  1   
 18   9  29  1   
 19   9  30  1   
 20  10  31  1   
 21  11  13  1   
 22  11  32  1   
 23  11  33  1   
 24  12  13  1   
 25  12  34  1   
 26  12  35  1   
 27  13  14  1   
 28  14  15  1   
 29  14  36  1   
 30  14  37  1   
 31  15  16  2   
 32  15  17  1   
 33  16  18  1   
 34  17  19  1   
 35  17  20  1   
 36  18  19  2   
 37  20  21  1   
 38  20  22  1   
 39  20  23  1   
 40  21  38  1   
 41  21  39  1   
 42  21  40  1   
 43  22  41  1   
 44  22  42  1   
 45  22  43  1   
 46  23  44  1   
 47  23  45  1   
 48  23  46  1   
@<TRIPOS>SUBSTRUCTURE
  1 ****  11 GROUP 4 **** **** 0

# MOE 2024.06 (io_trps.svl 2023.06)
