@<TRIPOS>MOLECULE
4-(2-Dimethylamino-ethoxy)-benzoic acid
30 30 1 0 0 
SMALL
USER_CHARGES


@<TRIPOS>ATOM
  1 O       -0.3630     0.6210    -0.1930 O.co2 1 <1>  -0.9000 
  2 C        0.3460     1.3900    -0.8650 C.2   1 <1>   0.9790 
  3 O        0.1190     1.5100    -2.0820 O.co2 1 <1>  -0.9000 
  4 C        1.4510     2.1140    -0.2470 C.ar  1 <1>  -0.1790 
  5 C        2.2200     3.0220    -0.9780 C.ar  1 <1>  -0.1500 
  6 C        1.7870     1.9260     1.0960 C.ar  1 <1>  -0.1500 
  7 C        3.2980     3.6770    -0.4150 C.ar  1 <1>  -0.1500 
  8 C        2.8650     2.5730     1.6700 C.ar  1 <1>  -0.1500 
  9 C        3.6440     3.4240     0.9060 C.ar  1 <1>   0.0830 
 10 O        4.7650     3.9390     1.4590 O.3   1 <1>  -0.3630 
 11 C        5.9770     3.7850     0.7510 C.3   1 <1>   0.1200 
 12 C        6.1920     2.2900     0.4480 C.3   1 <1>   0.3430 
 13 N        7.3740     2.0300    -0.4420 N.4   1 <1>  -0.9590 
 14 C        7.3360     0.6100    -0.9110 C.3   1 <1>   0.2630 
 15 C        8.6770     2.3310     0.2330 C.3   1 <1>   0.2630 
 16 H        1.9500     3.2050    -2.0060 H     1 <1>   0.1500 
 17 H        1.1830     1.2530     1.6840 H     1 <1>   0.1500 
 18 H        3.8520     4.3780    -1.0090 H     1 <1>   0.1500 
 19 H        3.1050     2.4080     2.7040 H     1 <1>   0.1500 
 20 H        6.7600     4.1690     1.3780 H     1 <1>   0.0800 
 21 H        5.9160     4.3670    -0.1500 H     1 <1>   0.0800 
 22 H        5.3060     1.9150    -0.0400 H     1 <1>   0.0800 
 23 H        6.3100     1.7570     1.3770 H     1 <1>   0.0800 
 24 H        7.2800     2.6330    -1.2750 H     1 <1>   0.4500 
 25 H        7.4210    -0.0650    -0.0740 H     1 <1>   0.0800 
 26 H        8.1490     0.4170    -1.5930 H     1 <1>   0.0800 
 27 H        6.4070     0.4080    -1.4200 H     1 <1>   0.0800 
 28 H        8.7940     1.7190     1.1130 H     1 <1>   0.0800 
 29 H        8.7220     3.3680     0.5260 H     1 <1>   0.0800 
 30 H        9.4990     2.1310    -0.4350 H     1 <1>   0.0800 
@<TRIPOS>BOND
  1   1   2  ar  
  2   2   3  ar  
  3   2   4  1   
  4   4   5  ar  
  5   4   6  ar  
  6   5   7  ar  
  7   5  16  1   
  8   6   8  ar  
  9   6  17  1   
 10   7   9  ar  
 11   7  18  1   
 12   8   9  ar  
 13   8  19  1   
 14   9  10  1   
 15  10  11  1   
 16  11  12  1   
 17  11  20  1   
 18  11  21  1   
 19  12  13  1   
 20  12  22  1   
 21  12  23  1   
 22  13  14  1   
 23  13  15  1   
 24  13  24  1   
 25  14  25  1   
 26  14  26  1   
 27  14  27  1   
 28  15  28  1   
 29  15  29  1   
 30  15  30  1   
@<TRIPOS>SUBSTRUCTURE
  1 ****   9 GROUP 4 **** **** 0

# MOE 2024.06 (io_trps.svl 2023.06)
