@<TRIPOS>MOLECULE
5-(3-Methoxy-phenoxymethyl)-4-(tetrahydro-furan-2-ylmethyl)-4H-[1,2,4]triazole-3
41 43 1 0 0 
SMALL
USER_CHARGES


@<TRIPOS>ATOM
  1 S        1.0280     0.6360     1.3420 S.3   1 <1>  -0.9360 
  2 C        2.5710     0.2560     1.0250 C.cat 1 <1>   0.7360 
  3 N        3.2240    -0.7680     1.5260 N.pl3 1 <1>  -0.3930 
  4 N        3.3870     0.9300     0.2380 N.pl3 1 <1>  -0.7640 
  5 N        4.5110    -0.7860     1.0700 N.2   1 <1>  -0.2600 
  6 C        4.5820     0.2450     0.3010 C.2   1 <1>   0.4850 
  7 C        2.9940     2.1650    -0.4910 C.3   1 <1>   0.3540 
  8 C        5.8170     0.6960    -0.4790 C.3   1 <1>   0.2880 
  9 C        2.8060     3.3780     0.4410 C.3   1 <1>   0.2000 
 10 O        6.9870     0.0380    -0.0310 O.3   1 <1>  -0.3630 
 11 O        2.9570     4.5490    -0.2950 O.3   1 <1>  -0.5600 
 12 C        3.8230     3.5370     1.5690 C.3   1 <1>  -0.1600 
 13 C        8.1980     0.3090    -0.5780 C.ar  1 <1>   0.0820 
 14 C        3.1550     5.6200     0.5710 C.3   1 <1>   0.1200 
 15 C        3.8440     5.0400     1.8040 C.3   1 <1>  -0.1600 
 16 C        9.2800    -0.3810    -0.0560 C.ar  1 <1>  -0.1500 
 17 C        8.3950     1.2250    -1.6100 C.ar  1 <1>  -0.1500 
 18 C       10.5600    -0.1650    -0.5560 C.ar  1 <1>   0.0820 
 19 C        9.6680     1.4400    -2.1080 C.ar  1 <1>  -0.1500 
 20 O       11.6690    -0.8000    -0.0990 O.3   1 <1>  -0.3620 
 21 C       10.7440     0.7480    -1.5820 C.ar  1 <1>  -0.1500 
 22 C       11.5890    -1.7520     0.9380 C.3   1 <1>   0.0400 
 23 H        2.7740    -1.4220     2.1660 H     1 <1>   0.4500 
 24 H        2.0670     1.9860    -1.0080 H     1 <1>   0.0800 
 25 H        3.7460     2.4020    -1.2210 H     1 <1>   0.0800 
 26 H        5.9600     1.7520    -0.3420 H     1 <1>   0.0800 
 27 H        5.6820     0.4720    -1.5210 H     1 <1>   0.0800 
 28 H        1.8060     3.3720     0.8440 H     1 <1>   0.0800 
 29 H        4.7930     3.2020     1.2480 H     1 <1>   0.0800 
 30 H        3.5250     2.9850     2.4430 H     1 <1>   0.0800 
 31 H        2.1910     6.0310     0.8200 H     1 <1>   0.0800 
 32 H        3.7560     6.3620     0.0740 H     1 <1>   0.0800 
 33 H        4.8490     5.4120     1.8970 H     1 <1>   0.0800 
 34 H        3.2890     5.3040     2.6870 H     1 <1>   0.0800 
 35 H        9.0990    -1.0790     0.7370 H     1 <1>   0.1500 
 36 H        7.5850     1.7790    -2.0430 H     1 <1>   0.1500 
 37 H        9.8270     2.1460    -2.9050 H     1 <1>   0.1500 
 38 H       11.7360     0.9100    -1.9640 H     1 <1>   0.1500 
 39 H       12.5810    -2.1220     1.1280 H     1 <1>   0.0800 
 40 H       10.9530    -2.5600     0.6220 H     1 <1>   0.0800 
 41 H       11.2010    -1.2760     1.8200 H     1 <1>   0.0800 
@<TRIPOS>BOND
  1   1   2  1   
  2   2   3  ar  
  3   2   4  ar  
  4   3   5  1   
  5   3  23  1   
  6   4   6  1   
  7   4   7  1   
  8   5   6  2   
  9   6   8  1   
 10   7   9  1   
 11   7  24  1   
 12   7  25  1   
 13   8  10  1   
 14   8  26  1   
 15   8  27  1   
 16   9  11  1   
 17   9  12  1   
 18   9  28  1   
 19  10  13  1   
 20  11  14  1   
 21  12  15  1   
 22  12  29  1   
 23  12  30  1   
 24  13  16  ar  
 25  13  17  ar  
 26  14  15  1   
 27  14  31  1   
 28  14  32  1   
 29  15  33  1   
 30  15  34  1   
 31  16  18  ar  
 32  16  35  1   
 33  17  19  ar  
 34  17  36  1   
 35  18  20  1   
 36  18  21  ar  
 37  19  21  ar  
 38  19  37  1   
 39  20  22  1   
 40  21  38  1   
 41  22  39  1   
 42  22  40  1   
 43  22  41  1   
@<TRIPOS>SUBSTRUCTURE
  1 ****   8 GROUP 4 **** **** 0

# MOE 2024.06 (io_trps.svl 2023.06)
