@<TRIPOS>MOLECULE
NONAME
58 60 1 0 0 
SMALL
USER_CHARGES


@<TRIPOS>ATOM
  1 O       -0.2300     0.6990     1.4280 O.3   1 <1>  -0.3630 
  2 C       -1.4260     1.1100     0.9270 C.ar  1 <1>   0.0830 
  3 C        0.5400     1.5920     2.2070 C.3   1 <1>   0.0400 
  4 C       -2.4730     0.1880     0.8320 C.ar  1 <1>  -0.1440 
  5 C       -1.6080     2.4280     0.5190 C.ar  1 <1>  -0.1500 
  6 C       -3.7110     0.6410     0.3890 C.ar  1 <1>  -0.1500 
  7 C       -2.2360    -1.2730     1.2640 C.3   1 <1>   0.5140 
  8 C       -2.8370     2.8460     0.0510 C.ar  1 <1>  -0.1500 
  9 C       -3.8970     1.9620    -0.0060 C.ar  1 <1>   0.0830 
 10 N       -1.6710    -2.1720     0.2100 N.3   1 <1>  -0.8100 
 11 C       -3.4420    -1.9170     1.9520 C.2   1 <1>   0.0060 
 12 O       -5.0770     2.4650    -0.4530 O.3   1 <1>  -0.3630 
 13 C       -0.6840    -1.5170    -0.6800 C.3   1 <1>   0.1100 
 14 C       -1.0960    -3.3930     0.8260 C.3   1 <1>   0.1100 
 15 N       -3.4800    -1.9150     3.2330 N.2   1 <1>  -0.3380 
 16 N       -4.5250    -2.5530     1.4680 N.pl3 1 <1>   0.3140 
 17 C       -6.2690     1.7160    -0.3830 C.3   1 <1>   0.0400 
 18 C       -0.1510    -2.4800    -1.7600 C.3   1 <1>   0.3430 
 19 C       -0.5520    -4.3790    -0.2310 C.3   1 <1>   0.3430 
 20 N       -4.5860    -2.5390     3.5770 N.2   1 <1>   0.0000 
 21 N       -5.2170    -2.9270     2.5380 N.2   1 <1>  -0.4180 
 22 C       -5.1210    -2.9440     0.1120 C.3   1 <1>   0.2560 
 23 N        0.4340    -3.7390    -1.1740 N.4   1 <1>  -0.9590 
 24 C       -4.3070    -2.5630    -1.1390 C.3   1 <1>  -0.2400 
 25 C       -6.5160    -2.3010    -0.0280 C.3   1 <1>  -0.2400 
 26 C       -5.2990    -4.4760     0.0650 C.3   1 <1>  -0.2400 
 27 C        1.7420    -3.4700    -0.4990 C.3   1 <1>   0.2630 
 28 H        1.2920     1.0250     2.7260 H     1 <1>   0.0800 
 29 H       -0.1020     2.0820     2.9180 H     1 <1>   0.0800 
 30 H        1.0110     2.3110     1.5600 H     1 <1>   0.0800 
 31 H       -0.8040     3.1390     0.5580 H     1 <1>   0.1500 
 32 H       -4.5410    -0.0290     0.3630 H     1 <1>   0.1500 
 33 H       -1.4900    -1.2140     2.0390 H     1 <1>   0.0800 
 34 H       -2.9860     3.8630    -0.2650 H     1 <1>   0.1500 
 35 H        0.1440    -1.1420    -0.1060 H     1 <1>   0.0800 
 36 H       -1.1460    -0.6830    -1.1810 H     1 <1>   0.0800 
 37 H       -1.8530    -3.9030     1.3980 H     1 <1>   0.0800 
 38 H       -0.3060    -3.1250     1.5070 H     1 <1>   0.0800 
 39 H       -7.0800     2.3530    -0.6890 H     1 <1>   0.0800 
 40 H       -6.4220     1.3940     0.6320 H     1 <1>   0.0800 
 41 H       -6.1930     0.8780    -1.0520 H     1 <1>   0.0800 
 42 H        0.5910    -1.9710    -2.3540 H     1 <1>   0.0800 
 43 H       -0.9720    -2.7340    -2.4110 H     1 <1>   0.0800 
 44 H       -1.3910    -4.7540    -0.7950 H     1 <1>   0.0800 
 45 H       -0.0940    -5.2180     0.2670 H     1 <1>   0.0800 
 46 H        0.6030    -4.3970    -1.9490 H     1 <1>   0.4500 
 47 H       -3.4400    -3.1860    -1.2320 H     1 <1>   0.0800 
 48 H       -4.0160    -1.5320    -1.1400 H     1 <1>   0.0800 
 49 H       -4.8950    -2.7290    -2.0240 H     1 <1>   0.0800 
 50 H       -7.1710    -2.6300     0.7610 H     1 <1>   0.0800 
 51 H       -6.4500    -1.2310     0.0110 H     1 <1>   0.0800 
 52 H       -6.9730    -2.5770    -0.9620 H     1 <1>   0.0800 
 53 H       -4.3540    -4.9700     0.2020 H     1 <1>   0.0800 
 54 H       -5.7090    -4.7820    -0.8810 H     1 <1>   0.0800 
 55 H       -5.9750    -4.8090     0.8340 H     1 <1>   0.0800 
 56 H        1.6090    -2.7800     0.3180 H     1 <1>   0.0800 
 57 H        2.4430    -3.0420    -1.1990 H     1 <1>   0.0800 
 58 H        2.1600    -4.3850    -0.1130 H     1 <1>   0.0800 
@<TRIPOS>BOND
  1   1   2  1   
  2   1   3  1   
  3   2   4  ar  
  4   2   5  ar  
  5   3  28  1   
  6   3  29  1   
  7   3  30  1   
  8   4   6  ar  
  9   4   7  1   
 10   5   8  ar  
 11   5  31  1   
 12   6   9  ar  
 13   6  32  1   
 14   7  10  1   
 15   7  11  1   
 16   7  33  1   
 17   8   9  ar  
 18   8  34  1   
 19   9  12  1   
 20  10  13  1   
 21  10  14  1   
 22  11  15  2   
 23  11  16  1   
 24  12  17  1   
 25  13  18  1   
 26  13  35  1   
 27  13  36  1   
 28  14  19  1   
 29  14  37  1   
 30  14  38  1   
 31  15  20  1   
 32  16  21  1   
 33  16  22  1   
 34  17  39  1   
 35  17  40  1   
 36  17  41  1   
 37  18  23  1   
 38  18  42  1   
 39  18  43  1   
 40  19  23  1   
 41  19  44  1   
 42  19  45  1   
 43  20  21  2   
 44  22  24  1   
 45  22  25  1   
 46  22  26  1   
 47  23  27  1   
 48  23  46  1   
 49  24  47  1   
 50  24  48  1   
 51  24  49  1   
 52  25  50  1   
 53  25  51  1   
 54  25  52  1   
 55  26  53  1   
 56  26  54  1   
 57  26  55  1   
 58  27  56  1   
 59  27  57  1   
 60  27  58  1   
@<TRIPOS>SUBSTRUCTURE
  1 ****   7 GROUP 4 **** **** 0

# MOE 2024.06 (io_trps.svl 2023.06)
