@<TRIPOS>MOLECULE
NONAME
55 58 1 0 0 
SMALL
USER_CHARGES


@<TRIPOS>ATOM
  1 F       -8.7330     0.4880     3.4270 F     1 <1>  -0.1900 
  2 C       -8.0410     1.4700     2.9180 C.ar  1 <1>   0.1900 
  3 C       -8.6270     2.7150     2.8140 C.ar  1 <1>  -0.1500 
  4 C       -6.7470     1.2290     2.5000 C.ar  1 <1>  -0.1500 
  5 C       -7.8900     3.7500     2.2640 C.ar  1 <1>  -0.1500 
  6 C       -6.0200     2.2720     1.9500 C.ar  1 <1>  -0.1500 
  7 C       -6.5890     3.5350     1.8190 C.ar  1 <1>  -0.1430 
  8 C       -5.8220     4.6870     1.1890 C.3   1 <1>   0.4870 
  9 N       -6.0780     4.6570    -0.2760 N.4   1 <1>  -0.9590 
 10 C       -5.3430     3.7290    -1.1530 C.3   1 <1>   0.4230 
 11 C       -6.0010     5.9020    -1.0130 C.3   1 <1>   0.4230 
 12 C       -6.3960     2.9840    -1.9240 C.3   1 <1>  -0.1600 
 13 C       -3.8800     3.6800    -0.7700 C.3   1 <1>  -0.1600 
 14 C       -6.7970     5.6030    -2.3420 C.3   1 <1>  -0.1600 
 15 C       -4.4740     6.2540    -1.1680 C.3   1 <1>  -0.1600 
 16 C       -7.2770     4.1050    -2.5810 C.3   1 <1>   0.2200 
 17 C       -3.4150     5.1740    -0.6990 C.3   1 <1>  -0.1600 
 18 N       -8.6840     3.8870    -2.1550 N.am  1 <1>  -0.7300 
 19 C       -9.3240     4.2890    -1.0280 C.2   1 <1>   0.6900 
 20 O       -8.8020     5.1000    -0.2910 O.2   1 <1>  -0.5700 
 21 N      -10.5160     3.7100    -0.7180 N.am  1 <1>  -0.5470 
 22 C      -11.2760     3.8580     0.4460 C.ar  1 <1>   0.1170 
 23 C      -11.8860     2.7450     1.0100 C.ar  1 <1>  -0.1500 
 24 C      -11.4530     5.0900     1.0660 C.ar  1 <1>  -0.1500 
 25 C      -12.6390     2.8570     2.1650 C.ar  1 <1>  -0.1500 
 26 C      -12.2060     5.2020     2.2200 C.ar  1 <1>  -0.1500 
 27 C      -12.8110     4.0870     2.7910 C.ar  1 <1>   0.0730 
 28 C      -13.5910     4.2050     3.9890 C.1   1 <1>   0.4840 
 29 N      -14.2100     4.2980     4.9420 N.1   1 <1>  -0.5570 
 30 H       -9.6350     2.8690     3.1550 H     1 <1>   0.1500 
 31 H       -6.3240     0.2460     2.6070 H     1 <1>   0.1500 
 32 H       -8.3490     4.7220     2.1840 H     1 <1>   0.1500 
 33 H       -5.0110     2.0810     1.6320 H     1 <1>   0.1500 
 34 H       -4.7720     4.6050     1.4070 H     1 <1>   0.0800 
 35 H       -6.1860     5.6130     1.6010 H     1 <1>   0.0800 
 36 H       -7.0870     4.4190    -0.3250 H     1 <1>   0.4500 
 37 H       -5.0770     4.2790    -2.0370 H     1 <1>   0.0800 
 38 H       -6.5090     6.6830    -0.4690 H     1 <1>   0.0800 
 39 H       -6.9500     2.3280    -1.2750 H     1 <1>   0.0800 
 40 H       -5.9200     2.3970    -2.6890 H     1 <1>   0.0800 
 41 H       -3.3370     3.1700    -1.5470 H     1 <1>   0.0800 
 42 H       -3.7090     3.1530     0.1490 H     1 <1>   0.0800 
 43 H       -6.1770     5.8810    -3.1750 H     1 <1>   0.0800 
 44 H       -7.6460     6.2620    -2.3940 H     1 <1>   0.0800 
 45 H       -4.2890     7.1640    -0.6250 H     1 <1>   0.0800 
 46 H       -4.2770     6.4960    -2.1980 H     1 <1>   0.0800 
 47 H       -7.2610     3.9460    -3.6470 H     1 <1>   0.0800 
 48 H       -2.5100     5.2950    -1.2720 H     1 <1>   0.0800 
 49 H       -3.1460     5.3910     0.3210 H     1 <1>   0.0800 
 50 H       -9.2200     3.3100    -2.8060 H     1 <1>   0.3700 
 51 H      -10.7980     2.9470    -1.3250 H     1 <1>   0.3700 
 52 H      -11.7660     1.7800     0.5500 H     1 <1>   0.1500 
 53 H      -11.0000     5.9680     0.6400 H     1 <1>   0.1500 
 54 H      -13.0990     1.9790     2.5870 H     1 <1>   0.1500 
 55 H      -12.3280     6.1680     2.6830 H     1 <1>   0.1500 
@<TRIPOS>BOND
  1   1   2  1   
  2   2   3  ar  
  3   2   4  ar  
  4   3   5  ar  
  5   3  30  1   
  6   4   6  ar  
  7   4  31  1   
  8   5   7  ar  
  9   5  32  1   
 10   6   7  ar  
 11   6  33  1   
 12   7   8  1   
 13   8   9  1   
 14   8  34  1   
 15   8  35  1   
 16   9  10  1   
 17   9  11  1   
 18   9  36  1   
 19  10  12  1   
 20  10  13  1   
 21  10  37  1   
 22  11  14  1   
 23  11  15  1   
 24  11  38  1   
 25  12  16  1   
 26  12  39  1   
 27  12  40  1   
 28  13  17  1   
 29  13  41  1   
 30  13  42  1   
 31  14  16  1   
 32  14  43  1   
 33  14  44  1   
 34  15  17  1   
 35  15  45  1   
 36  15  46  1   
 37  16  18  1   
 38  16  47  1   
 39  17  48  1   
 40  17  49  1   
 41  18  19  am  
 42  18  50  1   
 43  19  20  2   
 44  19  21  am  
 45  21  22  1   
 46  21  51  1   
 47  22  23  ar  
 48  22  24  ar  
 49  23  25  ar  
 50  23  52  1   
 51  24  26  ar  
 52  24  53  1   
 53  25  27  ar  
 54  25  54  1   
 55  26  27  ar  
 56  26  55  1   
 57  27  28  1   
 58  28  29  3   
@<TRIPOS>SUBSTRUCTURE
  1 ****   5 GROUP 4 **** **** 0

# MOE 2024.06 (io_trps.svl 2023.06)
