@<TRIPOS>MOLECULE
1-(5-Methyl-[1,2,4]triazolo[1,5-a]pyrimidin-7-yl)-piperidine-4-carboxylic acid (3-phenyl-propyl)-amide
55 58 1 0 0 
SMALL
USER_CHARGES


@<TRIPOS>ATOM
  1 O       -0.7860    -1.5930    -1.1070 O.2   1 <1>  -0.5700 
  2 C       -0.6290    -1.9870     0.0230 C.2   1 <1>   0.5690 
  3 N        0.6000    -2.0500     0.5990 N.am  1 <1>  -0.7300 
  4 C       -1.8430    -2.4370     0.8320 C.3   1 <1>  -0.0190 
  5 C        1.8650    -1.6830    -0.0710 C.3   1 <1>   0.1400 
  6 C       -2.4030    -3.7620     0.2800 C.3   1 <1>  -0.1600 
  7 C       -2.9380    -1.3510     0.8460 C.3   1 <1>  -0.1600 
  8 C        2.8430    -2.8500     0.0450 C.3   1 <1>  -0.1600 
  9 C       -3.6760    -4.2010     1.0050 C.3   1 <1>   0.2090 
 10 C       -4.1980    -1.8250     1.5690 C.3   1 <1>   0.2090 
 11 C        4.1670    -2.5400    -0.6620 C.3   1 <1>  -0.0160 
 12 N       -4.6720    -3.0940     0.9500 N.pl3 1 <1>  -0.8380 
 13 C        5.1280    -3.7090    -0.5170 C.ar  1 <1>  -0.1440 
 14 C       -5.8270    -3.1760     0.2220 C.2   1 <1>   0.4790 
 15 C        5.1100    -4.7450    -1.4380 C.ar  1 <1>  -0.1500 
 16 C        6.0270    -3.7520     0.5370 C.ar  1 <1>  -0.1500 
 17 N       -6.6390    -4.2740     0.3130 N.pl3 1 <1>  -0.3220 
 18 C       -6.2520    -2.1870    -0.6340 C.2   1 <1>  -0.1360 
 19 C        5.9810    -5.8130    -1.3070 C.ar  1 <1>  -0.1500 
 20 C        6.8990    -4.8190     0.6700 C.ar  1 <1>  -0.1500 
 21 N       -6.5650    -5.4040     1.0990 N.2   1 <1>  -0.2600 
 22 C       -7.7690    -4.3140    -0.4080 C.cat 1 <1>   0.9620 
 23 C       -7.4360    -2.3400    -1.3450 C.2   1 <1>   0.3750 
 24 C        6.8770    -5.8500    -0.2520 C.ar  1 <1>  -0.1500 
 25 C       -7.6230    -6.0670     0.8110 C.2   1 <1>   0.5030 
 26 N       -8.2100    -3.3920    -1.2500 N.2   1 <1>  -0.6120 
 27 N       -8.3910    -5.4380    -0.1160 N.pl3 1 <1>  -0.7000 
 28 C       -7.8910    -1.2520    -2.2940 C.3   1 <1>  -0.1790 
 29 H        0.6990    -2.3920     1.5550 H     1 <1>   0.3700 
 30 H       -1.5300    -2.6030     1.8470 H     1 <1>   0.0800 
 31 H        2.2730    -0.8040     0.3980 H     1 <1>   0.0800 
 32 H        1.6800    -1.4600    -1.1090 H     1 <1>   0.0800 
 33 H       -1.6580    -4.5330     0.3720 H     1 <1>   0.0800 
 34 H       -2.6230    -3.6500    -0.7670 H     1 <1>   0.0800 
 35 H       -3.1950    -1.0820    -0.1640 H     1 <1>   0.0800 
 36 H       -2.5600    -0.4670     1.3290 H     1 <1>   0.0800 
 37 H        2.4060    -3.7260    -0.4040 H     1 <1>   0.0800 
 38 H        3.0410    -3.0570     1.0820 H     1 <1>   0.0800 
 39 H       -3.4600    -4.4370     2.0340 H     1 <1>   0.0800 
 40 H       -4.0600    -5.0860     0.5290 H     1 <1>   0.0800 
 41 H       -4.9630    -1.0680     1.5180 H     1 <1>   0.0800 
 42 H       -3.9790    -2.0020     2.6090 H     1 <1>   0.0800 
 43 H        4.6120    -1.6560    -0.2400 H     1 <1>   0.0800 
 44 H        3.9890    -2.3500    -1.7070 H     1 <1>   0.0800 
 45 H        4.4170    -4.7260    -2.2600 H     1 <1>   0.1500 
 46 H        6.0530    -2.9560     1.2600 H     1 <1>   0.1500 
 47 H       -5.6580    -1.3030    -0.7620 H     1 <1>   0.1500 
 48 H        5.9620    -6.6140    -2.0240 H     1 <1>   0.1500 
 49 H        7.5950    -4.8460     1.4900 H     1 <1>   0.1500 
 50 H        7.5540    -6.6800    -0.1500 H     1 <1>   0.1500 
 51 H       -7.8910    -7.0180     1.2470 H     1 <1>   0.1500 
 52 H       -9.2810    -5.7080    -0.5270 H     1 <1>   0.4500 
 53 H       -7.1920    -0.4350    -2.3200 H     1 <1>   0.0800 
 54 H       -8.8490    -0.8750    -1.9850 H     1 <1>   0.0800 
 55 H       -7.9850    -1.6520    -3.2880 H     1 <1>   0.0800 
@<TRIPOS>BOND
  1   1   2  2   
  2   2   3  am  
  3   2   4  1   
  4   3   5  1   
  5   3  29  1   
  6   4   6  1   
  7   4   7  1   
  8   4  30  1   
  9   5   8  1   
 10   5  31  1   
 11   5  32  1   
 12   6   9  1   
 13   6  33  1   
 14   6  34  1   
 15   7  10  1   
 16   7  35  1   
 17   7  36  1   
 18   8  11  1   
 19   8  37  1   
 20   8  38  1   
 21   9  12  1   
 22   9  39  1   
 23   9  40  1   
 24  10  12  1   
 25  10  41  1   
 26  10  42  1   
 27  11  13  1   
 28  11  43  1   
 29  11  44  1   
 30  12  14  1   
 31  13  15  ar  
 32  13  16  ar  
 33  14  17  1   
 34  14  18  2   
 35  15  19  ar  
 36  15  45  1   
 37  16  20  ar  
 38  16  46  1   
 39  17  21  1   
 40  17  22  ar  
 41  18  23  1   
 42  18  47  1   
 43  19  24  ar  
 44  19  48  1   
 45  20  24  ar  
 46  20  49  1   
 47  21  25  2   
 48  22  26  1   
 49  22  27  ar  
 50  23  26  2   
 51  23  28  1   
 52  24  50  1   
 53  25  27  1   
 54  25  51  1   
 55  27  52  1   
 56  28  53  1   
 57  28  54  1   
 58  28  55  1   
@<TRIPOS>SUBSTRUCTURE
  1 ****   6 GROUP 4 **** **** 0

# MOE 2024.06 (io_trps.svl 2023.06)
