@<TRIPOS>MOLECULE
NONAME
41 44 1 0 0 
SMALL
USER_CHARGES


@<TRIPOS>ATOM
  1 S       -0.1310    -0.0750    -0.3190 S.3   1 <1>  -0.3320 
  2 C        1.5650    -0.6260    -0.4200 C.ar  1 <1>   0.7220 
  3 C       -1.0460    -1.1810    -1.5020 C.3   1 <1>   0.1310 
  4 N        1.7950    -1.6820    -1.2380 N.ar  1 <1>  -0.3100 
  5 N        2.4230     0.0370     0.3110 N.ar  1 <1>  -0.5670 
  6 C       -2.5320    -0.8510    -1.5190 C.2   1 <1>   0.5690 
  7 N        3.0030    -2.1500    -1.3650 N.ar  1 <1>  -0.2560 
  8 C        3.6580    -0.4520     0.1670 C.ar  1 <1>   0.1050 
  9 O       -2.9790    -0.3970    -2.5470 O.2   1 <1>  -0.5700 
 10 N       -3.3360    -1.0820    -0.4280 N.am  1 <1>  -0.6600 
 11 C        3.9490    -1.5260    -0.6540 C.ar  1 <1>   0.2560 
 12 N        4.8100    -0.0150     0.7680 N.pl3 1 <1>   0.0480 
 13 C       -2.8920    -1.6490     0.8820 C.3   1 <1>   0.1400 
 14 C       -4.7840    -0.7130    -0.4370 C.3   1 <1>   0.1400 
 15 C        5.3460    -1.7640    -0.5560 C.ar  1 <1>   0.0000 
 16 C        5.8540    -0.8130     0.3310 C.ar  1 <1>  -0.1520 
 17 C        4.9240     1.1150     1.7100 C.3   1 <1>   0.0160 
 18 C       -3.8620    -2.7430     1.3600 C.3   1 <1>   0.1200 
 19 C       -5.6430    -1.8630     0.1120 C.3   1 <1>   0.1200 
 20 C        6.2020    -2.6970    -1.1430 C.ar  1 <1>  -0.1500 
 21 C        7.2160    -0.7750     0.6490 C.ar  1 <1>  -0.1500 
 22 O       -5.1790    -2.2720     1.3680 O.3   1 <1>  -0.5600 
 23 C        7.5360    -2.6390    -0.8150 C.ar  1 <1>   0.1900 
 24 C        8.0610    -1.6980     0.0690 C.ar  1 <1>  -0.1500 
 25 F        8.3580    -3.5040    -1.3530 F     1 <1>  -0.1900 
 26 H       -0.8850    -2.1980    -1.1990 H     1 <1>   0.0800 
 27 H       -0.6210    -1.0200    -2.4760 H     1 <1>   0.0800 
 28 H       -2.8630    -0.8600     1.6140 H     1 <1>   0.0800 
 29 H       -1.9060    -2.0680     0.8090 H     1 <1>   0.0800 
 30 H       -5.1100    -0.4750    -1.4350 H     1 <1>   0.0800 
 31 H       -4.9290     0.1610     0.1730 H     1 <1>   0.0800 
 32 H        3.9600     1.5680     1.8550 H     1 <1>   0.0800 
 33 H        5.6030     1.8450     1.3090 H     1 <1>   0.0800 
 34 H        5.2940     0.7560     2.6530 H     1 <1>   0.0800 
 35 H       -3.6170    -3.0440     2.3630 H     1 <1>   0.0800 
 36 H       -3.8090    -3.6050     0.7180 H     1 <1>   0.0800 
 37 H       -5.6190    -2.7050    -0.5580 H     1 <1>   0.0800 
 38 H       -6.6630    -1.5410     0.2270 H     1 <1>   0.0800 
 39 H        5.8230    -3.4340    -1.8280 H     1 <1>   0.1500 
 40 H        7.5960    -0.0380     1.3340 H     1 <1>   0.1500 
 41 H        9.1150    -1.7060     0.2830 H     1 <1>   0.1500 
@<TRIPOS>BOND
  1   1   2  1   
  2   1   3  1   
  3   2   4  ar  
  4   2   5  ar  
  5   3   6  1   
  6   3  26  1   
  7   3  27  1   
  8   4   7  ar  
  9   5   8  ar  
 10   6   9  2   
 11   6  10  am  
 12   7  11  ar  
 13   8  11  ar  
 14   8  12  1   
 15  10  13  1   
 16  10  14  1   
 17  11  15  1   
 18  12  16  1   
 19  12  17  1   
 20  13  18  1   
 21  13  28  1   
 22  13  29  1   
 23  14  19  1   
 24  14  30  1   
 25  14  31  1   
 26  15  16  ar  
 27  15  20  ar  
 28  16  21  ar  
 29  17  32  1   
 30  17  33  1   
 31  17  34  1   
 32  18  22  1   
 33  18  35  1   
 34  18  36  1   
 35  19  22  1   
 36  19  37  1   
 37  19  38  1   
 38  20  23  ar  
 39  20  39  1   
 40  21  24  ar  
 41  21  40  1   
 42  23  24  ar  
 43  23  25  1   
 44  24  41  1   
@<TRIPOS>SUBSTRUCTURE
  1 ****   2 GROUP 4 **** **** 0

# MOE 2024.06 (io_trps.svl 2023.06)
