@<TRIPOS>MOLECULE
7382
33 33 1 0 0 
SMALL
USER_CHARGES


@<TRIPOS>ATOM
  1 O       -0.2470     1.6980    -1.4290 O.2   1 <1>  -0.5700 
  2 C       -0.2120     2.1370    -0.2970 C.2   1 <1>   0.6900 
  3 N       -1.2880     2.0710     0.5320 N.am  1 <1>  -0.5470 
  4 N        0.9100     2.7180     0.1900 N.am  1 <1>  -0.7300 
  5 C       -2.5150     1.4290     0.3220 C.ar  1 <1>   0.1170 
  6 C        2.1830     2.8260    -0.5390 C.3   1 <1>   0.2200 
  7 C       -2.6270     0.0500     0.1220 C.ar  1 <1>  -0.1430 
  8 C       -3.6710     2.2020     0.3420 C.ar  1 <1>  -0.1500 
  9 C        3.2350     1.9190     0.1160 C.3   1 <1>  -0.1600 
 10 C        2.6160     4.2880    -0.5060 C.3   1 <1>  -0.2400 
 11 C       -3.8780    -0.5170    -0.0620 C.ar  1 <1>  -0.1500 
 12 C       -1.4060    -0.8620     0.1040 C.3   1 <1>  -0.0970 
 13 C       -4.9150     1.6290     0.1610 C.ar  1 <1>  -0.1500 
 14 C        2.8510     0.4320     0.0840 C.3   1 <1>  -0.2400 
 15 C       -5.0200     0.2660    -0.0420 C.ar  1 <1>  -0.1500 
 16 H       -1.2750     2.7500     1.2840 H     1 <1>   0.3700 
 17 H        0.9770     2.8960     1.1870 H     1 <1>   0.3700 
 18 H        2.0430     2.5240    -1.5660 H     1 <1>   0.0800 
 19 H       -3.5940     3.2630     0.4910 H     1 <1>   0.1500 
 20 H        3.4020     2.2290     1.1330 H     1 <1>   0.0800 
 21 H        4.1630     2.0390    -0.4150 H     1 <1>   0.0800 
 22 H        2.7690     4.6200     0.5040 H     1 <1>   0.0800 
 23 H        1.8660     4.9000    -0.9740 H     1 <1>   0.0800 
 24 H        3.5350     4.4090    -1.0510 H     1 <1>   0.0800 
 25 H       -3.9730    -1.5760    -0.2240 H     1 <1>   0.1500 
 26 H       -0.7140    -0.5790     0.8760 H     1 <1>   0.0800 
 27 H       -0.9120    -0.7870    -0.8480 H     1 <1>   0.0800 
 28 H       -1.6880    -1.8860     0.2640 H     1 <1>   0.0800 
 29 H       -5.8000     2.2410     0.1750 H     1 <1>   0.1500 
 30 H        1.9700     0.2510     0.6740 H     1 <1>   0.0800 
 31 H        3.6530    -0.1660     0.4790 H     1 <1>   0.0800 
 32 H        2.6540     0.1190    -0.9270 H     1 <1>   0.0800 
 33 H       -5.9850    -0.1870    -0.1860 H     1 <1>   0.1500 
@<TRIPOS>BOND
  1   1   2  2   
  2   2   3  am  
  3   2   4  am  
  4   3   5  1   
  5   3  16  1   
  6   4   6  1   
  7   4  17  1   
  8   5   7  ar  
  9   5   8  ar  
 10   6   9  1   
 11   6  10  1   
 12   6  18  1   
 13   7  11  ar  
 14   7  12  1   
 15   8  13  ar  
 16   8  19  1   
 17   9  14  1   
 18   9  20  1   
 19   9  21  1   
 20  10  22  1   
 21  10  23  1   
 22  10  24  1   
 23  11  15  ar  
 24  11  25  1   
 25  12  26  1   
 26  12  27  1   
 27  12  28  1   
 28  13  15  ar  
 29  13  29  1   
 30  14  30  1   
 31  14  31  1   
 32  14  32  1   
 33  15  33  1   
@<TRIPOS>SUBSTRUCTURE
  1 ****   3 GROUP 4 **** **** 0

# MOE 2024.06 (io_trps.svl 2023.06)
