@<TRIPOS>MOLECULE
793
49 50 1 0 0 
SMALL
USER_CHARGES


@<TRIPOS>ATOM
  1 O        0.0130    -1.8490    -1.6440 O.2   1 <1>  -0.5700 
  2 C       -0.4330    -2.6140    -0.8120 C.2   1 <1>   0.6340 
  3 O        0.4170    -3.2080     0.0310 O.3   1 <1>  -0.4300 
  4 C       -1.8440    -2.9180    -0.6860 C.ar  1 <1>   0.0860 
  5 C        1.8100    -2.9750    -0.0320 C.3   1 <1>   0.1200 
  6 C       -2.3340    -3.8010     0.2810 C.ar  1 <1>  -0.1500 
  7 C       -2.7880    -2.3330    -1.5360 C.ar  1 <1>  -0.1500 
  8 C        2.5210    -3.8220     1.0350 C.3   1 <1>  -0.0800 
  9 C       -3.6810    -4.0880     0.3860 C.ar  1 <1>  -0.1500 
 10 C       -4.1350    -2.6200    -1.4350 C.ar  1 <1>  -0.1500 
 11 C        4.0260    -3.5290     1.0210 C.3   1 <1>  -0.2400 
 12 C        2.2840    -5.3240     0.8220 C.3   1 <1>  -0.2400 
 13 C       -4.6040    -3.5100    -0.4790 C.ar  1 <1>   0.1170 
 14 N       -5.9670    -3.7920    -0.4060 N.am  1 <1>  -0.5470 
 15 C       -6.6410    -4.9480    -0.1150 C.2   1 <1>   0.5440 
 16 O       -7.8250    -4.8230     0.1160 O.2   1 <1>  -0.5700 
 17 C       -6.0110    -6.2550    -0.0790 C.ar  1 <1>   0.0860 
 18 C       -5.0260    -6.6330    -0.9910 C.ar  1 <1>  -0.1500 
 19 C       -6.3760    -7.1950     0.8830 C.ar  1 <1>  -0.1500 
 20 C       -4.4020    -7.8660    -0.9390 C.ar  1 <1>   0.0830 
 21 C       -5.7790    -8.4400     0.9450 C.ar  1 <1>  -0.1500 
 22 O       -3.4420    -8.0570    -1.8870 O.3   1 <1>  -0.3630 
 23 C       -4.7850    -8.8000     0.0380 C.ar  1 <1>   0.0830 
 24 C       -2.3030    -8.8480    -1.6280 C.3   1 <1>   0.0400 
 25 O       -4.2040   -10.0300     0.0740 O.3   1 <1>  -0.3630 
 26 C       -4.6600   -11.0610     0.9220 C.3   1 <1>   0.0400 
 27 H        1.9810    -1.9250     0.1370 H     1 <1>   0.0800 
 28 H        2.1520    -3.2370    -1.0190 H     1 <1>   0.0800 
 29 H       -1.6460    -4.2720     0.9630 H     1 <1>   0.1500 
 30 H       -2.4490    -1.6420    -2.2900 H     1 <1>   0.1500 
 31 H        2.1340    -3.5390     1.9990 H     1 <1>   0.0800 
 32 H       -4.0190    -4.7670     1.1490 H     1 <1>   0.1500 
 33 H       -4.8310    -2.1540    -2.1100 H     1 <1>   0.1500 
 34 H        4.4570    -3.7950     0.0720 H     1 <1>   0.0800 
 35 H        4.5230    -4.0920     1.7930 H     1 <1>   0.0800 
 36 H        4.2060    -2.4830     1.1990 H     1 <1>   0.0800 
 37 H        2.6430    -5.6310    -0.1450 H     1 <1>   0.0800 
 38 H        1.2350    -5.5520     0.8850 H     1 <1>   0.0800 
 39 H        2.7960    -5.8950     1.5770 H     1 <1>   0.0800 
 40 H       -6.6070    -3.0100    -0.5440 H     1 <1>   0.3700 
 41 H       -4.7300    -5.9470    -1.7630 H     1 <1>   0.1500 
 42 H       -7.1460    -6.9360     1.5900 H     1 <1>   0.1500 
 43 H       -6.1070    -9.1160     1.7110 H     1 <1>   0.1500 
 44 H       -2.5620    -9.8830    -1.7580 H     1 <1>   0.0800 
 45 H       -1.5380    -8.5750    -2.3310 H     1 <1>   0.0800 
 46 H       -1.9660    -8.6620    -0.6230 H     1 <1>   0.0800 
 47 H       -5.7000   -11.2470     0.7180 H     1 <1>   0.0800 
 48 H       -4.0840   -11.9440     0.7120 H     1 <1>   0.0800 
 49 H       -4.5130   -10.7640     1.9450 H     1 <1>   0.0800 
@<TRIPOS>BOND
  1   1   2  2   
  2   2   3  1   
  3   2   4  1   
  4   3   5  1   
  5   4   6  ar  
  6   4   7  ar  
  7   5   8  1   
  8   5  27  1   
  9   5  28  1   
 10   6   9  ar  
 11   6  29  1   
 12   7  10  ar  
 13   7  30  1   
 14   8  11  1   
 15   8  12  1   
 16   8  31  1   
 17   9  13  ar  
 18   9  32  1   
 19  10  13  ar  
 20  10  33  1   
 21  11  34  1   
 22  11  35  1   
 23  11  36  1   
 24  12  37  1   
 25  12  38  1   
 26  12  39  1   
 27  13  14  1   
 28  14  15  am  
 29  14  40  1   
 30  15  16  2   
 31  15  17  1   
 32  17  18  ar  
 33  17  19  ar  
 34  18  20  ar  
 35  18  41  1   
 36  19  21  ar  
 37  19  42  1   
 38  20  22  1   
 39  20  23  ar  
 40  21  23  ar  
 41  21  43  1   
 42  22  24  1   
 43  23  25  1   
 44  24  44  1   
 45  24  45  1   
 46  24  46  1   
 47  25  26  1   
 48  26  47  1   
 49  26  48  1   
 50  26  49  1   
@<TRIPOS>SUBSTRUCTURE
  1 ****   9 GROUP 4 **** **** 0

# MOE 2024.06 (io_trps.svl 2023.06)
