@<TRIPOS>MOLECULE
Pyrrolidine-1,2-dicarboxylic acid 2-[(4-methoxy-phenyl)-amide] 1-p-tolylamide
49 51 1 0 0 
SMALL
USER_CHARGES


@<TRIPOS>ATOM
  1 O        3.3030    -0.6270    -2.2750 O.2   1 <1>  -0.5700 
  2 C        3.4130     0.2870    -1.4810 C.2   1 <1>   0.6900 
  3 N        4.0360     0.0820    -0.2790 N.am  1 <1>  -0.6600 
  4 N        2.8940     1.4900    -1.8430 N.am  1 <1>  -0.5470 
  5 C        4.5870    -1.2580     0.1220 C.3   1 <1>   0.2810 
  6 C        4.7280     1.1680     0.4580 C.3   1 <1>   0.1400 
  7 C        2.3230     2.5020    -1.0650 C.ar  1 <1>   0.1170 
  8 C        3.5300    -2.3300     0.4870 C.2   1 <1>   0.5690 
  9 C        5.5690    -0.9300     1.2570 C.3   1 <1>  -0.1600 
 10 C        5.9820     0.5180     1.0210 C.3   1 <1>  -0.1600 
 11 C        1.6420     2.2220     0.1150 C.ar  1 <1>  -0.1500 
 12 C        2.4220     3.8230    -1.4790 C.ar  1 <1>  -0.1500 
 13 O        3.6730    -2.9920     1.4900 O.2   1 <1>  -0.5700 
 14 N        2.4830    -2.5150    -0.3760 N.am  1 <1>  -0.5470 
 15 C        1.0840     3.2400     0.8670 C.ar  1 <1>  -0.1500 
 16 C        1.8630     4.8430    -0.7280 C.ar  1 <1>  -0.1500 
 17 C        1.3720    -3.3740    -0.3710 C.ar  1 <1>   0.1170 
 18 C        1.1910     4.5570     0.4490 C.ar  1 <1>  -0.1430 
 19 C        0.6260    -3.4850    -1.5380 C.ar  1 <1>  -0.1500 
 20 C        0.9720    -4.1100     0.7400 C.ar  1 <1>  -0.1500 
 21 C        0.5810     5.6770     1.2730 C.3   1 <1>  -0.0970 
 22 C       -0.4820    -4.3100    -1.5980 C.ar  1 <1>  -0.1500 
 23 C       -0.1350    -4.9390     0.6870 C.ar  1 <1>  -0.1500 
 24 C       -0.8710    -5.0440    -0.4900 C.ar  1 <1>   0.0820 
 25 O       -1.9700    -5.8330    -0.6310 O.3   1 <1>  -0.3630 
 26 C       -2.4260    -6.6350     0.4350 C.3   1 <1>   0.0400 
 27 H        2.6750     1.5200    -2.8370 H     1 <1>   0.3700 
 28 H        5.1540    -1.6380    -0.7090 H     1 <1>   0.0800 
 29 H        4.0940     1.5110     1.2580 H     1 <1>   0.0800 
 30 H        4.9720     1.9950    -0.1880 H     1 <1>   0.0800 
 31 H        6.4060    -1.6050     1.2630 H     1 <1>   0.0800 
 32 H        5.0640    -1.0010     2.2060 H     1 <1>   0.0800 
 33 H        6.3140     1.0030     1.9230 H     1 <1>   0.0800 
 34 H        6.7660     0.5640     0.2860 H     1 <1>   0.0800 
 35 H        1.5460     1.2030     0.4440 H     1 <1>   0.1500 
 36 H        2.9420     4.0570    -2.3900 H     1 <1>   0.1500 
 37 H        2.5520    -1.9210    -1.2130 H     1 <1>   0.3700 
 38 H        0.5640     3.0020     1.7780 H     1 <1>   0.1500 
 39 H        1.9530     5.8610    -1.0640 H     1 <1>   0.1500 
 40 H        0.9160    -2.9230    -2.4080 H     1 <1>   0.1500 
 41 H        1.5230    -4.0400     1.6590 H     1 <1>   0.1500 
 42 H       -0.2570     5.3140     1.8420 H     1 <1>   0.0800 
 43 H        0.2360     6.4680     0.6320 H     1 <1>   0.0800 
 44 H        1.3150     6.0730     1.9510 H     1 <1>   0.0800 
 45 H       -1.0530    -4.3920    -2.5050 H     1 <1>   0.1500 
 46 H       -0.4050    -5.4890     1.5670 H     1 <1>   0.1500 
 47 H       -3.2910    -7.1770     0.0990 H     1 <1>   0.0800 
 48 H       -2.6900    -6.0000     1.2610 H     1 <1>   0.0800 
 49 H       -1.6470    -7.3250     0.7100 H     1 <1>   0.0800 
@<TRIPOS>BOND
  1   1   2  2   
  2   2   3  am  
  3   2   4  am  
  4   3   5  1   
  5   3   6  1   
  6   4   7  1   
  7   4  27  1   
  8   5   8  1   
  9   5   9  1   
 10   5  28  1   
 11   6  10  1   
 12   6  29  1   
 13   6  30  1   
 14   7  11  ar  
 15   7  12  ar  
 16   8  13  2   
 17   8  14  am  
 18   9  10  1   
 19   9  31  1   
 20   9  32  1   
 21  10  33  1   
 22  10  34  1   
 23  11  15  ar  
 24  11  35  1   
 25  12  16  ar  
 26  12  36  1   
 27  14  17  1   
 28  14  37  1   
 29  15  18  ar  
 30  15  38  1   
 31  16  18  ar  
 32  16  39  1   
 33  17  19  ar  
 34  17  20  ar  
 35  18  21  1   
 36  19  22  ar  
 37  19  40  1   
 38  20  23  ar  
 39  20  41  1   
 40  21  42  1   
 41  21  43  1   
 42  21  44  1   
 43  22  24  ar  
 44  22  45  1   
 45  23  24  ar  
 46  23  46  1   
 47  24  25  1   
 48  25  26  1   
 49  26  47  1   
 50  26  48  1   
 51  26  49  1   
@<TRIPOS>SUBSTRUCTURE
  1 ****  14 GROUP 4 **** **** 0

# MOE 2024.06 (io_trps.svl 2023.06)
