@<TRIPOS>MOLECULE
8411
36 36 1 0 0 
SMALL
USER_CHARGES


@<TRIPOS>ATOM
  1 O       -0.2110     0.1000     0.2650 O.2   1 <1>  -0.5700 
  2 C       -0.0260    -1.0890     0.2270 C.2   1 <1>   0.5690 
  3 N        1.2320    -1.5650     0.3590 N.am  1 <1>  -0.7300 
  4 C       -1.1960    -2.0440     0.0230 C.3   1 <1>  -0.0990 
  5 C        1.7280    -2.9440     0.2760 C.3   1 <1>   0.2780 
  6 C       -2.5800    -1.3930     0.2090 C.3   1 <1>  -0.1600 
  7 C        3.0310    -2.9080    -0.4900 C.2   1 <1>  -0.2880 
  8 C       -3.7060    -2.4060     0.0070 C.3   1 <1>   0.1200 
  9 C        4.2240    -3.2690    -0.0070 C.2   1 <1>  -0.3000 
 10 O       -4.9340    -1.7470     0.2100 O.3   1 <1>  -0.3630 
 11 C       -6.1150    -2.4060     0.0980 C.ar  1 <1>   0.0820 
 12 C       -7.2640    -1.6660     0.3230 C.ar  1 <1>  -0.1500 
 13 C       -6.2250    -3.7560    -0.2240 C.ar  1 <1>  -0.1500 
 14 C       -8.5100    -2.2590     0.2300 C.ar  1 <1>  -0.1500 
 15 C       -7.4740    -4.3460    -0.3160 C.ar  1 <1>  -0.1500 
 16 C       -8.6220    -3.6020    -0.0920 C.ar  1 <1>  -0.1440 
 17 C       -9.9890    -4.2530    -0.1930 C.3   1 <1>  -0.0970 
 18 H        1.9600    -0.8600     0.4900 H     1 <1>   0.3700 
 19 H       -1.0990    -2.8520     0.7240 H     1 <1>   0.0800 
 20 H       -1.1250    -2.4450    -0.9710 H     1 <1>   0.0800 
 21 H        1.0210    -3.5760    -0.2340 H     1 <1>   0.0800 
 22 H        1.8890    -3.3270     1.2700 H     1 <1>   0.0800 
 23 H       -2.6950    -0.5910    -0.5010 H     1 <1>   0.0800 
 24 H       -2.6470    -0.9800     1.2010 H     1 <1>   0.0800 
 25 H        2.9000    -2.5480    -1.4970 H     1 <1>   0.1500 
 26 H       -3.6330    -3.2070     0.7220 H     1 <1>   0.0800 
 27 H       -3.6940    -2.7960    -0.9960 H     1 <1>   0.0800 
 28 H        5.1370    -3.2310    -0.5770 H     1 <1>   0.1500 
 29 H        4.3950    -3.6300     0.9930 H     1 <1>   0.1500 
 30 H       -7.1730    -0.6240     0.5720 H     1 <1>   0.1500 
 31 H       -5.3580    -4.3600    -0.4050 H     1 <1>   0.1500 
 32 H       -9.3920    -1.6690     0.4100 H     1 <1>   0.1500 
 33 H       -7.5510    -5.3900    -0.5640 H     1 <1>   0.1500 
 34 H      -10.7260    -3.5350    -0.5030 H     1 <1>   0.0800 
 35 H      -10.2730    -4.6510     0.7650 H     1 <1>   0.0800 
 36 H       -9.9730    -5.0530    -0.9110 H     1 <1>   0.0800 
@<TRIPOS>BOND
  1   1   2  2   
  2   2   3  am  
  3   2   4  1   
  4   3   5  1   
  5   3  18  1   
  6   4   6  1   
  7   4  19  1   
  8   4  20  1   
  9   5   7  1   
 10   5  21  1   
 11   5  22  1   
 12   6   8  1   
 13   6  23  1   
 14   6  24  1   
 15   7   9  2   
 16   7  25  1   
 17   8  10  1   
 18   8  26  1   
 19   8  27  1   
 20   9  28  1   
 21   9  29  1   
 22  10  11  1   
 23  11  12  ar  
 24  11  13  ar  
 25  12  14  ar  
 26  12  30  1   
 27  13  15  ar  
 28  13  31  1   
 29  14  16  ar  
 30  14  32  1   
 31  15  16  ar  
 32  15  33  1   
 33  16  17  1   
 34  17  34  1   
 35  17  35  1   
 36  17  36  1   
@<TRIPOS>SUBSTRUCTURE
  1 ****   8 GROUP 4 **** **** 0

# MOE 2024.06 (io_trps.svl 2023.06)
