@<TRIPOS>MOLECULE
ka-00126
23 24 1 0 0 
SMALL
USER_CHARGES


@<TRIPOS>ATOM
  1 CL       0.0370    -0.2170    -0.0100 Cl    1 <1>  -0.2900 
  2 C       -1.6910     0.0920    -0.0090 C.3   1 <1>   0.1300 
  3 C       -2.4160    -1.2560     0.0020 C.3   1 <1>   0.1400 
  4 N       -3.9070    -1.1560     0.0000 N.am  1 <1>  -0.6600 
  5 C       -4.7320    -0.0610     0.0010 C.2   1 <1>   0.5440 
  6 C       -4.7160    -2.4050     0.0010 C.3   1 <1>   0.2840 
  7 O       -4.3490     1.0920     0.0010 O.2   1 <1>  -0.5700 
  8 C       -6.1010    -0.4870     0.0010 C.ar  1 <1>   0.0860 
  9 C       -6.1370    -1.8680     0.0010 C.ar  1 <1>  -0.1440 
 10 C       -7.2910     0.2320     0.0010 C.ar  1 <1>  -0.1500 
 11 C       -7.3350    -2.5570     0.0010 C.ar  1 <1>  -0.1500 
 12 C       -8.4980    -0.4480     0.0020 C.ar  1 <1>  -0.1500 
 13 C       -8.5200    -1.8360     0.0010 C.ar  1 <1>  -0.1500 
 14 H       -1.9220     0.6550    -0.8950 H     1 <1>   0.0800 
 15 H       -1.9180     0.6670     0.8710 H     1 <1>   0.0800 
 16 H       -2.1130    -1.7990     0.8800 H     1 <1>   0.0800 
 17 H       -2.1120    -1.8130    -0.8680 H     1 <1>   0.0800 
 18 H       -4.5180    -2.9840     0.8870 H     1 <1>   0.0800 
 19 H       -4.5190    -2.9840    -0.8860 H     1 <1>   0.0800 
 20 H       -7.2560     1.3070     0.0020 H     1 <1>   0.1500 
 21 H       -7.3550    -3.6330     0.0010 H     1 <1>   0.1500 
 22 H       -9.4230     0.1030     0.0020 H     1 <1>   0.1500 
 23 H       -9.4640    -2.3550     0.0010 H     1 <1>   0.1500 
@<TRIPOS>BOND
  1   1   2  1   
  2   2   3  1   
  3   2  14  1   
  4   2  15  1   
  5   3   4  1   
  6   3  16  1   
  7   3  17  1   
  8   4   5  am  
  9   4   6  1   
 10   5   7  2   
 11   5   8  1   
 12   6   9  1   
 13   6  18  1   
 14   6  19  1   
 15   8   9  ar  
 16   8  10  ar  
 17   9  11  ar  
 18  10  12  ar  
 19  10  20  1   
 20  11  13  ar  
 21  11  21  1   
 22  12  13  ar  
 23  12  22  1   
 24  13  23  1   
@<TRIPOS>SUBSTRUCTURE
  1 ****   5 GROUP 4 **** **** 0

# MOE 2024.06 (io_trps.svl 2023.06)
