@<TRIPOS>MOLECULE
4-[2-Acetylamino-3-(4-fluoro-phenyl)-propionylamino]-piperidine-1-carboxylic acid (4-fluoro-phenyl)-amide
58 60 1 0 0 
SMALL
USER_CHARGES


@<TRIPOS>ATOM
  1 F        1.2590     2.0710     0.6650 F     1 <1>  -0.1900 
  2 C        2.4570     1.5500     0.5970 C.ar  1 <1>   0.1900 
  3 C        2.6150     0.3130     0.0040 C.ar  1 <1>  -0.1500 
  4 C        3.5220     2.2560     1.1220 C.ar  1 <1>  -0.1500 
  5 C        3.8860    -0.2310    -0.0610 C.ar  1 <1>  -0.1500 
  6 C        4.7870     1.6990     1.0470 C.ar  1 <1>  -0.1500 
  7 C        4.9870     0.4530     0.4550 C.ar  1 <1>   0.1170 
  8 N        6.2840    -0.0750     0.4180 N.am  1 <1>  -0.5470 
  9 C        6.8670    -0.9700    -0.4330 C.2   1 <1>   0.6900 
 10 O        6.2980    -1.3360    -1.4440 O.2   1 <1>  -0.5700 
 11 N        8.1270    -1.4270    -0.1430 N.am  1 <1>  -0.6600 
 12 C        8.9700    -2.0580    -1.1950 C.3   1 <1>   0.1400 
 13 C        8.6720    -1.5470     1.2370 C.3   1 <1>   0.1400 
 14 C       10.3730    -1.4470    -1.1590 C.3   1 <1>  -0.1600 
 15 C       10.0640    -0.9160     1.2900 C.3   1 <1>  -0.1600 
 16 C       10.9790    -1.5510     0.2420 C.3   1 <1>   0.2200 
 17 N       12.2680    -0.8510     0.2540 N.am  1 <1>  -0.7300 
 18 C       13.4930    -1.4120     0.4240 C.2   1 <1>   0.5690 
 19 O       13.6090    -2.6170     0.6330 O.2   1 <1>  -0.5700 
 20 C       14.7400    -0.4840     0.3510 C.3   1 <1>   0.2810 
 21 N       14.9040     0.2150    -0.9350 N.am  1 <1>  -0.7300 
 22 C       16.0370    -1.2510     0.6730 C.3   1 <1>  -0.0170 
 23 C       14.1390     1.2220    -1.3390 C.2   1 <1>   0.5690 
 24 C       17.2900    -0.3950     0.5160 C.ar  1 <1>  -0.1430 
 25 O       13.1820     1.6210    -0.6890 O.2   1 <1>  -0.5700 
 26 C       14.5030     1.8720    -2.6560 C.3   1 <1>  -0.1790 
 27 C       17.5090     0.6820     1.3670 C.ar  1 <1>  -0.1500 
 28 C       18.2130    -0.6880    -0.4820 C.ar  1 <1>  -0.1500 
 29 C       18.6390     1.4700     1.2210 C.ar  1 <1>  -0.1500 
 30 C       19.3460     0.0930    -0.6370 C.ar  1 <1>  -0.1500 
 31 C       19.5360     1.1600     0.2180 C.ar  1 <1>   0.1900 
 32 F       20.6010     1.9010     0.0740 F     1 <1>  -0.1900 
 33 H        1.7650    -0.2100    -0.3950 H     1 <1>   0.1500 
 34 H        3.3580     3.2180     1.5750 H     1 <1>   0.1500 
 35 H        4.0230    -1.1960    -0.5170 H     1 <1>   0.1500 
 36 H        5.6250     2.2390     1.4490 H     1 <1>   0.1500 
 37 H        6.9620     0.3670     1.0270 H     1 <1>   0.3700 
 38 H        8.5380    -1.9020    -2.1700 H     1 <1>   0.0800 
 39 H        9.0210    -3.1190    -1.0170 H     1 <1>   0.0800 
 40 H        8.7380    -2.5920     1.4930 H     1 <1>   0.0800 
 41 H        8.0250    -1.0750     1.9560 H     1 <1>   0.0800 
 42 H       10.3070    -0.4160    -1.4580 H     1 <1>   0.0800 
 43 H       11.0010    -1.9660    -1.8600 H     1 <1>   0.0800 
 44 H       10.4850    -1.0680     2.2670 H     1 <1>   0.0800 
 45 H        9.9780     0.1410     1.1130 H     1 <1>   0.0800 
 46 H       11.1290    -2.5910     0.4850 H     1 <1>   0.0800 
 47 H       12.2420     0.1450    -0.0190 H     1 <1>   0.3700 
 48 H       14.6060     0.2730     1.1250 H     1 <1>   0.0800 
 49 H       15.7060    -0.0340    -1.4890 H     1 <1>   0.3700 
 50 H       16.1020    -2.1150     0.0360 H     1 <1>   0.0800 
 51 H       15.9840    -1.6140     1.6840 H     1 <1>   0.0800 
 52 H       15.5100     2.2810    -2.5900 H     1 <1>   0.0800 
 53 H       13.7970     2.6740    -2.8690 H     1 <1>   0.0800 
 54 H       14.4600     1.1280    -3.4500 H     1 <1>   0.0800 
 55 H       16.8040     0.9140     2.1470 H     1 <1>   0.1500 
 56 H       18.0580    -1.5260    -1.1400 H     1 <1>   0.1500 
 57 H       18.8230     2.3080     1.8690 H     1 <1>   0.1500 
 58 H       20.0700    -0.1190    -1.4030 H     1 <1>   0.1500 
@<TRIPOS>BOND
  1   1   2  1   
  2   2   3  ar  
  3   2   4  ar  
  4   3   5  ar  
  5   3  33  1   
  6   4   6  ar  
  7   4  34  1   
  8   5   7  ar  
  9   5  35  1   
 10   6   7  ar  
 11   6  36  1   
 12   7   8  1   
 13   8   9  am  
 14   8  37  1   
 15   9  10  2   
 16   9  11  am  
 17  11  12  1   
 18  11  13  1   
 19  12  14  1   
 20  12  38  1   
 21  12  39  1   
 22  13  15  1   
 23  13  40  1   
 24  13  41  1   
 25  14  16  1   
 26  14  42  1   
 27  14  43  1   
 28  15  16  1   
 29  15  44  1   
 30  15  45  1   
 31  16  17  1   
 32  16  46  1   
 33  17  18  am  
 34  17  47  1   
 35  18  19  2   
 36  18  20  1   
 37  20  21  1   
 38  20  22  1   
 39  20  48  1   
 40  21  23  am  
 41  21  49  1   
 42  22  24  1   
 43  22  50  1   
 44  22  51  1   
 45  23  25  2   
 46  23  26  1   
 47  24  27  ar  
 48  24  28  ar  
 49  26  52  1   
 50  26  53  1   
 51  26  54  1   
 52  27  29  ar  
 53  27  55  1   
 54  28  30  ar  
 55  28  56  1   
 56  29  31  ar  
 57  29  57  1   
 58  30  31  ar  
 59  30  58  1   
 60  31  32  1   
@<TRIPOS>SUBSTRUCTURE
  1 ****  17 GROUP 4 **** **** 0

# MOE 2024.06 (io_trps.svl 2023.06)
