@<TRIPOS>MOLECULE
4-(Piperidine-1-sulfonyl)-thiophene-2-carboxylic acid amide
31 32 1 0 0 
SMALL
USER_CHARGES


@<TRIPOS>ATOM
  1 S       -0.1740    -0.1550     1.6690 S.o2  1 <1>   1.5010 
  2 O       -0.6980    -1.3040     2.3740 O.2   1 <1>  -0.6500 
  3 O        0.1670     1.0410     2.4100 O.2   1 <1>  -0.6500 
  4 N       -1.3220     0.2970     0.5070 N.am  1 <1>  -0.8490 
  5 C        1.2270    -0.6830     0.6540 C.2   1 <1>  -0.0630 
  6 C       -0.9560     1.5470    -0.1700 C.3   1 <1>   0.1960 
  7 C       -2.6630     0.3920     1.0930 C.3   1 <1>   0.1960 
  8 C        1.2330    -1.7400    -0.1850 C.2   1 <1>  -0.1100 
  9 C        2.4780     0.0140     0.6460 C.2   1 <1>  -0.1500 
 10 C       -1.9310     1.8330    -1.3170 C.3   1 <1>  -0.1600 
 11 C       -3.7050     0.6490    -0.0010 C.3   1 <1>  -0.1600 
 12 S        2.7700    -1.9020    -1.0010 S.3   1 <1>  -0.0800 
 13 C        3.4310    -0.4870    -0.1800 C.2   1 <1>  -0.0450 
 14 C       -3.3760     1.9080    -0.8110 C.3   1 <1>  -0.1600 
 15 C        4.7800    -0.0660    -0.4570 C.2   1 <1>   0.7150 
 16 O        5.2540     0.9210     0.0630 O.2   1 <1>  -0.5700 
 17 N        5.5780    -0.7450    -1.3070 N.am  1 <1>  -0.8000 
 18 H        0.0400     1.4670    -0.5730 H     1 <1>   0.0800 
 19 H       -0.9700     2.3650     0.5320 H     1 <1>   0.0800 
 20 H       -2.6870     1.1850     1.8230 H     1 <1>   0.0800 
 21 H       -2.9110    -0.5310     1.5900 H     1 <1>   0.0800 
 22 H        0.4640    -2.4580    -0.4130 H     1 <1>   0.1500 
 23 H        2.6250     0.8810     1.2710 H     1 <1>   0.1500 
 24 H       -1.8410     1.0510    -2.0520 H     1 <1>   0.0800 
 25 H       -1.6640     2.7610    -1.7890 H     1 <1>   0.0800 
 26 H       -4.6760     0.7520     0.4500 H     1 <1>   0.0800 
 27 H       -3.7360    -0.2060    -0.6540 H     1 <1>   0.0800 
 28 H       -4.0540     2.0010    -1.6420 H     1 <1>   0.0800 
 29 H       -3.4910     2.7770    -0.1850 H     1 <1>   0.0800 
 30 H        6.5290    -0.4160    -1.4680 H     1 <1>   0.3700 
 31 H        5.2790    -1.5940    -1.7850 H     1 <1>   0.3700 
@<TRIPOS>BOND
  1   1   2  2   
  2   1   3  2   
  3   1   4  am  
  4   1   5  1   
  5   4   6  1   
  6   4   7  1   
  7   5   8  2   
  8   5   9  1   
  9   6  10  1   
 10   6  18  1   
 11   6  19  1   
 12   7  11  1   
 13   7  20  1   
 14   7  21  1   
 15   8  12  1   
 16   8  22  1   
 17   9  13  2   
 18   9  23  1   
 19  10  14  1   
 20  10  24  1   
 21  10  25  1   
 22  11  14  1   
 23  11  26  1   
 24  11  27  1   
 25  12  13  1   
 26  13  15  1   
 27  14  28  1   
 28  14  29  1   
 29  15  16  2   
 30  15  17  am  
 31  17  30  1   
 32  17  31  1   
@<TRIPOS>SUBSTRUCTURE
  1 ****   5 GROUP 4 **** **** 0

# MOE 2024.06 (io_trps.svl 2023.06)
