@<TRIPOS>MOLECULE
3-(2-Cyclobutanecarbonyl-6,7-dimethoxy-1,2,3,4-tetrahydro-isoquinolin-1-yl)-6-ethyl-1H-quinolin-2-one
63 67 1 0 0 
SMALL
USER_CHARGES


@<TRIPOS>ATOM
  1 O        1.3110    -1.5480     3.7020 O.2   1 <1>  -0.5700 
  2 C        2.0960    -1.6270     2.7740 C.2   1 <1>   0.6160 
  3 N        3.2820    -0.9680     2.8990 N.am  1 <1>  -0.5470 
  4 C        1.8400    -2.3330     1.5560 C.2   1 <1>  -0.1240 
  5 C        4.2420    -0.9230     1.8960 C.ar  1 <1>   0.1170 
  6 C        2.7570    -2.3060     0.5510 C.2   1 <1>  -0.1780 
  7 C        0.5180    -3.0970     1.4830 C.3   1 <1>   0.5020 
  8 C        3.9910    -1.5930     0.6890 C.ar  1 <1>   0.0280 
  9 C        5.4360    -0.2280     2.0650 C.ar  1 <1>  -0.1500 
 10 N        0.7770    -4.4570     0.8940 N.am  1 <1>  -0.6600 
 11 C       -0.5540    -2.2940     0.7190 C.ar  1 <1>  -0.1430 
 12 C        4.9540    -1.5430    -0.3190 C.ar  1 <1>  -0.1500 
 13 C        6.3740    -0.1930     1.0560 C.ar  1 <1>  -0.1500 
 14 C        1.4090    -5.3920     1.6740 C.2   1 <1>   0.5770 
 15 C        0.3540    -4.6830    -0.5180 C.3   1 <1>   0.1400 
 16 C       -1.3200    -2.8550    -0.2970 C.ar  1 <1>  -0.1430 
 17 C       -0.7900    -0.9680     1.0620 C.ar  1 <1>  -0.1500 
 18 C        6.1380    -0.8530    -0.1460 C.ar  1 <1>  -0.1440 
 19 O        1.5820    -5.2040     2.8550 O.2   1 <1>  -0.5700 
 20 C        1.9190    -6.7010     1.0700 C.3   1 <1>   0.0530 
 21 C       -1.1120    -4.3060    -0.6840 C.3   1 <1>  -0.0170 
 22 C       -2.2760    -2.1010    -0.9600 C.ar  1 <1>  -0.1500 
 23 C       -1.7440    -0.2050     0.4130 C.ar  1 <1>   0.0830 
 24 C        7.1780    -0.8070    -1.2540 C.3   1 <1>  -0.0170 
 25 C        2.9280    -7.5180     1.9280 C.3   1 <1>   0.0000 
 26 C        3.0740    -6.5250     0.0450 C.3   1 <1>   0.0000 
 27 C       -2.4950    -0.7670    -0.6270 C.ar  1 <1>   0.0830 
 28 O       -1.8710     1.0770     0.8540 O.3   1 <1>  -0.3620 
 29 C        7.0140     0.4610    -2.0940 C.3   1 <1>  -0.2400 
 30 C        3.6690    -7.8410     0.6060 C.3   1 <1>   0.0000 
 31 O       -3.4040     0.0000    -1.2970 O.3   1 <1>  -0.3630 
 32 C       -3.1560     1.6280     1.0380 C.3   1 <1>   0.0400 
 33 C       -4.0190    -0.4380    -2.4880 C.3   1 <1>   0.0400 
 34 H        3.4180    -0.4890     3.7860 H     1 <1>   0.3700 
 35 H        2.5970    -2.8150    -0.3790 H     1 <1>   0.1500 
 36 H        0.1390    -3.2500     2.4790 H     1 <1>   0.0800 
 37 H        5.6230     0.2840     2.9910 H     1 <1>   0.1500 
 38 H        4.7610    -2.0530    -1.2450 H     1 <1>   0.1500 
 39 H        7.2940     0.3480     1.1960 H     1 <1>   0.1500 
 40 H        0.4790    -5.7110    -0.8030 H     1 <1>   0.0800 
 41 H        0.9540    -4.0760    -1.1730 H     1 <1>   0.0800 
 42 H       -0.2360    -0.4980     1.8540 H     1 <1>   0.1500 
 43 H        1.1290    -7.3280     0.6910 H     1 <1>   0.0000 
 44 H       -1.7220    -4.9380    -0.0640 H     1 <1>   0.0800 
 45 H       -1.3980    -4.4620    -1.7090 H     1 <1>   0.0800 
 46 H       -2.8470    -2.5700    -1.7360 H     1 <1>   0.1500 
 47 H        7.0770    -1.6720    -1.8860 H     1 <1>   0.0800 
 48 H        8.1650    -0.8320    -0.8240 H     1 <1>   0.0800 
 49 H        2.4960    -8.3800     2.4050 H     1 <1>   0.0000 
 50 H        3.5290    -6.9160     2.5890 H     1 <1>   0.0000 
 51 H        3.6940    -5.6690     0.2510 H     1 <1>   0.0000 
 52 H        2.7640    -6.5940    -0.9830 H     1 <1>   0.0000 
 53 H        6.0340     0.4880    -2.5360 H     1 <1>   0.0800 
 54 H        7.7490     0.4850    -2.8780 H     1 <1>   0.0800 
 55 H        7.1370     1.3340    -1.4780 H     1 <1>   0.0800 
 56 H        3.2810    -8.7170     0.1140 H     1 <1>   0.0000 
 57 H        4.7410    -7.8320     0.6940 H     1 <1>   0.0000 
 58 H       -3.0800     2.4200     1.7600 H     1 <1>   0.0800 
 59 H       -3.8210     0.8620     1.3980 H     1 <1>   0.0800 
 60 H       -3.5030     2.0230     0.1010 H     1 <1>   0.0800 
 61 H       -4.6110     0.3720    -2.8750 H     1 <1>   0.0800 
 62 H       -4.6530    -1.2780    -2.2660 H     1 <1>   0.0800 
 63 H       -3.2560    -0.7040    -3.1980 H     1 <1>   0.0800 
@<TRIPOS>BOND
  1   1   2  2   
  2   2   3  am  
  3   2   4  1   
  4   3   5  1   
  5   3  34  1   
  6   4   6  2   
  7   4   7  1   
  8   5   8  ar  
  9   5   9  ar  
 10   6   8  1   
 11   6  35  1   
 12   7  10  1   
 13   7  11  1   
 14   7  36  1   
 15   8  12  ar  
 16   9  13  ar  
 17   9  37  1   
 18  10  14  am  
 19  10  15  1   
 20  11  16  ar  
 21  11  17  ar  
 22  12  18  ar  
 23  12  38  1   
 24  13  18  ar  
 25  13  39  1   
 26  14  19  2   
 27  14  20  1   
 28  15  21  1   
 29  15  40  1   
 30  15  41  1   
 31  16  21  1   
 32  16  22  ar  
 33  17  23  ar  
 34  17  42  1   
 35  18  24  1   
 36  20  25  1   
 37  20  26  1   
 38  20  43  1   
 39  21  44  1   
 40  21  45  1   
 41  22  27  ar  
 42  22  46  1   
 43  23  27  ar  
 44  23  28  1   
 45  24  29  1   
 46  24  47  1   
 47  24  48  1   
 48  25  30  1   
 49  25  49  1   
 50  25  50  1   
 51  26  30  1   
 52  26  51  1   
 53  26  52  1   
 54  27  31  1   
 55  28  32  1   
 56  29  53  1   
 57  29  54  1   
 58  29  55  1   
 59  30  56  1   
 60  30  57  1   
 61  31  33  1   
 62  32  58  1   
 63  32  59  1   
 64  32  60  1   
 65  33  61  1   
 66  33  62  1   
 67  33  63  1   
@<TRIPOS>SUBSTRUCTURE
  1 ****   4 GROUP 4 **** **** 0

# MOE 2024.06 (io_trps.svl 2023.06)
