@<TRIPOS>MOLECULE
NONAME
37 38 1 0 0 
SMALL
USER_CHARGES


@<TRIPOS>ATOM
  1 O        0.0200     0.3040    -0.0330 O.2   1 <1>  -0.5700 
  2 C        0.0540     1.5170    -0.1740 C.2   1 <1>   0.5440 
  3 N       -1.1400     2.2090    -0.1900 N.am  1 <1>  -0.6600 
  4 C        1.3270     2.1920    -0.3150 C.ar  1 <1>   0.0860 
  5 C       -2.4360     1.4680    -0.2640 C.3   1 <1>   0.1400 
  6 C       -1.2110     3.6770     0.0890 C.3   1 <1>   0.1400 
  7 C        2.3620     2.0030     0.6170 C.ar  1 <1>   0.1000 
  8 C        1.5600     3.0530    -1.3900 C.ar  1 <1>  -0.1500 
  9 C       -3.5650     2.3880    -0.7530 C.3   1 <1>  -0.0800 
 10 C       -2.4640     4.0160     0.9110 C.3   1 <1>  -0.0800 
 11 N        2.2160     1.1420     1.6890 N.pl3 1 <1>  -0.9000 
 12 C        3.5620     2.6880     0.4640 C.ar  1 <1>  -0.1500 
 13 C        2.7580     3.7230    -1.5350 C.ar  1 <1>  -0.1500 
 14 C       -3.7580     3.6020     0.1800 C.3   1 <1>  -0.1600 
 15 C       -4.8790     1.6140    -0.9170 C.3   1 <1>  -0.2400 
 16 C       -2.5010     5.5050     1.2780 C.3   1 <1>  -0.2400 
 17 C        3.7640     3.5420    -0.6000 C.ar  1 <1>  -0.1500 
 18 H       -2.6720     1.0800     0.7110 H     1 <1>   0.0800 
 19 H       -2.3280     0.6350    -0.9390 H     1 <1>   0.0800 
 20 H       -1.2360     4.2110    -0.8450 H     1 <1>   0.0800 
 21 H       -0.3370     3.9860     0.6370 H     1 <1>   0.0800 
 22 H        0.7820     3.1890    -2.1210 H     1 <1>   0.1500 
 23 H       -3.2750     2.7490    -1.7260 H     1 <1>   0.0800 
 24 H       -2.3980     3.4550     1.8290 H     1 <1>   0.0800 
 25 H        3.0560     0.7090     2.0790 H     1 <1>   0.4000 
 26 H        1.4440     0.4610     1.5860 H     1 <1>   0.4000 
 27 H        4.3410     2.5460     1.1910 H     1 <1>   0.1500 
 28 H        2.9150     4.3840    -2.3710 H     1 <1>   0.1500 
 29 H       -4.5030     3.3820     0.9250 H     1 <1>   0.0800 
 30 H       -4.1290     4.4200    -0.4120 H     1 <1>   0.0800 
 31 H       -5.1970     1.2030     0.0250 H     1 <1>   0.0800 
 32 H       -4.7510     0.8080    -1.6170 H     1 <1>   0.0800 
 33 H       -5.6510     2.2660    -1.2880 H     1 <1>   0.0800 
 34 H       -2.5360     6.1150     0.3930 H     1 <1>   0.0800 
 35 H       -1.6250     5.7710     1.8440 H     1 <1>   0.0800 
 36 H       -3.3680     5.7180     1.8790 H     1 <1>   0.0800 
 37 H        4.6980     4.0650    -0.7070 H     1 <1>   0.1500 
@<TRIPOS>BOND
  1   1   2  2   
  2   2   3  am  
  3   2   4  1   
  4   3   5  1   
  5   3   6  1   
  6   4   7  ar  
  7   4   8  ar  
  8   5   9  1   
  9   5  18  1   
 10   5  19  1   
 11   6  10  1   
 12   6  20  1   
 13   6  21  1   
 14   7  11  1   
 15   7  12  ar  
 16   8  13  ar  
 17   8  22  1   
 18   9  14  1   
 19   9  15  1   
 20   9  23  1   
 21  10  14  1   
 22  10  16  1   
 23  10  24  1   
 24  11  25  1   
 25  11  26  1   
 26  12  17  ar  
 27  12  27  1   
 28  13  17  ar  
 29  13  28  1   
 30  14  29  1   
 31  14  30  1   
 32  15  31  1   
 33  15  32  1   
 34  15  33  1   
 35  16  34  1   
 36  16  35  1   
 37  16  36  1   
 38  17  37  1   
@<TRIPOS>SUBSTRUCTURE
  1 ****   3 GROUP 4 **** **** 0

# MOE 2024.06 (io_trps.svl 2023.06)
