@<TRIPOS>MOLECULE
ka-04602
21 22 1 0 0 
SMALL
USER_CHARGES


@<TRIPOS>ATOM
  1 O       -0.4490     0.1380     0.1980 O.3   1 <1>  -0.8500 
  2 C       -1.4470     0.8580     0.1150 C.2   1 <1>  -0.0730 
  3 O       -2.6460     0.2440     0.1780 O.3   1 <1>  -0.1530 
  4 C       -1.3920     2.2360    -0.0370 C.2   1 <1>  -0.1360 
  5 C       -3.7900     0.9490     0.0920 C.2   1 <1>  -0.0620 
  6 C       -2.5440     2.9990    -0.1230 C.2   1 <1>   0.5410 
  7 C       -3.7940     2.2960    -0.0430 C.2   1 <1>  -0.1240 
  8 C       -5.0360     0.0860     0.1660 C.3   1 <1>  -0.0220 
  9 O       -2.5200     4.2380    -0.2660 O.2   1 <1>  -0.5700 
 10 C       -5.0940     3.0920    -0.1200 C.3   1 <1>  -0.0220 
 11 C       -6.2890     0.8610    -0.2690 C.3   1 <1>  -0.1600 
 12 C       -6.3080     2.2690     0.3420 C.3   1 <1>  -0.1600 
 13 H       -0.4350     2.7090    -0.0890 H     1 <1>   0.1500 
 14 H       -5.1460    -0.2580     1.1790 H     1 <1>   0.0800 
 15 H       -4.9080    -0.7750    -0.4660 H     1 <1>   0.0800 
 16 H       -5.2340     3.4110    -1.1370 H     1 <1>   0.0800 
 17 H       -5.0150     3.9720     0.4940 H     1 <1>   0.0800 
 18 H       -7.1690     0.3160     0.0250 H     1 <1>   0.0800 
 19 H       -6.2920     0.9450    -1.3430 H     1 <1>   0.0800 
 20 H       -7.2140     2.7790     0.0660 H     1 <1>   0.0800 
 21 H       -6.2860     2.1850     1.4150 H     1 <1>   0.0800 
@<TRIPOS>BOND
  1   1   2  1   
  2   2   3  1   
  3   2   4  2   
  4   3   5  1   
  5   4   6  1   
  6   4  13  1   
  7   5   7  2   
  8   5   8  1   
  9   6   7  1   
 10   6   9  2   
 11   7  10  1   
 12   8  11  1   
 13   8  14  1   
 14   8  15  1   
 15  10  12  1   
 16  10  16  1   
 17  10  17  1   
 18  11  12  1   
 19  11  18  1   
 20  11  19  1   
 21  12  20  1   
 22  12  21  1   
@<TRIPOS>SUBSTRUCTURE
  1 ****   7 GROUP 4 **** **** 0

# MOE 2024.06 (io_trps.svl 2023.06)
