@<TRIPOS>MOLECULE
NONAME
47 49 1 0 0 
SMALL
USER_CHARGES


@<TRIPOS>ATOM
  1 S       -0.0890    -0.1800     1.8890 S.o2  1 <1>   1.4470 
  2 O        0.7840     0.5320     2.7950 O.2   1 <1>  -0.6500 
  3 O       -0.8780    -1.2910     2.3750 O.2   1 <1>  -0.6500 
  4 N       -1.2130     0.9540     1.3020 N.am  1 <1>  -0.8490 
  5 C        0.8490    -0.6610     0.4090 C.ar  1 <1>  -0.0090 
  6 C       -1.7900     1.7230     2.4070 C.3   1 <1>   0.1960 
  7 C       -2.2460     0.3170     0.4830 C.3   1 <1>   0.1960 
  8 C        0.8810    -1.9790    -0.0330 C.ar  1 <1>  -0.1500 
  9 C        1.5610     0.2800    -0.3230 C.ar  1 <1>  -0.1500 
 10 C       -2.6610     2.8470     1.8500 C.3   1 <1>  -0.1600 
 11 C       -3.1220     1.3930    -0.1570 C.3   1 <1>  -0.1600 
 12 C        1.5960    -2.3410    -1.1620 C.ar  1 <1>  -0.1500 
 13 C        2.2770    -0.0770    -1.4530 C.ar  1 <1>  -0.1500 
 14 C       -3.7420     2.2720     0.9360 C.3   1 <1>   0.4230 
 15 C        2.3070    -1.3960    -1.8910 C.ar  1 <1>   0.0730 
 16 N       -4.5900     3.3720     0.3820 N.4   1 <1>  -0.9590 
 17 C        3.0530    -1.7710    -3.0600 C.1   1 <1>   0.4840 
 18 C       -5.8660     2.8440    -0.1890 C.3   1 <1>   0.3430 
 19 C       -3.8890     4.2670    -0.5930 C.3   1 <1>   0.3430 
 20 N        3.6420    -2.0710    -3.9890 N.1   1 <1>  -0.5570 
 21 C       -6.8030     4.0070    -0.5200 C.3   1 <1>  -0.1600 
 22 C       -4.7840     5.4600    -0.9320 C.3   1 <1>  -0.1600 
 23 C       -6.1460     5.0130    -1.4750 C.3   1 <1>  -0.1600 
 24 H       -2.3640     1.0720     3.0500 H     1 <1>   0.0800 
 25 H       -1.0030     2.1630     3.0000 H     1 <1>   0.0800 
 26 H       -2.8450    -0.3460     1.0880 H     1 <1>   0.0800 
 27 H       -1.7840    -0.2680    -0.2960 H     1 <1>   0.0800 
 28 H        0.3440    -2.7350     0.5170 H     1 <1>   0.1500 
 29 H        1.5580     1.3080     0.0020 H     1 <1>   0.1500 
 30 H       -2.0180     3.5250     1.3190 H     1 <1>   0.0800 
 31 H       -3.1120     3.3710     2.6730 H     1 <1>   0.0800 
 32 H       -2.5020     1.9690    -0.8190 H     1 <1>   0.0800 
 33 H       -3.8890     0.9090    -0.7320 H     1 <1>   0.0800 
 34 H        1.6040    -3.3710    -1.4780 H     1 <1>   0.1500 
 35 H        2.8220     0.6760    -1.9970 H     1 <1>   0.1500 
 36 H       -4.3670     1.6380     1.5460 H     1 <1>   0.0800 
 37 H       -4.8580     3.9690     1.1730 H     1 <1>   0.4500 
 38 H       -5.6610     2.2840    -1.0860 H     1 <1>   0.0800 
 39 H       -6.3470     2.1890     0.5200 H     1 <1>   0.0800 
 40 H       -3.6660     3.7220    -1.4960 H     1 <1>   0.0800 
 41 H       -2.9620     4.6250    -0.1760 H     1 <1>   0.0800 
 42 H       -7.0970     4.5020     0.3890 H     1 <1>   0.0800 
 43 H       -7.6980     3.6190    -0.9760 H     1 <1>   0.0800 
 44 H       -4.9180     6.0680    -0.0530 H     1 <1>   0.0800 
 45 H       -4.2910     6.0710    -1.6690 H     1 <1>   0.0800 
 46 H       -6.7880     5.8690    -1.6030 H     1 <1>   0.0800 
 47 H       -6.0150     4.5570    -2.4430 H     1 <1>   0.0800 
@<TRIPOS>BOND
  1   1   2  2   
  2   1   3  2   
  3   1   4  am  
  4   1   5  1   
  5   4   6  1   
  6   4   7  1   
  7   5   8  ar  
  8   5   9  ar  
  9   6  10  1   
 10   6  24  1   
 11   6  25  1   
 12   7  11  1   
 13   7  26  1   
 14   7  27  1   
 15   8  12  ar  
 16   8  28  1   
 17   9  13  ar  
 18   9  29  1   
 19  10  14  1   
 20  10  30  1   
 21  10  31  1   
 22  11  14  1   
 23  11  32  1   
 24  11  33  1   
 25  12  15  ar  
 26  12  34  1   
 27  13  15  ar  
 28  13  35  1   
 29  14  16  1   
 30  14  36  1   
 31  15  17  1   
 32  16  18  1   
 33  16  19  1   
 34  16  37  1   
 35  17  20  3   
 36  18  21  1   
 37  18  38  1   
 38  18  39  1   
 39  19  22  1   
 40  19  40  1   
 41  19  41  1   
 42  21  23  1   
 43  21  42  1   
 44  21  43  1   
 45  22  23  1   
 46  22  44  1   
 47  22  45  1   
 48  23  46  1   
 49  23  47  1   
@<TRIPOS>SUBSTRUCTURE
  1 ****   7 GROUP 4 **** **** 0

# MOE 2024.06 (io_trps.svl 2023.06)
