@<TRIPOS>MOLECULE
Piperidine-1,4-dicarboxylic acid 1-cyclohexylamide 4-[(2-ethyl-phenyl)-amide]
57 59 1 0 0 
SMALL
USER_CHARGES


@<TRIPOS>ATOM
  1 O        1.5970    -1.2870     2.2050 O.2   1 <1>  -0.5700 
  2 C        2.1020    -1.6300     1.1520 C.2   1 <1>   0.6900 
  3 N        3.4470    -1.4800     0.9390 N.am  1 <1>  -0.6600 
  4 N        1.3320    -2.1420     0.1640 N.am  1 <1>  -0.7300 
  5 C        4.2240    -2.2480    -0.0700 C.3   1 <1>   0.1400 
  6 C        4.2590    -0.5790     1.7960 C.3   1 <1>   0.1400 
  7 C       -0.1280    -2.3020     0.2220 C.3   1 <1>   0.2200 
  8 C        4.9730    -1.2700    -0.9780 C.3   1 <1>  -0.1600 
  9 C        5.0220     0.4100     0.9090 C.3   1 <1>  -0.1600 
 10 C       -0.4950    -3.6850    -0.3250 C.3   1 <1>  -0.1600 
 11 C       -0.7830    -1.1860    -0.5980 C.3   1 <1>  -0.1600 
 12 C        5.8640    -0.3080    -0.1640 C.3   1 <1>  -0.0190 
 13 C       -2.0190    -3.8700    -0.3910 C.3   1 <1>  -0.1600 
 14 C       -2.3070    -1.3670    -0.6650 C.3   1 <1>  -0.1600 
 15 C        6.6100     0.7000    -1.0400 C.2   1 <1>   0.5690 
 16 C       -2.6780    -2.7520    -1.2110 C.3   1 <1>  -0.1600 
 17 O        6.2140     0.9300    -2.1570 O.2   1 <1>  -0.5700 
 18 N        7.7020     1.3090    -0.4860 N.am  1 <1>  -0.5470 
 19 C        8.6010     2.2590    -0.9950 C.ar  1 <1>   0.1170 
 20 C        9.2970     3.0930    -0.1140 C.ar  1 <1>  -0.1440 
 21 C        8.8430     2.3780    -2.3610 C.ar  1 <1>  -0.1500 
 22 C       10.2100     4.0100    -0.6110 C.ar  1 <1>  -0.1500 
 23 C        9.0800     3.0370     1.3970 C.3   1 <1>  -0.0170 
 24 C        9.7510     3.2980    -2.8480 C.ar  1 <1>  -0.1500 
 25 C       10.4380     4.1160    -1.9710 C.ar  1 <1>  -0.1500 
 26 C        9.9090     1.9160     2.0310 C.3   1 <1>  -0.2400 
 27 H        1.7400    -2.1790    -0.7630 H     1 <1>   0.3700 
 28 H        3.5830    -2.8800    -0.6570 H     1 <1>   0.0800 
 29 H        4.9270    -2.8810     0.4440 H     1 <1>   0.0800 
 30 H        4.9440    -1.1710     2.3760 H     1 <1>   0.0800 
 31 H        3.6270    -0.0340     2.4770 H     1 <1>   0.0800 
 32 H       -0.4610    -2.2300     1.2460 H     1 <1>   0.0800 
 33 H        4.2530    -0.7080    -1.5470 H     1 <1>   0.0800 
 34 H        5.5790    -1.8220    -1.6740 H     1 <1>   0.0800 
 35 H        5.6510     1.0200     1.5310 H     1 <1>   0.0800 
 36 H        4.3100     1.0610     0.4300 H     1 <1>   0.0800 
 37 H       -0.0720    -4.4410     0.3130 H     1 <1>   0.0800 
 38 H       -0.0860    -3.8020    -1.3130 H     1 <1>   0.0800 
 39 H       -0.3850    -1.1910    -1.5980 H     1 <1>   0.0800 
 40 H       -0.5570    -0.2370    -0.1440 H     1 <1>   0.0800 
 41 H        6.6060    -0.9050     0.3370 H     1 <1>   0.0800 
 42 H       -2.4200    -3.8620     0.6080 H     1 <1>   0.0800 
 43 H       -2.2480    -4.8250    -0.8310 H     1 <1>   0.0800 
 44 H       -2.7330    -0.6030    -1.2930 H     1 <1>   0.0800 
 45 H       -2.7210    -1.2500     0.3230 H     1 <1>   0.0800 
 46 H       -3.7480    -2.8730    -1.1890 H     1 <1>   0.0800 
 47 H       -2.3600    -2.8280    -2.2370 H     1 <1>   0.0800 
 48 H        7.8720     1.0830     0.4900 H     1 <1>   0.3700 
 49 H        8.3220     1.7450    -3.0550 H     1 <1>   0.1500 
 50 H       10.7540     4.6530     0.0590 H     1 <1>   0.1500 
 51 H        8.0360     2.9000     1.6180 H     1 <1>   0.0800 
 52 H        9.3680     3.9760     1.8360 H     1 <1>   0.0800 
 53 H        9.9220     3.3760    -3.9070 H     1 <1>   0.1500 
 54 H       11.1480     4.8320    -2.3470 H     1 <1>   0.1500 
 55 H        9.6420     0.9600     1.6210 H     1 <1>   0.0800 
 56 H        9.7520     1.8960     3.0950 H     1 <1>   0.0800 
 57 H       10.9550     2.0850     1.8430 H     1 <1>   0.0800 
@<TRIPOS>BOND
  1   1   2  2   
  2   2   3  am  
  3   2   4  am  
  4   3   5  1   
  5   3   6  1   
  6   4   7  1   
  7   4  27  1   
  8   5   8  1   
  9   5  28  1   
 10   5  29  1   
 11   6   9  1   
 12   6  30  1   
 13   6  31  1   
 14   7  10  1   
 15   7  11  1   
 16   7  32  1   
 17   8  12  1   
 18   8  33  1   
 19   8  34  1   
 20   9  12  1   
 21   9  35  1   
 22   9  36  1   
 23  10  13  1   
 24  10  37  1   
 25  10  38  1   
 26  11  14  1   
 27  11  39  1   
 28  11  40  1   
 29  12  15  1   
 30  12  41  1   
 31  13  16  1   
 32  13  42  1   
 33  13  43  1   
 34  14  16  1   
 35  14  44  1   
 36  14  45  1   
 37  15  17  2   
 38  15  18  am  
 39  16  46  1   
 40  16  47  1   
 41  18  19  1   
 42  18  48  1   
 43  19  20  ar  
 44  19  21  ar  
 45  20  22  ar  
 46  20  23  1   
 47  21  24  ar  
 48  21  49  1   
 49  22  25  ar  
 50  22  50  1   
 51  23  26  1   
 52  23  51  1   
 53  23  52  1   
 54  24  25  ar  
 55  24  53  1   
 56  25  54  1   
 57  26  55  1   
 58  26  56  1   
 59  26  57  1   
@<TRIPOS>SUBSTRUCTURE
  1 ****   9 GROUP 4 **** **** 0

# MOE 2024.06 (io_trps.svl 2023.06)
