@<TRIPOS>MOLECULE
NONAME
50 52 1 0 0 
SMALL
USER_CHARGES


@<TRIPOS>ATOM
  1 CL       1.3960    -2.6440    -1.6690 Cl    1 <1>  -0.1770 
  2 C       -0.1350    -2.8350    -0.8620 C.ar  1 <1>   0.1770 
  3 C       -0.1670    -3.2630     0.4500 C.ar  1 <1>  -0.1500 
  4 C       -1.3040    -2.5530    -1.5420 C.ar  1 <1>  -0.1500 
  5 C       -1.3880    -3.4140     1.0820 C.ar  1 <1>  -0.1500 
  6 C       -2.5200    -2.7070    -0.8990 C.ar  1 <1>  -0.1500 
  7 C       -2.5970    -3.1520     0.4270 C.ar  1 <1>   0.0860 
  8 C       -3.8490    -3.3370     1.1340 C.2   1 <1>   0.4230 
  9 O       -3.9280    -3.2670     2.3340 O.2   1 <1>  -0.5700 
 10 C       -5.1470    -3.6500     0.3770 C.3   1 <1>  -0.0190 
 11 C       -6.0610    -2.4110     0.3400 C.3   1 <1>  -0.1600 
 12 C       -5.8970    -4.8340     1.0230 C.3   1 <1>  -0.1600 
 13 C       -7.4150    -2.7050    -0.3050 C.3   1 <1>   0.3430 
 14 C       -7.2490    -5.0950     0.3630 C.3   1 <1>   0.3430 
 15 N       -8.0630    -3.8510     0.3930 N.4   1 <1>  -0.9590 
 16 C       -9.4830    -4.0650    -0.0880 C.3   1 <1>   0.4040 
 17 C      -10.4480    -2.9310     0.3070 C.2   1 <1>   0.5690 
 18 O      -10.0650    -2.1820     1.1780 O.2   1 <1>  -0.5700 
 19 N      -11.6680    -2.7810    -0.3040 N.am  1 <1>  -0.6600 
 20 C      -12.6170    -1.7090     0.1260 C.3   1 <1>   0.1400 
 21 C      -12.2320    -3.6740    -1.3580 C.3   1 <1>   0.1400 
 22 C      -13.9000    -2.3480     0.6660 C.3   1 <1>  -0.1600 
 23 C      -13.5050    -4.3450    -0.8310 C.3   1 <1>  -0.1600 
 24 C      -14.5310    -3.3070    -0.3540 C.3   1 <1>  -0.1600 
 25 H        0.7540    -3.4710     0.9660 H     1 <1>   0.1500 
 26 H       -1.2510    -2.2130    -2.5620 H     1 <1>   0.1500 
 27 H       -1.4110    -3.7430     2.1090 H     1 <1>   0.1500 
 28 H       -3.4130    -2.4630    -1.4450 H     1 <1>   0.1500 
 29 H       -4.9060    -3.9370    -0.6310 H     1 <1>   0.0800 
 30 H       -5.5780    -1.6200    -0.2060 H     1 <1>   0.0800 
 31 H       -6.2240    -2.0490     1.3420 H     1 <1>   0.0800 
 32 H       -6.0590    -4.6450     2.0710 H     1 <1>   0.0800 
 33 H       -5.2930    -5.7210     0.9520 H     1 <1>   0.0800 
 34 H       -7.2790    -2.9390    -1.3480 H     1 <1>   0.0800 
 35 H       -8.0400    -1.8280    -0.2290 H     1 <1>   0.0800 
 36 H       -7.7580    -5.8840     0.8940 H     1 <1>   0.0800 
 37 H       -7.0990    -5.4110    -0.6570 H     1 <1>   0.0800 
 38 H       -8.1650    -3.5430     1.3770 H     1 <1>   0.4500 
 39 H       -9.8710    -4.9740     0.3370 H     1 <1>   0.0800 
 40 H       -9.4890    -4.1660    -1.1590 H     1 <1>   0.0800 
 41 H      -12.8490    -1.0830    -0.7190 H     1 <1>   0.0800 
 42 H      -12.1790    -1.0860     0.8880 H     1 <1>   0.0800 
 43 H      -11.5290    -4.4280    -1.6590 H     1 <1>   0.0800 
 44 H      -12.4740    -3.0810    -2.2250 H     1 <1>   0.0800 
 45 H      -14.6040    -1.5740     0.9150 H     1 <1>   0.0800 
 46 H      -13.6690    -2.8800     1.5730 H     1 <1>   0.0800 
 47 H      -13.2520    -5.0010    -0.0170 H     1 <1>   0.0800 
 48 H      -13.9420    -4.9440    -1.6110 H     1 <1>   0.0800 
 49 H      -14.8870    -2.7410    -1.1990 H     1 <1>   0.0800 
 50 H      -15.3770    -3.8050     0.0890 H     1 <1>   0.0800 
@<TRIPOS>BOND
  1   1   2  1   
  2   2   3  ar  
  3   2   4  ar  
  4   3   5  ar  
  5   3  25  1   
  6   4   6  ar  
  7   4  26  1   
  8   5   7  ar  
  9   5  27  1   
 10   6   7  ar  
 11   6  28  1   
 12   7   8  1   
 13   8   9  2   
 14   8  10  1   
 15  10  11  1   
 16  10  12  1   
 17  10  29  1   
 18  11  13  1   
 19  11  30  1   
 20  11  31  1   
 21  12  14  1   
 22  12  32  1   
 23  12  33  1   
 24  13  15  1   
 25  13  34  1   
 26  13  35  1   
 27  14  15  1   
 28  14  36  1   
 29  14  37  1   
 30  15  16  1   
 31  15  38  1   
 32  16  17  1   
 33  16  39  1   
 34  16  40  1   
 35  17  18  2   
 36  17  19  am  
 37  19  20  1   
 38  19  21  1   
 39  20  22  1   
 40  20  41  1   
 41  20  42  1   
 42  21  23  1   
 43  21  43  1   
 44  21  44  1   
 45  22  24  1   
 46  22  45  1   
 47  22  46  1   
 48  23  24  1   
 49  23  47  1   
 50  23  48  1   
 51  24  49  1   
 52  24  50  1   
@<TRIPOS>SUBSTRUCTURE
  1 ****  13 GROUP 4 **** **** 0

# MOE 2024.06 (io_trps.svl 2023.06)
