@<TRIPOS>MOLECULE
N-(4-Chloro-phenyl)-2-[5-propyl-4-(tetrahydro-furan-2-ylmethyl)-4H-[1,2,4]triazol-3-ylsulfanyl]-acetamide
49 51 1 0 0 
SMALL
USER_CHARGES


@<TRIPOS>ATOM
  1 CL      -0.2470    -0.0150    -1.7280 Cl    1 <1>  -0.1770 
  2 C       -1.8640    -0.3800    -1.1800 C.ar  1 <1>   0.1770 
  3 C       -2.0410    -1.1460    -0.0440 C.ar  1 <1>  -0.1500 
  4 C       -2.9470     0.1040    -1.8900 C.ar  1 <1>  -0.1500 
  5 C       -3.3250    -1.4320     0.3870 C.ar  1 <1>  -0.1500 
  6 C       -4.2270    -0.1890    -1.4520 C.ar  1 <1>  -0.1500 
  7 C       -4.4360    -0.9610    -0.3120 C.ar  1 <1>   0.1170 
  8 N       -5.7560    -1.2160     0.0890 N.am  1 <1>  -0.5470 
  9 C       -6.2930    -2.1820     0.9000 C.2   1 <1>   0.5690 
 10 O       -5.6370    -3.0500     1.4210 O.2   1 <1>  -0.5700 
 11 C       -7.7920    -2.1770     1.1620 C.3   1 <1>   0.1310 
 12 S       -8.6900    -0.9600     0.0730 S.3   1 <1>  -0.2860 
 13 C      -10.3980    -1.1590     0.5940 C.2   1 <1>   0.2430 
 14 N      -10.7550    -1.9620     1.5300 N.2   1 <1>  -0.3380 
 15 N      -11.4140    -0.4910     0.0450 N.pl3 1 <1>   0.0480 
 16 N      -12.0820    -1.8460     1.6210 N.2   1 <1>  -0.3380 
 17 C      -12.4570    -0.9820     0.7360 C.2   1 <1>   0.0060 
 18 C      -11.3890     0.5270    -1.0270 C.3   1 <1>   0.0960 
 19 C      -13.9100    -0.5900     0.5170 C.3   1 <1>   0.0200 
 20 C      -11.4350     1.9380    -0.4360 C.3   1 <1>   0.2000 
 21 C      -14.5250    -1.3850    -0.6430 C.3   1 <1>  -0.1600 
 22 O      -11.4810     2.8530    -1.4760 O.3   1 <1>  -0.5600 
 23 C      -10.2130     2.3560     0.3700 C.3   1 <1>  -0.1600 
 24 C      -15.9870    -0.9910    -0.8830 C.3   1 <1>  -0.2400 
 25 C      -11.0460     4.1060    -1.0440 C.3   1 <1>   0.1200 
 26 C      -10.2220     3.8670     0.2200 C.3   1 <1>  -0.1600 
 27 H       -1.1850    -1.5110     0.4950 H     1 <1>   0.1500 
 28 H       -2.7830     0.6980    -2.7710 H     1 <1>   0.1500 
 29 H       -3.4560    -2.0230     1.2750 H     1 <1>   0.1500 
 30 H       -5.0700     0.1840    -2.0050 H     1 <1>   0.1500 
 31 H       -6.4560    -0.6040    -0.3330 H     1 <1>   0.3700 
 32 H       -7.9910    -1.9010     2.1810 H     1 <1>   0.0800 
 33 H       -8.2080    -3.1470     0.9630 H     1 <1>   0.0800 
 34 H      -12.2410     0.3810    -1.6640 H     1 <1>   0.0800 
 35 H      -10.4970     0.4060    -1.6130 H     1 <1>   0.0800 
 36 H      -13.9870     0.4640     0.3270 H     1 <1>   0.0800 
 37 H      -14.4610    -0.8000     1.4180 H     1 <1>   0.0800 
 38 H      -12.3310     2.0790     0.1450 H     1 <1>   0.0800 
 39 H      -14.4730    -2.4360    -0.4130 H     1 <1>   0.0800 
 40 H      -13.9610    -1.2170    -1.5430 H     1 <1>   0.0800 
 41 H       -9.3220     1.9510    -0.0770 H     1 <1>   0.0800 
 42 H      -10.2760     2.0380     1.3960 H     1 <1>   0.0800 
 43 H      -16.5770    -1.1780    -0.0030 H     1 <1>   0.0800 
 44 H      -16.3940    -1.5690    -1.6940 H     1 <1>   0.0800 
 45 H      -16.0620     0.0520    -1.1370 H     1 <1>   0.0800 
 46 H      -11.9100     4.7160    -0.8430 H     1 <1>   0.0800 
 47 H      -10.4580     4.5480    -1.8310 H     1 <1>   0.0800 
 48 H       -9.2290     4.2690     0.1260 H     1 <1>   0.0800 
 49 H      -10.7110     4.3320     1.0580 H     1 <1>   0.0800 
@<TRIPOS>BOND
  1   1   2  1   
  2   2   3  ar  
  3   2   4  ar  
  4   3   5  ar  
  5   3  27  1   
  6   4   6  ar  
  7   4  28  1   
  8   5   7  ar  
  9   5  29  1   
 10   6   7  ar  
 11   6  30  1   
 12   7   8  1   
 13   8   9  am  
 14   8  31  1   
 15   9  10  2   
 16   9  11  1   
 17  11  12  1   
 18  11  32  1   
 19  11  33  1   
 20  12  13  1   
 21  13  14  2   
 22  13  15  1   
 23  14  16  1   
 24  15  17  1   
 25  15  18  1   
 26  16  17  2   
 27  17  19  1   
 28  18  20  1   
 29  18  34  1   
 30  18  35  1   
 31  19  21  1   
 32  19  36  1   
 33  19  37  1   
 34  20  22  1   
 35  20  23  1   
 36  20  38  1   
 37  21  24  1   
 38  21  39  1   
 39  21  40  1   
 40  22  25  1   
 41  23  26  1   
 42  23  41  1   
 43  23  42  1   
 44  24  43  1   
 45  24  44  1   
 46  24  45  1   
 47  25  26  1   
 48  25  46  1   
 49  25  47  1   
 50  26  48  1   
 51  26  49  1   
@<TRIPOS>SUBSTRUCTURE
  1 ****  12 GROUP 4 **** **** 0

# MOE 2024.06 (io_trps.svl 2023.06)
