@<TRIPOS>MOLECULE
1-[2-(4-Benzyl-piperidin-1-yl)-2-oxo-ethyl]-3-methyl-1H-thieno[3,2-d]pyrimidine-
51 54 1 0 0 
SMALL
USER_CHARGES


@<TRIPOS>ATOM
  1 S        5.3680    -3.1140     0.4320 S.3   1 <1>  -0.0800 
  2 C        3.7210    -3.4350    -0.1270 C.2   1 <1>  -0.0450 
  3 C        4.7750    -2.5890     1.9990 C.2   1 <1>  -0.1100 
  4 C        3.3590    -3.9160    -1.4100 C.2   1 <1>   0.7150 
  5 C        2.8290    -3.1630     0.8550 C.2   1 <1>   0.0630 
  6 C        3.4320    -2.6710     2.0570 C.2   1 <1>  -0.1500 
  7 O        4.1820    -4.2180    -2.2590 O.2   1 <1>  -0.5700 
  8 N        2.0050    -4.0510    -1.6670 N.am  1 <1>  -0.4200 
  9 N        1.4740    -3.3930     0.5980 N.am  1 <1>  -0.4230 
 10 C        1.0680    -3.7840    -0.6750 C.2   1 <1>   0.6900 
 11 C        1.5630    -4.5900    -2.9870 C.3   1 <1>   0.0600 
 12 C        0.4830    -3.3880     1.7320 C.3   1 <1>   0.2010 
 13 O       -0.1180    -3.9230    -0.9160 O.2   1 <1>  -0.5700 
 14 C        0.8280    -4.3780     2.8510 C.2   1 <1>   0.5690 
 15 O        1.0560    -3.9030     3.9410 O.2   1 <1>  -0.5700 
 16 N        0.8970    -5.7350     2.6360 N.am  1 <1>  -0.6600 
 17 C        0.4920    -6.4330     1.3920 C.3   1 <1>   0.1400 
 18 C        1.6000    -6.6330     3.5880 C.3   1 <1>   0.1400 
 19 C        1.7510    -6.9110     0.6670 C.3   1 <1>  -0.1600 
 20 C        2.8910    -7.1270     2.9260 C.3   1 <1>  -0.1600 
 21 C        2.6410    -7.8000     1.5590 C.3   1 <1>  -0.0800 
 22 C        3.9850    -8.1200     0.8740 C.3   1 <1>  -0.0170 
 23 C        3.8130    -8.6090    -0.5580 C.ar  1 <1>  -0.1430 
 24 C        3.3030    -9.8720    -0.8140 C.ar  1 <1>  -0.1500 
 25 C        4.1550    -7.7870    -1.6220 C.ar  1 <1>  -0.1500 
 26 C        3.1310   -10.3060    -2.1170 C.ar  1 <1>  -0.1500 
 27 C        3.9830    -8.2190    -2.9250 C.ar  1 <1>  -0.1500 
 28 C        3.4690    -9.4790    -3.1740 C.ar  1 <1>  -0.1500 
 29 H        5.5050    -2.2670     2.7220 H     1 <1>   0.1500 
 30 H        2.8460    -2.3970     2.9160 H     1 <1>   0.1500 
 31 H        2.2220    -4.2530    -3.7690 H     1 <1>   0.0800 
 32 H        0.5670    -4.2580    -3.2210 H     1 <1>   0.0800 
 33 H        1.5780    -5.6660    -2.9570 H     1 <1>   0.0800 
 34 H       -0.5070    -3.6110     1.3830 H     1 <1>   0.0800 
 35 H        0.4560    -2.3990     2.1510 H     1 <1>   0.0800 
 36 H       -0.0940    -5.7940     0.7580 H     1 <1>   0.0800 
 37 H       -0.1200    -7.2800     1.6490 H     1 <1>   0.0800 
 38 H        0.9610    -7.4650     3.8310 H     1 <1>   0.0800 
 39 H        1.8350    -6.1140     4.5020 H     1 <1>   0.0800 
 40 H        2.3210    -6.0610     0.3480 H     1 <1>   0.0800 
 41 H        1.4510    -7.4520    -0.2130 H     1 <1>   0.0800 
 42 H        3.3810    -7.8200     3.5870 H     1 <1>   0.0800 
 43 H        3.5430    -6.2790     2.8020 H     1 <1>   0.0800 
 44 H        2.1160    -8.7250     1.7280 H     1 <1>   0.0800 
 45 H        4.5080    -8.8700     1.4400 H     1 <1>   0.0800 
 46 H        4.6020    -7.2380     0.8690 H     1 <1>   0.0800 
 47 H        3.0380   -10.5210     0.0010 H     1 <1>   0.1500 
 48 H        4.5580    -6.8040    -1.4460 H     1 <1>   0.1500 
 49 H        2.7340   -11.2880    -2.3090 H     1 <1>   0.1500 
 50 H        4.2520    -7.5720    -3.7430 H     1 <1>   0.1500 
 51 H        3.3350    -9.8160    -4.1860 H     1 <1>   0.1500 
@<TRIPOS>BOND
  1   1   2  1   
  2   1   3  1   
  3   2   4  1   
  4   2   5  2   
  5   3   6  2   
  6   3  29  1   
  7   4   7  2   
  8   4   8  am  
  9   5   6  1   
 10   5   9  1   
 11   6  30  1   
 12   8  10  am  
 13   8  11  1   
 14   9  10  am  
 15   9  12  1   
 16  10  13  2   
 17  11  31  1   
 18  11  32  1   
 19  11  33  1   
 20  12  14  1   
 21  12  34  1   
 22  12  35  1   
 23  14  15  2   
 24  14  16  am  
 25  16  17  1   
 26  16  18  1   
 27  17  19  1   
 28  17  36  1   
 29  17  37  1   
 30  18  20  1   
 31  18  38  1   
 32  18  39  1   
 33  19  21  1   
 34  19  40  1   
 35  19  41  1   
 36  20  21  1   
 37  20  42  1   
 38  20  43  1   
 39  21  22  1   
 40  21  44  1   
 41  22  23  1   
 42  22  45  1   
 43  22  46  1   
 44  23  24  ar  
 45  23  25  ar  
 46  24  26  ar  
 47  24  47  1   
 48  25  27  ar  
 49  25  48  1   
 50  26  28  ar  
 51  26  49  1   
 52  27  28  ar  
 53  27  50  1   
 54  28  51  1   
@<TRIPOS>SUBSTRUCTURE
  1 ****  19 GROUP 4 **** **** 0

# MOE 2024.06 (io_trps.svl 2023.06)
