@<TRIPOS>MOLECULE
7089
47 48 1 0 0 
SMALL
USER_CHARGES


@<TRIPOS>ATOM
  1 O       -1.3370    -4.5730    -1.3110 O.2   1 <1>  -0.5700 
  2 C       -1.3710    -4.3250    -0.1230 C.2   1 <1>   0.6340 
  3 O       -0.2400    -3.9780     0.5010 O.3   1 <1>  -0.4300 
  4 C       -2.5870    -4.3880     0.6640 C.ar  1 <1>   0.0860 
  5 C        1.0080    -3.9060    -0.1570 C.3   1 <1>   0.2000 
  6 C       -3.8050    -4.7480     0.0820 C.ar  1 <1>  -0.1500 
  7 C       -2.6080    -4.0970     2.0330 C.ar  1 <1>  -0.1500 
  8 C        1.6230    -5.3110    -0.2150 C.3   1 <1>  -0.1600 
  9 C        1.8950    -2.9390     0.6360 C.3   1 <1>  -0.1600 
 10 C       -4.9730    -4.8110     0.8170 C.ar  1 <1>  -0.1500 
 11 C       -3.7740    -4.1580     2.7700 C.ar  1 <1>  -0.1500 
 12 C        3.0470    -5.2680    -0.7880 C.3   1 <1>  -0.1600 
 13 C        3.3180    -2.8940     0.0610 C.3   1 <1>  -0.1600 
 14 C       -4.9780    -4.5090     2.1730 C.ar  1 <1>   0.1170 
 15 C        3.9360    -4.2980     0.0030 C.3   1 <1>  -0.1600 
 16 N       -6.1400    -4.5690     2.9410 N.am  1 <1>  -0.5470 
 17 C       -7.3720    -4.0150     2.7710 C.2   1 <1>   0.5690 
 18 O       -8.2290    -4.2300     3.5880 O.2   1 <1>  -0.5700 
 19 C       -7.6920    -3.1020     1.5970 C.3   1 <1>  -0.0990 
 20 C       -8.6170    -3.7780     0.5710 C.3   1 <1>  -0.1600 
 21 C       -8.8870    -2.8610    -0.6280 C.3   1 <1>  -0.1600 
 22 C       -9.8080    -3.5410    -1.6430 C.3   1 <1>  -0.2400 
 23 H        0.8580    -3.5190    -1.1520 H     1 <1>   0.0800 
 24 H       -3.8290    -4.9850    -0.9690 H     1 <1>   0.1500 
 25 H       -1.6920    -3.8190     2.5260 H     1 <1>   0.1500 
 26 H        1.0140    -5.9450    -0.8350 H     1 <1>   0.0800 
 27 H        1.6550    -5.7270     0.7760 H     1 <1>   0.0800 
 28 H        1.9410    -3.2610     1.6620 H     1 <1>   0.0800 
 29 H        1.4650    -1.9540     0.6030 H     1 <1>   0.0800 
 30 H       -5.8870    -5.1060     0.3360 H     1 <1>   0.1500 
 31 H       -3.7560    -3.9260     3.8200 H     1 <1>   0.1500 
 32 H        3.0060    -4.9550    -1.8180 H     1 <1>   0.0800 
 33 H        3.4760    -6.2550    -0.7610 H     1 <1>   0.0800 
 34 H        3.9330    -2.2540     0.6700 H     1 <1>   0.0800 
 35 H        3.2890    -2.4770    -0.9310 H     1 <1>   0.0800 
 36 H        4.9080    -4.2450    -0.4570 H     1 <1>   0.0800 
 37 H        4.0670    -4.6720     1.0040 H     1 <1>   0.0800 
 38 H       -6.0700    -5.0610     3.8320 H     1 <1>   0.3700 
 39 H       -6.7860    -2.7770     1.1220 H     1 <1>   0.0800 
 40 H       -8.1800    -2.2280     1.9870 H     1 <1>   0.0800 
 41 H       -9.5490    -4.0260     1.0520 H     1 <1>   0.0800 
 42 H       -8.1720    -4.6960     0.2300 H     1 <1>   0.0800 
 43 H       -7.9570    -2.6080    -1.1090 H     1 <1>   0.0800 
 44 H       -9.3470    -1.9480    -0.2890 H     1 <1>   0.0800 
 45 H       -9.3600    -4.4460    -2.0130 H     1 <1>   0.0800 
 46 H       -9.9880    -2.8840    -2.4750 H     1 <1>   0.0800 
 47 H      -10.7540    -3.7830    -1.1890 H     1 <1>   0.0800 
@<TRIPOS>BOND
  1   1   2  2   
  2   2   3  1   
  3   2   4  1   
  4   3   5  1   
  5   4   6  ar  
  6   4   7  ar  
  7   5   8  1   
  8   5   9  1   
  9   5  23  1   
 10   6  10  ar  
 11   6  24  1   
 12   7  11  ar  
 13   7  25  1   
 14   8  12  1   
 15   8  26  1   
 16   8  27  1   
 17   9  13  1   
 18   9  28  1   
 19   9  29  1   
 20  10  14  ar  
 21  10  30  1   
 22  11  14  ar  
 23  11  31  1   
 24  12  15  1   
 25  12  32  1   
 26  12  33  1   
 27  13  15  1   
 28  13  34  1   
 29  13  35  1   
 30  14  16  1   
 31  15  36  1   
 32  15  37  1   
 33  16  17  am  
 34  16  38  1   
 35  17  18  2   
 36  17  19  1   
 37  19  20  1   
 38  19  39  1   
 39  19  40  1   
 40  20  21  1   
 41  20  41  1   
 42  20  42  1   
 43  21  22  1   
 44  21  43  1   
 45  21  44  1   
 46  22  45  1   
 47  22  46  1   
 48  22  47  1   
@<TRIPOS>SUBSTRUCTURE
  1 ****   4 GROUP 4 **** **** 0

# MOE 2024.06 (io_trps.svl 2023.06)
