@<TRIPOS>MOLECULE
NONAME
50 52 1 0 0 
SMALL
USER_CHARGES


@<TRIPOS>ATOM
  1 F       -1.9390    -0.6660     0.3250 F     1 <1>  -0.1970 
  2 C       -2.5610     0.4780     0.2610 C.ar  1 <1>   0.1830 
  3 C       -2.5880     1.2860     1.3800 C.ar  1 <1>  -0.1580 
  4 C       -3.1780     0.8360    -0.9220 C.ar  1 <1>  -0.1580 
  5 C       -3.2680     2.4910     1.3150 C.ar  1 <1>  -0.1580 
  6 C       -3.8550     2.0420    -0.9780 C.ar  1 <1>  -0.1580 
  7 C       -3.9130     2.8660     0.1410 C.ar  1 <1>  -0.1510 
  8 C       -4.7260     4.1500     0.0950 C.3   1 <1>   0.4920 
  9 N       -6.1630     3.8790     0.4110 N.pl3 1 <1>  -0.7680 
 10 C       -6.8110     2.7790     0.8070 C.cat 1 <1>   1.0690 
 11 C       -7.1300     4.8990     0.3050 C.2   1 <1>   0.2700 
 12 N       -8.1060     3.0400     0.9480 N.pl3 1 <1>  -0.7040 
 13 N       -6.2740     1.5830     1.0390 N.pl3 1 <1>  -0.7180 
 14 C       -7.0900     6.2840    -0.0540 C.2   1 <1>   0.6990 
 15 C       -8.3140     4.3470     0.6380 C.2   1 <1>   0.4200 
 16 C       -6.9230     0.3070     1.4350 C.3   1 <1>   0.1600 
 17 O       -6.0380     6.8110    -0.3760 O.2   1 <1>  -0.5750 
 18 N       -8.2770     7.0020    -0.0250 N.am  1 <1>  -0.4260 
 19 N       -9.5070     5.0410     0.6460 N.am  1 <1>  -0.4420 
 20 C       -6.4910    -0.8300     0.5020 C.3   1 <1>   0.1320 
 21 C       -9.4800     6.3900     0.3150 C.2   1 <1>   0.6860 
 22 C       -8.2860     8.4550    -0.3860 C.3   1 <1>   0.0520 
 23 C      -10.7890     4.3680     1.0180 C.3   1 <1>   0.0520 
 24 N       -7.2940    -2.0350     0.8020 N.am  1 <1>  -0.7340 
 25 O      -10.5080     7.0350     0.3230 O.2   1 <1>  -0.5750 
 26 C       -8.2620    -2.6250     0.0650 C.2   1 <1>   0.5640 
 27 O       -8.8120    -3.6070     0.4850 O.2   1 <1>  -0.5750 
 28 C       -8.6750    -2.0620    -1.2730 C.3   1 <1>  -0.1860 
 29 H       -2.0820     0.9760     2.2790 H     1 <1>   0.1420 
 30 H       -3.1200     0.1840    -1.7760 H     1 <1>   0.1420 
 31 H       -3.2870     3.1260     2.1870 H     1 <1>   0.1420 
 32 H       -4.3360     2.3270    -1.9010 H     1 <1>   0.1420 
 33 H       -4.6490     4.5870    -0.8870 H     1 <1>   0.0720 
 34 H       -4.3300     4.8620     0.8010 H     1 <1>   0.0720 
 35 H       -8.8060     2.3700     1.2540 H     1 <1>   0.4440 
 36 H       -5.2550     1.5210     0.9060 H     1 <1>   0.4440 
 37 H       -7.9940     0.4060     1.3920 H     1 <1>   0.0720 
 38 H       -6.6400     0.0640     2.4460 H     1 <1>   0.0720 
 39 H       -5.4490    -1.0600     0.6500 H     1 <1>   0.0720 
 40 H       -6.6380    -0.5420    -0.5240 H     1 <1>   0.0720 
 41 H       -7.2990     8.8790    -0.3250 H     1 <1>   0.0720 
 42 H       -8.9270     8.9980     0.2880 H     1 <1>   0.0720 
 43 H       -8.6580     8.5740    -1.3880 H     1 <1>   0.0720 
 44 H      -10.8390     3.3880     0.5780 H     1 <1>   0.0720 
 45 H      -11.6340     4.9340     0.6630 H     1 <1>   0.0720 
 46 H      -10.8590     4.2870     2.0890 H     1 <1>   0.0720 
 47 H       -7.0520    -2.5520     1.6540 H     1 <1>   0.3640 
 48 H       -7.8540    -2.1250    -1.9620 H     1 <1>   0.0720 
 49 H       -8.9880    -1.0420    -1.1660 H     1 <1>   0.0720 
 50 H       -9.4960    -2.6350    -1.6660 H     1 <1>   0.0720 
@<TRIPOS>BOND
  1   1   2  1   
  2   2   3  ar  
  3   2   4  ar  
  4   3   5  ar  
  5   3  29  1   
  6   4   6  ar  
  7   4  30  1   
  8   5   7  ar  
  9   5  31  1   
 10   6   7  ar  
 11   6  32  1   
 12   7   8  1   
 13   8   9  1   
 14   8  33  1   
 15   8  34  1   
 16   9  10  ar  
 17   9  11  1   
 18  10  12  ar  
 19  10  13  ar  
 20  11  14  1   
 21  11  15  2   
 22  12  15  1   
 23  12  35  1   
 24  13  16  1   
 25  13  36  1   
 26  14  17  2   
 27  14  18  am  
 28  15  19  1   
 29  16  20  1   
 30  16  37  1   
 31  16  38  1   
 32  18  21  am  
 33  18  22  1   
 34  19  21  am  
 35  19  23  1   
 36  20  24  1   
 37  20  39  1   
 38  20  40  1   
 39  21  25  2   
 40  22  41  1   
 41  22  42  1   
 42  22  43  1   
 43  23  44  1   
 44  23  45  1   
 45  23  46  1   
 46  24  26  am  
 47  24  47  1   
 48  26  27  2   
 49  26  28  1   
 50  28  48  1   
 51  28  49  1   
 52  28  50  1   
@<TRIPOS>SUBSTRUCTURE
  1 ****  10 GROUP 4 **** **** 0

# MOE 2024.06 (io_trps.svl 2023.06)
