@<TRIPOS>MOLECULE
NONAME
51 53 1 0 0 
SMALL
USER_CHARGES


@<TRIPOS>ATOM
  1 S        0.1810    -0.0350    -0.6200 S.o2  1 <1>   1.4470 
  2 O        0.1210    -0.3420    -2.0340 O.2   1 <1>  -0.6500 
  3 O       -0.2920    -1.0130     0.3350 O.2   1 <1>  -0.6500 
  4 N        1.8160     0.2440    -0.2660 N.am  1 <1>  -0.8490 
  5 C       -0.6050     1.5670    -0.2880 C.ar  1 <1>  -0.0090 
  6 C        2.5320    -1.0180    -0.0280 C.3   1 <1>   0.1960 
  7 C        2.4820     1.0730    -1.2690 C.3   1 <1>   0.1960 
  8 C       -0.3090     2.2850     0.8650 C.ar  1 <1>  -0.1500 
  9 C       -1.5300     2.1100    -1.1720 C.ar  1 <1>  -0.1500 
 10 C        4.0600    -0.8470    -0.0340 C.3   1 <1>  -0.1600 
 11 C        3.8310     1.5660    -0.7250 C.3   1 <1>  -0.1600 
 12 C       -0.9080     3.5060     1.1250 C.ar  1 <1>  -0.1500 
 13 C       -2.1350     3.3300    -0.9200 C.ar  1 <1>  -0.1500 
 14 C        4.4580     0.5930     0.2820 C.3   1 <1>   0.2200 
 15 C       -1.8220     4.0300     0.2300 C.ar  1 <1>  -0.1500 
 16 N        5.9270     0.7120     0.2400 N.am  1 <1>  -0.7300 
 17 C        6.6970     1.3330     1.1850 C.2   1 <1>   0.5440 
 18 O        6.1430     1.8600     2.1300 O.2   1 <1>  -0.5700 
 19 C        8.1420     1.3770     1.0510 C.ar  1 <1>   0.0860 
 20 C        8.8560     0.3760     0.3850 C.ar  1 <1>  -0.1500 
 21 C        8.8790     2.4340     1.5880 C.ar  1 <1>  -0.1500 
 22 C       10.2320     0.4330     0.2490 C.ar  1 <1>  -0.1500 
 23 C       10.2530     2.4980     1.4560 C.ar  1 <1>  -0.1500 
 24 C       10.9430     1.5020     0.7850 C.ar  1 <1>   0.0820 
 25 O       12.2850     1.6380     0.6970 O.3   1 <1>  -0.3620 
 26 C       13.0920     0.6770     0.0570 C.3   1 <1>   0.1200 
 27 C       14.5430     1.1400     0.1510 C.3   1 <1>  -0.2400 
 28 H        2.2570    -1.7460    -0.7750 H     1 <1>   0.0800 
 29 H        2.2240    -1.4030     0.9310 H     1 <1>   0.0800 
 30 H        1.8720     1.9250    -1.5200 H     1 <1>   0.0800 
 31 H        2.6330     0.4950    -2.1670 H     1 <1>   0.0800 
 32 H        0.4010     1.8810     1.5680 H     1 <1>   0.1500 
 33 H       -1.7810     1.5720    -2.0710 H     1 <1>   0.1500 
 34 H        4.4320    -1.1200    -1.0040 H     1 <1>   0.0800 
 35 H        4.4900    -1.5150     0.6910 H     1 <1>   0.0800 
 36 H        3.6850     2.5100    -0.2330 H     1 <1>   0.0800 
 37 H        4.4890     1.7280    -1.5590 H     1 <1>   0.0800 
 38 H       -0.6630     4.0460     2.0240 H     1 <1>   0.1500 
 39 H       -2.8480     3.7340    -1.6190 H     1 <1>   0.1500 
 40 H        4.0970     0.8340     1.2700 H     1 <1>   0.0800 
 41 H       -2.2900     4.9790     0.4300 H     1 <1>   0.1500 
 42 H        6.3680     0.3890    -0.6200 H     1 <1>   0.3700 
 43 H        8.3280    -0.4660    -0.0240 H     1 <1>   0.1500 
 44 H        8.3590     3.2140     2.1160 H     1 <1>   0.1500 
 45 H       10.7350    -0.3600    -0.2720 H     1 <1>   0.1500 
 46 H       10.8030     3.3210     1.8750 H     1 <1>   0.1500 
 47 H       12.7830     0.6030    -0.9710 H     1 <1>   0.0800 
 48 H       12.9600    -0.2660     0.5580 H     1 <1>   0.0800 
 49 H       14.6590     2.0910    -0.3370 H     1 <1>   0.0800 
 50 H       15.1860     0.4260    -0.3290 H     1 <1>   0.0800 
 51 H       14.8360     1.2280     1.1820 H     1 <1>   0.0800 
@<TRIPOS>BOND
  1   1   2  2   
  2   1   3  2   
  3   1   4  am  
  4   1   5  1   
  5   4   6  1   
  6   4   7  1   
  7   5   8  ar  
  8   5   9  ar  
  9   6  10  1   
 10   6  28  1   
 11   6  29  1   
 12   7  11  1   
 13   7  30  1   
 14   7  31  1   
 15   8  12  ar  
 16   8  32  1   
 17   9  13  ar  
 18   9  33  1   
 19  10  14  1   
 20  10  34  1   
 21  10  35  1   
 22  11  14  1   
 23  11  36  1   
 24  11  37  1   
 25  12  15  ar  
 26  12  38  1   
 27  13  15  ar  
 28  13  39  1   
 29  14  16  1   
 30  14  40  1   
 31  15  41  1   
 32  16  17  am  
 33  16  42  1   
 34  17  18  2   
 35  17  19  1   
 36  19  20  ar  
 37  19  21  ar  
 38  20  22  ar  
 39  20  43  1   
 40  21  23  ar  
 41  21  44  1   
 42  22  24  ar  
 43  22  45  1   
 44  23  24  ar  
 45  23  46  1   
 46  24  25  1   
 47  25  26  1   
 48  26  27  1   
 49  26  47  1   
 50  26  48  1   
 51  27  49  1   
 52  27  50  1   
 53  27  51  1   
@<TRIPOS>SUBSTRUCTURE
  1 ****  14 GROUP 4 **** **** 0

# MOE 2024.06 (io_trps.svl 2023.06)
