@<TRIPOS>MOLECULE
NONAME
51 54 1 0 0 
SMALL
USER_CHARGES


@<TRIPOS>ATOM
  1 S        0.1740    -0.8070    -1.9620 S.3   1 <1>  -0.2860 
  2 C       -0.8810    -1.1090    -0.5370 C.2   1 <1>   0.2420 
  3 C        1.7170    -0.0470    -1.2560 C.3   1 <1>   0.1310 
  4 N       -0.6010    -0.7090     0.6510 N.2   1 <1>  -0.3380 
  5 N       -2.0190    -1.7890    -0.6200 N.pl3 1 <1>   0.0480 
  6 C        2.9250    -0.9600    -1.4390 C.2   1 <1>   0.5690 
  7 N       -1.5910    -1.1460     1.4210 N.2   1 <1>  -0.3380 
  8 C       -2.4440    -1.7970     0.6680 C.2   1 <1>   0.1330 
  9 C       -2.6250    -2.3470    -1.8540 C.3   1 <1>   0.0960 
 10 O        3.5980    -0.7510    -2.4210 O.2   1 <1>  -0.5700 
 11 N        3.2600    -1.9240    -0.5020 N.am  1 <1>  -0.4770 
 12 C       -3.6550    -2.4220     1.1680 C.ar  1 <1>   0.3630 
 13 C       -2.0720    -3.7480    -2.1480 C.3   1 <1>  -0.1600 
 14 C        4.5130    -2.5320    -0.3270 C.ar  1 <1>   0.1170 
 15 C        2.3990    -2.3350     0.6450 C.3   1 <1>   0.2200 
 16 N       -4.1960    -3.4440     0.4920 N.ar  1 <1>  -0.6200 
 17 C       -4.2290    -1.9530     2.3520 C.ar  1 <1>  -0.1500 
 18 C       -2.7100    -4.3410    -3.4090 C.3   1 <1>  -0.2400 
 19 C        4.6430    -3.0590     0.9400 C.ar  1 <1>  -0.1440 
 20 C        5.5670    -2.6600    -1.2240 C.ar  1 <1>  -0.1500 
 21 C        3.3850    -2.8070     1.7300 C.3   1 <1>  -0.0170 
 22 C        1.5010    -3.4950     0.2000 C.3   1 <1>  -0.2400 
 23 C       -5.2900    -3.9880     0.9940 C.ar  1 <1>   0.1600 
 24 C       -5.3710    -2.5250     2.8660 C.ar  1 <1>  -0.1500 
 25 C        5.7930    -3.7080     1.3450 C.ar  1 <1>  -0.1500 
 26 C        6.7280    -3.3080    -0.8330 C.ar  1 <1>  -0.1500 
 27 C       -5.9100    -3.5750     2.1580 C.ar  1 <1>  -0.1500 
 28 C        6.8420    -3.8300     0.4480 C.ar  1 <1>  -0.1500 
 29 H        1.5550     0.1980    -0.2260 H     1 <1>   0.0800 
 30 H        1.8750     0.8630    -1.8030 H     1 <1>   0.0800 
 31 H       -2.4050    -1.6890    -2.6770 H     1 <1>   0.0800 
 32 H       -3.6930    -2.3810    -1.7430 H     1 <1>   0.0800 
 33 H       -2.2750    -4.3980    -1.3140 H     1 <1>   0.0800 
 34 H       -1.0060    -3.6950    -2.2890 H     1 <1>   0.0800 
 35 H        1.8140    -1.5150     1.0180 H     1 <1>   0.0800 
 36 H       -3.7690    -1.1300     2.8700 H     1 <1>   0.1500 
 37 H       -3.7760    -4.4260    -3.2860 H     1 <1>   0.0800 
 38 H       -2.3100    -5.3220    -3.5960 H     1 <1>   0.0800 
 39 H       -2.5060    -3.7210    -4.2640 H     1 <1>   0.0800 
 40 H        5.4830    -2.2630    -2.2190 H     1 <1>   0.1500 
 41 H        3.0420    -3.6880     2.2410 H     1 <1>   0.0800 
 42 H        3.5520    -2.0210     2.4440 H     1 <1>   0.0800 
 43 H        2.0950    -4.3550    -0.0530 H     1 <1>   0.0800 
 44 H        0.9180    -3.2210    -0.6570 H     1 <1>   0.0800 
 45 H        0.8280    -3.7610     0.9950 H     1 <1>   0.0800 
 46 H       -5.7190    -4.8120     0.4490 H     1 <1>   0.1500 
 47 H       -5.8190    -2.1690     3.7780 H     1 <1>   0.1500 
 48 H        5.8750    -4.1110     2.3390 H     1 <1>   0.1500 
 49 H        7.5430    -3.4060    -1.5270 H     1 <1>   0.1500 
 50 H       -6.8000    -4.0690     2.5040 H     1 <1>   0.1500 
 51 H        7.7470    -4.3320     0.7440 H     1 <1>   0.1500 
@<TRIPOS>BOND
  1   1   2  1   
  2   1   3  1   
  3   2   4  2   
  4   2   5  1   
  5   3   6  1   
  6   3  29  1   
  7   3  30  1   
  8   4   7  1   
  9   5   8  1   
 10   5   9  1   
 11   6  10  2   
 12   6  11  am  
 13   7   8  2   
 14   8  12  1   
 15   9  13  1   
 16   9  31  1   
 17   9  32  1   
 18  11  14  1   
 19  11  15  1   
 20  12  16  ar  
 21  12  17  ar  
 22  13  18  1   
 23  13  33  1   
 24  13  34  1   
 25  14  19  ar  
 26  14  20  ar  
 27  15  21  1   
 28  15  22  1   
 29  15  35  1   
 30  16  23  ar  
 31  17  24  ar  
 32  17  36  1   
 33  18  37  1   
 34  18  38  1   
 35  18  39  1   
 36  19  21  1   
 37  19  25  ar  
 38  20  26  ar  
 39  20  40  1   
 40  21  41  1   
 41  21  42  1   
 42  22  43  1   
 43  22  44  1   
 44  22  45  1   
 45  23  27  ar  
 46  23  46  1   
 47  24  27  ar  
 48  24  47  1   
 49  25  28  ar  
 50  25  48  1   
 51  26  28  ar  
 52  26  49  1   
 53  27  50  1   
 54  28  51  1   
@<TRIPOS>SUBSTRUCTURE
  1 ****  22 GROUP 4 **** **** 0

# MOE 2024.06 (io_trps.svl 2023.06)
