@<TRIPOS>MOLECULE
ka-00855
39 39 1 0 0 
SMALL
USER_CHARGES


@<TRIPOS>ATOM
  1 S       -0.2280     0.0290    -0.0800 S.o2  1 <1>   1.3330 
  2 O       -1.3540    -0.0310    -0.9740 O.2   1 <1>  -0.6500 
  3 O        0.4370     1.2710     0.2220 O.2   1 <1>  -0.6500 
  4 N        0.9170    -1.0300    -0.7960 N.am  1 <1>  -0.7570 
  5 C       -0.6430    -0.8230     1.4250 C.3   1 <1>  -0.1350 
  6 C        2.2930    -1.0990    -0.6120 C.ar  1 <1>   0.1990 
  7 C        3.0560    -1.8000    -1.5370 C.ar  1 <1>  -0.1500 
  8 C        2.9520    -0.5020     0.4570 C.ar  1 <1>  -0.1500 
  9 C        4.4300    -1.9000    -1.4060 C.ar  1 <1>  -0.1500 
 10 C        4.3250    -0.5980     0.5930 C.ar  1 <1>  -0.1500 
 11 C        5.0830    -1.2980    -0.3360 C.ar  1 <1>  -0.1430 
 12 C        6.5950    -1.3760    -0.1410 C.3   1 <1>   0.3430 
 13 O        7.2120    -1.4870    -1.3820 O.3   1 <1>  -0.6800 
 14 C        6.9830    -2.6090     0.7030 C.3   1 <1>   0.3430 
 15 N        6.8640    -3.8660    -0.1020 N.4   1 <1>  -0.9060 
 16 C        7.4340    -5.0720     0.5060 C.3   1 <1>   0.4230 
 17 C        8.9570    -4.9740     0.4920 C.3   1 <1>  -0.2400 
 18 C        6.9630    -6.2610    -0.3200 C.3   1 <1>  -0.2400 
 19 H        0.5360    -1.3620    -1.6780 H     1 <1>   0.4200 
 20 H       -1.3960    -0.2770     1.9590 H     1 <1>   0.0800 
 21 H        0.2210    -0.9180     2.0510 H     1 <1>   0.0800 
 22 H       -1.0210    -1.8020     1.2040 H     1 <1>   0.0800 
 23 H        2.5670    -2.2670    -2.3740 H     1 <1>   0.1500 
 24 H        2.3970     0.0550     1.1890 H     1 <1>   0.1500 
 25 H        4.9770    -2.4420    -2.1590 H     1 <1>   0.1500 
 26 H        4.7910    -0.1080     1.4310 H     1 <1>   0.1500 
 27 H        6.9540    -0.4770     0.3320 H     1 <1>   0.0800 
 28 H        6.9550    -0.7190    -1.9380 H     1 <1>   0.4000 
 29 H        6.3540    -2.6600     1.5760 H     1 <1>   0.0800 
 30 H        8.0010    -2.4800     1.0310 H     1 <1>   0.0800 
 31 H        7.3340    -3.6690    -0.9990 H     1 <1>   0.4500 
 32 H        5.8760    -4.0200    -0.3320 H     1 <1>   0.4500 
 33 H        7.0810    -5.1810     1.5200 H     1 <1>   0.0800 
 34 H        9.3290    -4.8320    -0.5070 H     1 <1>   0.0800 
 35 H        9.3780    -5.8860     0.8760 H     1 <1>   0.0800 
 36 H        9.3020    -4.1740     1.1210 H     1 <1>   0.0800 
 37 H        7.2960    -6.1850    -1.3410 H     1 <1>   0.0800 
 38 H        5.8910    -6.3410    -0.2970 H     1 <1>   0.0800 
 39 H        7.3650    -7.1690     0.0930 H     1 <1>   0.0800 
@<TRIPOS>BOND
  1   1   2  2   
  2   1   3  2   
  3   1   4  am  
  4   1   5  1   
  5   4   6  1   
  6   4  19  1   
  7   5  20  1   
  8   5  21  1   
  9   5  22  1   
 10   6   7  ar  
 11   6   8  ar  
 12   7   9  ar  
 13   7  23  1   
 14   8  10  ar  
 15   8  24  1   
 16   9  11  ar  
 17   9  25  1   
 18  10  11  ar  
 19  10  26  1   
 20  11  12  1   
 21  12  13  1   
 22  12  14  1   
 23  12  27  1   
 24  13  28  1   
 25  14  15  1   
 26  14  29  1   
 27  14  30  1   
 28  15  16  1   
 29  15  31  1   
 30  15  32  1   
 31  16  17  1   
 32  16  18  1   
 33  16  33  1   
 34  17  34  1   
 35  17  35  1   
 36  17  36  1   
 37  18  37  1   
 38  18  38  1   
 39  18  39  1   
@<TRIPOS>SUBSTRUCTURE
  1 ****  11 GROUP 4 **** **** 0

# MOE 2024.06 (io_trps.svl 2023.06)
