@<TRIPOS>MOLECULE
Piperidine-1,4-dicarboxylic acid 1-benzylamide 4-[(2,3-dihydro-benzo[1,4]dioxin-6-yl)-amide]
54 57 1 0 0 
SMALL
USER_CHARGES


@<TRIPOS>ATOM
  1 O        0.0170    -0.0700     0.6880 O.2   1 <1>  -0.5700 
  2 C        0.4310     0.8960     0.0740 C.2   1 <1>   0.6900 
  3 N        1.7070     0.9230    -0.4270 N.am  1 <1>  -0.6600 
  4 N       -0.3750     1.9660    -0.0990 N.am  1 <1>  -0.7300 
  5 C        2.1690     1.8570    -1.4880 C.3   1 <1>   0.1400 
  6 C        2.7170    -0.0780     0.0080 C.3   1 <1>   0.1400 
  7 C       -1.6820     2.1120     0.5510 C.3   1 <1>   0.2840 
  8 C        3.4130     2.6040    -1.0000 C.3   1 <1>  -0.1600 
  9 C        3.9750     0.6470     0.4970 C.3   1 <1>  -0.1600 
 10 C       -2.0470     3.5850     0.5370 C.ar  1 <1>  -0.1430 
 11 C        4.5210     1.6260    -0.5590 C.3   1 <1>  -0.0190 
 12 C       -1.5480     4.4350     1.5120 C.ar  1 <1>  -0.1500 
 13 C       -2.8720     4.0960    -0.4540 C.ar  1 <1>  -0.1500 
 14 C        5.7520     2.3670    -0.0370 C.2   1 <1>   0.5690 
 15 C       -1.8730     5.7810     1.5010 C.ar  1 <1>  -0.1500 
 16 C       -3.1990     5.4410    -0.4660 C.ar  1 <1>  -0.1500 
 17 O        5.6100     3.1980     0.8260 O.2   1 <1>  -0.5700 
 18 N        6.9670     2.0360    -0.5720 N.am  1 <1>  -0.5470 
 19 C       -2.7000     6.2840     0.5110 C.ar  1 <1>  -0.1500 
 20 C        8.2460     2.5650    -0.3290 C.ar  1 <1>   0.1170 
 21 C        8.4500     3.8630     0.1320 C.ar  1 <1>  -0.1500 
 22 C        9.3560     1.7640    -0.5800 C.ar  1 <1>  -0.1500 
 23 C        9.7290     4.3440     0.3390 C.ar  1 <1>   0.0820 
 24 C       10.6410     2.2400    -0.3800 C.ar  1 <1>  -0.1500 
 25 O        9.8890     5.6110     0.8020 O.3   1 <1>  -0.3630 
 26 C       10.8330     3.5310     0.0750 C.ar  1 <1>   0.0820 
 27 C       11.1640     5.9480     1.3120 C.3   1 <1>   0.1200 
 28 O       12.1040     3.9840     0.2510 O.3   1 <1>  -0.3630 
 29 C       12.2630     5.3820     0.4030 C.3   1 <1>   0.1200 
 30 H        0.0600     2.8470    -0.3570 H     1 <1>   0.3700 
 31 H        1.4000     2.5620    -1.7510 H     1 <1>   0.0800 
 32 H        2.4070     1.2880    -2.3700 H     1 <1>   0.0800 
 33 H        2.9530    -0.7210    -0.8220 H     1 <1>   0.0800 
 34 H        2.3270    -0.6900     0.8040 H     1 <1>   0.0800 
 35 H       -1.6300     1.7490     1.5640 H     1 <1>   0.0800 
 36 H       -2.4140     1.5310     0.0180 H     1 <1>   0.0800 
 37 H        3.1350     3.2370    -0.1740 H     1 <1>   0.0800 
 38 H        3.7810     3.2380    -1.7860 H     1 <1>   0.0800 
 39 H        4.7270    -0.0790     0.7480 H     1 <1>   0.0800 
 40 H        3.7320     1.1860     1.3980 H     1 <1>   0.0800 
 41 H        4.8120     1.0540    -1.4220 H     1 <1>   0.0800 
 42 H       -0.9020     4.0510     2.2840 H     1 <1>   0.1500 
 43 H       -3.2620     3.4490    -1.2200 H     1 <1>   0.1500 
 44 H       -1.4840     6.4350     2.2610 H     1 <1>   0.1500 
 45 H       -3.8410     5.8320    -1.2360 H     1 <1>   0.1500 
 46 H        6.9560     1.2550    -1.2230 H     1 <1>   0.3700 
 47 H       -2.9540     7.3300     0.5020 H     1 <1>   0.1500 
 48 H        7.6180     4.5100     0.3340 H     1 <1>   0.1500 
 49 H        9.2210     0.7580    -0.9330 H     1 <1>   0.1500 
 50 H       11.4960     1.6180    -0.5740 H     1 <1>   0.1500 
 51 H       11.2480     5.5370     2.3020 H     1 <1>   0.0800 
 52 H       11.2260     7.0200     1.3670 H     1 <1>   0.0800 
 53 H       13.2370     5.5600     0.8230 H     1 <1>   0.0800 
 54 H       12.2100     5.8330    -0.5720 H     1 <1>   0.0800 
@<TRIPOS>BOND
  1   1   2  2   
  2   2   3  am  
  3   2   4  am  
  4   3   5  1   
  5   3   6  1   
  6   4   7  1   
  7   4  30  1   
  8   5   8  1   
  9   5  31  1   
 10   5  32  1   
 11   6   9  1   
 12   6  33  1   
 13   6  34  1   
 14   7  10  1   
 15   7  35  1   
 16   7  36  1   
 17   8  11  1   
 18   8  37  1   
 19   8  38  1   
 20   9  11  1   
 21   9  39  1   
 22   9  40  1   
 23  10  12  ar  
 24  10  13  ar  
 25  11  14  1   
 26  11  41  1   
 27  12  15  ar  
 28  12  42  1   
 29  13  16  ar  
 30  13  43  1   
 31  14  17  2   
 32  14  18  am  
 33  15  19  ar  
 34  15  44  1   
 35  16  19  ar  
 36  16  45  1   
 37  18  20  1   
 38  18  46  1   
 39  19  47  1   
 40  20  21  ar  
 41  20  22  ar  
 42  21  23  ar  
 43  21  48  1   
 44  22  24  ar  
 45  22  49  1   
 46  23  25  1   
 47  23  26  ar  
 48  24  26  ar  
 49  24  50  1   
 50  25  27  1   
 51  26  28  1   
 52  27  29  1   
 53  27  51  1   
 54  27  52  1   
 55  28  29  1   
 56  29  53  1   
 57  29  54  1   
@<TRIPOS>SUBSTRUCTURE
  1 ****   8 GROUP 4 **** **** 0

# MOE 2024.06 (io_trps.svl 2023.06)
