@<TRIPOS>MOLECULE
1-(6,7-Dihydro-5H-cyclopenta[d][1,2,4]triazolo[1,5-a]pyrimidin-8-yl)-piperidine-4-carboxylic acid phenethyl
56 60 1 0 0 
SMALL
USER_CHARGES


@<TRIPOS>ATOM
  1 O        0.5860     2.8600    -1.0280 O.2   1 <1>  -0.5700 
  2 C        0.5850     2.1590    -0.0450 C.2   1 <1>   0.5690 
  3 N       -0.5600     1.6200     0.4480 N.am  1 <1>  -0.7300 
  4 C        1.9030     1.8720     0.6690 C.3   1 <1>  -0.0190 
  5 C       -1.8980     1.7980    -0.1690 C.3   1 <1>   0.1400 
  6 C        2.5880     3.1830     1.1050 C.3   1 <1>  -0.1600 
  7 C        2.8410     1.0430    -0.2300 C.3   1 <1>  -0.1600 
  8 C       -2.6260     2.9700     0.4880 C.3   1 <1>  -0.0170 
  9 C        3.9670     2.9360     1.7230 C.3   1 <1>   0.2090 
 10 C        4.2030     0.8120     0.4230 C.3   1 <1>   0.2090 
 11 C       -4.0070     3.1370    -0.1240 C.ar  1 <1>  -0.1440 
 12 N        4.7910     2.1280     0.7860 N.pl3 1 <1>  -0.8380 
 13 C       -5.1260     2.6060     0.5000 C.ar  1 <1>  -0.1500 
 14 C       -4.1560     3.8210    -1.3200 C.ar  1 <1>  -0.1500 
 15 C        5.9990     2.5420     0.2990 C.2   1 <1>   0.4790 
 16 C       -6.3800     2.7580    -0.0670 C.ar  1 <1>  -0.1500 
 17 C       -5.4090     3.9740    -1.8880 C.ar  1 <1>  -0.1500 
 18 N        7.1040     1.7460     0.4590 N.pl3 1 <1>  -0.3220 
 19 C        6.2190     3.7230    -0.3780 C.2   1 <1>  -0.1240 
 20 C       -6.5220     3.4420    -1.2610 C.ar  1 <1>  -0.1500 
 21 N        7.2660     0.5390     1.1030 N.2   1 <1>  -0.2600 
 22 C        8.2920     2.1530    -0.0220 C.cat 1 <1>   0.9620 
 23 C        7.4850     4.0180    -0.8390 C.2   1 <1>   0.3750 
 24 C        5.2330     4.8070    -0.7670 C.3   1 <1>  -0.0220 
 25 C        8.5140     0.2730     0.9790 C.2   1 <1>   0.5030 
 26 N        8.5490     3.2720    -0.6850 N.2   1 <1>  -0.6120 
 27 N        9.1830     1.2350     0.2920 N.pl3 1 <1>  -0.7000 
 28 C        7.5120     5.3290    -1.5810 C.3   1 <1>  -0.0990 
 29 C        6.1040     5.9170    -1.3790 C.3   1 <1>  -0.1600 
 30 H       -0.5370     1.0480     1.2920 H     1 <1>   0.3700 
 31 H        1.6920     1.2970     1.5520 H     1 <1>   0.0800 
 32 H       -2.4710     0.8950    -0.0530 H     1 <1>   0.0800 
 33 H       -1.7880     1.9920    -1.2230 H     1 <1>   0.0800 
 34 H        1.9650     3.6940     1.8180 H     1 <1>   0.0800 
 35 H        2.6960     3.8280     0.2530 H     1 <1>   0.0800 
 36 H        2.9890     1.5530    -1.1660 H     1 <1>   0.0800 
 37 H        2.3850     0.0930    -0.4470 H     1 <1>   0.0800 
 38 H       -2.0590     3.8710     0.3370 H     1 <1>   0.0800 
 39 H       -2.7160     2.7980     1.5460 H     1 <1>   0.0800 
 40 H        3.8580     2.3950     2.6480 H     1 <1>   0.0800 
 41 H        4.4520     3.8710     1.9430 H     1 <1>   0.0800 
 42 H        4.8470     0.2900    -0.2650 H     1 <1>   0.0800 
 43 H        4.0960     0.2100     1.3110 H     1 <1>   0.0800 
 44 H       -5.0290     2.0720     1.4290 H     1 <1>   0.1500 
 45 H       -3.2950     4.2380    -1.8150 H     1 <1>   0.1500 
 46 H       -7.2450     2.3440     0.4220 H     1 <1>   0.1500 
 47 H       -5.5160     4.5060    -2.8160 H     1 <1>   0.1500 
 48 H       -7.4960     3.5610    -1.7020 H     1 <1>   0.1500 
 49 H        4.6930     5.1830     0.0830 H     1 <1>   0.0800 
 50 H        4.5360     4.4230    -1.4930 H     1 <1>   0.0800 
 51 H        8.9960    -0.6100     1.3710 H     1 <1>   0.1500 
 52 H       10.1670     1.3040     0.0450 H     1 <1>   0.4500 
 53 H        7.7050     5.1490    -2.6240 H     1 <1>   0.0800 
 54 H        8.2700     5.9810    -1.1830 H     1 <1>   0.0800 
 55 H        6.1580     6.7470    -0.6940 H     1 <1>   0.0800 
 56 H        5.6890     6.2700    -2.3090 H     1 <1>   0.0800 
@<TRIPOS>BOND
  1   1   2  2   
  2   2   3  am  
  3   2   4  1   
  4   3   5  1   
  5   3  30  1   
  6   4   6  1   
  7   4   7  1   
  8   4  31  1   
  9   5   8  1   
 10   5  32  1   
 11   5  33  1   
 12   6   9  1   
 13   6  34  1   
 14   6  35  1   
 15   7  10  1   
 16   7  36  1   
 17   7  37  1   
 18   8  11  1   
 19   8  38  1   
 20   8  39  1   
 21   9  12  1   
 22   9  40  1   
 23   9  41  1   
 24  10  12  1   
 25  10  42  1   
 26  10  43  1   
 27  11  13  ar  
 28  11  14  ar  
 29  12  15  1   
 30  13  16  ar  
 31  13  44  1   
 32  14  17  ar  
 33  14  45  1   
 34  15  18  1   
 35  15  19  2   
 36  16  20  ar  
 37  16  46  1   
 38  17  20  ar  
 39  17  47  1   
 40  18  21  1   
 41  18  22  ar  
 42  19  23  1   
 43  19  24  1   
 44  20  48  1   
 45  21  25  2   
 46  22  26  1   
 47  22  27  ar  
 48  23  26  2   
 49  23  28  1   
 50  24  29  1   
 51  24  49  1   
 52  24  50  1   
 53  25  27  1   
 54  25  51  1   
 55  27  52  1   
 56  28  29  1   
 57  28  53  1   
 58  28  54  1   
 59  29  55  1   
 60  29  56  1   
@<TRIPOS>SUBSTRUCTURE
  1 ****   4 GROUP 4 **** **** 0

# MOE 2024.06 (io_trps.svl 2023.06)
