@<TRIPOS>MOLECULE
NONAME
64 68 1 0 0 
SMALL
USER_CHARGES


@<TRIPOS>ATOM
  1 O        0.7620     3.3920    -1.0020 O.2   1 <1>  -0.5700 
  2 C       -0.0560     2.9510    -0.2260 C.2   1 <1>   0.5690 
  3 N        0.2690     1.9360     0.6230 N.am  1 <1>  -0.7300 
  4 C       -1.5000     3.5020    -0.1510 C.3   1 <1>   0.4250 
  5 C        1.5500     1.2240     0.6850 C.3   1 <1>   0.2200 
  6 N       -2.5240     2.4150    -0.3380 N.am  1 <1>  -0.5090 
  7 C       -1.8840     4.7210    -1.0090 C.ar  1 <1>  -0.1430 
  8 C        1.3300    -0.2170     0.2170 C.3   1 <1>  -0.1600 
  9 C        2.0700     1.2700     2.1250 C.3   1 <1>  -0.1600 
 10 C       -3.0450     1.8160     0.7770 C.2   1 <1>   0.5690 
 11 C       -2.8700     2.0480    -1.7350 C.3   1 <1>   0.0490 
 12 C       -1.4410     4.9020    -2.3150 C.ar  1 <1>  -0.1500 
 13 C       -2.7340     5.6720    -0.4550 C.ar  1 <1>  -0.1500 
 14 C        2.6100    -1.0520     0.3680 C.3   1 <1>  -0.1600 
 15 C        3.3510     0.4380     2.2800 C.3   1 <1>  -0.1600 
 16 O       -2.3910     1.7440     1.7950 O.2   1 <1>  -0.5700 
 17 C       -4.4500     1.2220     0.7850 C.3   1 <1>   0.0820 
 18 C       -2.9700     0.6030    -2.1210 C.3   1 <1>  -0.2000 
 19 C       -1.8190     1.4250    -2.6010 C.3   1 <1>  -0.2000 
 20 C       -1.8350     6.0080    -3.0470 C.ar  1 <1>  -0.1500 
 21 C       -3.1310     6.7800    -1.1810 C.ar  1 <1>  -0.1500 
 22 C        3.1340    -1.0070     1.8100 C.3   1 <1>  -0.1600 
 23 C       -5.4340     2.1180     1.5230 C.2   1 <1>  -0.1810 
 24 C       -2.6790     6.9440    -2.4790 C.ar  1 <1>   0.0820 
 25 C       -5.9230     3.3560     1.0460 C.ar  1 <1>   0.0000 
 26 C       -5.9970     1.8940     2.7350 C.2   1 <1>  -0.3020 
 27 O       -3.0550     8.0120    -3.1960 O.3   1 <1>  -0.5330 
 28 C       -6.7870     3.8390     2.0250 C.ar  1 <1>  -0.1520 
 29 C       -5.7230     4.1080    -0.1170 C.ar  1 <1>  -0.1500 
 30 N       -6.8220     2.9340     3.0540 N.pl3 1 <1>   0.0330 
 31 C       -7.4510     5.0580     1.8650 C.ar  1 <1>  -0.1500 
 32 C       -6.3760     5.3070    -0.2760 C.ar  1 <1>  -0.1500 
 33 C       -7.2420     5.7840     0.7160 C.ar  1 <1>  -0.1500 
 34 H       -0.4640     1.5880     1.2590 H     1 <1>   0.3700 
 35 H       -1.5840     3.8440     0.8640 H     1 <1>   0.0800 
 36 H        2.2650     1.7040     0.0350 H     1 <1>   0.0800 
 37 H        1.0290    -0.2120    -0.8160 H     1 <1>   0.0800 
 38 H        0.5470    -0.6690     0.8000 H     1 <1>   0.0800 
 39 H        1.3180     0.8820     2.7910 H     1 <1>   0.0800 
 40 H        2.2730     2.2910     2.3970 H     1 <1>   0.0800 
 41 H       -3.5270     2.7630    -2.2040 H     1 <1>   0.1000 
 42 H       -0.7840     4.1840    -2.7750 H     1 <1>   0.1500 
 43 H       -3.1030     5.5500     0.5500 H     1 <1>   0.1500 
 44 H        3.3660    -0.6680    -0.2970 H     1 <1>   0.0800 
 45 H        2.4120    -2.0720     0.0870 H     1 <1>   0.0800 
 46 H        3.6600     0.4390     3.3110 H     1 <1>   0.0800 
 47 H        4.1390     0.8870     1.6990 H     1 <1>   0.0800 
 48 H       -4.4060     0.2680     1.2760 H     1 <1>   0.0800 
 49 H       -4.8160     1.0630    -0.2080 H     1 <1>   0.0800 
 50 H       -3.7100     0.3050    -2.8430 H     1 <1>   0.1000 
 51 H       -2.7630    -0.1650    -1.3970 H     1 <1>   0.1000 
 52 H       -0.8440     1.2110    -2.1980 H     1 <1>   0.1000 
 53 H       -1.7830     1.6940    -3.6420 H     1 <1>   0.1000 
 54 H       -1.4900     6.1490    -4.0560 H     1 <1>   0.1500 
 55 H       -3.7890     7.5030    -0.7340 H     1 <1>   0.1500 
 56 H        4.0620    -1.5500     1.8730 H     1 <1>   0.0800 
 57 H        2.4260    -1.4910     2.4610 H     1 <1>   0.0800 
 58 H       -5.8580     1.0570     3.3960 H     1 <1>   0.1500 
 59 H       -3.6160     8.6270    -2.6930 H     1 <1>   0.4500 
 60 H       -5.0600     3.7420    -0.8750 H     1 <1>   0.1500 
 61 H       -7.3750     3.0330     3.9110 H     1 <1>   0.2700 
 62 H       -8.1150     5.4140     2.6330 H     1 <1>   0.1500 
 63 H       -6.2270     5.8890    -1.1690 H     1 <1>   0.1500 
 64 H       -7.7440     6.7240     0.5680 H     1 <1>   0.1500 
@<TRIPOS>BOND
  1   1   2  2   
  2   2   3  am  
  3   2   4  1   
  4   3   5  1   
  5   3  34  1   
  6   4   6  1   
  7   4   7  1   
  8   4  35  1   
  9   5   8  1   
 10   5   9  1   
 11   5  36  1   
 12   6  10  am  
 13   6  11  1   
 14   7  12  ar  
 15   7  13  ar  
 16   8  14  1   
 17   8  37  1   
 18   8  38  1   
 19   9  15  1   
 20   9  39  1   
 21   9  40  1   
 22  10  16  2   
 23  10  17  1   
 24  11  18  1   
 25  11  19  1   
 26  11  41  1   
 27  12  20  ar  
 28  12  42  1   
 29  13  21  ar  
 30  13  43  1   
 31  14  22  1   
 32  14  44  1   
 33  14  45  1   
 34  15  22  1   
 35  15  46  1   
 36  15  47  1   
 37  17  23  1   
 38  17  48  1   
 39  17  49  1   
 40  18  19  1   
 41  18  50  1   
 42  18  51  1   
 43  19  52  1   
 44  19  53  1   
 45  20  24  ar  
 46  20  54  1   
 47  21  24  ar  
 48  21  55  1   
 49  22  56  1   
 50  22  57  1   
 51  23  25  1   
 52  23  26  2   
 53  24  27  1   
 54  25  28  ar  
 55  25  29  ar  
 56  26  30  1   
 57  26  58  1   
 58  27  59  1   
 59  28  30  1   
 60  28  31  ar  
 61  29  32  ar  
 62  29  60  1   
 63  30  61  1   
 64  31  33  ar  
 65  31  62  1   
 66  32  33  ar  
 67  32  63  1   
 68  33  64  1   
@<TRIPOS>SUBSTRUCTURE
  1 ****   6 GROUP 4 **** **** 0

# MOE 2024.06 (io_trps.svl 2023.06)
