@<TRIPOS>MOLECULE
NONAME
57 60 1 0 0 
SMALL
USER_CHARGES


@<TRIPOS>ATOM
  1 S        0.7600    -0.5710    -1.1270 S.3   1 <1>  -0.2860 
  2 C       -0.8820     0.0920    -1.4030 C.2   1 <1>   0.2420 
  3 C        1.3720    -0.9520    -2.8450 C.3   1 <1>   0.1310 
  4 N       -1.4550     0.1230    -2.5520 N.2   1 <1>  -0.3380 
  5 N       -1.6200     0.6010    -0.4240 N.pl3 1 <1>   0.0480 
  6 C        2.8870    -1.0860    -2.8570 C.2   1 <1>   0.5690 
  7 N       -2.6500     0.6750    -2.3440 N.2   1 <1>  -0.3380 
  8 C       -2.7430     0.9620    -1.0750 C.2   1 <1>   0.1330 
  9 C       -1.2960     0.7070     1.0180 C.3   1 <1>   0.0960 
 10 O        3.3970    -1.7950    -3.6910 O.2   1 <1>  -0.5700 
 11 N        3.5920    -0.3910    -1.9200 N.am  1 <1>  -0.5470 
 12 C       -3.8840     1.5670    -0.4410 C.ar  1 <1>   0.0530 
 13 C       -1.7950    -0.5290     1.7750 C.3   1 <1>  -0.1600 
 14 C        4.9440    -0.3100    -1.5620 C.ar  1 <1>   0.1170 
 15 C       -3.8140     2.8420     0.1190 C.ar  1 <1>   0.1600 
 16 C       -5.0970     0.9000    -0.3540 C.ar  1 <1>  -0.1500 
 17 C       -1.4630    -0.4320     3.2680 C.3   1 <1>  -0.2400 
 18 C        5.2240     0.2970    -0.3290 C.ar  1 <1>   0.1000 
 19 C        5.9820    -0.7820    -2.3520 C.ar  1 <1>  -0.1500 
 20 N       -4.7900     3.4590     0.7630 N.ar  1 <1>  -0.6200 
 21 C       -6.1330     1.5300     0.3010 C.ar  1 <1>  -0.1500 
 22 N        4.1670     0.7620     0.4790 N.pl3 1 <1>  -0.8380 
 23 C        6.5470     0.4110     0.0790 C.ar  1 <1>  -0.1500 
 24 C        7.2950    -0.6590    -1.9320 C.ar  1 <1>  -0.1500 
 25 C       -5.9300     2.7900     0.8380 C.ar  1 <1>   0.1600 
 26 C        3.6080    -0.2060     1.4740 C.3   1 <1>   0.2090 
 27 C        4.1780     2.1860     0.9420 C.3   1 <1>   0.2090 
 28 C        7.5780    -0.0610    -0.7160 C.ar  1 <1>  -0.1500 
 29 C        4.0830     0.0960     2.9050 C.3   1 <1>   0.1200 
 30 C        4.5710     2.3280     2.4260 C.3   1 <1>   0.1200 
 31 O        3.8530     1.4370     3.2320 O.3   1 <1>  -0.5600 
 32 H        1.0680    -0.1460    -3.4860 H     1 <1>   0.0800 
 33 H        0.9040    -1.8670    -3.1580 H     1 <1>   0.0800 
 34 H       -1.7530     1.5920     1.4210 H     1 <1>   0.0800 
 35 H       -0.2300     0.8020     1.1320 H     1 <1>   0.0800 
 36 H        3.0340     0.1110    -1.2210 H     1 <1>   0.3700 
 37 H       -1.3330    -1.4130     1.3690 H     1 <1>   0.0800 
 38 H       -2.8630    -0.6180     1.6600 H     1 <1>   0.0800 
 39 H       -2.8870     3.3800     0.0260 H     1 <1>   0.1500 
 40 H       -5.2160    -0.0770    -0.7880 H     1 <1>   0.1500 
 41 H       -0.3990    -0.3590     3.4160 H     1 <1>   0.0800 
 42 H       -1.8170    -1.3100     3.7810 H     1 <1>   0.0800 
 43 H       -1.9350     0.4300     3.7070 H     1 <1>   0.0800 
 44 H        5.7680    -1.2460    -3.2980 H     1 <1>   0.1500 
 45 H       -7.0910     1.0520     0.3950 H     1 <1>   0.1500 
 46 H        6.7740     0.8650     1.0230 H     1 <1>   0.1500 
 47 H        8.0930    -1.0280    -2.5530 H     1 <1>   0.1500 
 48 H       -6.7450     3.2720     1.3510 H     1 <1>   0.1500 
 49 H        3.8990    -1.2080     1.2060 H     1 <1>   0.0800 
 50 H        2.5340    -0.1580     1.4450 H     1 <1>   0.0800 
 51 H        3.1950     2.6000     0.8040 H     1 <1>   0.0800 
 52 H        4.8590     2.7570     0.3350 H     1 <1>   0.0800 
 53 H        8.5980     0.0340    -0.3890 H     1 <1>   0.1500 
 54 H        5.1350    -0.1110     3.0030 H     1 <1>   0.0800 
 55 H        3.5450    -0.5120     3.6090 H     1 <1>   0.0800 
 56 H        4.3580     3.3250     2.7680 H     1 <1>   0.0800 
 57 H        5.6210     2.1410     2.5600 H     1 <1>   0.0800 
@<TRIPOS>BOND
  1   1   2  1   
  2   1   3  1   
  3   2   4  2   
  4   2   5  1   
  5   3   6  1   
  6   3  32  1   
  7   3  33  1   
  8   4   7  1   
  9   5   8  1   
 10   5   9  1   
 11   6  10  2   
 12   6  11  am  
 13   7   8  2   
 14   8  12  1   
 15   9  13  1   
 16   9  34  1   
 17   9  35  1   
 18  11  14  1   
 19  11  36  1   
 20  12  15  ar  
 21  12  16  ar  
 22  13  17  1   
 23  13  37  1   
 24  13  38  1   
 25  14  18  ar  
 26  14  19  ar  
 27  15  20  ar  
 28  15  39  1   
 29  16  21  ar  
 30  16  40  1   
 31  17  41  1   
 32  17  42  1   
 33  17  43  1   
 34  18  22  1   
 35  18  23  ar  
 36  19  24  ar  
 37  19  44  1   
 38  20  25  ar  
 39  21  25  ar  
 40  21  45  1   
 41  22  26  1   
 42  22  27  1   
 43  23  28  ar  
 44  23  46  1   
 45  24  28  ar  
 46  24  47  1   
 47  25  48  1   
 48  26  29  1   
 49  26  49  1   
 50  26  50  1   
 51  27  30  1   
 52  27  51  1   
 53  27  52  1   
 54  28  53  1   
 55  29  31  1   
 56  29  54  1   
 57  29  55  1   
 58  30  31  1   
 59  30  56  1   
 60  30  57  1   
@<TRIPOS>SUBSTRUCTURE
  1 ****   1 GROUP 4 **** **** 0

# MOE 2024.06 (io_trps.svl 2023.06)
