@<TRIPOS>MOLECULE
N-tert-Butyl-2-[5-propyl-4-(tetrahydro-furan-2-ylmethyl)-4H-[1,2,4]triazol-3-ylsulfanyl]-acetamide
51 52 1 0 0 
SMALL
USER_CHARGES


@<TRIPOS>ATOM
  1 S       -0.2320    -0.0200     0.4390 S.3   1 <1>  -0.2860 
  2 C       -1.6770    -0.9360     0.9870 C.2   1 <1>   0.2420 
  3 C        1.0580    -0.5210     1.6830 C.3   1 <1>   0.1310 
  4 N       -1.6580    -1.7730     1.9610 N.2   1 <1>  -0.3380 
  5 N       -2.8720    -0.8050     0.4140 N.pl3 1 <1>   0.0480 
  6 C        2.4140     0.0780     1.3470 C.2   1 <1>   0.5690 
  7 N       -2.9080    -2.2360     2.0610 N.2   1 <1>  -0.3380 
  8 C       -3.6110    -1.6540     1.1450 C.2   1 <1>   0.0060 
  9 C       -3.2380     0.0590    -0.7290 C.3   1 <1>   0.0960 
 10 O        3.1620     0.3360     2.2590 O.2   1 <1>  -0.5700 
 11 N        2.7370     0.2850     0.0390 N.am  1 <1>  -0.7300 
 12 C       -5.0950    -1.9050     0.9340 C.3   1 <1>   0.0200 
 13 C       -3.5470     1.4840    -0.2630 C.3   1 <1>   0.2000 
 14 C        3.9630     0.8410    -0.5370 C.3   1 <1>   0.3000 
 15 C       -5.3300    -2.9370    -0.1780 C.3   1 <1>  -0.1600 
 16 O       -4.6920     1.4890     0.5180 O.3   1 <1>  -0.5600 
 17 C       -3.8710     2.4510    -1.3930 C.3   1 <1>  -0.1600 
 18 C        5.1540    -0.0440    -0.1680 C.3   1 <1>  -0.2400 
 19 C        4.1590     2.2750    -0.0460 C.3   1 <1>  -0.2400 
 20 C        3.7720     0.8380    -2.0520 C.3   1 <1>  -0.2400 
 21 C       -6.8240    -3.1860    -0.4090 C.3   1 <1>  -0.2400 
 22 C       -5.2260     2.7720     0.5680 C.3   1 <1>   0.1200 
 23 C       -4.7950     3.4580    -0.7260 C.3   1 <1>  -0.1600 
 24 H        1.1110    -1.5940     1.6770 H     1 <1>   0.0800 
 25 H        0.7220    -0.1790     2.6440 H     1 <1>   0.0800 
 26 H       -4.0940    -0.3510    -1.2320 H     1 <1>   0.0800 
 27 H       -2.4180     0.0770    -1.4220 H     1 <1>   0.0800 
 28 H        2.0170     0.0870    -0.6550 H     1 <1>   0.3700 
 29 H       -5.5910    -0.9810     0.6980 H     1 <1>   0.0800 
 30 H       -5.5140    -2.2720     1.8540 H     1 <1>   0.0800 
 31 H       -2.7380     1.8730     0.3340 H     1 <1>   0.0800 
 32 H       -4.8510    -3.8610     0.0980 H     1 <1>   0.0800 
 33 H       -4.8810    -2.5950    -1.0940 H     1 <1>   0.0800 
 34 H       -4.3950     1.9380    -2.1810 H     1 <1>   0.0800 
 35 H       -2.9840     2.9080    -1.7950 H     1 <1>   0.0800 
 36 H        5.3240    -0.0280     0.8930 H     1 <1>   0.0800 
 37 H        6.0450     0.3150    -0.6500 H     1 <1>   0.0800 
 38 H        4.9810    -1.0580    -0.4790 H     1 <1>   0.0800 
 39 H        3.2960     2.8730    -0.2740 H     1 <1>   0.0800 
 40 H        5.0170     2.7160    -0.5210 H     1 <1>   0.0800 
 41 H        4.3250     2.2920     1.0160 H     1 <1>   0.0800 
 42 H        2.9310     1.4490    -2.3290 H     1 <1>   0.0800 
 43 H        3.6190    -0.1630    -2.4130 H     1 <1>   0.0800 
 44 H        4.6470     1.2370    -2.5340 H     1 <1>   0.0800 
 45 H       -7.2860    -3.5570     0.4890 H     1 <1>   0.0800 
 46 H       -6.9580    -3.9160    -1.1870 H     1 <1>   0.0800 
 47 H       -7.3180    -2.2770    -0.7030 H     1 <1>   0.0800 
 48 H       -4.8200     3.2710     1.4320 H     1 <1>   0.0800 
 49 H       -6.2970     2.6960     0.6550 H     1 <1>   0.0800 
 50 H       -5.6460     3.6850    -1.3450 H     1 <1>   0.0800 
 51 H       -4.2770     4.3730    -0.4950 H     1 <1>   0.0800 
@<TRIPOS>BOND
  1   1   2  1   
  2   1   3  1   
  3   2   4  2   
  4   2   5  1   
  5   3   6  1   
  6   3  24  1   
  7   3  25  1   
  8   4   7  1   
  9   5   8  1   
 10   5   9  1   
 11   6  10  2   
 12   6  11  am  
 13   7   8  2   
 14   8  12  1   
 15   9  13  1   
 16   9  26  1   
 17   9  27  1   
 18  11  14  1   
 19  11  28  1   
 20  12  15  1   
 21  12  29  1   
 22  12  30  1   
 23  13  16  1   
 24  13  17  1   
 25  13  31  1   
 26  14  18  1   
 27  14  19  1   
 28  14  20  1   
 29  15  21  1   
 30  15  32  1   
 31  15  33  1   
 32  16  22  1   
 33  17  23  1   
 34  17  34  1   
 35  17  35  1   
 36  18  36  1   
 37  18  37  1   
 38  18  38  1   
 39  19  39  1   
 40  19  40  1   
 41  19  41  1   
 42  20  42  1   
 43  20  43  1   
 44  20  44  1   
 45  21  45  1   
 46  21  46  1   
 47  21  47  1   
 48  22  23  1   
 49  22  48  1   
 50  22  49  1   
 51  23  50  1   
 52  23  51  1   
@<TRIPOS>SUBSTRUCTURE
  1 ****   1 GROUP 4 **** **** 0

# MOE 2024.06 (io_trps.svl 2023.06)
