@<TRIPOS>MOLECULE
NONAME
35 38 1 0 0 
SMALL
USER_CHARGES


@<TRIPOS>ATOM
  1 O       -0.0130    -0.3160    -1.1720 O.2   1 <1>  -0.5700 
  2 C       -0.3420    -1.2430    -0.4770 C.2   1 <1>   0.5690 
  3 N        0.4600    -2.2870    -0.0770 N.am  1 <1>  -0.2370 
  4 C       -1.7550    -1.3660     0.0700 C.3   1 <1>  -0.0190 
  5 C        1.8090    -2.4350    -0.4620 C.ar  1 <1>   0.1170 
  6 C       -0.2110    -3.2020     0.7000 C.2   1 <1>   0.5690 
  7 C       -1.6580    -2.8010     0.9340 C.3   1 <1>  -0.0190 
  8 C       -2.9480    -1.5520    -1.0570 C.3   1 <1>   0.0580 
  9 C        2.8240    -1.6500     0.0930 C.ar  1 <1>  -0.1440 
 10 C        2.1350    -3.3930    -1.4180 C.ar  1 <1>  -0.1500 
 11 O        0.2460    -4.2170     1.1590 O.2   1 <1>  -0.5700 
 12 C       -2.7970    -3.8250     0.3140 C.3   1 <1>   0.0580 
 13 C       -4.1180    -2.6090    -1.4580 C.2   1 <1>  -0.2880 
 14 C       -2.8310    -2.6820    -0.3660 C.3   1 <1>  -0.1600 
 15 C        4.1340    -1.8330    -0.3230 C.ar  1 <1>  -0.1500 
 16 C        2.5280    -0.5930     1.1480 C.3   1 <1>  -0.0970 
 17 C        3.4430    -3.5730    -1.8280 C.ar  1 <1>  -0.1500 
 18 C       -4.0380    -3.8040    -0.7370 C.2   1 <1>  -0.2880 
 19 C        4.4390    -2.7870    -1.2760 C.ar  1 <1>   0.0820 
 20 O        5.7160    -2.9450    -1.6600 O.3   1 <1>  -0.5320 
 21 H       -1.9560    -0.5280     0.7160 H     1 <1>   0.0800 
 22 H       -1.8130    -2.6390     1.9880 H     1 <1>   0.0800 
 23 H       -2.4320    -1.4140    -1.9980 H     1 <1>   0.0800 
 24 H        1.3580    -4.0040    -1.8410 H     1 <1>   0.1500 
 25 H       -2.2160    -4.6680    -0.0360 H     1 <1>   0.0800 
 26 H       -4.8320    -2.3240    -2.2130 H     1 <1>   0.1500 
 27 H       -3.5840    -2.2240     0.4780 H     1 <1>   0.0800 
 28 H       -2.0780    -3.1080    -1.1550 H     1 <1>   0.0800 
 29 H        4.9320    -1.2400     0.0850 H     1 <1>   0.1500 
 30 H        1.9510    -1.0170     1.9500 H     1 <1>   0.0800 
 31 H        1.9780     0.2200     0.7080 H     1 <1>   0.0800 
 32 H        3.4380    -0.1990     1.5630 H     1 <1>   0.0800 
 33 H        3.6780    -4.3170    -2.5670 H     1 <1>   0.1500 
 34 H       -4.6760    -4.6710    -0.7980 H     1 <1>   0.1500 
 35 H        5.8260    -3.6420    -2.3290 H     1 <1>   0.4500 
@<TRIPOS>BOND
  1   1   2  2   
  2   2   3  am  
  3   2   4  1   
  4   3   5  1   
  5   3   6  am  
  6   4   7  1   
  7   4   8  1   
  8   4  21  1   
  9   5   9  ar  
 10   5  10  ar  
 11   6   7  1   
 12   6  11  2   
 13   7  12  1   
 14   7  22  1   
 15   8  13  1   
 16   8  14  1   
 17   8  23  1   
 18   9  15  ar  
 19   9  16  1   
 20  10  17  ar  
 21  10  24  1   
 22  12  14  1   
 23  12  18  1   
 24  12  25  1   
 25  13  18  2   
 26  13  26  1   
 27  14  27  1   
 28  14  28  1   
 29  15  19  ar  
 30  15  29  1   
 31  16  30  1   
 32  16  31  1   
 33  16  32  1   
 34  17  19  ar  
 35  17  33  1   
 36  18  34  1   
 37  19  20  1   
 38  20  35  1   
@<TRIPOS>SUBSTRUCTURE
  1 ****   3 GROUP 4 **** **** 0

# MOE 2024.06 (io_trps.svl 2023.06)
