@<TRIPOS>MOLECULE
NONAME
44 47 1 0 0 
SMALL
USER_CHARGES


@<TRIPOS>ATOM
  1 O       -3.1840     2.4370    -0.3780 O.3   1 <1>  -0.2800 
  2 C       -2.9960     1.9860     0.8480 C.2   1 <1>  -0.0400 
  3 C       -2.1850     3.2490    -0.6620 C.2   1 <1>  -0.0100 
  4 C       -1.8670     2.5100     1.3740 C.2   1 <1>  -0.1500 
  5 C       -4.0020     1.0210     1.4490 C.3   1 <1>   0.2760 
  6 C       -1.3340     3.3400     0.3810 C.2   1 <1>  -0.1500 
  7 N       -3.8600    -0.3260     0.8630 N.pl3 1 <1>   0.3140 
  8 N       -3.2210    -1.3010     1.4780 N.2   1 <1>  -0.4180 
  9 C       -4.3290    -0.8190    -0.2710 C.2   1 <1>   0.0060 
 10 N       -3.3080    -2.3320     0.7170 N.2   1 <1>   0.0000 
 11 N       -4.0000    -2.0500    -0.3800 N.2   1 <1>  -0.3380 
 12 C       -5.1510    -0.0380    -1.2810 C.3   1 <1>   0.2900 
 13 N       -6.3680     0.5050    -0.6500 N.3   1 <1>  -0.8100 
 14 C       -7.3250    -0.5850    -0.3270 C.3   1 <1>   0.1100 
 15 C       -7.0230     1.4880    -1.5430 C.3   1 <1>   0.1100 
 16 C       -8.6230    -0.0540     0.3090 C.3   1 <1>   0.2090 
 17 C       -8.3110     2.0660    -0.9260 C.3   1 <1>   0.2090 
 18 N       -9.2620     0.9790    -0.5570 N.pl3 1 <1>  -0.8380 
 19 C      -10.5400     1.3790    -0.1890 C.ar  1 <1>   0.1000 
 20 C      -11.6200     1.0440    -0.9930 C.ar  1 <1>  -0.1500 
 21 C      -10.7720     2.1110     0.9710 C.ar  1 <1>  -0.1500 
 22 C      -12.9040     1.4280    -0.6520 C.ar  1 <1>  -0.1500 
 23 C      -12.0540     2.4980     1.3170 C.ar  1 <1>  -0.1500 
 24 C      -13.1230     2.1570     0.5050 C.ar  1 <1>  -0.1500 
 25 H       -2.1560     3.7220    -1.6290 H     1 <1>   0.1500 
 26 H       -1.4310     2.3460     2.3450 H     1 <1>   0.1500 
 27 H       -5.0000     1.3820     1.2920 H     1 <1>   0.0800 
 28 H       -3.8340     0.9430     2.5060 H     1 <1>   0.0800 
 29 H       -0.4280     3.9150     0.4640 H     1 <1>   0.1500 
 30 H       -5.4150    -0.6790    -2.1040 H     1 <1>   0.0800 
 31 H       -4.5490     0.7650    -1.6680 H     1 <1>   0.0800 
 32 H       -6.8690    -1.2800     0.3570 H     1 <1>   0.0800 
 33 H       -7.5820    -1.1240    -1.2230 H     1 <1>   0.0800 
 34 H       -7.2750     1.0210    -2.4810 H     1 <1>   0.0800 
 35 H       -6.3440     2.2980    -1.7420 H     1 <1>   0.0800 
 36 H       -8.3990     0.3710     1.2720 H     1 <1>   0.0800 
 37 H       -9.3110    -0.8680     0.4530 H     1 <1>   0.0800 
 38 H       -8.7850     2.7240    -1.6340 H     1 <1>   0.0800 
 39 H       -8.0590     2.6390    -0.0510 H     1 <1>   0.0800 
 40 H      -11.4380     0.4790    -1.8880 H     1 <1>   0.1500 
 41 H       -9.9430     2.3740     1.5990 H     1 <1>   0.1500 
 42 H      -13.7320     1.1610    -1.2860 H     1 <1>   0.1500 
 43 H      -12.2230     3.0640     2.2160 H     1 <1>   0.1500 
 44 H      -14.1210     2.4570     0.7720 H     1 <1>   0.1500 
@<TRIPOS>BOND
  1   1   2  1   
  2   1   3  1   
  3   2   4  2   
  4   2   5  1   
  5   3   6  2   
  6   3  25  1   
  7   4   6  1   
  8   4  26  1   
  9   5   7  1   
 10   5  27  1   
 11   5  28  1   
 12   6  29  1   
 13   7   8  1   
 14   7   9  1   
 15   8  10  2   
 16   9  11  2   
 17   9  12  1   
 18  10  11  1   
 19  12  13  1   
 20  12  30  1   
 21  12  31  1   
 22  13  14  1   
 23  13  15  1   
 24  14  16  1   
 25  14  32  1   
 26  14  33  1   
 27  15  17  1   
 28  15  34  1   
 29  15  35  1   
 30  16  18  1   
 31  16  36  1   
 32  16  37  1   
 33  17  18  1   
 34  17  38  1   
 35  17  39  1   
 36  18  19  1   
 37  19  20  ar  
 38  19  21  ar  
 39  20  22  ar  
 40  20  40  1   
 41  21  23  ar  
 42  21  41  1   
 43  22  24  ar  
 44  22  42  1   
 45  23  24  ar  
 46  23  43  1   
 47  24  44  1   
@<TRIPOS>SUBSTRUCTURE
  1 ****  13 GROUP 4 **** **** 0

# MOE 2024.06 (io_trps.svl 2023.06)
