@<TRIPOS>MOLECULE
NONAME
46 49 1 0 0 
SMALL
USER_CHARGES


@<TRIPOS>ATOM
  1 S       -0.5190    -0.5120    -0.6690 S.o2  1 <1>   1.4470 
  2 O       -0.2450     0.8650    -0.3230 O.2   1 <1>  -0.6500 
  3 O       -0.3670    -0.9470    -2.0400 O.2   1 <1>  -0.6500 
  4 N       -2.1310    -0.8240    -0.2400 N.am  1 <1>  -0.8490 
  5 C        0.4210    -1.5990     0.4430 C.ar  1 <1>  -0.0090 
  6 C       -2.5660    -2.1540    -0.6790 C.3   1 <1>   0.1960 
  7 C       -3.0220     0.2180    -0.7610 C.3   1 <1>   0.1960 
  8 C        1.1660    -2.6670    -0.0460 C.ar  1 <1>  -0.1500 
  9 C        0.4050    -1.3940     1.8150 C.ar  1 <1>  -0.1500 
 10 C       -3.9590    -2.4550    -0.1250 C.3   1 <1>  -0.1600 
 11 C       -4.4400     0.0110    -0.2230 C.3   1 <1>  -0.1600 
 12 C        1.8780    -3.5190     0.7950 C.ar  1 <1>  -0.1430 
 13 C        1.1050    -2.2240     2.6710 C.ar  1 <1>  -0.1500 
 14 C       -4.9630    -1.3870    -0.5750 C.3   1 <1>   0.1000 
 15 C        1.8370    -3.2810     2.1650 C.ar  1 <1>  -0.1500 
 16 C        2.6840    -4.6840     0.1970 C.3   1 <1>   1.1640 
 17 C       -6.3420    -1.6340     0.0190 C.2   1 <1>   0.0060 
 18 F        3.6910    -4.2590    -0.5530 F     1 <1>  -0.3400 
 19 F        1.9350    -5.4540    -0.5830 F     1 <1>  -0.3400 
 20 F        3.2120    -5.4870     1.1130 F     1 <1>  -0.3400 
 21 N       -7.3860    -1.8860    -0.6910 N.2   1 <1>  -0.5650 
 22 N       -6.5840    -1.6100     1.3560 N.pl3 1 <1>   0.0330 
 23 C       -8.3880    -2.0390     0.2190 C.ar  1 <1>   0.2270 
 24 C       -7.9060    -1.8710     1.5030 C.ar  1 <1>  -0.1520 
 25 C       -9.7370    -2.3250     0.0150 C.ar  1 <1>  -0.1500 
 26 C       -8.7450    -1.9800     2.6140 C.ar  1 <1>  -0.1500 
 27 C      -10.5740    -2.4350     1.1050 C.ar  1 <1>  -0.1500 
 28 C      -10.0770    -2.2630     2.4030 C.ar  1 <1>  -0.1500 
 29 H       -1.8800    -2.9020    -0.3170 H     1 <1>   0.0800 
 30 H       -2.5810    -2.2040    -1.7560 H     1 <1>   0.0800 
 31 H       -3.0230     0.1970    -1.8390 H     1 <1>   0.0800 
 32 H       -2.6770     1.1890    -0.4460 H     1 <1>   0.0800 
 33 H        1.1900    -2.8340    -1.1120 H     1 <1>   0.1500 
 34 H       -0.1640    -0.5710     2.2160 H     1 <1>   0.1500 
 35 H       -3.9040    -2.4930     0.9480 H     1 <1>   0.0800 
 36 H       -4.2850    -3.4180    -0.4760 H     1 <1>   0.0800 
 37 H       -5.0940     0.7530    -0.6470 H     1 <1>   0.0800 
 38 H       -4.4260     0.1520     0.8420 H     1 <1>   0.0800 
 39 H        1.0810    -2.0450     3.7340 H     1 <1>   0.1500 
 40 H       -5.0560    -1.4470    -1.6470 H     1 <1>   0.0800 
 41 H        2.3760    -3.9140     2.8510 H     1 <1>   0.1500 
 42 H       -5.9100    -1.4300     2.1020 H     1 <1>   0.2700 
 43 H      -10.0890    -2.4520    -0.9910 H     1 <1>   0.1500 
 44 H       -8.3550    -1.8460     3.6070 H     1 <1>   0.1500 
 45 H      -11.6180    -2.6550     0.9650 H     1 <1>   0.1500 
 46 H      -10.7510    -2.3540     3.2370 H     1 <1>   0.1500 
@<TRIPOS>BOND
  1   1   2  2   
  2   1   3  2   
  3   1   4  am  
  4   1   5  1   
  5   4   6  1   
  6   4   7  1   
  7   5   8  ar  
  8   5   9  ar  
  9   6  10  1   
 10   6  29  1   
 11   6  30  1   
 12   7  11  1   
 13   7  31  1   
 14   7  32  1   
 15   8  12  ar  
 16   8  33  1   
 17   9  13  ar  
 18   9  34  1   
 19  10  14  1   
 20  10  35  1   
 21  10  36  1   
 22  11  14  1   
 23  11  37  1   
 24  11  38  1   
 25  12  15  ar  
 26  12  16  1   
 27  13  15  ar  
 28  13  39  1   
 29  14  17  1   
 30  14  40  1   
 31  15  41  1   
 32  16  18  1   
 33  16  19  1   
 34  16  20  1   
 35  17  21  2   
 36  17  22  1   
 37  21  23  1   
 38  22  24  1   
 39  22  42  1   
 40  23  24  ar  
 41  23  25  ar  
 42  24  26  ar  
 43  25  27  ar  
 44  25  43  1   
 45  26  28  ar  
 46  26  44  1   
 47  27  28  ar  
 48  27  45  1   
 49  28  46  1   
@<TRIPOS>SUBSTRUCTURE
  1 ****   6 GROUP 4 **** **** 0

# MOE 2024.06 (io_trps.svl 2023.06)
