@<TRIPOS>MOLECULE
N-Cyclohexyl-2-[4-ethyl-5-(pyrimidin-2-ylsulfanylmethyl)-4H-[1,2,4]triazol-3-ylsulfanyl]-acetamide
50 52 1 0 0 
SMALL
USER_CHARGES


@<TRIPOS>ATOM
  1 S        0.6460     0.1190     0.7240 S.3   1 <1>  -0.3320 
  2 C       -1.0810     0.5350     0.8570 C.ar  1 <1>   0.7220 
  3 C        1.1650     0.9110    -0.8630 C.3   1 <1>   0.2500 
  4 N       -1.5730     1.2790    -0.1220 N.ar  1 <1>  -0.6200 
  5 N       -1.6840     0.0570     1.9320 N.ar  1 <1>  -0.6200 
  6 C        2.6570     0.7110    -1.0660 C.2   1 <1>   0.0060 
  7 C       -2.8500     1.5670     0.0060 C.ar  1 <1>   0.1600 
  8 C       -2.9580     0.3650     2.0250 C.ar  1 <1>   0.1600 
  9 N        3.1550     0.0220    -2.0410 N.2   1 <1>  -0.3380 
 10 N        3.6160     1.2350    -0.2840 N.pl3 1 <1>   0.0480 
 11 C       -3.5960     1.1280     1.0750 C.ar  1 <1>  -0.1500 
 12 N        4.4850     0.0700    -1.9270 N.2   1 <1>  -0.3380 
 13 C        4.7180     0.7900    -0.8880 C.2   1 <1>   0.2430 
 14 C        3.5160     2.1030     0.9130 C.3   1 <1>   0.0960 
 15 S        6.3750     1.1690    -0.3030 S.3   1 <1>  -0.2860 
 16 C        3.4500     3.5780     0.5060 C.3   1 <1>  -0.2400 
 17 C        7.4530     0.3360    -1.5710 C.3   1 <1>   0.1310 
 18 C        8.9290     0.4810    -1.2360 C.2   1 <1>   0.5690 
 19 O        9.7250     0.3790    -2.1380 O.2   1 <1>  -0.5700 
 20 N        9.3010     0.7060     0.0560 N.am  1 <1>  -0.7300 
 21 C       10.6600     0.8810     0.6100 C.3   1 <1>   0.2200 
 22 C       11.3380     2.1220     0.0160 C.3   1 <1>  -0.1600 
 23 C       11.5060    -0.3820     0.4020 C.3   1 <1>  -0.1600 
 24 C       12.7490     2.3060     0.5950 C.3   1 <1>  -0.1600 
 25 C       12.9170    -0.1980     0.9820 C.3   1 <1>  -0.1600 
 26 C       13.6000     1.0440     0.3920 C.3   1 <1>  -0.1600 
 27 H        0.9160     1.9550    -0.8070 H     1 <1>   0.0800 
 28 H        0.6030     0.4400    -1.6500 H     1 <1>   0.0800 
 29 H       -3.3130     2.1670    -0.7610 H     1 <1>   0.1500 
 30 H       -3.5030     0.0000     2.8800 H     1 <1>   0.1500 
 31 H       -4.6380     1.3710     1.1650 H     1 <1>   0.1500 
 32 H        4.3740     1.9330     1.5390 H     1 <1>   0.0800 
 33 H        2.6410     1.8370     1.4760 H     1 <1>   0.0800 
 34 H        4.3350     3.8560    -0.0390 H     1 <1>   0.0800 
 35 H        3.3870     4.1940     1.3860 H     1 <1>   0.0800 
 36 H        2.5830     3.7660    -0.1020 H     1 <1>   0.0800 
 37 H        7.2390     0.7930    -2.5200 H     1 <1>   0.0800 
 38 H        7.1770    -0.7010    -1.5970 H     1 <1>   0.0800 
 39 H        8.5500     0.8290     0.7370 H     1 <1>   0.3700 
 40 H       10.5610     1.0370     1.6710 H     1 <1>   0.0800 
 41 H       10.7450     2.9930     0.2280 H     1 <1>   0.0800 
 42 H       11.4150     2.0150    -1.0520 H     1 <1>   0.0800 
 43 H       11.5920    -0.5910    -0.6500 H     1 <1>   0.0800 
 44 H       11.0280    -1.2190     0.8770 H     1 <1>   0.0800 
 45 H       12.6800     2.5240     1.6470 H     1 <1>   0.0800 
 46 H       13.2270     3.1430     0.1150 H     1 <1>   0.0800 
 47 H       13.5100    -1.0700     0.7660 H     1 <1>   0.0800 
 48 H       12.8550    -0.0970     2.0520 H     1 <1>   0.0800 
 49 H       14.5630     1.1800     0.8520 H     1 <1>   0.0800 
 50 H       13.7590     0.8920    -0.6630 H     1 <1>   0.0800 
@<TRIPOS>BOND
  1   1   2  1   
  2   1   3  1   
  3   2   4  ar  
  4   2   5  ar  
  5   3   6  1   
  6   3  27  1   
  7   3  28  1   
  8   4   7  ar  
  9   5   8  ar  
 10   6   9  2   
 11   6  10  1   
 12   7  11  ar  
 13   7  29  1   
 14   8  11  ar  
 15   8  30  1   
 16   9  12  1   
 17  10  13  1   
 18  10  14  1   
 19  11  31  1   
 20  12  13  2   
 21  13  15  1   
 22  14  16  1   
 23  14  32  1   
 24  14  33  1   
 25  15  17  1   
 26  16  34  1   
 27  16  35  1   
 28  16  36  1   
 29  17  18  1   
 30  17  37  1   
 31  17  38  1   
 32  18  19  2   
 33  18  20  am  
 34  20  21  1   
 35  20  39  1   
 36  21  22  1   
 37  21  23  1   
 38  21  40  1   
 39  22  24  1   
 40  22  41  1   
 41  22  42  1   
 42  23  25  1   
 43  23  43  1   
 44  23  44  1   
 45  24  26  1   
 46  24  45  1   
 47  24  46  1   
 48  25  26  1   
 49  25  47  1   
 50  25  48  1   
 51  26  49  1   
 52  26  50  1   
@<TRIPOS>SUBSTRUCTURE
  1 ****  13 GROUP 4 **** **** 0

# MOE 2024.06 (io_trps.svl 2023.06)
