@<TRIPOS>MOLECULE
NONAME
48 50 1 0 0 
SMALL
USER_CHARGES


@<TRIPOS>ATOM
  1 S        1.1030     0.2290    -0.6070 S.o2  1 <1>   1.4470 
  2 O        2.2900    -0.5980    -0.6490 O.2   1 <1>  -0.6500 
  3 O        0.9900     1.2810    -1.5940 O.2   1 <1>  -0.6500 
  4 N        1.1160     0.9890     0.9190 N.am  1 <1>  -0.8490 
  5 C       -0.3990    -0.7900    -0.5740 C.ar  1 <1>  -0.0090 
  6 C        2.2240     0.5810     1.8040 C.3   1 <1>   0.1960 
  7 C        0.9660     2.4620     0.9150 C.3   1 <1>   0.1960 
  8 C       -1.6320    -0.2640    -0.9360 C.ar  1 <1>  -0.1500 
  9 C       -0.3630    -2.1160    -0.1610 C.ar  1 <1>  -0.1500 
 10 C        3.6010     1.1300     1.3380 C.3   1 <1>   0.3430 
 11 C        2.3000     3.2520     1.0260 C.3   1 <1>   0.3430 
 12 C       -2.7820    -1.0330    -0.8910 C.ar  1 <1>  -0.1500 
 13 C       -1.5130    -2.8850    -0.1170 C.ar  1 <1>  -0.1500 
 14 N        3.5560     2.4870     0.6560 N.4   1 <1>  -0.9590 
 15 C       -2.7460    -2.3600    -0.4840 C.ar  1 <1>  -0.0090 
 16 C        3.8160     2.3500    -0.8160 C.3   1 <1>   0.4230 
 17 S       -4.2580    -3.3630    -0.4040 S.o2  1 <1>   1.4470 
 18 C        5.2920     2.0030    -1.0170 C.3   1 <1>  -0.1600 
 19 C        3.7300     3.6890    -1.5500 C.3   1 <1>  -0.1600 
 20 O       -3.9720    -4.7750    -0.4500 O.2   1 <1>  -0.6500 
 21 O       -5.3230    -2.7980    -1.1940 O.2   1 <1>  -0.6500 
 22 N       -4.8050    -3.1540     1.1420 N.am  1 <1>  -0.9780 
 23 C        6.0570     3.3300    -0.9160 C.3   1 <1>  -0.1600 
 24 C        5.0290     4.4290    -1.2150 C.3   1 <1>  -0.1600 
 25 H        2.0250     0.9430     2.7980 H     1 <1>   0.0800 
 26 H        2.2680    -0.4940     1.8710 H     1 <1>   0.0800 
 27 H        0.3640     2.7350     1.7650 H     1 <1>   0.0800 
 28 H        0.4130     2.8000     0.0570 H     1 <1>   0.0800 
 29 H       -1.6980     0.7620    -1.2610 H     1 <1>   0.1500 
 30 H        0.5770    -2.5590     0.1270 H     1 <1>   0.1500 
 31 H        4.0290     0.4060     0.6640 H     1 <1>   0.0800 
 32 H        4.2510     1.1780     2.1960 H     1 <1>   0.0800 
 33 H        2.2210     4.1620     0.4600 H     1 <1>   0.0800 
 34 H        2.3920     3.5530     2.0560 H     1 <1>   0.0800 
 35 H       -3.7250    -0.5960    -1.1800 H     1 <1>   0.1500 
 36 H       -1.4540    -3.9120     0.2060 H     1 <1>   0.1500 
 37 H        4.3610     3.0370     0.9810 H     1 <1>   0.4500 
 38 H        3.1780     1.6110    -1.2660 H     1 <1>   0.0800 
 39 H        5.4060     1.6230    -2.0180 H     1 <1>   0.0800 
 40 H        5.6740     1.2570    -0.3450 H     1 <1>   0.0800 
 41 H        3.7320     3.4750    -2.6060 H     1 <1>   0.0800 
 42 H        2.8460     4.2650    -1.3600 H     1 <1>   0.0800 
 43 H       -4.8930    -4.1070     1.4860 H     1 <1>   0.4200 
 44 H       -5.7530    -2.8130     1.0070 H     1 <1>   0.4200 
 45 H        6.8680     3.3540    -1.6260 H     1 <1>   0.0800 
 46 H        6.4650     3.4640     0.0720 H     1 <1>   0.0800 
 47 H        4.8940     5.0550    -0.3500 H     1 <1>   0.0800 
 48 H        5.3440     5.0470    -2.0400 H     1 <1>   0.0800 
@<TRIPOS>BOND
  1   1   2  2   
  2   1   3  2   
  3   1   4  am  
  4   1   5  1   
  5   4   6  1   
  6   4   7  1   
  7   5   8  ar  
  8   5   9  ar  
  9   6  10  1   
 10   6  25  1   
 11   6  26  1   
 12   7  11  1   
 13   7  27  1   
 14   7  28  1   
 15   8  12  ar  
 16   8  29  1   
 17   9  13  ar  
 18   9  30  1   
 19  10  14  1   
 20  10  31  1   
 21  10  32  1   
 22  11  14  1   
 23  11  33  1   
 24  11  34  1   
 25  12  15  ar  
 26  12  35  1   
 27  13  15  ar  
 28  13  36  1   
 29  14  16  1   
 30  14  37  1   
 31  15  17  1   
 32  16  18  1   
 33  16  19  1   
 34  16  38  1   
 35  17  20  2   
 36  17  21  2   
 37  17  22  am  
 38  18  23  1   
 39  18  39  1   
 40  18  40  1   
 41  19  24  1   
 42  19  41  1   
 43  19  42  1   
 44  22  43  1   
 45  22  44  1   
 46  23  24  1   
 47  23  45  1   
 48  23  46  1   
 49  24  47  1   
 50  24  48  1   
@<TRIPOS>SUBSTRUCTURE
  1 ****   1 GROUP 4 **** **** 0

# MOE 2024.06 (io_trps.svl 2023.06)
