@<TRIPOS>MOLECULE
NONAME
56 59 1 0 0 
SMALL
USER_CHARGES


@<TRIPOS>ATOM
  1 F        1.9480     0.3180    -0.2320 F     1 <1>  -0.1900 
  2 C        2.6780    -0.7630    -0.2080 C.ar  1 <1>   0.1900 
  3 C        2.1600    -1.9070     0.3670 C.ar  1 <1>  -0.1500 
  4 C        3.9440    -0.7280    -0.7580 C.ar  1 <1>  -0.1500 
  5 C        2.9410    -3.0500     0.3880 C.ar  1 <1>  -0.1500 
  6 C        4.7110    -1.8810    -0.7280 C.ar  1 <1>  -0.1500 
  7 C        4.2270    -3.0620    -0.1590 C.ar  1 <1>   0.0540 
  8 C        5.0370    -4.2630    -0.1370 C.2   1 <1>   0.2350 
  9 N        6.3360    -4.2770     0.0630 N.2   1 <1>  -0.7070 
 10 C        4.5390    -5.5580    -0.3250 C.2   1 <1>  -0.1500 
 11 N        6.6820    -5.5950     0.0250 N.pl3 1 <1>   0.5610 
 12 C        5.6000    -6.3820    -0.2210 C.2   1 <1>  -0.0680 
 13 C        7.9590    -6.0970     0.2000 C.cat 1 <1>   0.3950 
 14 N        5.7890    -7.7550    -0.3130 N.pl3 1 <1>  -0.5840 
 15 N        8.8870    -5.1340     0.3980 N.pl3 1 <1>  -0.1460 
 16 C        8.1100    -7.5070     0.1460 C.2   1 <1>  -0.1240 
 17 C        7.0090    -8.3050    -0.1380 C.2   1 <1>  -0.0380 
 18 C       10.3700    -5.1480     0.5100 C.3   1 <1>   0.1860 
 19 C        9.4670    -8.1670     0.4170 C.3   1 <1>  -0.1020 
 20 C        7.0460    -9.8210    -0.2760 C.3   1 <1>  -0.1020 
 21 C       10.9570    -3.7630     0.1720 C.3   1 <1>  -0.1600 
 22 C       12.4930    -3.7650     0.2600 C.3   1 <1>   0.3430 
 23 N       13.0630    -2.4510    -0.1600 N.4   1 <1>  -0.9590 
 24 C       14.5520    -2.5730    -0.3940 C.3   1 <1>   0.3430 
 25 C       12.8050    -1.3380     0.8330 C.3   1 <1>   0.3430 
 26 C       15.1940    -1.2150    -0.7370 C.3   1 <1>   0.1200 
 27 C       13.5250    -0.0350     0.4330 C.3   1 <1>   0.1200 
 28 O       14.8870    -0.2780     0.2520 O.3   1 <1>  -0.5600 
 29 H        1.1710    -1.8950     0.7870 H     1 <1>   0.1500 
 30 H        4.3130     0.1810    -1.1970 H     1 <1>   0.1500 
 31 H        2.5460    -3.9420     0.8410 H     1 <1>   0.1500 
 32 H        5.6970    -1.8700    -1.1550 H     1 <1>   0.1500 
 33 H        3.5130    -5.8140    -0.5180 H     1 <1>   0.1500 
 34 H        4.9690    -8.3480    -0.5170 H     1 <1>   0.4000 
 35 H        8.4720    -4.1870     0.4480 H     1 <1>   0.4000 
 36 H       10.7700    -5.8820    -0.1690 H     1 <1>   0.0800 
 37 H       10.6390    -5.4240     1.5170 H     1 <1>   0.0800 
 38 H        9.9570    -7.7130     1.2580 H     1 <1>   0.0800 
 39 H       10.0960    -8.1050    -0.4530 H     1 <1>   0.0800 
 40 H        9.3650    -9.2060     0.6720 H     1 <1>   0.0800 
 41 H        6.1920   -10.1780    -0.8240 H     1 <1>   0.0800 
 42 H        7.0380   -10.2810     0.6960 H     1 <1>   0.0800 
 43 H        7.9220   -10.1410    -0.8110 H     1 <1>   0.0800 
 44 H       10.5630    -3.0390     0.8630 H     1 <1>   0.0800 
 45 H       10.6690    -3.4970    -0.8310 H     1 <1>   0.0800 
 46 H       12.8800    -4.5380    -0.3860 H     1 <1>   0.0800 
 47 H       12.8070    -3.9890     1.2690 H     1 <1>   0.0800 
 48 H       12.6530    -2.1630    -1.0590 H     1 <1>   0.4500 
 49 H       14.7460    -3.2650    -1.1970 H     1 <1>   0.0800 
 50 H       15.0320    -2.9530     0.4930 H     1 <1>   0.0800 
 51 H       13.1610    -1.6280     1.8080 H     1 <1>   0.0800 
 52 H       11.7490    -1.1430     0.9090 H     1 <1>   0.0800 
 53 H       14.8520    -0.8450    -1.6880 H     1 <1>   0.0800 
 54 H       16.2660    -1.3100    -0.7740 H     1 <1>   0.0800 
 55 H       13.4270     0.6980     1.2150 H     1 <1>   0.0800 
 56 H       13.1200     0.3780    -0.4750 H     1 <1>   0.0800 
@<TRIPOS>BOND
  1   1   2  1   
  2   2   3  ar  
  3   2   4  ar  
  4   3   5  ar  
  5   3  29  1   
  6   4   6  ar  
  7   4  30  1   
  8   5   7  ar  
  9   5  31  1   
 10   6   7  ar  
 11   6  32  1   
 12   7   8  1   
 13   8   9  2   
 14   8  10  1   
 15   9  11  1   
 16  10  12  2   
 17  10  33  1   
 18  11  12  1   
 19  11  13  ar  
 20  12  14  1   
 21  13  15  ar  
 22  13  16  1   
 23  14  17  1   
 24  14  34  1   
 25  15  18  1   
 26  15  35  1   
 27  16  17  2   
 28  16  19  1   
 29  17  20  1   
 30  18  21  1   
 31  18  36  1   
 32  18  37  1   
 33  19  38  1   
 34  19  39  1   
 35  19  40  1   
 36  20  41  1   
 37  20  42  1   
 38  20  43  1   
 39  21  22  1   
 40  21  44  1   
 41  21  45  1   
 42  22  23  1   
 43  22  46  1   
 44  22  47  1   
 45  23  24  1   
 46  23  25  1   
 47  23  48  1   
 48  24  26  1   
 49  24  49  1   
 50  24  50  1   
 51  25  27  1   
 52  25  51  1   
 53  25  52  1   
 54  26  28  1   
 55  26  53  1   
 56  26  54  1   
 57  27  28  1   
 58  27  55  1   
 59  27  56  1   
@<TRIPOS>SUBSTRUCTURE
  1 ****  15 GROUP 4 **** **** 0

# MOE 2024.06 (io_trps.svl 2023.06)
