@<TRIPOS>MOLECULE
2146
50 51 1 0 0 
SMALL
USER_CHARGES


@<TRIPOS>ATOM
  1 O        0.4700    -1.6230     1.4350 O.2   1 <1>  -0.5700 
  2 C       -0.0730    -2.6000     0.9800 C.2   1 <1>   0.6590 
  3 O        0.5830    -3.5940     0.3860 O.3   1 <1>  -0.2320 
  4 C       -1.5750    -2.7840     1.0850 C.3   1 <1>   0.1810 
  5 C        1.9170    -3.6590     0.1380 C.ar  1 <1>   0.0830 
  6 O       -2.1860    -2.6420    -0.1850 O.3   1 <1>  -0.3630 
  7 C        2.5740    -4.8740     0.3160 C.ar  1 <1>   0.0830 
  8 C        2.6290    -2.5540    -0.3060 C.ar  1 <1>  -0.1500 
  9 C       -3.5340    -2.6130    -0.1740 C.ar  1 <1>   0.0830 
 10 O        1.8380    -5.9360     0.7490 O.3   1 <1>  -0.3630 
 11 C        3.9370    -4.9560     0.0540 C.ar  1 <1>  -0.1500 
 12 C        3.9830    -2.6530    -0.5600 C.ar  1 <1>  -0.1500 
 13 C       -4.2230    -1.4020    -0.2090 C.ar  1 <1>  -0.1430 
 14 C       -4.2160    -3.8190    -0.1280 C.ar  1 <1>  -0.1500 
 15 C        2.4170    -7.2100     0.9350 C.3   1 <1>   0.0400 
 16 C        4.6770    -3.8550    -0.3870 C.ar  1 <1>   0.0860 
 17 C       -5.6100    -1.4380    -0.1710 C.ar  1 <1>  -0.1500 
 18 C       -3.4880    -0.0580    -0.2850 C.3   1 <1>   0.0630 
 19 C       -5.5980    -3.8410    -0.0960 C.ar  1 <1>  -0.1430 
 20 C        6.0970    -3.9920    -0.6430 C.2   1 <1>   0.4230 
 21 C       -6.2910    -2.6430    -0.1130 C.ar  1 <1>  -0.1500 
 22 C       -3.7300     0.7650     0.9850 C.3   1 <1>  -0.2400 
 23 C       -3.9070     0.7310    -1.5300 C.3   1 <1>  -0.2400 
 24 C       -6.3520    -5.1580    -0.0410 C.3   1 <1>  -0.0970 
 25 O        6.6880    -5.0350    -0.5280 O.2   1 <1>  -0.5700 
 26 C        6.9210    -2.7950    -1.0780 C.3   1 <1>  -0.1790 
 27 H       -1.9840    -2.0380     1.7420 H     1 <1>   0.0800 
 28 H       -1.8000    -3.7630     1.4630 H     1 <1>   0.0800 
 29 H        2.1270    -1.6140    -0.4570 H     1 <1>   0.1500 
 30 H        4.4630    -5.8820     0.1870 H     1 <1>   0.1500 
 31 H        4.4970    -1.7720    -0.9000 H     1 <1>   0.1500 
 32 H       -3.6560    -4.7370    -0.1210 H     1 <1>   0.1500 
 33 H        1.6460    -7.8820     1.2650 H     1 <1>   0.0800 
 34 H        3.1850    -7.1400     1.6840 H     1 <1>   0.0800 
 35 H        2.8210    -7.5510    -0.0020 H     1 <1>   0.0800 
 36 H       -6.1750    -0.5240    -0.1880 H     1 <1>   0.1500 
 37 H       -2.4290    -0.2270    -0.3630 H     1 <1>   0.0800 
 38 H       -7.3670    -2.6410    -0.0850 H     1 <1>   0.1500 
 39 H       -4.7710     1.0150     1.0880 H     1 <1>   0.0800 
 40 H       -3.1580     1.6750     0.9530 H     1 <1>   0.0800 
 41 H       -3.4260     0.2010     1.8490 H     1 <1>   0.0800 
 42 H       -4.9460     1.0040    -1.4850 H     1 <1>   0.0800 
 43 H       -3.7470     0.1310    -2.4090 H     1 <1>   0.0800 
 44 H       -3.3200     1.6270    -1.6160 H     1 <1>   0.0800 
 45 H       -5.7350    -5.9630    -0.3970 H     1 <1>   0.0800 
 46 H       -7.2320    -5.1080    -0.6570 H     1 <1>   0.0800 
 47 H       -6.6460    -5.3670     0.9710 H     1 <1>   0.0800 
 48 H        6.8630    -2.0190    -0.3390 H     1 <1>   0.0800 
 49 H        6.5660    -2.4280    -2.0230 H     1 <1>   0.0800 
 50 H        7.9520    -3.0830    -1.1890 H     1 <1>   0.0800 
@<TRIPOS>BOND
  1   1   2  2   
  2   2   3  1   
  3   2   4  1   
  4   3   5  1   
  5   4   6  1   
  6   4  27  1   
  7   4  28  1   
  8   5   7  ar  
  9   5   8  ar  
 10   6   9  1   
 11   7  10  1   
 12   7  11  ar  
 13   8  12  ar  
 14   8  29  1   
 15   9  13  ar  
 16   9  14  ar  
 17  10  15  1   
 18  11  16  ar  
 19  11  30  1   
 20  12  16  ar  
 21  12  31  1   
 22  13  17  ar  
 23  13  18  1   
 24  14  19  ar  
 25  14  32  1   
 26  15  33  1   
 27  15  34  1   
 28  15  35  1   
 29  16  20  1   
 30  17  21  ar  
 31  17  36  1   
 32  18  22  1   
 33  18  23  1   
 34  18  37  1   
 35  19  21  ar  
 36  19  24  1   
 37  20  25  2   
 38  20  26  1   
 39  21  38  1   
 40  22  39  1   
 41  22  40  1   
 42  22  41  1   
 43  23  42  1   
 44  23  43  1   
 45  23  44  1   
 46  24  45  1   
 47  24  46  1   
 48  24  47  1   
 49  26  48  1   
 50  26  49  1   
 51  26  50  1   
@<TRIPOS>SUBSTRUCTURE
  1 ****   3 GROUP 4 **** **** 0

# MOE 2024.06 (io_trps.svl 2023.06)
