@<TRIPOS>MOLECULE
Cyclopropanecarboxylic acid [3-(3-cyano-6,7-dimethyl-quinolin-2-ylamino)-propyl]-amide
46 48 1 0 0 
SMALL
USER_CHARGES


@<TRIPOS>ATOM
  1 O        0.0960     1.6280     1.6780 O.2   1 <1>  -0.5700 
  2 C        0.0770     2.1890     0.6100 C.2   1 <1>   0.6300 
  3 N       -1.0510     2.3000    -0.1350 N.am  1 <1>  -0.7300 
  4 C        1.3550     2.8120     0.0710 C.3   1 <1>  -0.1000 
  5 C       -2.3740     1.7580     0.2350 C.3   1 <1>   0.1400 
  6 C        1.7630     2.6700    -1.3690 C.3   1 <1>  -0.2000 
  7 C        2.5260     1.9490    -0.3010 C.3   1 <1>  -0.2000 
  8 C       -3.3670     2.9110     0.3570 C.3   1 <1>  -0.1600 
  9 C       -4.7410     2.3940     0.7700 C.3   1 <1>   0.2090 
 10 N       -5.6790     3.5350     0.8230 N.pl3 1 <1>  -0.8690 
 11 C       -7.0470     3.4370     0.6530 C.ar  1 <1>   0.4100 
 12 N       -7.5190     2.2510     0.3770 N.ar  1 <1>  -0.6200 
 13 C       -7.8680     4.5880     0.7820 C.ar  1 <1>   0.0730 
 14 C       -8.8550     2.1180     0.2050 C.ar  1 <1>   0.3100 
 15 C       -7.2710     5.8500     1.0870 C.1   1 <1>   0.4840 
 16 C       -9.2170     4.4630     0.6090 C.ar  1 <1>  -0.1500 
 17 C       -9.7510     3.2000     0.3110 C.ar  1 <1>   0.0000 
 18 C       -9.3790     0.8520    -0.0920 C.ar  1 <1>  -0.1500 
 19 N       -6.7800     6.8490     1.3390 N.1   1 <1>  -0.5570 
 20 C      -11.1240     2.9710     0.1160 C.ar  1 <1>  -0.1500 
 21 C      -10.7220     0.6390    -0.2800 C.ar  1 <1>  -0.1440 
 22 C      -11.6120     1.7220    -0.1740 C.ar  1 <1>  -0.1440 
 23 C      -11.2250    -0.7620    -0.6000 C.3   1 <1>  -0.0970 
 24 C      -13.1080     1.5250    -0.3760 C.3   1 <1>  -0.0970 
 25 H       -0.9970     2.7940    -1.0260 H     1 <1>   0.3700 
 26 H        1.5780     3.7370     0.5720 H     1 <1>   0.1000 
 27 H       -2.3040     1.2320     1.1740 H     1 <1>   0.0800 
 28 H       -2.6970     1.0620    -0.5200 H     1 <1>   0.0800 
 29 H        2.2300     3.5070    -1.8590 H     1 <1>   0.1000 
 30 H        1.1640     2.0790    -2.0400 H     1 <1>   0.1000 
 31 H        2.4170     0.8820    -0.2060 H     1 <1>   0.1000 
 32 H        3.5140     2.2870    -0.0410 H     1 <1>   0.1000 
 33 H       -3.4520     3.4100    -0.5920 H     1 <1>   0.0800 
 34 H       -3.0120     3.6040     1.1000 H     1 <1>   0.0800 
 35 H       -4.6930     1.9270     1.7410 H     1 <1>   0.0800 
 36 H       -5.0870     1.6650     0.0550 H     1 <1>   0.0800 
 37 H       -5.2820     4.4050     1.1910 H     1 <1>   0.4000 
 38 H       -9.8790     5.3060     0.6960 H     1 <1>   0.1500 
 39 H       -8.6750     0.0450    -0.1670 H     1 <1>   0.1500 
 40 H      -11.7920     3.8090     0.2010 H     1 <1>   0.1500 
 41 H      -10.4100    -1.4620    -0.6430 H     1 <1>   0.0800 
 42 H      -11.7220    -0.7680    -1.5530 H     1 <1>   0.0800 
 43 H      -11.9110    -1.0910     0.1580 H     1 <1>   0.0800 
 44 H      -13.6390     2.4530    -0.2590 H     1 <1>   0.0800 
 45 H      -13.4900     0.8260     0.3460 H     1 <1>   0.0800 
 46 H      -13.3010     1.1500    -1.3650 H     1 <1>   0.0800 
@<TRIPOS>BOND
  1   1   2  2   
  2   2   3  am  
  3   2   4  1   
  4   3   5  1   
  5   3  25  1   
  6   4   6  1   
  7   4   7  1   
  8   4  26  1   
  9   5   8  1   
 10   5  27  1   
 11   5  28  1   
 12   6   7  1   
 13   6  29  1   
 14   6  30  1   
 15   7  31  1   
 16   7  32  1   
 17   8   9  1   
 18   8  33  1   
 19   8  34  1   
 20   9  10  1   
 21   9  35  1   
 22   9  36  1   
 23  10  11  1   
 24  10  37  1   
 25  11  12  ar  
 26  11  13  ar  
 27  12  14  ar  
 28  13  15  1   
 29  13  16  ar  
 30  14  17  ar  
 31  14  18  ar  
 32  15  19  3   
 33  16  17  ar  
 34  16  38  1   
 35  17  20  ar  
 36  18  21  ar  
 37  18  39  1   
 38  20  22  ar  
 39  20  40  1   
 40  21  22  ar  
 41  21  23  1   
 42  22  24  1   
 43  23  41  1   
 44  23  42  1   
 45  23  43  1   
 46  24  44  1   
 47  24  45  1   
 48  24  46  1   
@<TRIPOS>SUBSTRUCTURE
  1 ****  10 GROUP 4 **** **** 0

# MOE 2024.06 (io_trps.svl 2023.06)
