@<TRIPOS>MOLECULE
1-(4-Methoxy-6-methyl-pyrimidin-2-yl)-piperidine-4-carboxylic acid 2-fluoro-benzylamide
49 51 1 0 0 
SMALL
USER_CHARGES


@<TRIPOS>ATOM
  1 F       -0.9200     0.9890     1.4590 F     1 <1>  -0.1900 
  2 C       -1.3340     1.9780     0.7120 C.ar  1 <1>   0.1900 
  3 C       -2.3430     1.7600    -0.2140 C.ar  1 <1>  -0.1440 
  4 C       -0.7390     3.2140     0.8850 C.ar  1 <1>  -0.1500 
  5 C       -2.7630     2.8360    -0.9820 C.ar  1 <1>  -0.1500 
  6 C       -2.9870     0.3980    -0.4000 C.3   1 <1>   0.2840 
  7 C       -1.1690     4.2760     0.1080 C.ar  1 <1>  -0.1500 
  8 C       -2.1800     4.0840    -0.8220 C.ar  1 <1>  -0.1500 
  9 N       -4.3400     0.4400     0.1850 N.am  1 <1>  -0.7300 
 10 C       -5.4900     0.3120    -0.5220 C.2   1 <1>   0.5690 
 11 O       -5.4770     0.0610    -1.7030 O.2   1 <1>  -0.5700 
 12 C       -6.8120     0.5130     0.2180 C.3   1 <1>  -0.0190 
 13 C       -7.9870    -0.2390    -0.4360 C.3   1 <1>  -0.1600 
 14 C       -7.1560     2.0080     0.3270 C.3   1 <1>  -0.1600 
 15 C       -9.2980    -0.0170     0.3220 C.3   1 <1>   0.2090 
 16 C       -8.4580     2.2270     1.1000 C.3   1 <1>   0.2090 
 17 N       -9.5550     1.4430     0.4720 N.pl3 1 <1>  -0.8380 
 18 C      -10.8100     1.9830     0.2680 C.ar  1 <1>   0.7200 
 19 N      -11.8350     1.1400     0.2680 N.ar  1 <1>  -0.6200 
 20 N      -10.8790     3.3020     0.0960 N.ar  1 <1>  -0.6200 
 21 C      -13.0150     1.6660     0.0700 C.ar  1 <1>   0.3930 
 22 C      -12.0690     3.8080    -0.1010 C.ar  1 <1>   0.1670 
 23 O      -14.0370     0.7870     0.0710 O.3   1 <1>  -0.3630 
 24 C      -13.1910     3.0220    -0.1250 C.ar  1 <1>  -0.1500 
 25 C      -12.1480     5.3060    -0.3030 C.3   1 <1>  -0.0970 
 26 C      -15.3800     1.1700    -0.1220 C.3   1 <1>   0.0400 
 27 H        0.0430     3.3390     1.6130 H     1 <1>   0.1500 
 28 H       -3.5490     2.7010    -1.7080 H     1 <1>   0.1500 
 29 H       -2.4130    -0.3760     0.0800 H     1 <1>   0.0800 
 30 H       -3.0410     0.1650    -1.4510 H     1 <1>   0.0800 
 31 H       -0.7200     5.2480     0.2240 H     1 <1>   0.1500 
 32 H       -2.5150     4.9100    -1.4260 H     1 <1>   0.1500 
 33 H       -4.3680     0.7240     1.1640 H     1 <1>   0.3700 
 34 H       -6.6880     0.1200     1.2110 H     1 <1>   0.0800 
 35 H       -7.7710    -1.2910    -0.4730 H     1 <1>   0.0800 
 36 H       -8.1200     0.1020    -1.4490 H     1 <1>   0.0800 
 37 H       -7.2660     2.4290    -0.6570 H     1 <1>   0.0800 
 38 H       -6.3610     2.5350     0.8230 H     1 <1>   0.0800 
 39 H       -9.2460    -0.4660     1.2980 H     1 <1>   0.0800 
 40 H      -10.0940    -0.4950    -0.2240 H     1 <1>   0.0800 
 41 H       -8.6860     3.2790     1.1180 H     1 <1>   0.0800 
 42 H       -8.3400     1.9000     2.1190 H     1 <1>   0.0800 
 43 H      -14.1560     3.4540    -0.2880 H     1 <1>   0.1500 
 44 H      -11.7610     5.8060     0.5660 H     1 <1>   0.0800 
 45 H      -13.1610     5.6240    -0.4670 H     1 <1>   0.0800 
 46 H      -11.5540     5.5840    -1.1550 H     1 <1>   0.0800 
 47 H      -15.9880     0.2850    -0.0740 H     1 <1>   0.0800 
 48 H      -15.4780     1.6270    -1.0910 H     1 <1>   0.0800 
 49 H      -15.6660     1.8520     0.6600 H     1 <1>   0.0800 
@<TRIPOS>BOND
  1   1   2  1   
  2   2   3  ar  
  3   2   4  ar  
  4   3   5  ar  
  5   3   6  1   
  6   4   7  ar  
  7   4  27  1   
  8   5   8  ar  
  9   5  28  1   
 10   6   9  1   
 11   6  29  1   
 12   6  30  1   
 13   7   8  ar  
 14   7  31  1   
 15   8  32  1   
 16   9  10  am  
 17   9  33  1   
 18  10  11  2   
 19  10  12  1   
 20  12  13  1   
 21  12  14  1   
 22  12  34  1   
 23  13  15  1   
 24  13  35  1   
 25  13  36  1   
 26  14  16  1   
 27  14  37  1   
 28  14  38  1   
 29  15  17  1   
 30  15  39  1   
 31  15  40  1   
 32  16  17  1   
 33  16  41  1   
 34  16  42  1   
 35  17  18  1   
 36  18  19  ar  
 37  18  20  ar  
 38  19  21  ar  
 39  20  22  ar  
 40  21  23  1   
 41  21  24  ar  
 42  22  24  ar  
 43  22  25  1   
 44  23  26  1   
 45  24  43  1   
 46  25  44  1   
 47  25  45  1   
 48  25  46  1   
 49  26  47  1   
 50  26  48  1   
 51  26  49  1   
@<TRIPOS>SUBSTRUCTURE
  1 ****  14 GROUP 4 **** **** 0

# MOE 2024.06 (io_trps.svl 2023.06)
