@<TRIPOS>MOLECULE
3-tert-Butyl-4-oxo-6-phenyl-10-oxa-3-aza-tricyclo[5.2.1.0*1,5*]dec-8-ene-2-carboxylic acid cyclopentylamide
59 63 1 0 0 
SMALL
USER_CHARGES


@<TRIPOS>ATOM
  1 O        0.3630     0.1050    -1.0760 O.2   1 <1>  -0.5700 
  2 C       -0.8390     0.2020    -1.0670 C.2   1 <1>   0.5690 
  3 N       -1.7730    -0.7780    -1.3060 N.am  1 <1>  -0.6600 
  4 C       -1.5330     1.4920    -0.7570 C.3   1 <1>  -0.0190 
  5 C       -1.4960    -2.2130    -1.6040 C.3   1 <1>   0.3000 
  6 C       -3.1660    -0.1610    -1.3040 C.3   1 <1>   0.2810 
  7 C       -2.7670     1.2880    -1.6070 C.3   1 <1>   0.4180 
  8 C       -1.1680     2.9490    -1.0900 C.3   1 <1>   0.0630 
  9 C       -2.7670    -2.9750    -2.0050 C.3   1 <1>  -0.2400 
 10 C       -0.5120    -2.3130    -2.7750 C.3   1 <1>  -0.2400 
 11 C       -0.9000    -2.8570    -0.3520 C.3   1 <1>  -0.2400 
 12 C       -3.9390    -0.2920     0.0270 C.2   1 <1>   0.5690 
 13 O       -3.4270     2.4750    -1.3090 O.3   1 <1>  -0.5600 
 14 C       -2.4950     1.5390    -3.0870 C.2   1 <1>  -0.2880 
 15 C       -0.8570     3.7480     0.1750 C.ar  1 <1>  -0.1440 
 16 C       -2.4720     3.3860    -1.8150 C.3   1 <1>   0.3380 
 17 O       -3.8930    -1.3260     0.6510 O.2   1 <1>  -0.5700 
 18 N       -4.6860     0.7490     0.4830 N.am  1 <1>  -0.7300 
 19 C       -2.3520     2.8480    -3.2170 C.2   1 <1>  -0.2880 
 20 C        0.4660     4.0000     0.5060 C.ar  1 <1>  -0.1500 
 21 C       -1.8600     4.2160     1.0140 C.ar  1 <1>  -0.1500 
 22 C       -5.4190     0.8030     1.7550 C.3   1 <1>   0.2200 
 23 C        0.7830     4.7150     1.6470 C.ar  1 <1>  -0.1500 
 24 C       -1.5460     4.9320     2.1560 C.ar  1 <1>  -0.1500 
 25 C       -6.8920     1.0580     1.4620 C.3   1 <1>  -0.1600 
 26 C       -4.9880     2.0570     2.5060 C.3   1 <1>  -0.1600 
 27 C       -0.2240     5.1840     2.4730 C.ar  1 <1>  -0.1500 
 28 C       -7.0120     2.5660     1.2140 C.3   1 <1>  -0.1600 
 29 C       -5.7950     3.2090     1.8920 C.3   1 <1>  -0.1600 
 30 H       -1.8060     1.4380     0.2820 H     1 <1>   0.0800 
 31 H       -3.7620    -0.5420    -2.1100 H     1 <1>   0.0800 
 32 H       -0.3330     2.9940    -1.7680 H     1 <1>   0.0800 
 33 H       -3.2000    -2.5630    -2.8980 H     1 <1>   0.0800 
 34 H       -3.4920    -2.9710    -1.2130 H     1 <1>   0.0800 
 35 H       -2.5260    -4.0030    -2.2060 H     1 <1>   0.0800 
 36 H       -0.8870    -1.7760    -3.6270 H     1 <1>   0.0800 
 37 H       -0.3700    -3.3410    -3.0560 H     1 <1>   0.0800 
 38 H        0.4510    -1.9200    -2.5090 H     1 <1>   0.0800 
 39 H       -1.5910    -2.7820     0.4690 H     1 <1>   0.0800 
 40 H        0.0200    -2.3730    -0.0790 H     1 <1>   0.0800 
 41 H       -0.6920    -3.8960    -0.5280 H     1 <1>   0.0800 
 42 H       -2.4460     0.7330    -3.8000 H     1 <1>   0.1500 
 43 H       -2.7940     4.4090    -1.7150 H     1 <1>   0.0800 
 44 H       -4.6810     1.6370    -0.0360 H     1 <1>   0.3700 
 45 H       -2.1520     3.4900    -4.0570 H     1 <1>   0.1500 
 46 H        1.2610     3.6340    -0.1210 H     1 <1>   0.1500 
 47 H       -2.8940     4.0260     0.7920 H     1 <1>   0.1500 
 48 H       -5.2630    -0.0960     2.3290 H     1 <1>   0.0800 
 49 H        1.8130     4.9050     1.8940 H     1 <1>   0.1500 
 50 H       -2.3300     5.2920     2.7980 H     1 <1>   0.1500 
 51 H       -7.4610     0.8010     2.3380 H     1 <1>   0.0800 
 52 H       -7.2490     0.4690     0.6350 H     1 <1>   0.0800 
 53 H       -3.9250     2.2170     2.4570 H     1 <1>   0.0800 
 54 H       -5.2700     1.9470     3.5380 H     1 <1>   0.0800 
 55 H        0.0220     5.7400     3.3600 H     1 <1>   0.1500 
 56 H       -7.9360     2.9490     1.6140 H     1 <1>   0.0800 
 57 H       -6.9830     2.7650     0.1560 H     1 <1>   0.0800 
 58 H       -5.2060     3.7230     1.1530 H     1 <1>   0.0800 
 59 H       -6.0940     3.9130     2.6490 H     1 <1>   0.0800 
@<TRIPOS>BOND
  1   1   2  2   
  2   2   3  am  
  3   2   4  1   
  4   3   5  1   
  5   3   6  1   
  6   4   7  1   
  7   4   8  1   
  8   4  30  1   
  9   5   9  1   
 10   5  10  1   
 11   5  11  1   
 12   6   7  1   
 13   6  12  1   
 14   6  31  1   
 15   7  13  1   
 16   7  14  1   
 17   8  15  1   
 18   8  16  1   
 19   8  32  1   
 20   9  33  1   
 21   9  34  1   
 22   9  35  1   
 23  10  36  1   
 24  10  37  1   
 25  10  38  1   
 26  11  39  1   
 27  11  40  1   
 28  11  41  1   
 29  12  17  2   
 30  12  18  am  
 31  13  16  1   
 32  14  19  2   
 33  14  42  1   
 34  15  20  ar  
 35  15  21  ar  
 36  16  19  1   
 37  16  43  1   
 38  18  22  1   
 39  18  44  1   
 40  19  45  1   
 41  20  23  ar  
 42  20  46  1   
 43  21  24  ar  
 44  21  47  1   
 45  22  25  1   
 46  22  26  1   
 47  22  48  1   
 48  23  27  ar  
 49  23  49  1   
 50  24  27  ar  
 51  24  50  1   
 52  25  28  1   
 53  25  51  1   
 54  25  52  1   
 55  26  29  1   
 56  26  53  1   
 57  26  54  1   
 58  27  55  1   
 59  28  29  1   
 60  28  56  1   
 61  28  57  1   
 62  29  58  1   
 63  29  59  1   
@<TRIPOS>SUBSTRUCTURE
  1 ****   4 GROUP 4 **** **** 0

# MOE 2024.06 (io_trps.svl 2023.06)
