@<TRIPOS>MOLECULE
10041
41 43 1 0 0 
SMALL
USER_CHARGES


@<TRIPOS>ATOM
  1 O       -1.6040    -0.5260     1.0020 O.3   1 <1>  -0.8500 
  2 C       -2.0290    -1.1680     0.0360 C.2   1 <1>  -0.0730 
  3 O       -2.6590    -0.4770    -0.9350 O.3   1 <1>  -0.3570 
  4 C       -1.8860    -2.5640    -0.1010 C.2   1 <1>   0.0000 
  5 C       -2.8040     0.9160    -0.7940 C.3   1 <1>   0.0400 
  6 C       -1.2420    -3.3360     0.8860 C.2   1 <1>  -0.1500 
  7 C       -2.3640    -3.2880    -1.2140 C.2   1 <1>  -0.1500 
  8 C       -1.0550    -4.6820     0.7650 C.2   1 <1>  -0.1500 
  9 C       -2.1830    -4.6340    -1.3490 C.2   1 <1>  -0.1500 
 10 C       -1.4910    -5.4220    -0.3770 C.2   1 <1>   0.0000 
 11 C       -1.2530    -6.7820    -0.5090 C.2   1 <1>  -0.0310 
 12 N       -2.2580    -7.6590    -1.0500 N.pl3 1 <1>   0.6010 
 13 C       -0.0410    -7.4580    -0.0660 C.2   1 <1>   0.0140 
 14 N       -3.4140    -7.4090    -1.6570 N.2   1 <1>  -0.4180 
 15 C       -2.2050    -8.9810    -0.8980 C.2   1 <1>   0.2700 
 16 C       -0.0160    -8.8310     0.0680 C.2   1 <1>  -0.0380 
 17 C        1.1310    -6.6550     0.1660 C.2   1 <1>   0.7060 
 18 N       -3.9880    -8.5450    -1.8520 N.2   1 <1>   0.0000 
 19 N       -3.2470    -9.5440    -1.3820 N.2   1 <1>  -0.3380 
 20 N       -1.1160    -9.5950    -0.2840 N.pl3 1 <1>  -0.5840 
 21 C        1.1650    -9.6640     0.5500 C.3   1 <1>  -0.1020 
 22 O        1.7520    -6.6590     1.2130 O.2   1 <1>  -0.5700 
 23 O        1.5510    -5.8850    -0.8440 O.3   1 <1>  -0.4300 
 24 C        2.6250    -4.9740    -0.7300 C.3   1 <1>   0.1200 
 25 C        2.1100    -3.6630    -0.1410 C.3   1 <1>  -0.2400 
 26 H       -3.3260     1.2940    -1.6520 H     1 <1>   0.0800 
 27 H       -1.8230     1.3480    -0.7190 H     1 <1>   0.0800 
 28 H       -3.3580     1.1050     0.1080 H     1 <1>   0.0800 
 29 H       -0.9030    -2.7950     1.7520 H     1 <1>   0.1500 
 30 H       -2.8810    -2.7260    -1.9680 H     1 <1>   0.1500 
 31 H       -0.5730    -5.2050     1.5690 H     1 <1>   0.1500 
 32 H       -2.5570    -5.1120    -2.2340 H     1 <1>   0.1500 
 33 H       -1.1330   -10.6180    -0.2030 H     1 <1>   0.4000 
 34 H        0.9250   -10.1200     1.4940 H     1 <1>   0.0800 
 35 H        2.0590    -9.0830     0.6770 H     1 <1>   0.0800 
 36 H        1.3810   -10.4400    -0.1620 H     1 <1>   0.0800 
 37 H        3.0120    -4.8070    -1.7190 H     1 <1>   0.0800 
 38 H        3.3990    -5.4050    -0.1170 H     1 <1>   0.0800 
 39 H        1.3000    -3.2730    -0.7350 H     1 <1>   0.0800 
 40 H        2.8980    -2.9330    -0.1230 H     1 <1>   0.0800 
 41 H        1.7670    -3.8100     0.8680 H     1 <1>   0.0800 
@<TRIPOS>BOND
  1   1   2  1   
  2   2   3  1   
  3   2   4  2   
  4   3   5  1   
  5   4   6  1   
  6   4   7  1   
  7   5  26  1   
  8   5  27  1   
  9   5  28  1   
 10   6   8  2   
 11   6  29  1   
 12   7   9  2   
 13   7  30  1   
 14   8  10  1   
 15   8  31  1   
 16   9  10  1   
 17   9  32  1   
 18  10  11  2   
 19  11  12  1   
 20  11  13  1   
 21  12  14  1   
 22  12  15  1   
 23  13  16  2   
 24  13  17  1   
 25  14  18  2   
 26  15  19  2   
 27  15  20  1   
 28  16  20  1   
 29  16  21  1   
 30  17  22  2   
 31  17  23  1   
 32  18  19  1   
 33  20  33  1   
 34  21  34  1   
 35  21  35  1   
 36  21  36  1   
 37  23  24  1   
 38  24  25  1   
 39  24  37  1   
 40  24  38  1   
 41  25  39  1   
 42  25  40  1   
 43  25  41  1   
@<TRIPOS>SUBSTRUCTURE
  1 ****  10 GROUP 4 **** **** 0

# MOE 2024.06 (io_trps.svl 2023.06)
