@<TRIPOS>MOLECULE
2-[6-(2,3-Dihydro-benzo[1,4]dioxin-6-yl)-pyridazin-3-ylsulfanyl]-1-morpholin-4-yl-ethanone
45 48 1 0 0 
SMALL
USER_CHARGES


@<TRIPOS>ATOM
  1 S       -0.1280     0.9000    -0.3900 S.3   1 <1>  -0.3320 
  2 C        1.6140     1.2880    -0.1860 C.ar  1 <1>   0.4120 
  3 C       -0.9250     2.3770    -1.1900 C.3   1 <1>   0.1310 
  4 N        2.2910     0.4180     0.5540 N.ar  1 <1>  -0.3100 
  5 C        2.1750     2.4080    -0.7600 C.ar  1 <1>  -0.1500 
  6 C       -2.4080     2.1390    -1.4430 C.2   1 <1>   0.5690 
  7 N        3.5700     0.6160     0.7640 N.ar  1 <1>  -0.3100 
  8 C        3.5180     2.6050    -0.5330 C.ar  1 <1>  -0.1500 
  9 O       -2.7660     2.1530    -2.5980 O.2   1 <1>  -0.5700 
 10 N       -3.3030     1.9520    -0.4170 N.am  1 <1>  -0.6600 
 11 C        4.2010     1.6780     0.2390 C.ar  1 <1>   0.3100 
 12 C       -4.7420     1.6490    -0.6890 C.3   1 <1>   0.1400 
 13 C       -2.9720     1.9320     1.0410 C.3   1 <1>   0.1400 
 14 C        5.6160     1.8390     0.5060 C.ar  1 <1>   0.0000 
 15 C       -5.6590     2.4880     0.2140 C.3   1 <1>   0.1200 
 16 C       -3.9960     2.7490     1.8480 C.3   1 <1>   0.1200 
 17 C        6.5080     2.2030    -0.5050 C.ar  1 <1>  -0.1500 
 18 C        6.1350     1.6390     1.7870 C.ar  1 <1>  -0.1500 
 19 O       -5.3010     2.3380     1.5590 O.3   1 <1>  -0.5600 
 20 C        7.8540     2.3740    -0.2450 C.ar  1 <1>   0.0830 
 21 C        7.4830     1.7990     2.0560 C.ar  1 <1>  -0.1500 
 22 O        8.6740     2.7530    -1.2590 O.3   1 <1>  -0.3630 
 23 C        8.3500     2.1630     1.0420 C.ar  1 <1>   0.0830 
 24 C        9.9610     3.2230    -0.9010 C.3   1 <1>   0.1200 
 25 O        9.6690     2.3000     1.3180 O.3   1 <1>  -0.3630 
 26 C       10.5550     2.3530     0.2160 C.3   1 <1>   0.1200 
 27 H       -0.4250     2.5360    -2.1270 H     1 <1>   0.0800 
 28 H       -0.7810     3.2200    -0.5430 H     1 <1>   0.0800 
 29 H        1.6170     3.0990    -1.3570 H     1 <1>   0.1500 
 30 H        4.0280     3.4580    -0.9420 H     1 <1>   0.1500 
 31 H       -4.9220     0.6040    -0.5030 H     1 <1>   0.0800 
 32 H       -4.9840     1.8470    -1.7180 H     1 <1>   0.0800 
 33 H       -1.9920     2.3340     1.2200 H     1 <1>   0.0800 
 34 H       -2.9810     0.9140     1.3890 H     1 <1>   0.0800 
 35 H       -6.6790     2.1660     0.1080 H     1 <1>   0.0800 
 36 H       -5.5960     3.5300    -0.0480 H     1 <1>   0.0800 
 37 H       -3.9080     3.7980     1.6230 H     1 <1>   0.0800 
 38 H       -3.8340     2.6080     2.9020 H     1 <1>   0.0800 
 39 H        6.1590     2.3530    -1.5100 H     1 <1>   0.1500 
 40 H        5.4710     1.3510     2.5840 H     1 <1>   0.1500 
 41 H        7.8680     1.6390     3.0470 H     1 <1>   0.1500 
 42 H        9.8650     4.2410    -0.5700 H     1 <1>   0.0800 
 43 H       10.5800     3.1930    -1.7790 H     1 <1>   0.0800 
 44 H       11.4890     2.7560     0.5600 H     1 <1>   0.0800 
 45 H       10.7110     1.3480    -0.1360 H     1 <1>   0.0800 
@<TRIPOS>BOND
  1   1   2  1   
  2   1   3  1   
  3   2   4  ar  
  4   2   5  ar  
  5   3   6  1   
  6   3  27  1   
  7   3  28  1   
  8   4   7  ar  
  9   5   8  ar  
 10   5  29  1   
 11   6   9  2   
 12   6  10  am  
 13   7  11  ar  
 14   8  11  ar  
 15   8  30  1   
 16  10  12  1   
 17  10  13  1   
 18  11  14  1   
 19  12  15  1   
 20  12  31  1   
 21  12  32  1   
 22  13  16  1   
 23  13  33  1   
 24  13  34  1   
 25  14  17  ar  
 26  14  18  ar  
 27  15  19  1   
 28  15  35  1   
 29  15  36  1   
 30  16  19  1   
 31  16  37  1   
 32  16  38  1   
 33  17  20  ar  
 34  17  39  1   
 35  18  21  ar  
 36  18  40  1   
 37  20  22  1   
 38  20  23  ar  
 39  21  23  ar  
 40  21  41  1   
 41  22  24  1   
 42  23  25  1   
 43  24  26  1   
 44  24  42  1   
 45  24  43  1   
 46  25  26  1   
 47  26  44  1   
 48  26  45  1   
@<TRIPOS>SUBSTRUCTURE
  1 ****   5 GROUP 4 **** **** 0

# MOE 2024.06 (io_trps.svl 2023.06)
