@<TRIPOS>MOLECULE
NONAME
35 35 1 0 0 
SMALL
USER_CHARGES


@<TRIPOS>ATOM
  1 O        1.0760    -2.7200     1.7720 O.2   1 <1>  -0.5700 
  2 C        0.5130    -2.3940     0.7550 C.2   1 <1>   0.6590 
  3 O        0.9850    -1.4690    -0.0770 O.3   1 <1>  -0.4300 
  4 C       -0.8290    -3.0300     0.3380 C.3   1 <1>   0.2510 
  5 C        2.1720    -0.7180     0.0500 C.3   1 <1>   0.2800 
  6 N       -1.0510    -4.3850     0.9050 N.3   1 <1>  -0.9900 
  7 C       -1.9870    -2.1010     0.7360 C.3   1 <1>  -0.0160 
  8 C        3.3870    -1.6520     0.0390 C.3   1 <1>  -0.2400 
  9 C        2.1130     0.1450     1.3160 C.3   1 <1>  -0.2400 
 10 C        2.2130     0.1870    -1.1810 C.3   1 <1>  -0.2400 
 11 C       -3.2570    -2.3710    -0.0640 C.ar  1 <1>  -0.1440 
 12 C       -4.0730    -3.4450     0.2550 C.ar  1 <1>  -0.1500 
 13 C       -3.6100    -1.5430    -1.1190 C.ar  1 <1>  -0.1500 
 14 C       -5.2290    -3.6880    -0.4670 C.ar  1 <1>  -0.1500 
 15 C       -4.7660    -1.7830    -1.8420 C.ar  1 <1>  -0.1500 
 16 C       -5.5770    -2.8560    -1.5160 C.ar  1 <1>  -0.1500 
 17 H       -0.8230    -3.1120    -0.7350 H     1 <1>   0.0800 
 18 H       -0.8450    -4.3270     1.9110 H     1 <1>   0.3600 
 19 H       -0.3410    -5.0170     0.5200 H     1 <1>   0.3600 
 20 H       -2.1850    -2.1980     1.7880 H     1 <1>   0.0800 
 21 H       -1.6930    -1.0810     0.5630 H     1 <1>   0.0800 
 22 H        4.2930    -1.0750     0.0110 H     1 <1>   0.0800 
 23 H        3.3630    -2.2880    -0.8270 H     1 <1>   0.0800 
 24 H        3.4170    -2.2600     0.9250 H     1 <1>   0.0800 
 25 H        2.9610     0.8050     1.3480 H     1 <1>   0.0800 
 26 H        2.1430    -0.4630     2.2010 H     1 <1>   0.0800 
 27 H        1.2190     0.7400     1.3240 H     1 <1>   0.0800 
 28 H        1.3540     0.8330    -1.2000 H     1 <1>   0.0800 
 29 H        3.0970     0.7990    -1.1660 H     1 <1>   0.0800 
 30 H        2.2280    -0.4050    -2.0790 H     1 <1>   0.0800 
 31 H       -3.8030    -4.1000     1.0650 H     1 <1>   0.1500 
 32 H       -2.9900    -0.7050    -1.3840 H     1 <1>   0.1500 
 33 H       -5.8540    -4.5250    -0.2110 H     1 <1>   0.1500 
 34 H       -5.0340    -1.1360    -2.6580 H     1 <1>   0.1500 
 35 H       -6.4750    -3.0440    -2.0770 H     1 <1>   0.1500 
@<TRIPOS>BOND
  1   1   2  2   
  2   2   3  1   
  3   2   4  1   
  4   3   5  1   
  5   4   6  1   
  6   4   7  1   
  7   4  17  1   
  8   5   8  1   
  9   5   9  1   
 10   5  10  1   
 11   6  18  1   
 12   6  19  1   
 13   7  11  1   
 14   7  20  1   
 15   7  21  1   
 16   8  22  1   
 17   8  23  1   
 18   8  24  1   
 19   9  25  1   
 20   9  26  1   
 21   9  27  1   
 22  10  28  1   
 23  10  29  1   
 24  10  30  1   
 25  11  12  ar  
 26  11  13  ar  
 27  12  14  ar  
 28  12  31  1   
 29  13  15  ar  
 30  13  32  1   
 31  14  16  ar  
 32  14  33  1   
 33  15  16  ar  
 34  15  34  1   
 35  16  35  1   
@<TRIPOS>SUBSTRUCTURE
  1 ****   4 GROUP 4 **** **** 0

# MOE 2024.06 (io_trps.svl 2023.06)
