@<TRIPOS>MOLECULE
NONAME
47 50 1 0 0 
SMALL
USER_CHARGES


@<TRIPOS>ATOM
  1 N       -1.2000     0.7270    -2.8400 N.2   1 <1>   0.0000 
  2 N       -2.0030    -0.2590    -3.0050 N.2   1 <1>  -0.4180 
  3 N       -1.5150     1.4110    -1.7490 N.2   1 <1>  -0.3380 
  4 N       -2.8590    -0.2240    -2.0040 N.pl3 1 <1>   0.3140 
  5 C       -2.5360     0.8220    -1.2490 C.2   1 <1>   0.0060 
  6 C       -3.9430    -1.2340    -1.9220 C.3   1 <1>   0.2390 
  7 C       -3.2260     1.2680     0.0380 C.3   1 <1>   0.2900 
  8 C       -4.1980    -1.7320    -0.5050 C.ar  1 <1>  -0.1440 
  9 N       -4.3440     2.2240    -0.1440 N.3   1 <1>  -0.8100 
 10 C       -3.1730    -2.3220     0.2210 C.ar  1 <1>  -0.1500 
 11 C       -5.4520    -1.5930     0.0740 C.ar  1 <1>  -0.1500 
 12 C       -5.1270     2.3120     1.1130 C.3   1 <1>   0.1100 
 13 C       -5.2300     1.9290    -1.2940 C.3   1 <1>   0.1100 
 14 C       -3.3970    -2.7560     1.5160 C.ar  1 <1>  -0.1500 
 15 C       -5.6740    -2.0280     1.3690 C.ar  1 <1>  -0.1500 
 16 C       -6.3510     3.2490     1.0250 C.3   1 <1>   0.2090 
 17 C       -6.3920     2.9280    -1.4210 C.3   1 <1>   0.2090 
 18 C       -4.6460    -2.6070     2.0910 C.ar  1 <1>  -0.1500 
 19 N       -7.1980     2.9560    -0.1690 N.pl3 1 <1>  -0.8380 
 20 C       -8.3200     2.1260    -0.0930 C.ar  1 <1>   0.1000 
 21 C       -8.4110     1.0600     0.8000 C.ar  1 <1>  -0.1500 
 22 C       -9.3940     2.3570    -0.9450 C.ar  1 <1>  -0.1500 
 23 C       -9.5310     0.2490     0.8310 C.ar  1 <1>  -0.1500 
 24 C      -10.5160     1.5500    -0.9200 C.ar  1 <1>  -0.1500 
 25 C      -10.5860     0.4920    -0.0310 C.ar  1 <1>  -0.1500 
 26 H       -3.6670    -2.0710    -2.5380 H     1 <1>   0.0800 
 27 H       -4.8340    -0.8040    -2.3380 H     1 <1>   0.0800 
 28 H       -2.4850     1.7480     0.6530 H     1 <1>   0.0800 
 29 H       -3.5650     0.4100     0.5860 H     1 <1>   0.0800 
 30 H       -2.1950    -2.4460    -0.2130 H     1 <1>   0.1500 
 31 H       -6.2690    -1.1480    -0.4690 H     1 <1>   0.1500 
 32 H       -4.4860     2.6650     1.9020 H     1 <1>   0.0800 
 33 H       -5.4690     1.3300     1.3870 H     1 <1>   0.0800 
 34 H       -5.6510     0.9480    -1.1870 H     1 <1>   0.0800 
 35 H       -4.6610     1.9680    -2.2060 H     1 <1>   0.0800 
 36 H       -2.5980    -3.2120     2.0760 H     1 <1>   0.1500 
 37 H       -6.6480    -1.9180     1.8140 H     1 <1>   0.1500 
 38 H       -6.0070     4.2660     0.9620 H     1 <1>   0.0800 
 39 H       -6.9430     3.1610     1.9190 H     1 <1>   0.0800 
 40 H       -7.0140     2.6470    -2.2520 H     1 <1>   0.0800 
 41 H       -5.9990     3.9110    -1.6160 H     1 <1>   0.0800 
 42 H       -4.8190    -2.9470     3.0980 H     1 <1>   0.1500 
 43 H       -7.6050     0.8580     1.4740 H     1 <1>   0.1500 
 44 H       -9.3420     3.1860    -1.6250 H     1 <1>   0.1500 
 45 H       -9.5860    -0.5700     1.5260 H     1 <1>   0.1500 
 46 H      -11.3370     1.7480    -1.5880 H     1 <1>   0.1500 
 47 H      -11.4590    -0.1370    -0.0090 H     1 <1>   0.1500 
@<TRIPOS>BOND
  1   1   2  2   
  2   1   3  1   
  3   2   4  1   
  4   3   5  2   
  5   4   5  1   
  6   4   6  1   
  7   5   7  1   
  8   6   8  1   
  9   6  26  1   
 10   6  27  1   
 11   7   9  1   
 12   7  28  1   
 13   7  29  1   
 14   8  10  ar  
 15   8  11  ar  
 16   9  12  1   
 17   9  13  1   
 18  10  14  ar  
 19  10  30  1   
 20  11  15  ar  
 21  11  31  1   
 22  12  16  1   
 23  12  32  1   
 24  12  33  1   
 25  13  17  1   
 26  13  34  1   
 27  13  35  1   
 28  14  18  ar  
 29  14  36  1   
 30  15  18  ar  
 31  15  37  1   
 32  16  19  1   
 33  16  38  1   
 34  16  39  1   
 35  17  19  1   
 36  17  40  1   
 37  17  41  1   
 38  18  42  1   
 39  19  20  1   
 40  20  21  ar  
 41  20  22  ar  
 42  21  23  ar  
 43  21  43  1   
 44  22  24  ar  
 45  22  44  1   
 46  23  25  ar  
 47  23  45  1   
 48  24  25  ar  
 49  24  46  1   
 50  25  47  1   
@<TRIPOS>SUBSTRUCTURE
  1 ****  13 GROUP 4 **** **** 0

# MOE 2024.06 (io_trps.svl 2023.06)
