@<TRIPOS>MOLECULE
22474
47 50 1 0 0 
SMALL
USER_CHARGES


@<TRIPOS>ATOM
  1 S        0.3860     1.1420    -1.6360 S.3   1 <1>  -0.0800 
  2 C        1.4290     2.3180    -0.8330 C.2   1 <1>   0.1040 
  3 C       -0.9380     1.4990    -0.5480 C.2   1 <1>  -0.1400 
  4 N        2.7300     2.5260    -1.3000 N.am  1 <1>  -0.4940 
  5 C        0.7600     2.9140     0.1930 C.2   1 <1>   0.0190 
  6 C       -0.5860     2.4310     0.3480 C.2   1 <1>  -0.1810 
  7 C       -2.2650     0.7870    -0.6890 C.3   1 <1>   0.0200 
  8 C        3.5340     1.7970    -2.1330 C.2   1 <1>   0.5690 
  9 C        1.3010     3.9180     1.0580 C.1   1 <1>   0.5380 
 10 C       -1.5650     2.9070     1.4140 C.3   1 <1>   0.0210 
 11 C       -3.3270     1.5310     0.1490 C.3   1 <1>  -0.0800 
 12 O        3.2420     0.7240    -2.5940 O.2   1 <1>  -0.5700 
 13 C        4.9020     2.3560    -2.4650 C.3   1 <1>  -0.0990 
 14 N        1.6990     4.7160     1.7710 N.1   1 <1>  -0.5570 
 15 C       -2.7680     1.9480     1.5270 C.3   1 <1>  -0.1600 
 16 C       -4.5890     0.6730     0.3100 C.3   1 <1>  -0.2400 
 17 C        5.8800     2.1420    -1.3010 C.3   1 <1>   0.1400 
 18 N        6.3720     3.4250    -0.7310 N.am  1 <1>  -0.4200 
 19 C        5.6140     4.4290    -0.1820 C.2   1 <1>   0.5440 
 20 C        7.6940     3.7200    -0.5060 C.2   1 <1>   0.5440 
 21 O        4.4020     4.4610    -0.2290 O.2   1 <1>  -0.5700 
 22 C        6.4830     5.4030     0.4140 C.ar  1 <1>   0.0860 
 23 O        8.6140     3.0150    -0.8600 O.2   1 <1>  -0.5700 
 24 C        7.7810     4.9630     0.2070 C.ar  1 <1>   0.0860 
 25 C        6.2420     6.5900     1.0950 C.ar  1 <1>  -0.1500 
 26 C        8.8560     5.7090     0.6750 C.ar  1 <1>  -0.1500 
 27 C        7.3140     7.3320     1.5600 C.ar  1 <1>  -0.1500 
 28 C        8.6160     6.8940     1.3500 C.ar  1 <1>  -0.1500 
 29 H        3.1980     3.3550    -0.9060 H     1 <1>   0.3700 
 30 H       -2.1490    -0.2250    -0.3430 H     1 <1>   0.0800 
 31 H       -2.5620     0.7650    -1.7220 H     1 <1>   0.0800 
 32 H       -1.9110     3.8910     1.1500 H     1 <1>   0.0800 
 33 H       -1.0750     2.9680     2.3700 H     1 <1>   0.0800 
 34 H       -3.5970     2.4280    -0.3830 H     1 <1>   0.0800 
 35 H        4.8160     3.3940    -2.7300 H     1 <1>   0.0800 
 36 H        5.2720     1.8310    -3.3270 H     1 <1>   0.0800 
 37 H       -3.5390     2.4230     2.1090 H     1 <1>   0.0800 
 38 H       -2.4560     1.0640     2.0570 H     1 <1>   0.0800 
 39 H       -4.3680    -0.2300     0.8520 H     1 <1>   0.0800 
 40 H       -4.9850     0.4080    -0.6540 H     1 <1>   0.0800 
 41 H       -5.3450     1.2190     0.8470 H     1 <1>   0.0800 
 42 H        6.7220     1.5700    -1.6550 H     1 <1>   0.0800 
 43 H        5.4120     1.5720    -0.5160 H     1 <1>   0.0800 
 44 H        5.2270     6.9170     1.2530 H     1 <1>   0.1500 
 45 H        9.8610     5.3580     0.5070 H     1 <1>   0.1500 
 46 H        7.1400     8.2550     2.0900 H     1 <1>   0.1500 
 47 H        9.4420     7.4810     1.7170 H     1 <1>   0.1500 
@<TRIPOS>BOND
  1   1   2  1   
  2   1   3  1   
  3   2   4  1   
  4   2   5  2   
  5   3   6  2   
  6   3   7  1   
  7   4   8  am  
  8   4  29  1   
  9   5   6  1   
 10   5   9  1   
 11   6  10  1   
 12   7  11  1   
 13   7  30  1   
 14   7  31  1   
 15   8  12  2   
 16   8  13  1   
 17   9  14  3   
 18  10  15  1   
 19  10  32  1   
 20  10  33  1   
 21  11  15  1   
 22  11  16  1   
 23  11  34  1   
 24  13  17  1   
 25  13  35  1   
 26  13  36  1   
 27  15  37  1   
 28  15  38  1   
 29  16  39  1   
 30  16  40  1   
 31  16  41  1   
 32  17  18  1   
 33  17  42  1   
 34  17  43  1   
 35  18  19  am  
 36  18  20  am  
 37  19  21  2   
 38  19  22  1   
 39  20  23  2   
 40  20  24  1   
 41  22  24  ar  
 42  22  25  ar  
 43  24  26  ar  
 44  25  27  ar  
 45  25  44  1   
 46  26  28  ar  
 47  26  45  1   
 48  27  28  ar  
 49  27  46  1   
 50  28  47  1   
@<TRIPOS>SUBSTRUCTURE
  1 ****   4 GROUP 4 **** **** 0

# MOE 2024.06 (io_trps.svl 2023.06)
