@<TRIPOS>MOLECULE
NONAME
58 60 1 0 0 
SMALL
USER_CHARGES


@<TRIPOS>ATOM
  1 S        0.1350    -0.1630    -1.5670 S.3   1 <1>  -0.2860 
  2 C        1.3820     0.8260    -0.7520 C.2   1 <1>   0.2420 
  3 C       -1.4540     0.5460    -0.9180 C.3   1 <1>   0.1310 
  4 N        1.1040     1.9070    -0.1160 N.2   1 <1>  -0.5650 
  5 N        2.6850     0.4490    -0.7610 N.pl3 1 <1>   0.0480 
  6 C       -2.5950    -0.4660    -0.9980 C.2   1 <1>   0.5690 
  7 C        2.3220     2.2980     0.3570 C.ar  1 <1>   0.2270 
  8 C        3.3120     1.4050    -0.0230 C.ar  1 <1>  -0.1520 
  9 C        3.2800    -0.7630    -1.3560 C.3   1 <1>   0.1570 
 10 O       -2.3190    -1.6400    -0.8940 O.2   1 <1>  -0.5700 
 11 N       -3.8980    -0.0500    -1.1560 N.am  1 <1>  -0.6600 
 12 C        2.6490     3.4120     1.1270 C.ar  1 <1>  -0.1500 
 13 C        4.6400     1.5900     0.3710 C.ar  1 <1>  -0.1500 
 14 C        3.1790    -1.9280    -0.3940 C.2   1 <1>   0.5690 
 15 C       -4.3690     1.3670    -1.1180 C.3   1 <1>   0.1400 
 16 C       -5.0050    -1.0380    -1.3170 C.3   1 <1>   0.1400 
 17 C        3.9580     3.6060     1.5110 C.ar  1 <1>  -0.1500 
 18 C        4.9510     2.6940     1.1340 C.ar  1 <1>  -0.1500 
 19 O        4.2070    -2.3910     0.0390 O.2   1 <1>  -0.5700 
 20 N        1.9450    -2.4080    -0.0730 N.am  1 <1>  -0.7300 
 21 C       -5.3730     1.5610     0.0300 C.3   1 <1>  -0.0800 
 22 C       -6.0120    -0.8770    -0.1740 C.3   1 <1>  -0.1600 
 23 C        1.5730    -3.4580     0.8740 C.3   1 <1>   0.3000 
 24 C       -6.5380     0.5630    -0.0820 C.3   1 <1>  -0.1600 
 25 C       -5.9050     2.9990     0.0490 C.3   1 <1>  -0.2400 
 26 C        2.1580    -4.7940     0.4180 C.3   1 <1>  -0.2400 
 27 C        2.0560    -3.0810     2.2740 C.3   1 <1>  -0.2400 
 28 C        0.0480    -3.5280     0.8580 C.3   1 <1>  -0.2400 
 29 H       -1.6460     1.4170    -1.5130 H     1 <1>   0.0800 
 30 H       -1.2860     0.8230     0.1060 H     1 <1>   0.0800 
 31 H        4.3120    -0.5730    -1.5810 H     1 <1>   0.0800 
 32 H        2.7680    -1.0040    -2.2680 H     1 <1>   0.0800 
 33 H        1.8680     4.0940     1.4060 H     1 <1>   0.1500 
 34 H        5.3990     0.8820     0.0860 H     1 <1>   0.1500 
 35 H       -4.8410     1.6000    -2.0570 H     1 <1>   0.0800 
 36 H       -3.5520     2.0500    -0.9790 H     1 <1>   0.0800 
 37 H       -4.6240    -2.0450    -1.3210 H     1 <1>   0.0800 
 38 H       -5.4920    -0.8650    -2.2610 H     1 <1>   0.0800 
 39 H        4.2290     4.4610     2.1060 H     1 <1>   0.1500 
 40 H        5.9660     2.8630     1.4520 H     1 <1>   0.1500 
 41 H        1.1190    -1.9520    -0.4730 H     1 <1>   0.3700 
 42 H       -4.8550     1.3830     0.9580 H     1 <1>   0.0800 
 43 H       -5.5320    -1.1510     0.7500 H     1 <1>   0.0800 
 44 H       -6.8330    -1.5530    -0.3280 H     1 <1>   0.0800 
 45 H       -7.1200     0.7820    -0.9610 H     1 <1>   0.0800 
 46 H       -7.1820     0.6540     0.7760 H     1 <1>   0.0800 
 47 H       -6.4280     3.2250    -0.8640 H     1 <1>   0.0800 
 48 H       -5.0950     3.6970     0.1630 H     1 <1>   0.0800 
 49 H       -6.5840     3.1340     0.8730 H     1 <1>   0.0800 
 50 H        3.2320    -4.7660     0.4460 H     1 <1>   0.0800 
 51 H        1.8390    -5.0220    -0.5830 H     1 <1>   0.0800 
 52 H        1.8290    -5.5830     1.0700 H     1 <1>   0.0800 
 53 H        1.6730    -2.1170     2.5570 H     1 <1>   0.0800 
 54 H        3.1300    -3.0540     2.3110 H     1 <1>   0.0800 
 55 H        1.7180    -3.8070     2.9900 H     1 <1>   0.0800 
 56 H       -0.3130    -3.7670    -0.1270 H     1 <1>   0.0800 
 57 H       -0.3800    -2.5890     1.1640 H     1 <1>   0.0800 
 58 H       -0.2970    -4.2880     1.5340 H     1 <1>   0.0800 
@<TRIPOS>BOND
  1   1   2  1   
  2   1   3  1   
  3   2   4  2   
  4   2   5  1   
  5   3   6  1   
  6   3  29  1   
  7   3  30  1   
  8   4   7  1   
  9   5   8  1   
 10   5   9  1   
 11   6  10  2   
 12   6  11  am  
 13   7   8  ar  
 14   7  12  ar  
 15   8  13  ar  
 16   9  14  1   
 17   9  31  1   
 18   9  32  1   
 19  11  15  1   
 20  11  16  1   
 21  12  17  ar  
 22  12  33  1   
 23  13  18  ar  
 24  13  34  1   
 25  14  19  2   
 26  14  20  am  
 27  15  21  1   
 28  15  35  1   
 29  15  36  1   
 30  16  22  1   
 31  16  37  1   
 32  16  38  1   
 33  17  18  ar  
 34  17  39  1   
 35  18  40  1   
 36  20  23  1   
 37  20  41  1   
 38  21  24  1   
 39  21  25  1   
 40  21  42  1   
 41  22  24  1   
 42  22  43  1   
 43  22  44  1   
 44  23  26  1   
 45  23  27  1   
 46  23  28  1   
 47  24  45  1   
 48  24  46  1   
 49  25  47  1   
 50  25  48  1   
 51  25  49  1   
 52  26  50  1   
 53  26  51  1   
 54  26  52  1   
 55  27  53  1   
 56  27  54  1   
 57  27  55  1   
 58  28  56  1   
 59  28  57  1   
 60  28  58  1   
@<TRIPOS>SUBSTRUCTURE
  1 ****   1 GROUP 4 **** **** 0

# MOE 2024.06 (io_trps.svl 2023.06)
