@<TRIPOS>MOLECULE
1-(6,7-Dihydro-5H-cyclopenta[d][1,2,4]triazolo[1,5-a]pyrimidin-8-yl)-piperidine-4-carboxylic acid adamantan
64 70 1 0 0 
SMALL
USER_CHARGES


@<TRIPOS>ATOM
  1 O        0.6040     0.9430     0.4980 O.2   1 <1>  -0.5700 
  2 C        0.5240     1.8860    -0.2520 C.2   1 <1>   0.5690 
  3 N       -0.6610     2.4290    -0.6400 N.am  1 <1>  -0.7300 
  4 C        1.8110     2.5050    -0.7920 C.3   1 <1>  -0.0190 
  5 C       -2.0210     2.0150    -0.2550 C.3   1 <1>   0.3000 
  6 C        2.6540     1.4620    -1.5500 C.3   1 <1>  -0.1600 
  7 C        2.6410     3.1290     0.3450 C.3   1 <1>  -0.1600 
  8 C       -2.3030     0.5680    -0.7030 C.3   1 <1>  -0.1600 
  9 C       -3.0100     2.9560    -0.9700 C.3   1 <1>  -0.1600 
 10 C       -2.2260     2.1420     1.2670 C.3   1 <1>  -0.1600 
 11 C        3.9860     2.0400    -2.0340 C.3   1 <1>   0.2090 
 12 C        3.9580     3.7140    -0.1640 C.3   1 <1>   0.2090 
 13 C       -3.7480     0.1750    -0.3370 C.3   1 <1>  -0.0800 
 14 C       -4.4610     2.5810    -0.6130 C.3   1 <1>  -0.0800 
 15 C       -3.6710     1.7550     1.6380 C.3   1 <1>  -0.0800 
 16 N        4.7180     2.6640    -0.8950 N.pl3 1 <1>  -0.8380 
 17 C       -4.7280     1.1280    -1.0480 C.3   1 <1>  -0.1600 
 18 C       -3.9350     0.3040     1.1880 C.3   1 <1>  -0.1600 
 19 C       -4.6510     2.6960     0.9120 C.3   1 <1>  -0.1600 
 20 C        5.9580     2.2490    -0.4900 C.2   1 <1>   0.4790 
 21 N        6.2170     0.9200    -0.2650 N.pl3 1 <1>  -0.3220 
 22 C        7.0250     3.0960    -0.2700 C.2   1 <1>  -0.1240 
 23 N        5.4020    -0.1880    -0.3350 N.2   1 <1>  -0.2600 
 24 C        7.4330     0.5430     0.1700 C.cat 1 <1>   0.9620 
 25 C        8.2330     2.5800     0.1510 C.2   1 <1>   0.3750 
 26 C        7.1100     4.5980    -0.4500 C.3   1 <1>  -0.0220 
 27 C        6.1440    -1.1610     0.0450 C.2   1 <1>   0.5030 
 28 N        8.4850     1.3200     0.3890 N.2   1 <1>  -0.6120 
 29 N        7.4030    -0.7610     0.3590 N.pl3 1 <1>  -0.7000 
 30 C        9.2650     3.6690     0.3020 C.3   1 <1>  -0.0990 
 31 C        8.6180     4.8920    -0.3720 C.3   1 <1>  -0.1600 
 32 H       -0.6570     3.2230    -1.2750 H     1 <1>   0.3700 
 33 H        1.5480     3.2860    -1.4830 H     1 <1>   0.0800 
 34 H        2.0980     1.0940    -2.3940 H     1 <1>   0.0800 
 35 H        2.8510     0.6250    -0.9050 H     1 <1>   0.0800 
 36 H        2.8580     2.3790     1.0860 H     1 <1>   0.0800 
 37 H        2.0680     3.9030     0.8250 H     1 <1>   0.0800 
 38 H       -1.6250    -0.1080    -0.2130 H     1 <1>   0.0800 
 39 H       -2.1590     0.4770    -1.7640 H     1 <1>   0.0800 
 40 H       -2.8790     2.8840    -2.0350 H     1 <1>   0.0800 
 41 H       -2.8260     3.9730    -0.6720 H     1 <1>   0.0800 
 42 H       -2.0280     3.1510     1.5800 H     1 <1>   0.0800 
 43 H       -1.5470     1.4900     1.7850 H     1 <1>   0.0800 
 44 H        3.8020     2.7910    -2.7840 H     1 <1>   0.0800 
 45 H        4.5810     1.2640    -2.4830 H     1 <1>   0.0800 
 46 H        4.5270     4.0740     0.6760 H     1 <1>   0.0800 
 47 H        3.7640     4.5420    -0.8260 H     1 <1>   0.0800 
 48 H       -3.9380    -0.8400    -0.6420 H     1 <1>   0.0800 
 49 H       -5.1460     3.2430    -1.1160 H     1 <1>   0.0800 
 50 H       -3.8070     1.8360     2.7030 H     1 <1>   0.0800 
 51 H       -5.7400     0.8550    -0.8060 H     1 <1>   0.0800 
 52 H       -4.6140     1.0380    -2.1150 H     1 <1>   0.0800 
 53 H       -3.2570    -0.3620     1.6940 H     1 <1>   0.0800 
 54 H       -4.9360     0.0160     1.4570 H     1 <1>   0.0800 
 55 H       -5.6630     2.4370     1.1730 H     1 <1>   0.0800 
 56 H       -4.4830     3.7110     1.2270 H     1 <1>   0.0800 
 57 H        6.5960     5.0960     0.3530 H     1 <1>   0.0800 
 58 H        6.6960     4.9110    -1.3940 H     1 <1>   0.0800 
 59 H        5.8200    -2.1890     0.1130 H     1 <1>   0.1500 
 60 H        8.2010    -1.2960     0.6930 H     1 <1>   0.4500 
 61 H       10.1910     3.4000    -0.1770 H     1 <1>   0.0800 
 62 H        9.4400     3.8540     1.3470 H     1 <1>   0.0800 
 63 H        8.8220     5.8010     0.1670 H     1 <1>   0.0800 
 64 H        9.0080     4.9900    -1.3720 H     1 <1>   0.0800 
@<TRIPOS>BOND
  1   1   2  2   
  2   2   3  am  
  3   2   4  1   
  4   3   5  1   
  5   3  32  1   
  6   4   6  1   
  7   4   7  1   
  8   4  33  1   
  9   5   8  1   
 10   5   9  1   
 11   5  10  1   
 12   6  11  1   
 13   6  34  1   
 14   6  35  1   
 15   7  12  1   
 16   7  36  1   
 17   7  37  1   
 18   8  13  1   
 19   8  38  1   
 20   8  39  1   
 21   9  14  1   
 22   9  40  1   
 23   9  41  1   
 24  10  15  1   
 25  10  42  1   
 26  10  43  1   
 27  11  16  1   
 28  11  44  1   
 29  11  45  1   
 30  12  16  1   
 31  12  46  1   
 32  12  47  1   
 33  13  17  1   
 34  13  18  1   
 35  13  48  1   
 36  14  17  1   
 37  14  19  1   
 38  14  49  1   
 39  15  18  1   
 40  15  19  1   
 41  15  50  1   
 42  16  20  1   
 43  17  51  1   
 44  17  52  1   
 45  18  53  1   
 46  18  54  1   
 47  19  55  1   
 48  19  56  1   
 49  20  21  1   
 50  20  22  2   
 51  21  23  1   
 52  21  24  ar  
 53  22  25  1   
 54  22  26  1   
 55  23  27  2   
 56  24  28  1   
 57  24  29  ar  
 58  25  28  2   
 59  25  30  1   
 60  26  31  1   
 61  26  57  1   
 62  26  58  1   
 63  27  29  1   
 64  27  59  1   
 65  29  60  1   
 66  30  31  1   
 67  30  61  1   
 68  30  62  1   
 69  31  63  1   
 70  31  64  1   
@<TRIPOS>SUBSTRUCTURE
  1 ****   4 GROUP 4 **** **** 0

# MOE 2024.06 (io_trps.svl 2023.06)
