@<TRIPOS>MOLECULE
4-(2-Fluoro-benzoylamino)-piperidine-1-carboxylic acid (4-methoxy-phenyl)-amide
49 51 1 0 0 
SMALL
USER_CHARGES


@<TRIPOS>ATOM
  1 F       -1.6460     2.0310     2.1990 F     1 <1>  -0.1900 
  2 C       -0.5180     2.3110     1.6020 C.ar  1 <1>   0.1900 
  3 C       -0.4900     2.5670     0.2270 C.ar  1 <1>   0.0860 
  4 C        0.6070     2.3390     2.4050 C.ar  1 <1>  -0.1500 
  5 C       -1.6580     2.5390    -0.6400 C.2   1 <1>   0.5440 
  6 C        0.7700     2.8680    -0.3030 C.ar  1 <1>  -0.1500 
  7 C        1.8330     2.6360     1.8400 C.ar  1 <1>  -0.1500 
  8 O       -1.6210     3.0650    -1.7360 O.2   1 <1>  -0.5700 
  9 N       -2.8220     1.9240    -0.2730 N.am  1 <1>  -0.7300 
 10 C        1.9090     2.9020     0.4830 C.ar  1 <1>  -0.1500 
 11 C       -4.0440     1.8490    -1.0870 C.3   1 <1>   0.2200 
 12 C       -4.9840     2.9840    -0.6760 C.3   1 <1>  -0.1600 
 13 C       -4.6980     0.4810    -0.8830 C.3   1 <1>  -0.1600 
 14 C       -6.3080     2.8790    -1.4320 C.3   1 <1>   0.1400 
 15 C       -6.0380     0.4010    -1.6190 C.3   1 <1>   0.1400 
 16 N       -6.9020     1.5360    -1.1900 N.am  1 <1>  -0.6600 
 17 C       -8.1820     1.3200    -0.7450 C.2   1 <1>   0.6900 
 18 O       -8.7280     0.2500    -0.9430 O.2   1 <1>  -0.5700 
 19 N       -8.8100     2.3130    -0.0500 N.am  1 <1>  -0.5470 
 20 C      -10.1260     2.4300     0.4220 C.ar  1 <1>   0.1170 
 21 C      -10.3810     3.2740     1.4970 C.ar  1 <1>  -0.1500 
 22 C      -11.1960     1.7520    -0.1540 C.ar  1 <1>  -0.1500 
 23 C      -11.6650     3.4330     1.9850 C.ar  1 <1>  -0.1500 
 24 C      -12.4830     1.9050     0.3310 C.ar  1 <1>  -0.1500 
 25 C      -12.7250     2.7520     1.4090 C.ar  1 <1>   0.0830 
 26 O      -13.9540     2.9620     1.9490 O.3   1 <1>  -0.3630 
 27 C      -15.0850     2.2810     1.4540 C.3   1 <1>   0.0400 
 28 H        0.5240     2.1320     3.4570 H     1 <1>   0.1500 
 29 H        0.8550     3.0790    -1.3560 H     1 <1>   0.1500 
 30 H        2.7210     2.6640     2.4480 H     1 <1>   0.1500 
 31 H       -2.9040     1.5630     0.6800 H     1 <1>   0.3700 
 32 H        2.8610     3.1360     0.0360 H     1 <1>   0.1500 
 33 H       -3.7890     1.9630    -2.1290 H     1 <1>   0.0800 
 34 H       -4.5200     3.9270    -0.9050 H     1 <1>   0.0800 
 35 H       -5.1760     2.9430     0.3810 H     1 <1>   0.0800 
 36 H       -4.8720     0.3040     0.1630 H     1 <1>   0.0800 
 37 H       -4.0460    -0.2880    -1.2570 H     1 <1>   0.0800 
 38 H       -6.1320     2.9960    -2.4880 H     1 <1>   0.0800 
 39 H       -6.9740     3.6660    -1.1230 H     1 <1>   0.0800 
 40 H       -6.5100    -0.5420    -1.3990 H     1 <1>   0.0800 
 41 H       -5.8830     0.4580    -2.6830 H     1 <1>   0.0800 
 42 H       -8.1660     3.0240     0.2740 H     1 <1>   0.3700 
 43 H       -9.5720     3.8080     1.9600 H     1 <1>   0.1500 
 44 H      -11.0250     1.0990    -0.9900 H     1 <1>   0.1500 
 45 H      -11.8570     4.0850     2.8180 H     1 <1>   0.1500 
 46 H      -13.2760     1.3600    -0.1430 H     1 <1>   0.1500 
 47 H      -15.9380     2.5850     2.0340 H     1 <1>   0.0800 
 48 H      -14.9290     1.2220     1.5610 H     1 <1>   0.0800 
 49 H      -15.2300     2.5490     0.4220 H     1 <1>   0.0800 
@<TRIPOS>BOND
  1   1   2  1   
  2   2   3  ar  
  3   2   4  ar  
  4   3   5  1   
  5   3   6  ar  
  6   4   7  ar  
  7   4  28  1   
  8   5   8  2   
  9   5   9  am  
 10   6  10  ar  
 11   6  29  1   
 12   7  10  ar  
 13   7  30  1   
 14   9  11  1   
 15   9  31  1   
 16  10  32  1   
 17  11  12  1   
 18  11  13  1   
 19  11  33  1   
 20  12  14  1   
 21  12  34  1   
 22  12  35  1   
 23  13  15  1   
 24  13  36  1   
 25  13  37  1   
 26  14  16  1   
 27  14  38  1   
 28  14  39  1   
 29  15  16  1   
 30  15  40  1   
 31  15  41  1   
 32  16  17  am  
 33  17  18  2   
 34  17  19  am  
 35  19  20  1   
 36  19  42  1   
 37  20  21  ar  
 38  20  22  ar  
 39  21  23  ar  
 40  21  43  1   
 41  22  24  ar  
 42  22  44  1   
 43  23  25  ar  
 44  23  45  1   
 45  24  25  ar  
 46  24  46  1   
 47  25  26  1   
 48  26  27  1   
 49  27  47  1   
 50  27  48  1   
 51  27  49  1   
@<TRIPOS>SUBSTRUCTURE
  1 ****  12 GROUP 4 **** **** 0

# MOE 2024.06 (io_trps.svl 2023.06)
