@<TRIPOS>MOLECULE
8-(2-Amino-ethylamino)-7-(2-fluoro-benzyl)-1,3-dimethyl-3,7-dihydro-purine-2,6-d
46 48 1 0 0 
SMALL
USER_CHARGES


@<TRIPOS>ATOM
  1 F        0.3110    -2.5410    -2.1140 F     1 <1>  -0.1980 
  2 C        1.0670    -2.5280    -1.0510 C.ar  1 <1>   0.1820 
  3 C        0.4840    -2.7140     0.1930 C.ar  1 <1>  -0.1520 
  4 C        2.4300    -2.3800    -1.2180 C.ar  1 <1>  -0.1580 
  5 C        1.3120    -2.7420     1.3060 C.ar  1 <1>  -0.1580 
  6 C       -1.0150    -2.9230     0.3210 C.3   1 <1>   0.4920 
  7 C        3.2430    -2.4180    -0.0980 C.ar  1 <1>  -0.1580 
  8 C        2.6830    -2.5990     1.1570 C.ar  1 <1>  -0.1580 
  9 N       -1.3800    -4.3650     0.1370 N.pl3 1 <1>  -0.7680 
 10 C       -0.6630    -5.4670    -0.0950 C.cat 1 <1>   1.0680 
 11 C       -2.7350    -4.7550     0.1230 C.2   1 <1>   0.2700 
 12 N       -1.4680    -6.5140    -0.2500 N.pl3 1 <1>  -0.7040 
 13 N        0.6720    -5.5280    -0.1640 N.pl3 1 <1>  -0.7190 
 14 C       -3.9780    -4.0660     0.2980 C.2   1 <1>   0.6990 
 15 C       -2.7530    -6.0820    -0.1170 C.2   1 <1>   0.4200 
 16 C        1.5830    -6.6660    -0.4820 C.3   1 <1>   0.1590 
 17 O       -3.9950    -2.8730     0.5520 O.2   1 <1>  -0.5750 
 18 N       -5.1530    -4.7940     0.1750 N.am  1 <1>  -0.4270 
 19 N       -3.9130    -6.8270    -0.2050 N.am  1 <1>  -0.4420 
 20 C        3.0120    -6.4130     0.0610 C.3   1 <1>   0.3360 
 21 C       -5.1270    -6.1640    -0.0690 C.2   1 <1>   0.6860 
 22 C       -6.4760    -4.1140     0.3320 C.3   1 <1>   0.0510 
 23 C       -3.8790    -8.2970    -0.4650 C.3   1 <1>   0.0510 
 24 N        3.9760    -7.4930    -0.3120 N.4   1 <1>  -0.8560 
 25 O       -6.1670    -6.7820    -0.1650 O.2   1 <1>  -0.5750 
 26 H        2.8440    -2.2260    -2.2010 H     1 <1>   0.1420 
 27 H        0.9030    -2.8660     2.2970 H     1 <1>   0.1420 
 28 H       -1.5310    -2.3240    -0.4120 H     1 <1>   0.0710 
 29 H       -1.3440    -2.5950     1.2930 H     1 <1>   0.0710 
 30 H        4.3090    -2.2860    -0.2010 H     1 <1>   0.1420 
 31 H        3.3200    -2.6050     2.0280 H     1 <1>   0.1420 
 32 H       -1.1940    -7.4680    -0.4580 H     1 <1>   0.4440 
 33 H        1.1220    -4.6070    -0.0740 H     1 <1>   0.4440 
 34 H        1.6250    -6.7760    -1.5540 H     1 <1>   0.0710 
 35 H        1.1880    -7.5700    -0.0520 H     1 <1>   0.0710 
 36 H        2.9700    -6.3340     1.1360 H     1 <1>   0.0710 
 37 H        3.3740    -5.4750    -0.3310 H     1 <1>   0.0710 
 38 H       -6.3880    -3.0510     0.1890 H     1 <1>   0.0710 
 39 H       -6.8650    -4.3040     1.3170 H     1 <1>   0.0710 
 40 H       -7.1750    -4.4930    -0.3950 H     1 <1>   0.0710 
 41 H       -3.0390    -8.7500     0.0290 H     1 <1>   0.0710 
 42 H       -3.8170    -8.4770    -1.5240 H     1 <1>   0.0710 
 43 H       -4.7740    -8.7670    -0.0910 H     1 <1>   0.0710 
 44 H        3.7210    -8.4110     0.0770 H     1 <1>   0.4440 
 45 H        4.9130    -7.2760     0.0560 H     1 <1>   0.4440 
 46 H        4.0830    -7.5950    -1.3300 H     1 <1>   0.4440 
@<TRIPOS>BOND
  1   1   2  1   
  2   2   3  ar  
  3   2   4  ar  
  4   3   5  ar  
  5   3   6  1   
  6   4   7  ar  
  7   4  26  1   
  8   5   8  ar  
  9   5  27  1   
 10   6   9  1   
 11   6  28  1   
 12   6  29  1   
 13   7   8  ar  
 14   7  30  1   
 15   8  31  1   
 16   9  10  ar  
 17   9  11  1   
 18  10  12  ar  
 19  10  13  ar  
 20  11  14  1   
 21  11  15  2   
 22  12  15  1   
 23  12  32  1   
 24  13  16  1   
 25  13  33  1   
 26  14  17  2   
 27  14  18  am  
 28  15  19  1   
 29  16  20  1   
 30  16  34  1   
 31  16  35  1   
 32  18  21  am  
 33  18  22  1   
 34  19  21  am  
 35  19  23  1   
 36  20  24  1   
 37  20  36  1   
 38  20  37  1   
 39  21  25  2   
 40  22  38  1   
 41  22  39  1   
 42  22  40  1   
 43  23  41  1   
 44  23  42  1   
 45  23  43  1   
 46  24  44  1   
 47  24  45  1   
 48  24  46  1   
@<TRIPOS>SUBSTRUCTURE
  1 ****   9 GROUP 4 **** **** 0

# MOE 2024.06 (io_trps.svl 2023.06)
