@<TRIPOS>MOLECULE
NONAME
40 41 1 0 0 
SMALL
USER_CHARGES


@<TRIPOS>ATOM
  1 O        1.5070    -3.1990     0.1350 O.2   1 <1>  -0.5700 
  2 C        0.6160    -2.4350     0.4670 C.2   1 <1>   0.6160 
  3 N        1.0070    -1.2660     1.0640 N.am  1 <1>  -0.7300 
  4 C       -0.7660    -2.7660     0.2000 C.2   1 <1>   0.0290 
  5 C        2.2700    -0.9300     1.7990 C.3   1 <1>   0.1400 
  6 C       -1.8310    -1.8370     0.4610 C.2   1 <1>   0.4690 
  7 C       -1.0990    -3.9920    -0.3160 C.2   1 <1>  -0.0500 
  8 C        3.5810    -1.4680     1.1760 C.3   1 <1>   0.3430 
  9 O       -1.6050    -0.7190     0.9170 O.2   1 <1>  -0.5700 
 10 C       -3.1950    -2.2200     0.1780 C.ar  1 <1>   0.0860 
 11 N       -2.3860    -4.3440    -0.5830 N.pl3 1 <1>  -0.6000 
 12 N        3.5830    -1.4210    -0.3200 N.4   1 <1>  -0.9590 
 13 C       -3.4590    -3.4930    -0.3510 C.ar  1 <1>   0.1000 
 14 C       -4.2800    -1.3670     0.4110 C.ar  1 <1>  -0.1500 
 15 C        4.7630    -2.1280    -0.8930 C.3   1 <1>   0.2630 
 16 C        3.4120    -0.0490    -0.8850 C.3   1 <1>   0.2630 
 17 C       -4.7700    -3.8880    -0.6360 C.ar  1 <1>  -0.1430 
 18 C       -5.5700    -1.7570     0.1310 C.ar  1 <1>  -0.1500 
 19 C       -5.8130    -3.0180    -0.3930 C.ar  1 <1>  -0.1500 
 20 C       -5.0680    -5.2670    -1.2110 C.3   1 <1>  -0.0970 
 21 H        0.2090    -0.6440     1.2930 H     1 <1>   0.3700 
 22 H        2.1920    -1.2980     2.8080 H     1 <1>   0.0800 
 23 H        2.3440     0.1420     1.8630 H     1 <1>   0.0800 
 24 H       -0.3380    -4.7270    -0.5280 H     1 <1>   0.1500 
 25 H        3.6920    -2.4940     1.4880 H     1 <1>   0.0800 
 26 H        4.4190    -0.9150     1.5680 H     1 <1>   0.0800 
 27 H       -2.6050    -5.2710    -0.9670 H     1 <1>   0.4000 
 28 H        2.7350    -1.9830    -0.5590 H     1 <1>   0.4500 
 29 H       -4.0990    -0.3860     0.8170 H     1 <1>   0.1500 
 30 H        5.6740    -1.6180    -0.6260 H     1 <1>   0.0800 
 31 H        4.6880    -2.1660    -1.9680 H     1 <1>   0.0800 
 32 H        4.8060    -3.1380    -0.5190 H     1 <1>   0.0800 
 33 H        4.2390     0.5800    -0.6020 H     1 <1>   0.0800 
 34 H        2.4970     0.3920    -0.5210 H     1 <1>   0.0800 
 35 H        3.3620    -0.0940    -1.9600 H     1 <1>   0.0800 
 36 H       -6.3930    -1.0880     0.3160 H     1 <1>   0.1500 
 37 H       -6.8290    -3.3050    -0.6050 H     1 <1>   0.1500 
 38 H       -4.7360    -6.0310    -0.5300 H     1 <1>   0.0800 
 39 H       -4.5670    -5.3900    -2.1550 H     1 <1>   0.0800 
 40 H       -6.1230    -5.3970    -1.3720 H     1 <1>   0.0800 
@<TRIPOS>BOND
  1   1   2  2   
  2   2   3  am  
  3   2   4  1   
  4   3   5  1   
  5   3  21  1   
  6   4   6  1   
  7   4   7  2   
  8   5   8  1   
  9   5  22  1   
 10   5  23  1   
 11   6   9  2   
 12   6  10  1   
 13   7  11  1   
 14   7  24  1   
 15   8  12  1   
 16   8  25  1   
 17   8  26  1   
 18  10  13  ar  
 19  10  14  ar  
 20  11  13  1   
 21  11  27  1   
 22  12  15  1   
 23  12  16  1   
 24  12  28  1   
 25  13  17  ar  
 26  14  18  ar  
 27  14  29  1   
 28  15  30  1   
 29  15  31  1   
 30  15  32  1   
 31  16  33  1   
 32  16  34  1   
 33  16  35  1   
 34  17  19  ar  
 35  17  20  1   
 36  18  19  ar  
 37  18  36  1   
 38  19  37  1   
 39  20  38  1   
 40  20  39  1   
 41  20  40  1   
@<TRIPOS>SUBSTRUCTURE
  1 ****   4 GROUP 4 **** **** 0

# MOE 2024.06 (io_trps.svl 2023.06)
