@<TRIPOS>MOLECULE
10658
34 34 1 0 0 
SMALL
USER_CHARGES


@<TRIPOS>ATOM
  1 CL       0.9150     1.2430    -0.3730 Cl    1 <1>  -0.1770 
  2 C       -0.6930     1.8190     0.0190 C.ar  1 <1>   0.1770 
  3 C       -0.9260     2.4550     1.2370 C.ar  1 <1>   0.1170 
  4 C       -1.6970     1.6220    -0.9070 C.ar  1 <1>  -0.1500 
  5 N        0.1210     2.6650     2.1500 N.am  1 <1>  -0.5470 
  6 C       -2.2270     2.8740     1.5230 C.ar  1 <1>  -0.1430 
  7 C       -2.9810     2.0570    -0.6250 C.ar  1 <1>  -0.1430 
  8 C        0.8730     3.7780     2.3500 C.2   1 <1>   0.5690 
  9 C       -3.2340     2.6760     0.5900 C.ar  1 <1>  -0.1500 
 10 C       -2.5700     3.5400     2.8520 C.3   1 <1>  -0.0960 
 11 C       -4.1020     1.8530    -1.6270 C.3   1 <1>  -0.0960 
 12 O        1.7390     3.7720     3.1860 O.2   1 <1>  -0.5700 
 13 C        0.6440     5.0370     1.5280 C.3   1 <1>  -0.0990 
 14 C        1.4240     5.0130     0.2050 C.3   1 <1>  -0.1600 
 15 C        1.1910     6.2930    -0.6060 C.3   1 <1>  -0.1600 
 16 C        1.9640     6.2540    -1.9260 C.3   1 <1>  -0.2400 
 17 H       -1.4710     1.1300    -1.8360 H     1 <1>   0.1500 
 18 H        0.4590     1.8530     2.6670 H     1 <1>   0.3700 
 19 H       -4.2360     3.0040     0.8090 H     1 <1>   0.1500 
 20 H       -2.1760     2.9620     3.6690 H     1 <1>   0.0800 
 21 H       -3.6340     3.6180     2.9810 H     1 <1>   0.0800 
 22 H       -2.1490     4.5270     2.8930 H     1 <1>   0.0800 
 23 H       -3.7070     1.7320    -2.6200 H     1 <1>   0.0800 
 24 H       -4.7620     2.7020    -1.6270 H     1 <1>   0.0800 
 25 H       -4.6660     0.9750    -1.3700 H     1 <1>   0.0800 
 26 H        0.9620     5.8800     2.1140 H     1 <1>   0.0800 
 27 H       -0.4040     5.1540     1.3290 H     1 <1>   0.0800 
 28 H        1.1150     4.1620    -0.3770 H     1 <1>   0.0800 
 29 H        2.4750     4.9040     0.4170 H     1 <1>   0.0800 
 30 H        1.5100     7.1480    -0.0340 H     1 <1>   0.0800 
 31 H        0.1400     6.4030    -0.8150 H     1 <1>   0.0800 
 32 H        3.0210     6.1640    -1.7410 H     1 <1>   0.0800 
 33 H        1.7900     7.1580    -2.4820 H     1 <1>   0.0800 
 34 H        1.6460     5.4180    -2.5240 H     1 <1>   0.0800 
@<TRIPOS>BOND
  1   1   2  1   
  2   2   3  ar  
  3   2   4  ar  
  4   3   5  1   
  5   3   6  ar  
  6   4   7  ar  
  7   4  17  1   
  8   5   8  am  
  9   5  18  1   
 10   6   9  ar  
 11   6  10  1   
 12   7   9  ar  
 13   7  11  1   
 14   8  12  2   
 15   8  13  1   
 16   9  19  1   
 17  10  20  1   
 18  10  21  1   
 19  10  22  1   
 20  11  23  1   
 21  11  24  1   
 22  11  25  1   
 23  13  14  1   
 24  13  26  1   
 25  13  27  1   
 26  14  15  1   
 27  14  28  1   
 28  14  29  1   
 29  15  16  1   
 30  15  30  1   
 31  15  31  1   
 32  16  32  1   
 33  16  33  1   
 34  16  34  1   
@<TRIPOS>SUBSTRUCTURE
  1 ****   3 GROUP 4 **** **** 0

# MOE 2024.06 (io_trps.svl 2023.06)
