@<TRIPOS>MOLECULE
3092
53 54 1 0 0 
SMALL
USER_CHARGES


@<TRIPOS>ATOM
  1 S       -0.0390     2.1570    -0.9210 S.o2  1 <1>   1.4470 
  2 O        0.3750     3.3920    -0.3030 O.2   1 <1>  -0.6500 
  3 O        0.8100     0.9930    -0.8790 O.2   1 <1>  -0.6500 
  4 N       -0.0490     2.5300    -2.5330 N.am  1 <1>  -0.9780 
  5 C       -1.7660     1.7600    -0.5390 C.ar  1 <1>  -0.0090 
  6 C       -2.1910     0.4460    -0.3840 C.ar  1 <1>  -0.1500 
  7 C       -2.7200     2.7630    -0.4080 C.ar  1 <1>  -0.1500 
  8 C       -3.5130     0.1450    -0.1070 C.ar  1 <1>  -0.1500 
  9 C       -4.0430     2.4660    -0.1320 C.ar  1 <1>  -0.1500 
 10 C       -4.4640     1.1510     0.0210 C.ar  1 <1>   0.1170 
 11 N       -5.8140     0.9030     0.3070 N.am  1 <1>  -0.5470 
 12 C       -6.5740    -0.2230     0.1440 C.2   1 <1>   0.5690 
 13 O       -6.1630    -1.2520    -0.3270 O.2   1 <1>  -0.5700 
 14 C       -8.0250    -0.1610     0.5810 C.3   1 <1>  -0.0990 
 15 C       -8.8610     0.7880    -0.2940 C.3   1 <1>  -0.1600 
 16 C      -10.3320     0.7820     0.1250 C.3   1 <1>   0.1200 
 17 O      -11.0070     1.7380    -0.6570 O.3   1 <1>  -0.3630 
 18 C      -12.3340     1.9660    -0.4980 C.ar  1 <1>   0.0830 
 19 C      -13.1400     1.2850     0.4070 C.ar  1 <1>  -0.1500 
 20 C      -12.9010     2.9420    -1.2970 C.ar  1 <1>  -0.1500 
 21 C      -14.4880     1.5860     0.5030 C.ar  1 <1>  -0.1500 
 22 C      -14.2480     3.2380    -1.1960 C.ar  1 <1>  -0.1500 
 23 C      -15.0710     2.5680    -0.2950 C.ar  1 <1>  -0.1430 
 24 C      -16.5700     2.9360    -0.2200 C.3   1 <1>   0.1440 
 25 C      -17.3460     2.1120     0.8210 C.3   1 <1>  -0.2400 
 26 C      -16.7170     4.4170     0.1600 C.3   1 <1>  -0.2400 
 27 C      -17.2280     2.6920    -1.5860 C.3   1 <1>  -0.2400 
 28 H        0.6030     3.3070    -2.5960 H     1 <1>   0.4200 
 29 H        0.4170     1.7340    -2.9600 H     1 <1>   0.4200 
 30 H       -1.4790    -0.3570    -0.4810 H     1 <1>   0.1500 
 31 H       -2.4190     3.7910    -0.5260 H     1 <1>   0.1500 
 32 H       -3.7980    -0.8850     0.0110 H     1 <1>   0.1500 
 33 H       -4.7530     3.2670    -0.0400 H     1 <1>   0.1500 
 34 H       -6.3290     1.7130     0.6430 H     1 <1>   0.3700 
 35 H       -8.0640     0.1500     1.6090 H     1 <1>   0.0800 
 36 H       -8.4360    -1.1540     0.5230 H     1 <1>   0.0800 
 37 H       -8.7910     0.4760    -1.3220 H     1 <1>   0.0800 
 38 H       -8.4810     1.7910    -0.2130 H     1 <1>   0.0800 
 39 H      -10.4380     1.0590     1.1600 H     1 <1>   0.0800 
 40 H      -10.7770    -0.1810    -0.0540 H     1 <1>   0.0800 
 41 H      -12.7410     0.5200     1.0430 H     1 <1>   0.1500 
 42 H      -12.2810     3.4690    -1.9990 H     1 <1>   0.1500 
 43 H      -15.0680     1.0330     1.2170 H     1 <1>   0.1500 
 44 H      -14.6500     4.0030    -1.8340 H     1 <1>   0.1500 
 45 H      -16.9400     2.2690     1.8050 H     1 <1>   0.0800 
 46 H      -17.2980     1.0640     0.5850 H     1 <1>   0.0800 
 47 H      -18.3810     2.4010     0.8380 H     1 <1>   0.0800 
 48 H      -16.2280     4.6050     1.0990 H     1 <1>   0.0800 
 49 H      -17.7540     4.6850     0.2530 H     1 <1>   0.0800 
 50 H      -16.2740     5.0540    -0.5830 H     1 <1>   0.0800 
 51 H      -17.0990     1.6650    -1.8770 H     1 <1>   0.0800 
 52 H      -16.7890     3.3140    -2.3450 H     1 <1>   0.0800 
 53 H      -18.2800     2.9080    -1.5460 H     1 <1>   0.0800 
@<TRIPOS>BOND
  1   1   2  2   
  2   1   3  2   
  3   1   4  am  
  4   1   5  1   
  5   4  28  1   
  6   4  29  1   
  7   5   6  ar  
  8   5   7  ar  
  9   6   8  ar  
 10   6  30  1   
 11   7   9  ar  
 12   7  31  1   
 13   8  10  ar  
 14   8  32  1   
 15   9  10  ar  
 16   9  33  1   
 17  10  11  1   
 18  11  12  am  
 19  11  34  1   
 20  12  13  2   
 21  12  14  1   
 22  14  15  1   
 23  14  35  1   
 24  14  36  1   
 25  15  16  1   
 26  15  37  1   
 27  15  38  1   
 28  16  17  1   
 29  16  39  1   
 30  16  40  1   
 31  17  18  1   
 32  18  19  ar  
 33  18  20  ar  
 34  19  21  ar  
 35  19  41  1   
 36  20  22  ar  
 37  20  42  1   
 38  21  23  ar  
 39  21  43  1   
 40  22  23  ar  
 41  22  44  1   
 42  23  24  1   
 43  24  25  1   
 44  24  26  1   
 45  24  27  1   
 46  25  45  1   
 47  25  46  1   
 48  25  47  1   
 49  26  48  1   
 50  26  49  1   
 51  26  50  1   
 52  27  51  1   
 53  27  52  1   
 54  27  53  1   
@<TRIPOS>SUBSTRUCTURE
  1 ****  15 GROUP 4 **** **** 0

# MOE 2024.06 (io_trps.svl 2023.06)
