@<TRIPOS>MOLECULE
1-[3-(3-Mercapto-5-phenyl-[1,2,4]triazol-4-yl)-propyl]-pyrrolidin-2-one
39 41 1 0 0 
SMALL
USER_CHARGES


@<TRIPOS>ATOM
  1 S       -0.5730    -0.7480     0.8470 S.3   1 <1>  -0.9360 
  2 C       -2.0470    -0.1290     1.1040 C.cat 1 <1>   0.7360 
  3 N       -2.3090     0.8320     1.9580 N.pl3 1 <1>  -0.3930 
  4 N       -3.1680    -0.4790     0.5080 N.pl3 1 <1>  -0.7640 
  5 N       -3.6310     1.1510     1.9370 N.2   1 <1>  -0.2600 
  6 C       -4.1340     0.3550     1.0440 C.2   1 <1>   0.6120 
  7 C       -3.2900    -1.5710    -0.4800 C.3   1 <1>   0.3540 
  8 C       -5.5230     0.3180     0.6450 C.ar  1 <1>   0.0410 
  9 C       -4.1680    -2.6970     0.0690 C.3   1 <1>  -0.1600 
 10 C       -6.5290     0.0580     1.5760 C.ar  1 <1>  -0.1500 
 11 C       -5.9040     0.5270    -0.6810 C.ar  1 <1>  -0.1500 
 12 C       -4.3790    -3.7810    -0.9880 C.3   1 <1>   0.1400 
 13 C       -7.8570    -0.0080     1.1970 C.ar  1 <1>  -0.1500 
 14 C       -7.2310     0.4620    -1.0650 C.ar  1 <1>  -0.1500 
 15 N       -5.3460    -4.7840    -0.4920 N.am  1 <1>  -0.6600 
 16 C       -8.2100     0.1910    -0.1260 C.ar  1 <1>  -0.1500 
 17 C       -5.0370    -6.0500    -0.1320 C.2   1 <1>   0.5690 
 18 C       -6.7910    -4.5050    -0.4170 C.3   1 <1>   0.1400 
 19 O       -3.9330    -6.5370    -0.1320 O.2   1 <1>  -0.5700 
 20 C       -6.2700    -6.8060     0.2770 C.3   1 <1>  -0.0990 
 21 C       -7.4230    -5.8780    -0.1430 C.3   1 <1>  -0.1600 
 22 H       -1.5650     1.2420     2.5240 H     1 <1>   0.4500 
 23 H       -2.3160    -1.9660    -0.7210 H     1 <1>   0.0800 
 24 H       -3.7140    -1.1780    -1.3870 H     1 <1>   0.0800 
 25 H       -5.1230    -2.3050     0.3580 H     1 <1>   0.0800 
 26 H       -3.6860    -3.1320     0.9260 H     1 <1>   0.0800 
 27 H       -6.2660    -0.0980     2.6090 H     1 <1>   0.1500 
 28 H       -5.1530     0.7510    -1.4190 H     1 <1>   0.1500 
 29 H       -3.4400    -4.2660    -1.2050 H     1 <1>   0.0800 
 30 H       -4.7580    -3.3550    -1.9010 H     1 <1>   0.0800 
 31 H       -8.6200    -0.2120     1.9300 H     1 <1>   0.1500 
 32 H       -7.5070     0.6260    -2.0930 H     1 <1>   0.1500 
 33 H       -9.2440     0.1420    -0.4220 H     1 <1>   0.1500 
 34 H       -7.1490    -4.0870    -1.3430 H     1 <1>   0.0800 
 35 H       -6.9870    -3.8250     0.3950 H     1 <1>   0.0800 
 36 H       -6.2510    -6.9480     1.3420 H     1 <1>   0.0800 
 37 H       -6.3140    -7.7560    -0.2230 H     1 <1>   0.0800 
 38 H       -7.8680    -6.2440    -1.0520 H     1 <1>   0.0800 
 39 H       -8.1850    -5.8160     0.6130 H     1 <1>   0.0800 
@<TRIPOS>BOND
  1   1   2  1   
  2   2   3  ar  
  3   2   4  ar  
  4   3   5  1   
  5   3  22  1   
  6   4   6  1   
  7   4   7  1   
  8   5   6  2   
  9   6   8  1   
 10   7   9  1   
 11   7  23  1   
 12   7  24  1   
 13   8  10  ar  
 14   8  11  ar  
 15   9  12  1   
 16   9  25  1   
 17   9  26  1   
 18  10  13  ar  
 19  10  27  1   
 20  11  14  ar  
 21  11  28  1   
 22  12  15  1   
 23  12  29  1   
 24  12  30  1   
 25  13  16  ar  
 26  13  31  1   
 27  14  16  ar  
 28  14  32  1   
 29  15  17  am  
 30  15  18  1   
 31  16  33  1   
 32  17  19  2   
 33  17  20  1   
 34  18  21  1   
 35  18  34  1   
 36  18  35  1   
 37  20  21  1   
 38  20  36  1   
 39  20  37  1   
 40  21  38  1   
 41  21  39  1   
@<TRIPOS>SUBSTRUCTURE
  1 ****   9 GROUP 4 **** **** 0

# MOE 2024.06 (io_trps.svl 2023.06)
