@<TRIPOS>MOLECULE
N-(2,3-Dimethoxy-benzyl)-2-(3-ethyl-2,4-dioxo-3,4-dihydro-2H-thieno[3,2-d]pyrimi
49 51 1 0 0 
SMALL
USER_CHARGES


@<TRIPOS>ATOM
  1 S        6.4140    -2.8900     1.1400 S.3   1 <1>  -0.0800 
  2 C        5.0920    -3.3250     0.0480 C.2   1 <1>  -0.0450 
  3 C        5.2800    -2.4910     2.4190 C.2   1 <1>  -0.1100 
  4 C        5.2340    -3.8240    -1.2720 C.2   1 <1>   0.7150 
  5 C        3.8990    -3.1400     0.6600 C.2   1 <1>   0.0630 
  6 C        4.0100    -2.6770     2.0120 C.2   1 <1>  -0.1500 
  7 O        6.3210    -3.9300    -1.8190 O.2   1 <1>  -0.5700 
  8 N        4.0700    -4.1840    -1.9290 N.am  1 <1>  -0.4200 
  9 N        2.7380    -3.4310    -0.0590 N.am  1 <1>  -0.4230 
 10 C        2.8340    -4.0040    -1.3230 C.2   1 <1>   0.6900 
 11 C        4.1500    -4.8940    -3.2350 C.3   1 <1>   0.1400 
 12 C        1.4050    -3.4170     0.6280 C.3   1 <1>   0.2010 
 13 O        1.8150    -4.3670    -1.8890 O.2   1 <1>  -0.5700 
 14 C        4.0030    -3.8950    -4.3820 C.3   1 <1>  -0.2400 
 15 C        1.1670    -4.7450     1.3310 C.2   1 <1>   0.5690 
 16 O        1.0900    -4.7700     2.5380 O.2   1 <1>  -0.5700 
 17 N        1.1350    -5.8710     0.5770 N.am  1 <1>  -0.7300 
 18 C        1.7060    -7.1390     1.0490 C.3   1 <1>   0.2840 
 19 C        3.2080    -7.0490     0.8270 C.ar  1 <1>  -0.1430 
 20 C        3.7760    -7.3570    -0.4050 C.ar  1 <1>   0.0830 
 21 C        4.0150    -6.6160     1.8670 C.ar  1 <1>  -0.1500 
 22 O        2.9270    -7.7510    -1.3950 O.3   1 <1>  -0.3630 
 23 C        5.1600    -7.2220    -0.5960 C.ar  1 <1>   0.0830 
 24 C        5.3800    -6.4910     1.6890 C.ar  1 <1>  -0.1500 
 25 C        3.2170    -8.9290    -2.1150 C.3   1 <1>   0.0400 
 26 O        5.6930    -7.4880    -1.8250 O.3   1 <1>  -0.3630 
 27 C        5.9500    -6.7910     0.4660 C.ar  1 <1>  -0.1500 
 28 C        7.0650    -7.2960    -2.0990 C.3   1 <1>   0.0400 
 29 H        5.6900    -2.1580     3.3570 H     1 <1>   0.1500 
 30 H        3.1450    -2.5090     2.6270 H     1 <1>   0.1500 
 31 H        3.3770    -5.6410    -3.2910 H     1 <1>   0.0800 
 32 H        5.0930    -5.4050    -3.3190 H     1 <1>   0.0800 
 33 H        0.6200    -3.2530    -0.0870 H     1 <1>   0.0800 
 34 H        1.3650    -2.6190     1.3430 H     1 <1>   0.0800 
 35 H        3.0480    -3.4020    -4.3280 H     1 <1>   0.0800 
 36 H        4.0660    -4.4130    -5.3210 H     1 <1>   0.0800 
 37 H        4.7910    -3.1630    -4.3420 H     1 <1>   0.0800 
 38 H        1.2460    -5.7550    -0.4400 H     1 <1>   0.3700 
 39 H        1.2810    -7.9590     0.4960 H     1 <1>   0.0800 
 40 H        1.4830    -7.2770     2.0930 H     1 <1>   0.0800 
 41 H        3.5780    -6.3620     2.8190 H     1 <1>   0.1500 
 42 H        5.9970    -6.1510     2.5030 H     1 <1>   0.1500 
 43 H        3.8660    -8.6860    -2.9370 H     1 <1>   0.0800 
 44 H        2.2930    -9.3290    -2.4900 H     1 <1>   0.0800 
 45 H        3.6880    -9.6390    -1.4580 H     1 <1>   0.0800 
 46 H        7.0120    -6.6720     0.3650 H     1 <1>   0.1500 
 47 H        7.2360    -7.5330    -3.1330 H     1 <1>   0.0800 
 48 H        7.6420    -7.9540    -1.4740 H     1 <1>   0.0800 
 49 H        7.3220    -6.2680    -1.9150 H     1 <1>   0.0800 
@<TRIPOS>BOND
  1   1   2  1   
  2   1   3  1   
  3   2   4  1   
  4   2   5  2   
  5   3   6  2   
  6   3  29  1   
  7   4   7  2   
  8   4   8  am  
  9   5   6  1   
 10   5   9  1   
 11   6  30  1   
 12   8  10  am  
 13   8  11  1   
 14   9  10  am  
 15   9  12  1   
 16  10  13  2   
 17  11  14  1   
 18  11  31  1   
 19  11  32  1   
 20  12  15  1   
 21  12  33  1   
 22  12  34  1   
 23  14  35  1   
 24  14  36  1   
 25  14  37  1   
 26  15  16  2   
 27  15  17  am  
 28  17  18  1   
 29  17  38  1   
 30  18  19  1   
 31  18  39  1   
 32  18  40  1   
 33  19  20  ar  
 34  19  21  ar  
 35  20  22  1   
 36  20  23  ar  
 37  21  24  ar  
 38  21  41  1   
 39  22  25  1   
 40  23  26  1   
 41  23  27  ar  
 42  24  27  ar  
 43  24  42  1   
 44  25  43  1   
 45  25  44  1   
 46  25  45  1   
 47  26  28  1   
 48  27  46  1   
 49  28  47  1   
 50  28  48  1   
 51  28  49  1   
@<TRIPOS>SUBSTRUCTURE
  1 ****  10 GROUP 4 **** **** 0

# MOE 2024.06 (io_trps.svl 2023.06)
