@<TRIPOS>MOLECULE
Cyclohexanecarboxylic acid {5-[(2-fluoro-phenylcarbamoyl)-methylsulfanyl]-[1,3,4]thiadiazol-2-yl}-amide
45 47 1 0 0 
SMALL
USER_CHARGES


@<TRIPOS>ATOM
  1 S        0.2490    -0.8220     1.2250 S.3   1 <1>  -0.0800 
  2 C        1.4050    -0.9000    -0.0510 C.2   1 <1>   0.4340 
  3 C       -0.9650    -0.8810    -0.0170 C.2   1 <1>   0.4420 
  4 S        3.1290    -0.8870     0.4090 S.3   1 <1>  -0.2860 
  5 N        0.9100    -0.9600    -1.2170 N.2   1 <1>  -0.3380 
  6 N       -0.4600    -0.9500    -1.1980 N.2   1 <1>  -0.3380 
  7 N       -2.2780    -0.8490     0.4100 N.am  1 <1>  -0.4940 
  8 C        3.9890    -0.9800    -1.2390 C.3   1 <1>   0.1310 
  9 C       -3.4260    -0.8820    -0.3310 C.2   1 <1>   0.5690 
 10 C        5.5050    -0.9850    -1.1020 C.2   1 <1>   0.5690 
 11 O       -3.4320    -0.9480    -1.5340 O.2   1 <1>  -0.5700 
 12 C       -4.7570    -0.8310     0.4220 C.3   1 <1>  -0.0190 
 13 O        6.1520    -1.0090    -2.1190 O.2   1 <1>  -0.5700 
 14 N        6.0640    -0.9630     0.1480 N.am  1 <1>  -0.5470 
 15 C       -5.5860    -2.1070     0.1830 C.3   1 <1>  -0.1600 
 16 C       -5.5700     0.4210     0.0400 C.3   1 <1>  -0.1600 
 17 C        7.3980    -0.9630     0.6070 C.ar  1 <1>   0.1170 
 18 C       -6.9270    -2.0580     0.9290 C.3   1 <1>  -0.1600 
 19 C       -6.9110     0.4730     0.7860 C.3   1 <1>  -0.1600 
 20 C        7.6530    -0.9240     1.9780 C.ar  1 <1>   0.1900 
 21 C        8.5100    -1.0010    -0.2320 C.ar  1 <1>  -0.1500 
 22 C       -7.7260    -0.8050     0.5480 C.3   1 <1>  -0.1600 
 23 F        6.6390    -0.8870     2.8090 F     1 <1>  -0.1900 
 24 C        8.9260    -0.9200     2.5150 C.ar  1 <1>  -0.1500 
 25 C        9.7960    -0.9990     0.2850 C.ar  1 <1>  -0.1500 
 26 C       10.0100    -0.9590     1.6540 C.ar  1 <1>  -0.1500 
 27 H       -2.4030    -0.7920     1.4150 H     1 <1>   0.3700 
 28 H        3.6720    -0.1290    -1.8130 H     1 <1>   0.0800 
 29 H        3.6580    -1.8820    -1.7210 H     1 <1>   0.0800 
 30 H       -4.5480    -0.7720     1.4750 H     1 <1>   0.0800 
 31 H        5.3810    -0.9370     0.9110 H     1 <1>   0.3700 
 32 H       -5.0270    -2.9700     0.5030 H     1 <1>   0.0800 
 33 H       -5.7730    -2.2140    -0.8730 H     1 <1>   0.0800 
 34 H       -5.7570     0.4110    -1.0210 H     1 <1>   0.0800 
 35 H       -5.0010     1.3070     0.2610 H     1 <1>   0.0800 
 36 H       -6.7480    -2.0580     1.9910 H     1 <1>   0.0800 
 37 H       -7.5020    -2.9360     0.6920 H     1 <1>   0.0800 
 38 H       -7.4760     1.3260     0.4510 H     1 <1>   0.0800 
 39 H       -6.7320     0.5910     1.8420 H     1 <1>   0.0800 
 40 H        8.3850    -1.0340    -1.2980 H     1 <1>   0.1500 
 41 H       -8.6340    -0.7670     1.1250 H     1 <1>   0.0800 
 42 H       -7.9990    -0.8620    -0.4920 H     1 <1>   0.0800 
 43 H        9.0650    -0.8890     3.5800 H     1 <1>   0.1500 
 44 H       10.6380    -1.0290    -0.3860 H     1 <1>   0.1500 
 45 H       11.0130    -0.9570     2.0450 H     1 <1>   0.1500 
@<TRIPOS>BOND
  1   1   2  1   
  2   1   3  1   
  3   2   4  1   
  4   2   5  2   
  5   3   6  2   
  6   3   7  1   
  7   4   8  1   
  8   5   6  1   
  9   7   9  am  
 10   7  27  1   
 11   8  10  1   
 12   8  28  1   
 13   8  29  1   
 14   9  11  2   
 15   9  12  1   
 16  10  13  2   
 17  10  14  am  
 18  12  15  1   
 19  12  16  1   
 20  12  30  1   
 21  14  17  1   
 22  14  31  1   
 23  15  18  1   
 24  15  32  1   
 25  15  33  1   
 26  16  19  1   
 27  16  34  1   
 28  16  35  1   
 29  17  20  ar  
 30  17  21  ar  
 31  18  22  1   
 32  18  36  1   
 33  18  37  1   
 34  19  22  1   
 35  19  38  1   
 36  19  39  1   
 37  20  23  1   
 38  20  24  ar  
 39  21  25  ar  
 40  21  40  1   
 41  22  41  1   
 42  22  42  1   
 43  24  26  ar  
 44  24  43  1   
 45  25  26  ar  
 46  25  44  1   
 47  26  45  1   
@<TRIPOS>SUBSTRUCTURE
  1 ****   2 GROUP 4 **** **** 0

# MOE 2024.06 (io_trps.svl 2023.06)
