@<TRIPOS>MOLECULE
3-[2-(2,2-Dimethyl-propionyl)-6,7-dimethoxy-1,2,3,4-tetrahydro-isoquinolin-1-yl]-7-methyl-1H-quinolin-2-one
62 65 1 0 0 
SMALL
USER_CHARGES


@<TRIPOS>ATOM
  1 O        1.1020    -2.4050    -2.2460 O.2   1 <1>  -0.5700 
  2 C        1.8330    -2.2090    -1.2950 C.2   1 <1>   0.6160 
  3 N        2.9770    -1.5140    -1.5420 N.am  1 <1>  -0.5470 
  4 C        1.5770    -2.6200     0.0560 C.2   1 <1>  -0.1240 
  5 C        3.8750    -1.1240    -0.5570 C.ar  1 <1>   0.1170 
  6 C        2.4260    -2.2410     1.0500 C.2   1 <1>  -0.1780 
  7 C        0.3270    -3.4430     0.3600 C.3   1 <1>   0.5020 
  8 C        3.6060    -1.4780     0.7740 C.ar  1 <1>   0.0280 
  9 C        5.0200    -0.3950    -0.8640 C.ar  1 <1>  -0.1500 
 10 N        0.2310    -4.7300    -0.4160 N.am  1 <1>  -0.6600 
 11 C       -0.9040    -2.5310     0.2400 C.ar  1 <1>  -0.1430 
 12 C        4.5030    -1.0800     1.7650 C.ar  1 <1>  -0.1500 
 13 C        5.8990    -0.0090     0.1270 C.ar  1 <1>  -0.1430 
 14 C        1.2990    -5.4910    -0.8310 C.2   1 <1>   0.5690 
 15 C       -1.1170    -5.0670    -0.9640 C.3   1 <1>   0.1400 
 16 C       -1.8740    -2.7180    -0.7330 C.ar  1 <1>  -0.1430 
 17 C       -1.0500    -1.4770     1.1300 C.ar  1 <1>  -0.1500 
 18 C        5.6330    -0.3570     1.4470 C.ar  1 <1>  -0.1500 
 19 C        7.1500     0.7870    -0.1980 C.3   1 <1>  -0.0970 
 20 O        1.3390    -5.8780    -1.9780 O.2   1 <1>  -0.5700 
 21 C        2.4290    -6.0060     0.1160 C.3   1 <1>   0.0610 
 22 C       -1.7340    -3.8800    -1.6970 C.3   1 <1>  -0.0170 
 23 C       -2.9600    -1.8620    -0.8150 C.ar  1 <1>  -0.1500 
 24 C       -2.1270    -0.6110     1.0610 C.ar  1 <1>   0.0830 
 25 C        3.7810    -5.3590    -0.2400 C.3   1 <1>  -0.2400 
 26 C        2.1540    -5.8110     1.6220 C.3   1 <1>  -0.2400 
 27 C        2.5890    -7.5300    -0.0850 C.3   1 <1>  -0.2400 
 28 C       -3.1100    -0.8040     0.0790 C.ar  1 <1>   0.0830 
 29 O       -2.1290     0.3820     1.9940 O.3   1 <1>  -0.3630 
 30 O       -4.1930     0.0260     0.0300 O.3   1 <1>  -0.3620 
 31 C       -2.5720     1.6780     1.6560 C.3   1 <1>   0.0400 
 32 C       -5.2300    -0.1470    -0.9110 C.3   1 <1>   0.0400 
 33 H        3.1160    -1.2580    -2.5170 H     1 <1>   0.3700 
 34 H        2.2520    -2.4940     2.0800 H     1 <1>   0.1500 
 35 H        0.3620    -3.7230     1.3970 H     1 <1>   0.0800 
 36 H        5.2090    -0.1340    -1.8890 H     1 <1>   0.1500 
 37 H        4.3080    -1.3430     2.7890 H     1 <1>   0.1500 
 38 H       -1.7600    -5.3540    -0.1500 H     1 <1>   0.0800 
 39 H       -1.0510    -5.9020    -1.6400 H     1 <1>   0.0800 
 40 H       -0.3160    -1.3030     1.8960 H     1 <1>   0.1500 
 41 H        6.3150    -0.0580     2.2240 H     1 <1>   0.1500 
 42 H        7.2260     0.9720    -1.2550 H     1 <1>   0.0800 
 43 H        8.0230     0.2450     0.1180 H     1 <1>   0.0800 
 44 H        7.1250     1.7330     0.3130 H     1 <1>   0.0800 
 45 H       -2.6970    -4.1670    -2.0760 H     1 <1>   0.0800 
 46 H       -1.1160    -3.6060    -2.5330 H     1 <1>   0.0800 
 47 H       -3.6840    -2.0390    -1.5860 H     1 <1>   0.1500 
 48 H        3.7530    -4.2970    -0.0980 H     1 <1>   0.0800 
 49 H        4.0170    -5.5450    -1.2740 H     1 <1>   0.0800 
 50 H        4.5710    -5.7620     0.3670 H     1 <1>   0.0800 
 51 H        2.2330    -4.7830     1.9030 H     1 <1>   0.0800 
 52 H        2.8720    -6.3530     2.2110 H     1 <1>   0.0800 
 53 H        1.1720    -6.1710     1.8720 H     1 <1>   0.0800 
 54 H        2.8510    -7.7520    -1.1050 H     1 <1>   0.0800 
 55 H        1.6640    -8.0330     0.1360 H     1 <1>   0.0800 
 56 H        3.3590    -7.9300     0.5490 H     1 <1>   0.0800 
 57 H       -2.1330     2.3740     2.3470 H     1 <1>   0.0800 
 58 H       -3.6440     1.7110     1.7390 H     1 <1>   0.0800 
 59 H       -2.2600     1.9070     0.6520 H     1 <1>   0.0800 
 60 H       -5.9670     0.6160    -0.7390 H     1 <1>   0.0800 
 61 H       -5.6700    -1.1180    -0.7700 H     1 <1>   0.0800 
 62 H       -4.8230    -0.0460    -1.9010 H     1 <1>   0.0800 
@<TRIPOS>BOND
  1   1   2  2   
  2   2   3  am  
  3   2   4  1   
  4   3   5  1   
  5   3  33  1   
  6   4   6  2   
  7   4   7  1   
  8   5   8  ar  
  9   5   9  ar  
 10   6   8  1   
 11   6  34  1   
 12   7  10  1   
 13   7  11  1   
 14   7  35  1   
 15   8  12  ar  
 16   9  13  ar  
 17   9  36  1   
 18  10  14  am  
 19  10  15  1   
 20  11  16  ar  
 21  11  17  ar  
 22  12  18  ar  
 23  12  37  1   
 24  13  18  ar  
 25  13  19  1   
 26  14  20  2   
 27  14  21  1   
 28  15  22  1   
 29  15  38  1   
 30  15  39  1   
 31  16  22  1   
 32  16  23  ar  
 33  17  24  ar  
 34  17  40  1   
 35  18  41  1   
 36  19  42  1   
 37  19  43  1   
 38  19  44  1   
 39  21  25  1   
 40  21  26  1   
 41  21  27  1   
 42  22  45  1   
 43  22  46  1   
 44  23  28  ar  
 45  23  47  1   
 46  24  28  ar  
 47  24  29  1   
 48  25  48  1   
 49  25  49  1   
 50  25  50  1   
 51  26  51  1   
 52  26  52  1   
 53  26  53  1   
 54  27  54  1   
 55  27  55  1   
 56  27  56  1   
 57  28  30  1   
 58  29  31  1   
 59  30  32  1   
 60  31  57  1   
 61  31  58  1   
 62  31  59  1   
 63  32  60  1   
 64  32  61  1   
 65  32  62  1   
@<TRIPOS>SUBSTRUCTURE
  1 ****   4 GROUP 4 **** **** 0

# MOE 2024.06 (io_trps.svl 2023.06)
