@<TRIPOS>MOLECULE
4-(2,3-Dihydro-benzo[1,4]dioxine-6-carbonyl)-piperidine-1-carboxylic acid (4-ethoxy-phenyl)-amide
56 59 1 0 0 
SMALL
USER_CHARGES


@<TRIPOS>ATOM
  1 O       -0.4340    -1.0690    -2.5270 O.2   1 <1>  -0.5700 
  2 C       -0.0630    -1.6160    -1.5060 C.2   1 <1>   0.6900 
  3 N        1.2670    -1.8910    -1.3120 N.am  1 <1>  -0.6600 
  4 N       -0.9430    -1.9410    -0.5150 N.am  1 <1>  -0.5470 
  5 C        2.3100    -1.1700    -2.0880 C.3   1 <1>   0.1400 
  6 C        1.7680    -3.0310    -0.4990 C.3   1 <1>   0.1400 
  7 C       -2.3450    -1.9050    -0.4710 C.ar  1 <1>   0.1170 
  8 C        3.3990    -0.6670    -1.1340 C.3   1 <1>  -0.1600 
  9 C        2.8400    -2.5310     0.4710 C.3   1 <1>  -0.1600 
 10 C       -3.1360    -2.0070    -1.6110 C.ar  1 <1>  -0.1500 
 11 C       -2.9760    -1.7860     0.7620 C.ar  1 <1>  -0.1500 
 12 C        3.9810    -1.8070    -0.2750 C.3   1 <1>  -0.0190 
 13 C       -4.5150    -1.9860    -1.5190 C.ar  1 <1>  -0.1500 
 14 C       -4.3560    -1.7660     0.8610 C.ar  1 <1>  -0.1500 
 15 C        5.0530    -1.2780     0.6860 C.2   1 <1>   0.4230 
 16 C       -5.1370    -1.8660    -0.2870 C.ar  1 <1>   0.0830 
 17 O        4.6780    -0.7770     1.7170 O.2   1 <1>  -0.5700 
 18 C        6.4580    -1.4010     0.3530 C.ar  1 <1>   0.0860 
 19 O       -6.4960    -1.8550    -0.2860 O.3   1 <1>  -0.3630 
 20 C        7.4150    -1.3870     1.3720 C.ar  1 <1>  -0.1500 
 21 C        6.9300    -1.5290    -0.9610 C.ar  1 <1>  -0.1500 
 22 C       -7.2180    -1.6980     0.9130 C.3   1 <1>   0.1200 
 23 C        8.7640    -1.5120     1.1020 C.ar  1 <1>   0.0830 
 24 C        8.2790    -1.6610    -1.2410 C.ar  1 <1>  -0.1500 
 25 C       -8.7050    -1.7050     0.5730 C.3   1 <1>  -0.2400 
 26 O        9.6460    -1.4810     2.1330 O.3   1 <1>  -0.3630 
 27 C        9.2020    -1.6630    -0.2130 C.ar  1 <1>   0.0830 
 28 C       11.0060    -1.2660     1.8040 C.3   1 <1>   0.1200 
 29 O       10.5140    -1.8140    -0.5050 O.3   1 <1>  -0.3630 
 30 C       11.3920    -2.0930     0.5700 C.3   1 <1>   0.1200 
 31 H       -0.4780    -2.0990     0.3710 H     1 <1>   0.3700 
 32 H        1.8780    -0.3320    -2.6100 H     1 <1>   0.0800 
 33 H        2.7300    -1.8390    -2.8190 H     1 <1>   0.0800 
 34 H        2.1910    -3.7670    -1.1610 H     1 <1>   0.0800 
 35 H        0.9680    -3.5020     0.0450 H     1 <1>   0.0800 
 36 H        2.9750     0.0860    -0.4930 H     1 <1>   0.0800 
 37 H        4.1790    -0.2000    -1.7080 H     1 <1>   0.0800 
 38 H        3.2410    -3.3640     1.0210 H     1 <1>   0.0800 
 39 H        2.3820    -1.8630     1.1800 H     1 <1>   0.0800 
 40 H       -2.6730    -2.1030    -2.5760 H     1 <1>   0.1500 
 41 H       -2.3830    -1.7050     1.6540 H     1 <1>   0.1500 
 42 H        4.4310    -2.5320    -0.9280 H     1 <1>   0.0800 
 43 H       -5.1190    -2.0620    -2.4050 H     1 <1>   0.1500 
 44 H       -4.8020    -1.6710     1.8320 H     1 <1>   0.1500 
 45 H        7.1000    -1.2740     2.3940 H     1 <1>   0.1500 
 46 H        6.2450    -1.5200    -1.7880 H     1 <1>   0.1500 
 47 H       -6.9350    -0.7600     1.3600 H     1 <1>   0.0800 
 48 H       -6.9730    -2.5160     1.5680 H     1 <1>   0.0800 
 49 H        8.6260    -1.7630    -2.2540 H     1 <1>   0.1500 
 50 H       -8.9340    -0.8950    -0.0960 H     1 <1>   0.0800 
 51 H       -9.2850    -1.5870     1.4690 H     1 <1>   0.0800 
 52 H       -8.9730    -2.6390     0.1110 H     1 <1>   0.0800 
 53 H       11.6010    -1.5460     2.6540 H     1 <1>   0.0800 
 54 H       11.1410    -0.2170     1.6080 H     1 <1>   0.0800 
 55 H       11.3270    -3.1440     0.7900 H     1 <1>   0.0800 
 56 H       12.3920    -1.8610     0.2500 H     1 <1>   0.0800 
@<TRIPOS>BOND
  1   1   2  2   
  2   2   3  am  
  3   2   4  am  
  4   3   5  1   
  5   3   6  1   
  6   4   7  1   
  7   4  31  1   
  8   5   8  1   
  9   5  32  1   
 10   5  33  1   
 11   6   9  1   
 12   6  34  1   
 13   6  35  1   
 14   7  10  ar  
 15   7  11  ar  
 16   8  12  1   
 17   8  36  1   
 18   8  37  1   
 19   9  12  1   
 20   9  38  1   
 21   9  39  1   
 22  10  13  ar  
 23  10  40  1   
 24  11  14  ar  
 25  11  41  1   
 26  12  15  1   
 27  12  42  1   
 28  13  16  ar  
 29  13  43  1   
 30  14  16  ar  
 31  14  44  1   
 32  15  17  2   
 33  15  18  1   
 34  16  19  1   
 35  18  20  ar  
 36  18  21  ar  
 37  19  22  1   
 38  20  23  ar  
 39  20  45  1   
 40  21  24  ar  
 41  21  46  1   
 42  22  25  1   
 43  22  47  1   
 44  22  48  1   
 45  23  26  1   
 46  23  27  ar  
 47  24  27  ar  
 48  24  49  1   
 49  25  50  1   
 50  25  51  1   
 51  25  52  1   
 52  26  28  1   
 53  27  29  1   
 54  28  30  1   
 55  28  53  1   
 56  28  54  1   
 57  29  30  1   
 58  30  55  1   
 59  30  56  1   
@<TRIPOS>SUBSTRUCTURE
  1 ****   9 GROUP 4 **** **** 0

# MOE 2024.06 (io_trps.svl 2023.06)
