@<TRIPOS>MOLECULE
NONAME
39 41 1 0 0 
SMALL
USER_CHARGES


@<TRIPOS>ATOM
  1 CL      -0.0580    -2.3780     2.0030 Cl    1 <1>  -0.1770 
  2 C       -1.2470    -2.6420     0.7470 C.ar  1 <1>   0.1770 
  3 C       -0.8810    -3.1560    -0.4850 C.ar  1 <1>   0.1900 
  4 C       -2.5700    -2.3290     0.9980 C.ar  1 <1>  -0.1500 
  5 F        0.3710    -3.4540    -0.7270 F     1 <1>  -0.1900 
  6 C       -1.8180    -3.3690    -1.4780 C.ar  1 <1>  -0.1500 
  7 C       -3.5350    -2.5290     0.0150 C.ar  1 <1>   0.1170 
  8 C       -3.1430    -3.0540    -1.2180 C.ar  1 <1>  -0.1500 
  9 N       -4.8700    -2.2090     0.3100 N.am  1 <1>  -0.5470 
 10 C       -5.8990    -1.8490    -0.5190 C.2   1 <1>   0.5690 
 11 O       -5.7650    -1.7180    -1.7110 O.2   1 <1>  -0.5700 
 12 C       -7.2630    -1.5970     0.1280 C.3   1 <1>  -0.0190 
 13 C       -8.0000    -2.9230     0.3970 C.3   1 <1>  -0.1600 
 14 C       -8.1660    -0.6680    -0.7100 C.3   1 <1>  -0.1600 
 15 C       -9.3530    -2.6860     1.0710 C.3   1 <1>   0.2090 
 16 C       -9.5270    -0.4400    -0.0490 C.3   1 <1>   0.2090 
 17 N      -10.1650    -1.7530     0.2440 N.pl3 1 <1>  -0.8380 
 18 C      -11.4500    -2.0530    -0.1610 C.ar  1 <1>   0.7200 
 19 N      -12.2460    -1.0290    -0.4670 N.ar  1 <1>  -0.6200 
 20 N      -11.7900    -3.3420    -0.2060 N.ar  1 <1>  -0.6200 
 21 C      -13.4630    -1.3280    -0.8510 C.ar  1 <1>   0.1600 
 22 C      -13.0120    -3.6110    -0.5940 C.ar  1 <1>   0.1600 
 23 C      -13.9040    -2.6250    -0.9340 C.ar  1 <1>  -0.1500 
 24 H       -2.8380    -1.9270     1.9570 H     1 <1>   0.1500 
 25 H       -1.5170    -3.7700    -2.4300 H     1 <1>   0.1500 
 26 H       -3.8770    -3.2230    -1.9870 H     1 <1>   0.1500 
 27 H       -5.1010    -2.2110     1.3010 H     1 <1>   0.3700 
 28 H       -7.0900    -1.1100     1.0700 H     1 <1>   0.0800 
 29 H       -7.4040    -3.5590     1.0250 H     1 <1>   0.0800 
 30 H       -8.1670    -3.4410    -0.5320 H     1 <1>   0.0800 
 31 H       -8.3310    -1.1000    -1.6820 H     1 <1>   0.0800 
 32 H       -7.6780     0.2790    -0.8550 H     1 <1>   0.0800 
 33 H       -9.2090    -2.2480     2.0430 H     1 <1>   0.0800 
 34 H       -9.8540    -3.6290     1.2100 H     1 <1>   0.0800 
 35 H      -10.1360     0.1510    -0.7110 H     1 <1>   0.0800 
 36 H       -9.4090     0.1050     0.8710 H     1 <1>   0.0800 
 37 H      -14.1240    -0.5170    -1.1050 H     1 <1>   0.1500 
 38 H      -13.3090    -4.6450    -0.6430 H     1 <1>   0.1500 
 39 H      -14.9030    -2.8570    -1.2510 H     1 <1>   0.1500 
@<TRIPOS>BOND
  1   1   2  1   
  2   2   3  ar  
  3   2   4  ar  
  4   3   5  1   
  5   3   6  ar  
  6   4   7  ar  
  7   4  24  1   
  8   6   8  ar  
  9   6  25  1   
 10   7   8  ar  
 11   7   9  1   
 12   8  26  1   
 13   9  10  am  
 14   9  27  1   
 15  10  11  2   
 16  10  12  1   
 17  12  13  1   
 18  12  14  1   
 19  12  28  1   
 20  13  15  1   
 21  13  29  1   
 22  13  30  1   
 23  14  16  1   
 24  14  31  1   
 25  14  32  1   
 26  15  17  1   
 27  15  33  1   
 28  15  34  1   
 29  16  17  1   
 30  16  35  1   
 31  16  36  1   
 32  17  18  1   
 33  18  19  ar  
 34  18  20  ar  
 35  19  21  ar  
 36  20  22  ar  
 37  21  23  ar  
 38  21  37  1   
 39  22  23  ar  
 40  22  38  1   
 41  23  39  1   
@<TRIPOS>SUBSTRUCTURE
  1 ****  12 GROUP 4 **** **** 0

# MOE 2024.06 (io_trps.svl 2023.06)
