@<TRIPOS>MOLECULE
NONAME
39 41 1 0 0 
SMALL
USER_CHARGES


@<TRIPOS>ATOM
  1 CL      -0.6450    -2.9700    -2.5330 Cl    1 <1>  -0.1770 
  2 C       -0.8180    -2.8000    -0.8020 C.ar  1 <1>   0.1770 
  3 C       -1.8060    -1.9850    -0.2660 C.ar  1 <1>  -0.1440 
  4 C        0.0590    -3.4990     0.0070 C.ar  1 <1>  -0.1500 
  5 C       -1.8990    -1.8820     1.1160 C.ar  1 <1>  -0.1500 
  6 C       -2.7780    -1.2130    -1.1510 C.3   1 <1>   0.2390 
  7 C       -0.0440    -3.3860     1.3820 C.ar  1 <1>  -0.1500 
  8 C       -1.0240    -2.5780     1.9330 C.ar  1 <1>  -0.1500 
  9 N       -4.0720    -1.9100    -1.2430 N.pl3 1 <1>   0.3140 
 10 N       -4.4030    -2.7590    -2.2390 N.2   1 <1>  -0.4180 
 11 C       -5.1200    -1.7530    -0.4150 C.ar  1 <1>   0.1050 
 12 N       -5.6110    -3.1510    -2.0570 N.2   1 <1>  -0.2270 
 13 N       -5.2780    -1.0010     0.6880 N.ar  1 <1>  -0.5670 
 14 C       -6.0870    -2.5470    -0.9360 C.ar  1 <1>   0.2270 
 15 C       -6.4640    -1.1100     1.2360 C.ar  1 <1>   0.4770 
 16 C       -7.3180    -2.5790    -0.2600 C.ar  1 <1>   0.4100 
 17 N       -7.4980    -1.8580     0.8270 N.ar  1 <1>  -0.6200 
 18 C       -6.7230    -0.3010     2.4840 C.3   1 <1>  -0.0970 
 19 N       -8.3560    -3.3570    -0.7180 N.pl3 1 <1>  -0.8690 
 20 C       -9.6880    -3.4880    -0.1210 C.3   1 <1>   0.2890 
 21 C       -9.9070    -4.9570     0.2110 C.3   1 <1>  -0.2400 
 22 C      -10.7050    -2.9880    -1.1380 C.3   1 <1>  -0.2400 
 23 H        0.8130    -4.1230    -0.4380 H     1 <1>   0.1500 
 24 H       -2.6570    -1.2620     1.5670 H     1 <1>   0.1500 
 25 H       -2.3880    -1.0850    -2.1430 H     1 <1>   0.0800 
 26 H       -2.9490    -0.2370    -0.7350 H     1 <1>   0.0800 
 27 H        0.6340    -3.9260     2.0210 H     1 <1>   0.1500 
 28 H       -1.1070    -2.4910     3.0040 H     1 <1>   0.1500 
 29 H       -5.8580     0.2780     2.7490 H     1 <1>   0.0800 
 30 H       -6.9640    -0.9630     3.2940 H     1 <1>   0.0800 
 31 H       -7.5510     0.3620     2.3140 H     1 <1>   0.0800 
 32 H       -8.1950    -3.9120    -1.5610 H     1 <1>   0.4000 
 33 H       -9.7590    -2.9000     0.7800 H     1 <1>   0.0800 
 34 H       -9.8470    -5.5620    -0.6750 H     1 <1>   0.0800 
 35 H      -10.8770    -5.0900     0.6550 H     1 <1>   0.0800 
 36 H       -9.1640    -5.2830     0.9170 H     1 <1>   0.0800 
 37 H      -10.6550    -3.5650    -2.0430 H     1 <1>   0.0800 
 38 H      -10.5120    -1.9540    -1.3630 H     1 <1>   0.0800 
 39 H      -11.6970    -3.0670    -0.7320 H     1 <1>   0.0800 
@<TRIPOS>BOND
  1   1   2  1   
  2   2   3  ar  
  3   2   4  ar  
  4   3   5  ar  
  5   3   6  1   
  6   4   7  ar  
  7   4  23  1   
  8   5   8  ar  
  9   5  24  1   
 10   6   9  1   
 11   6  25  1   
 12   6  26  1   
 13   7   8  ar  
 14   7  27  1   
 15   8  28  1   
 16   9  10  1   
 17   9  11  1   
 18  10  12  2   
 19  11  13  ar  
 20  11  14  ar  
 21  12  14  1   
 22  13  15  ar  
 23  14  16  ar  
 24  15  17  ar  
 25  15  18  1   
 26  16  17  ar  
 27  16  19  1   
 28  18  29  1   
 29  18  30  1   
 30  18  31  1   
 31  19  20  1   
 32  19  32  1   
 33  20  21  1   
 34  20  22  1   
 35  20  33  1   
 36  21  34  1   
 37  21  35  1   
 38  21  36  1   
 39  22  37  1   
 40  22  38  1   
 41  22  39  1   
@<TRIPOS>SUBSTRUCTURE
  1 ****  11 GROUP 4 **** **** 0

# MOE 2024.06 (io_trps.svl 2023.06)
