@<TRIPOS>MOLECULE
3-(Cyclopropanecarbonyl-amino)-9-aza-bicyclo[3.3.1]nonane-9-carboxylic acid (4-methoxy-phenyl)-amide
53 56 1 0 0 
SMALL
USER_CHARGES


@<TRIPOS>ATOM
  1 O       -1.6770     0.1140     0.1800 O.2   1 <1>  -0.5700 
  2 C       -1.3920    -1.0450     0.4150 C.2   1 <1>   0.6900 
  3 N       -1.9880    -1.7000     1.4570 N.am  1 <1>  -0.6600 
  4 N       -0.5250    -1.7390    -0.3770 N.am  1 <1>  -0.5470 
  5 C       -2.7300    -1.0720     2.5730 C.3   1 <1>   0.2200 
  6 C       -2.3010    -3.1070     1.5350 C.3   1 <1>   0.2200 
  7 C        0.0190    -1.4620    -1.6400 C.ar  1 <1>   0.1170 
  8 C       -4.0470    -0.5920     1.9800 C.3   1 <1>  -0.1600 
  9 C       -1.6760    -0.9500     3.6560 C.3   1 <1>  -0.1600 
 10 C       -3.8640    -3.1680     1.3390 C.3   1 <1>  -0.1600 
 11 C       -1.6960    -3.5390     2.9260 C.3   1 <1>  -0.1600 
 12 C        0.1840    -0.1710    -2.1350 C.ar  1 <1>  -0.1500 
 13 C        0.4140    -2.5290    -2.4390 C.ar  1 <1>  -0.1500 
 14 C       -4.5850    -1.7760     1.0960 C.3   1 <1>   0.2200 
 15 C       -1.0110    -2.3790     3.7760 C.3   1 <1>  -0.1600 
 16 C        0.7130     0.0490    -3.3940 C.ar  1 <1>  -0.1500 
 17 C        0.9450    -2.3160    -3.6980 C.ar  1 <1>  -0.1500 
 18 N       -4.3740    -1.3930    -0.3080 N.am  1 <1>  -0.7300 
 19 C        1.0970    -1.0290    -4.1870 C.ar  1 <1>   0.0830 
 20 C       -5.1070    -1.7790    -1.3760 C.2   1 <1>   0.6300 
 21 O        1.6230    -0.9070    -5.4340 O.3   1 <1>  -0.3630 
 22 O       -6.0790    -2.4870    -1.2630 O.2   1 <1>  -0.5700 
 23 C       -4.6740    -1.3210    -2.7640 C.3   1 <1>  -0.1000 
 24 C        1.8180     0.3640    -6.0140 C.3   1 <1>   0.0400 
 25 C       -3.3230    -1.7080    -3.2960 C.3   1 <1>  -0.2000 
 26 C       -3.6220    -0.2710    -3.0050 C.3   1 <1>  -0.2000 
 27 H       -0.2970    -2.6480     0.0070 H     1 <1>   0.3700 
 28 H       -3.2580    -1.8030     3.1620 H     1 <1>   0.0800 
 29 H       -1.8220    -3.6480     0.7380 H     1 <1>   0.0800 
 30 H       -3.9240     0.3210     1.4260 H     1 <1>   0.0800 
 31 H       -4.7400    -0.3990     2.7790 H     1 <1>   0.0800 
 32 H       -2.1390    -0.6700     4.5860 H     1 <1>   0.0800 
 33 H       -0.9540    -0.1960     3.3930 H     1 <1>   0.0800 
 34 H       -4.3030    -3.6180     2.2100 H     1 <1>   0.0800 
 35 H       -4.0950    -3.8300     0.5240 H     1 <1>   0.0800 
 36 H       -0.9740    -4.3180     2.7600 H     1 <1>   0.0800 
 37 H       -2.4760    -3.9820     3.5190 H     1 <1>   0.0800 
 38 H       -0.0970     0.6740    -1.5360 H     1 <1>   0.1500 
 39 H        0.3010    -3.5350    -2.0800 H     1 <1>   0.1500 
 40 H       -5.6460    -1.8920     1.2510 H     1 <1>   0.0800 
 41 H       -0.9570    -2.6700     4.8110 H     1 <1>   0.0800 
 42 H        0.0030    -2.2830     3.4280 H     1 <1>   0.0800 
 43 H        0.8190     1.0600    -3.7360 H     1 <1>   0.1500 
 44 H        1.2450    -3.1450    -4.3120 H     1 <1>   0.1500 
 45 H       -3.5380    -0.8160    -0.4570 H     1 <1>   0.3700 
 46 H       -5.4980    -1.3520    -3.4530 H     1 <1>   0.1000 
 47 H        2.2410     0.2230    -6.9920 H     1 <1>   0.0800 
 48 H        2.4970     0.9280    -5.3990 H     1 <1>   0.0800 
 49 H        0.8670     0.8600    -6.0950 H     1 <1>   0.0800 
 50 H       -3.2400    -2.0240    -4.3210 H     1 <1>   0.1000 
 51 H       -2.6390    -2.2290    -2.6480 H     1 <1>   0.1000 
 52 H       -3.1150     0.1940    -2.1780 H     1 <1>   0.1000 
 53 H       -3.7510     0.4040    -3.8330 H     1 <1>   0.1000 
@<TRIPOS>BOND
  1   1   2  2   
  2   2   3  am  
  3   2   4  am  
  4   3   5  1   
  5   3   6  1   
  6   4   7  1   
  7   4  27  1   
  8   5   8  1   
  9   5   9  1   
 10   5  28  1   
 11   6  10  1   
 12   6  11  1   
 13   6  29  1   
 14   7  12  ar  
 15   7  13  ar  
 16   8  14  1   
 17   8  30  1   
 18   8  31  1   
 19   9  15  1   
 20   9  32  1   
 21   9  33  1   
 22  10  14  1   
 23  10  34  1   
 24  10  35  1   
 25  11  15  1   
 26  11  36  1   
 27  11  37  1   
 28  12  16  ar  
 29  12  38  1   
 30  13  17  ar  
 31  13  39  1   
 32  14  18  1   
 33  14  40  1   
 34  15  41  1   
 35  15  42  1   
 36  16  19  ar  
 37  16  43  1   
 38  17  19  ar  
 39  17  44  1   
 40  18  20  am  
 41  18  45  1   
 42  19  21  1   
 43  20  22  2   
 44  20  23  1   
 45  21  24  1   
 46  23  25  1   
 47  23  26  1   
 48  23  46  1   
 49  24  47  1   
 50  24  48  1   
 51  24  49  1   
 52  25  26  1   
 53  25  50  1   
 54  25  51  1   
 55  26  52  1   
 56  26  53  1   
@<TRIPOS>SUBSTRUCTURE
  1 ****   2 GROUP 4 **** **** 0

# MOE 2024.06 (io_trps.svl 2023.06)
