@<TRIPOS>MOLECULE
NONAME
43 45 1 0 0 
SMALL
USER_CHARGES


@<TRIPOS>ATOM
  1 CL       1.3570     2.9100    -2.8630 Cl    1 <1>  -0.1770 
  2 C        1.3010     2.8780    -1.1170 C.ar  1 <1>   0.1770 
  3 C        2.0330     1.9390    -0.4030 C.ar  1 <1>  -0.1440 
  4 C        0.5050     3.8110    -0.4780 C.ar  1 <1>  -0.1500 
  5 C        1.9520     1.9530     0.9830 C.ar  1 <1>  -0.1500 
  6 C        2.9140     0.9090    -1.1010 C.3   1 <1>   0.2390 
  7 C        0.4320     3.8130     0.9040 C.ar  1 <1>  -0.1500 
  8 C        1.1560     2.8830     1.6310 C.ar  1 <1>  -0.1500 
  9 N        4.3240     1.3370    -1.1000 N.pl3 1 <1>   0.3140 
 10 N        4.9120     1.9980    -2.1190 N.2   1 <1>  -0.4180 
 11 C        5.2350     1.0810    -0.1430 C.ar  1 <1>   0.1050 
 12 N        6.1490     2.1780    -1.8320 N.2   1 <1>  -0.2270 
 13 N        5.1330     0.4370     1.0330 N.ar  1 <1>  -0.5670 
 14 C        6.3850     1.6230    -0.6150 C.ar  1 <1>   0.2270 
 15 C        6.2610     0.3880     1.7020 C.ar  1 <1>   0.4700 
 16 C        7.5270     1.5020     0.1970 C.ar  1 <1>   0.4100 
 17 N        7.4590     0.8840     1.3580 N.ar  1 <1>  -0.6200 
 18 N        8.7400     2.0190    -0.1910 N.pl3 1 <1>  -0.8690 
 19 C        9.9740     1.9810     0.6150 C.3   1 <1>   0.2090 
 20 C       11.1450     2.4610    -0.2370 C.3   1 <1>  -0.1600 
 21 C       12.4440     2.4190     0.5630 C.3   1 <1>   0.1200 
 22 O       13.4620     2.8830    -0.2580 O.3   1 <1>  -0.5600 
 23 C       14.7130     2.8950     0.3400 C.3   1 <1>   0.1200 
 24 C       15.7060     3.4280    -0.6850 C.3   1 <1>  -0.2400 
 25 H       -0.0500     4.5260    -1.0590 H     1 <1>   0.1500 
 26 H        2.5100     1.2420     1.5700 H     1 <1>   0.1500 
 27 H        2.6050     0.7540    -2.1180 H     1 <1>   0.0800 
 28 H        2.8470    -0.0320    -0.5880 H     1 <1>   0.0800 
 29 H       -0.1850     4.5350     1.4110 H     1 <1>   0.1500 
 30 H        1.1020     2.8860     2.7070 H     1 <1>   0.1500 
 31 H        6.2350    -0.1150     2.6550 H     1 <1>   0.1500 
 32 H        8.7820     2.5440    -1.0710 H     1 <1>   0.4000 
 33 H       10.1460     0.9720     0.9530 H     1 <1>   0.0800 
 34 H        9.8510     2.6160     1.4770 H     1 <1>   0.0800 
 35 H       10.9640     3.4710    -0.5560 H     1 <1>   0.0800 
 36 H       11.2440     1.8220    -1.0970 H     1 <1>   0.0800 
 37 H       12.6750     1.4100     0.8630 H     1 <1>   0.0800 
 38 H       12.3800     3.0580     1.4280 H     1 <1>   0.0800 
 39 H       14.9710     1.8900     0.6310 H     1 <1>   0.0800 
 40 H       14.6810     3.5350     1.2060 H     1 <1>   0.0800 
 41 H       15.7200     2.7900    -1.5500 H     1 <1>   0.0800 
 42 H       16.6930     3.4530    -0.2600 H     1 <1>   0.0800 
 43 H       15.4320     4.4250    -0.9790 H     1 <1>   0.0800 
@<TRIPOS>BOND
  1   1   2  1   
  2   2   3  ar  
  3   2   4  ar  
  4   3   5  ar  
  5   3   6  1   
  6   4   7  ar  
  7   4  25  1   
  8   5   8  ar  
  9   5  26  1   
 10   6   9  1   
 11   6  27  1   
 12   6  28  1   
 13   7   8  ar  
 14   7  29  1   
 15   8  30  1   
 16   9  10  1   
 17   9  11  1   
 18  10  12  2   
 19  11  13  ar  
 20  11  14  ar  
 21  12  14  1   
 22  13  15  ar  
 23  14  16  ar  
 24  15  17  ar  
 25  15  31  1   
 26  16  17  ar  
 27  16  18  1   
 28  18  19  1   
 29  18  32  1   
 30  19  20  1   
 31  19  33  1   
 32  19  34  1   
 33  20  21  1   
 34  20  35  1   
 35  20  36  1   
 36  21  22  1   
 37  21  37  1   
 38  21  38  1   
 39  22  23  1   
 40  23  24  1   
 41  23  39  1   
 42  23  40  1   
 43  24  41  1   
 44  24  42  1   
 45  24  43  1   
@<TRIPOS>SUBSTRUCTURE
  1 ****  14 GROUP 4 **** **** 0

# MOE 2024.06 (io_trps.svl 2023.06)
