@<TRIPOS>MOLECULE
NONAME
65 67 1 0 0 
SMALL
USER_CHARGES


@<TRIPOS>ATOM
  1 O        0.4000    -0.3320    -1.1440 O.2   1 <1>  -0.5730 
  2 C        1.5080    -0.8070    -1.0070 C.2   1 <1>   0.6870 
  3 N        2.6250     0.0250    -1.0110 N.am  1 <1>  -0.4240 
  4 N        1.6630    -2.1760    -0.8420 N.am  1 <1>  -0.4400 
  5 C        3.9010    -0.4840    -0.8030 C.2   1 <1>   0.7000 
  6 C        2.4270     1.4960    -1.2060 C.3   1 <1>   0.0540 
  7 C        2.9390    -2.6660    -0.6560 C.2   1 <1>   0.4220 
  8 C        0.4950    -3.1070    -0.8290 C.3   1 <1>   0.0540 
  9 O        4.8760     0.2500    -0.7710 O.2   1 <1>  -0.5730 
 10 C        4.0450    -1.8960    -0.6220 C.2   1 <1>   0.2720 
 11 N        3.3130    -3.9540    -0.4670 N.pl3 1 <1>  -0.7030 
 12 N        5.1320    -2.7620    -0.3930 N.pl3 1 <1>  -0.7660 
 13 C        4.6270    -4.0000    -0.3100 C.cat 1 <1>   1.0690 
 14 C        6.5300    -2.2450    -0.2830 C.3   1 <1>   0.4940 
 15 N        5.2950    -5.1330    -0.0920 N.pl3 1 <1>  -0.7170 
 16 C        7.4780    -3.3700     0.0960 C.ar  1 <1>  -0.1490 
 17 C        4.7830    -6.5270    -0.1290 C.3   1 <1>   0.1620 
 18 C        7.6630    -3.7600     1.4200 C.ar  1 <1>  -0.1490 
 19 C        8.1130    -4.0670    -0.9230 C.ar  1 <1>  -0.1560 
 20 C        4.1310    -6.9180     1.2080 C.3   1 <1>   0.1340 
 21 C        8.4660    -4.8550     1.6940 C.ar  1 <1>  -0.1560 
 22 C        7.0080    -3.0270     2.5840 C.3   1 <1>  -0.1020 
 23 C        8.9070    -5.1640    -0.6420 C.ar  1 <1>  -0.1490 
 24 N        2.8950    -7.7060     0.9800 N.am  1 <1>  -0.7330 
 25 C        9.0790    -5.5550     0.6730 C.ar  1 <1>  -0.1560 
 26 C        9.5970    -5.9250    -1.7600 C.3   1 <1>  -0.1020 
 27 C        1.7360    -7.2260     0.4570 C.2   1 <1>   0.5660 
 28 O        1.6670    -6.0930     0.0350 O.2   1 <1>  -0.5730 
 29 C        0.5090    -8.1350     0.3920 C.3   1 <1>  -0.0250 
 30 C        0.0230    -8.4970     1.8120 C.3   1 <1>  -0.1660 
 31 C        0.7890    -9.3860    -0.4630 C.3   1 <1>  -0.2450 
 32 C       -1.3220    -9.2350     1.8280 C.3   1 <1>  -0.2450 
 33 H        1.6750     1.6710    -1.9560 H     1 <1>   0.0740 
 34 H        3.3380     1.9720    -1.5250 H     1 <1>   0.0740 
 35 H        2.1040     1.9420    -0.2810 H     1 <1>   0.0740 
 36 H       -0.4130    -2.5950    -1.1020 H     1 <1>   0.0740 
 37 H        0.3710    -3.5220     0.1560 H     1 <1>   0.0740 
 38 H        0.6540    -3.9080    -1.5300 H     1 <1>   0.0740 
 39 H        2.6860    -4.7670    -0.3780 H     1 <1>   0.4460 
 40 H        6.5730    -1.4600     0.4530 H     1 <1>   0.0740 
 41 H        6.8280    -1.8180    -1.2260 H     1 <1>   0.0740 
 42 H        6.3090    -5.0390     0.0770 H     1 <1>   0.4460 
 43 H        5.5990    -7.1980    -0.3400 H     1 <1>   0.0740 
 44 H        4.0690    -6.6150    -0.9300 H     1 <1>   0.0740 
 45 H        7.9900    -3.7660    -1.9510 H     1 <1>   0.1440 
 46 H        3.8670    -6.0360     1.7670 H     1 <1>   0.0740 
 47 H        4.8210    -7.4980     1.7970 H     1 <1>   0.0740 
 48 H        8.6290    -5.1720     2.7110 H     1 <1>   0.1440 
 49 H        5.9410    -2.9950     2.4660 H     1 <1>   0.0740 
 50 H        7.3870    -2.0210     2.6460 H     1 <1>   0.0740 
 51 H        7.2250    -3.5160     3.5170 H     1 <1>   0.0740 
 52 H        2.8980    -8.6680     1.3330 H     1 <1>   0.3660 
 53 H        9.7040    -6.4000     0.9080 H     1 <1>   0.1440 
 54 H        9.0390    -5.8490    -2.6760 H     1 <1>   0.0740 
 55 H        9.6920    -6.9650    -1.5060 H     1 <1>   0.0740 
 56 H       10.5810    -5.5200    -1.9210 H     1 <1>   0.0740 
 57 H       -0.2720    -7.5760    -0.0930 H     1 <1>   0.0740 
 58 H       -0.0870    -7.5880     2.3780 H     1 <1>   0.0740 
 59 H        0.7610    -9.1020     2.3110 H     1 <1>   0.0740 
 60 H        1.4930   -10.0370     0.0250 H     1 <1>   0.0740 
 61 H        1.1930    -9.0970    -1.4180 H     1 <1>   0.0740 
 62 H       -0.1180    -9.9340    -0.6430 H     1 <1>   0.0740 
 63 H       -2.0700    -8.6680     1.3020 H     1 <1>   0.0740 
 64 H       -1.6510    -9.3700     2.8430 H     1 <1>   0.0740 
 65 H       -1.2370   -10.2060     1.3740 H     1 <1>   0.0740 
@<TRIPOS>BOND
  1   1   2  2   
  2   2   3  am  
  3   2   4  am  
  4   3   5  am  
  5   3   6  1   
  6   4   7  1   
  7   4   8  1   
  8   5   9  2   
  9   5  10  1   
 10   6  33  1   
 11   6  34  1   
 12   6  35  1   
 13   7  10  2   
 14   7  11  1   
 15   8  36  1   
 16   8  37  1   
 17   8  38  1   
 18  10  12  1   
 19  11  13  ar  
 20  11  39  1   
 21  12  13  ar  
 22  12  14  1   
 23  13  15  ar  
 24  14  16  1   
 25  14  40  1   
 26  14  41  1   
 27  15  17  1   
 28  15  42  1   
 29  16  18  ar  
 30  16  19  ar  
 31  17  20  1   
 32  17  43  1   
 33  17  44  1   
 34  18  21  ar  
 35  18  22  1   
 36  19  23  ar  
 37  19  45  1   
 38  20  24  1   
 39  20  46  1   
 40  20  47  1   
 41  21  25  ar  
 42  21  48  1   
 43  22  49  1   
 44  22  50  1   
 45  22  51  1   
 46  23  25  ar  
 47  23  26  1   
 48  24  27  am  
 49  24  52  1   
 50  25  53  1   
 51  26  54  1   
 52  26  55  1   
 53  26  56  1   
 54  27  28  2   
 55  27  29  1   
 56  29  30  1   
 57  29  31  1   
 58  29  57  1   
 59  30  32  1   
 60  30  58  1   
 61  30  59  1   
 62  31  60  1   
 63  31  61  1   
 64  31  62  1   
 65  32  63  1   
 66  32  64  1   
 67  32  65  1   
@<TRIPOS>SUBSTRUCTURE
  1 ****  13 GROUP 4 **** **** 0

# MOE 2024.06 (io_trps.svl 2023.06)
