@<TRIPOS>MOLECULE
NONAME
59 62 1 0 0 
SMALL
USER_CHARGES


@<TRIPOS>ATOM
  1 F      -11.0440     0.3780    -1.3790 F     1 <1>  -0.1900 
  2 C       -9.9970    -0.3730    -1.1580 C.ar  1 <1>   0.1900 
  3 C       -9.1650    -0.6810    -2.2170 C.ar  1 <1>  -0.1500 
  4 C       -9.7660    -0.8370     0.1220 C.ar  1 <1>  -0.1500 
  5 C       -8.0650    -1.4900    -1.9830 C.ar  1 <1>  -0.1500 
  6 C       -8.6630    -1.6430     0.3430 C.ar  1 <1>  -0.1500 
  7 C       -7.8100    -1.9740    -0.7050 C.ar  1 <1>  -0.1430 
  8 C       -6.6220    -2.8870    -0.4460 C.3   1 <1>   0.2840 
  9 N       -7.1740    -4.2240    -0.1900 N.am  1 <1>  -0.7300 
 10 C       -6.8830    -4.9940     0.8900 C.2   1 <1>   0.5690 
 11 O       -5.9000    -4.7990     1.5610 O.2   1 <1>  -0.5700 
 12 C       -7.8180    -6.1160     1.2740 C.3   1 <1>   0.1570 
 13 N       -9.1620    -5.5570     1.4350 N.pl3 1 <1>   0.5800 
 14 N       -9.7440    -5.3780     2.6060 N.2   1 <1>  -0.4180 
 15 N       -9.8850    -5.1240     0.4210 N.2   1 <1>  -0.7070 
 16 N      -10.8520    -4.8060     2.3590 N.2   1 <1>  -0.2270 
 17 C      -10.9170    -4.6430     1.0330 C.2   1 <1>   0.4620 
 18 C      -12.0110    -3.9530     0.3750 C.ar  1 <1>   0.0540 
 19 C      -13.2530    -3.7820     0.9880 C.ar  1 <1>  -0.1500 
 20 C      -11.8510    -3.4120    -0.9000 C.ar  1 <1>  -0.1500 
 21 C      -14.2770    -3.0920     0.3660 C.ar  1 <1>  -0.1500 
 22 C      -12.8670    -2.7180    -1.5280 C.ar  1 <1>  -0.1500 
 23 C      -14.0870    -2.5440    -0.8930 C.ar  1 <1>  -0.1430 
 24 C      -15.1900    -1.7520    -1.5700 C.3   1 <1>   0.4860 
 25 N      -15.3430    -0.4370    -0.8800 N.4   1 <1>  -0.9590 
 26 C      -16.5060     0.3600    -1.3610 C.3   1 <1>   0.4230 
 27 C      -14.0620     0.3350    -0.9530 C.3   1 <1>   0.3430 
 28 C      -16.6290     1.6440    -0.5270 C.3   1 <1>  -0.1600 
 29 C      -17.7990    -0.4480    -1.2430 C.3   1 <1>  -0.2400 
 30 C      -14.1550     1.6050    -0.1110 C.3   1 <1>  -0.1600 
 31 C      -15.3400     2.4730    -0.5400 C.3   1 <1>  -0.1600 
 32 H       -9.3710    -0.2980    -3.2000 H     1 <1>   0.1500 
 33 H      -10.4290    -0.5780     0.9270 H     1 <1>   0.1500 
 34 H       -7.4090    -1.7410    -2.8000 H     1 <1>   0.1500 
 35 H       -8.4690    -2.0200     1.3340 H     1 <1>   0.1500 
 36 H       -6.0610    -2.5400     0.4060 H     1 <1>   0.0800 
 37 H       -5.9690    -2.9230    -1.3000 H     1 <1>   0.0800 
 38 H       -8.0900    -4.3590    -0.6380 H     1 <1>   0.3700 
 39 H       -7.5040    -6.5540     2.2020 H     1 <1>   0.0800 
 40 H       -7.8360    -6.8620     0.5060 H     1 <1>   0.0800 
 41 H      -13.4150    -4.1990     1.9680 H     1 <1>   0.1500 
 42 H      -10.9060    -3.5320    -1.4040 H     1 <1>   0.1500 
 43 H      -15.2190    -2.9910     0.8790 H     1 <1>   0.1500 
 44 H      -12.6890    -2.3170    -2.5110 H     1 <1>   0.1500 
 45 H      -16.1040    -2.3180    -1.5100 H     1 <1>   0.0800 
 46 H      -14.9490    -1.6010    -2.6090 H     1 <1>   0.0800 
 47 H      -15.5000    -0.6390     0.1120 H     1 <1>   0.4500 
 48 H      -16.3510     0.6340    -2.3930 H     1 <1>   0.0800 
 49 H      -13.8490     0.5970    -1.9760 H     1 <1>   0.0800 
 50 H      -13.2440    -0.2650    -0.5840 H     1 <1>   0.0800 
 51 H      -16.8860     1.3950     0.4880 H     1 <1>   0.0800 
 52 H      -17.4300     2.2460    -0.9200 H     1 <1>   0.0800 
 53 H      -17.9310    -0.8270    -0.2450 H     1 <1>   0.0800 
 54 H      -17.8250    -1.2580    -1.9480 H     1 <1>   0.0800 
 55 H      -18.6390     0.1850    -1.4690 H     1 <1>   0.0800 
 56 H      -13.2420     2.1650    -0.2220 H     1 <1>   0.0800 
 57 H      -14.2450     1.3410     0.9290 H     1 <1>   0.0800 
 58 H      -15.4380     3.3150     0.1270 H     1 <1>   0.0800 
 59 H      -15.1660     2.8590    -1.5310 H     1 <1>   0.0800 
@<TRIPOS>BOND
  1   1   2  1   
  2   2   3  ar  
  3   2   4  ar  
  4   3   5  ar  
  5   3  32  1   
  6   4   6  ar  
  7   4  33  1   
  8   5   7  ar  
  9   5  34  1   
 10   6   7  ar  
 11   6  35  1   
 12   7   8  1   
 13   8   9  1   
 14   8  36  1   
 15   8  37  1   
 16   9  10  am  
 17   9  38  1   
 18  10  11  2   
 19  10  12  1   
 20  12  13  1   
 21  12  39  1   
 22  12  40  1   
 23  13  14  1   
 24  13  15  1   
 25  14  16  2   
 26  15  17  2   
 27  16  17  1   
 28  17  18  1   
 29  18  19  ar  
 30  18  20  ar  
 31  19  21  ar  
 32  19  41  1   
 33  20  22  ar  
 34  20  42  1   
 35  21  23  ar  
 36  21  43  1   
 37  22  23  ar  
 38  22  44  1   
 39  23  24  1   
 40  24  25  1   
 41  24  45  1   
 42  24  46  1   
 43  25  26  1   
 44  25  27  1   
 45  25  47  1   
 46  26  28  1   
 47  26  29  1   
 48  26  48  1   
 49  27  30  1   
 50  27  49  1   
 51  27  50  1   
 52  28  31  1   
 53  28  51  1   
 54  28  52  1   
 55  29  53  1   
 56  29  54  1   
 57  29  55  1   
 58  30  31  1   
 59  30  56  1   
 60  30  57  1   
 61  31  58  1   
 62  31  59  1   
@<TRIPOS>SUBSTRUCTURE
  1 ****  20 GROUP 4 **** **** 0

# MOE 2024.06 (io_trps.svl 2023.06)
