@<TRIPOS>MOLECULE
ka-04879
23 23 1 0 0 
SMALL
USER_CHARGES


@<TRIPOS>ATOM
  1 O        0.3210     0.2540     0.3260 O.2   1 <1>  -0.5700 
  2 C        1.3780     0.8410     0.1360 C.2   1 <1>   0.6900 
  3 N        2.5520     0.1350     0.0310 N.am  1 <1>  -0.4200 
  4 N        1.3930     2.2050     0.0100 N.am  1 <1>  -0.4200 
  5 C        3.7660     0.7980    -0.0070 C.2   1 <1>   0.5350 
  6 C        2.5390    -1.3550     0.0570 C.3   1 <1>   0.0600 
  7 C        2.5720     2.8550    -0.2920 C.2   1 <1>   0.5350 
  8 C        0.1350     2.9930     0.0940 C.3   1 <1>   0.0600 
  9 O        4.7780     0.1030     0.0450 O.2   1 <1>  -0.5700 
 10 C        3.7980     2.2050    -0.0650 C.3   1 <1>  -0.7150 
 11 O        2.4810     3.9620    -0.8150 O.2   1 <1>  -0.5700 
 12 C        4.9680     2.9630     0.1230 C.2   1 <1>   0.4140 
 13 O        4.9690     4.1140     0.5330 O.2   1 <1>  -0.5700 
 14 C        6.3560     2.4220    -0.1410 C.3   1 <1>  -0.1790 
 15 H        1.5640    -1.7380    -0.1860 H     1 <1>   0.0800 
 16 H        2.8210    -1.6920     1.0380 H     1 <1>   0.0800 
 17 H        3.2440    -1.7350    -0.6610 H     1 <1>   0.0800 
 18 H       -0.5840     2.4930     0.7180 H     1 <1>   0.0800 
 19 H       -0.2690     3.1190    -0.8940 H     1 <1>   0.0800 
 20 H        0.3440     3.9610     0.5150 H     1 <1>   0.0800 
 21 H        6.3430     1.7940    -1.0100 H     1 <1>   0.0800 
 22 H        6.6850     1.8580     0.7110 H     1 <1>   0.0800 
 23 H        7.0380     3.2330    -0.3140 H     1 <1>   0.0800 
@<TRIPOS>BOND
  1   1   2  2   
  2   2   3  am  
  3   2   4  am  
  4   3   5  am  
  5   3   6  1   
  6   4   7  am  
  7   4   8  1   
  8   5   9  2   
  9   5  10  1   
 10   6  15  1   
 11   6  16  1   
 12   6  17  1   
 13   7  10  1   
 14   7  11  2   
 15   8  18  1   
 16   8  19  1   
 17   8  20  1   
 18  10  12  1   
 19  12  13  2   
 20  12  14  1   
 21  14  21  1   
 22  14  22  1   
 23  14  23  1   
@<TRIPOS>SUBSTRUCTURE
  1 ****  10 GROUP 4 **** **** 0

# MOE 2024.06 (io_trps.svl 2023.06)
