@<TRIPOS>MOLECULE
NONAME
58 61 1 0 0 
SMALL
USER_CHARGES


@<TRIPOS>ATOM
  1 S        0.2700     0.4040     0.8030 S.3   1 <1>  -0.2860 
  2 C       -1.4630    -0.0010     1.0470 C.2   1 <1>   0.2420 
  3 C        0.3820     2.1620     1.4020 C.3   1 <1>   0.1310 
  4 N       -2.2930     0.7910     1.6270 N.2   1 <1>  -0.3380 
  5 N       -1.9960    -1.1590     0.6510 N.pl3 1 <1>   0.3260 
  6 C        1.7600     2.7480     1.1380 C.2   1 <1>   0.5690 
  7 N       -3.4580     0.1480     1.6320 N.2   1 <1>  -0.3380 
  8 C       -1.3440    -2.2920     0.0990 C.ar  1 <1>  -0.0230 
  9 C       -3.2840    -1.0060     1.0440 C.2   1 <1>   0.1330 
 10 O        1.8730     3.9480     1.0780 O.2   1 <1>  -0.5700 
 11 N        2.8220     1.9160     0.9810 N.am  1 <1>  -0.7300 
 12 C       -0.9470    -2.2950    -1.2380 C.ar  1 <1>   0.0830 
 13 C       -1.1010    -3.4120     0.8860 C.ar  1 <1>  -0.1500 
 14 C       -4.3220    -1.9910     0.8560 C.ar  1 <1>   0.0530 
 15 C        4.1920     2.3270     0.6230 C.3   1 <1>   0.2200 
 16 O       -1.2240    -1.1850    -1.9730 O.3   1 <1>  -0.3630 
 17 C       -0.3060    -3.4100    -1.7670 C.ar  1 <1>  -0.1500 
 18 C       -0.4670    -4.5190     0.3530 C.ar  1 <1>  -0.1500 
 19 C       -4.4450    -2.7830    -0.2790 C.ar  1 <1>  -0.1500 
 20 C       -5.2950    -2.2080     1.8200 C.ar  1 <1>  -0.1500 
 21 C        4.6440     1.5970    -0.6600 C.3   1 <1>  -0.0800 
 22 C        5.1140     2.0100     1.8050 C.3   1 <1>  -0.1600 
 23 C       -0.6170    -0.9640    -3.2270 C.3   1 <1>   0.0400 
 24 C       -0.0690    -4.5180    -0.9720 C.ar  1 <1>  -0.1500 
 25 C       -5.4590    -3.7160    -0.3750 C.ar  1 <1>   0.1600 
 26 C       -6.2730    -3.1650     1.6280 C.ar  1 <1>   0.1600 
 27 C        6.1100     1.9390    -0.9810 C.3   1 <1>  -0.1600 
 28 C        3.7550     1.9440    -1.8670 C.3   1 <1>  -0.2400 
 29 C        6.5750     2.3450     1.4760 C.3   1 <1>  -0.1600 
 30 N       -6.3760    -3.9310     0.5550 N.ar  1 <1>  -0.6200 
 31 C        7.0350     1.6240     0.2030 C.3   1 <1>  -0.1600 
 32 H        0.1680     2.1590     2.4540 H     1 <1>   0.0800 
 33 H       -0.3670     2.7250     0.8780 H     1 <1>   0.0800 
 34 H        2.6580     0.9080     0.9890 H     1 <1>   0.3700 
 35 H       -1.4060    -3.4230     1.9180 H     1 <1>   0.1500 
 36 H        4.2110     3.3900     0.4450 H     1 <1>   0.0800 
 37 H        0.0090    -3.4400    -2.7930 H     1 <1>   0.1500 
 38 H       -0.2820    -5.3840     0.9680 H     1 <1>   0.1500 
 39 H       -3.7570    -2.6750    -1.0960 H     1 <1>   0.1500 
 40 H       -5.2880    -1.6260     2.7240 H     1 <1>   0.1500 
 41 H        4.5840     0.5360    -0.4860 H     1 <1>   0.0800 
 42 H        5.0400     0.9650     2.0490 H     1 <1>   0.0800 
 43 H        4.8020     2.5840     2.6600 H     1 <1>   0.0800 
 44 H       -0.8910     0.0210    -3.5610 H     1 <1>   0.0800 
 45 H       -0.9770    -1.6990    -3.9260 H     1 <1>   0.0800 
 46 H        0.4510    -1.0270    -3.1150 H     1 <1>   0.0800 
 47 H        0.4260    -5.3820    -1.3840 H     1 <1>   0.1500 
 48 H       -5.5250    -4.3180    -1.2650 H     1 <1>   0.1500 
 49 H       -7.0130    -3.3100     2.3980 H     1 <1>   0.1500 
 50 H        6.1900     2.9850    -1.2220 H     1 <1>   0.0800 
 51 H        6.4340     1.3770    -1.8400 H     1 <1>   0.0800 
 52 H        3.7580     3.0050    -2.0430 H     1 <1>   0.0800 
 53 H        2.7410     1.6320    -1.6940 H     1 <1>   0.0800 
 54 H        4.1120     1.4460    -2.7510 H     1 <1>   0.0800 
 55 H        7.2060     2.0600     2.3010 H     1 <1>   0.0800 
 56 H        6.6740     3.4090     1.3380 H     1 <1>   0.0800 
 57 H        8.0400     1.9230    -0.0370 H     1 <1>   0.0800 
 58 H        7.0410     0.5610     0.3780 H     1 <1>   0.0800 
@<TRIPOS>BOND
  1   1   2  1   
  2   1   3  1   
  3   2   4  2   
  4   2   5  1   
  5   3   6  1   
  6   3  32  1   
  7   3  33  1   
  8   4   7  1   
  9   5   8  1   
 10   5   9  1   
 11   6  10  2   
 12   6  11  am  
 13   7   9  2   
 14   8  12  ar  
 15   8  13  ar  
 16   9  14  1   
 17  11  15  1   
 18  11  34  1   
 19  12  16  1   
 20  12  17  ar  
 21  13  18  ar  
 22  13  35  1   
 23  14  19  ar  
 24  14  20  ar  
 25  15  21  1   
 26  15  22  1   
 27  15  36  1   
 28  16  23  1   
 29  17  24  ar  
 30  17  37  1   
 31  18  24  ar  
 32  18  38  1   
 33  19  25  ar  
 34  19  39  1   
 35  20  26  ar  
 36  20  40  1   
 37  21  27  1   
 38  21  28  1   
 39  21  41  1   
 40  22  29  1   
 41  22  42  1   
 42  22  43  1   
 43  23  44  1   
 44  23  45  1   
 45  23  46  1   
 46  24  47  1   
 47  25  30  ar  
 48  25  48  1   
 49  26  30  ar  
 50  26  49  1   
 51  27  31  1   
 52  27  50  1   
 53  27  51  1   
 54  28  52  1   
 55  28  53  1   
 56  28  54  1   
 57  29  31  1   
 58  29  55  1   
 59  29  56  1   
 60  31  57  1   
 61  31  58  1   
@<TRIPOS>SUBSTRUCTURE
  1 ****   1 GROUP 4 **** **** 0

# MOE 2024.06 (io_trps.svl 2023.06)
