@<TRIPOS>MOLECULE
NONAME
55 56 1 0 0 
SMALL
USER_CHARGES


@<TRIPOS>ATOM
  1 O       -1.1350     1.8990    -1.3000 O.2   1 <1>  -0.5700 
  2 C       -0.5710     2.3490    -0.3190 C.2   1 <1>   0.7150 
  3 N       -1.2330     2.3180     0.8720 N.am  1 <1>  -0.7300 
  4 C        0.7460     2.9110    -0.3740 C.2   1 <1>  -0.2370 
  5 C       -2.5240     1.6400     1.0980 C.3   1 <1>   0.1400 
  6 N        1.5910     2.8290    -1.4360 N.pl3 1 <1>   0.3140 
  7 C        1.4330     3.6210     0.5660 C.2   1 <1>  -0.1500 
  8 C       -3.6560     2.5540     0.6270 C.3   1 <1>  -0.1600 
  9 N        2.7570     3.4440    -1.2020 N.2   1 <1>  -0.7070 
 10 C        1.3690     2.1600    -2.7280 C.3   1 <1>   0.0160 
 11 C        2.6630     3.9240     0.0050 C.2   1 <1>   0.1080 
 12 C       -4.9580     1.7660     0.4970 C.3   1 <1>   0.3430 
 13 C        3.8060     4.7160     0.6690 C.3   1 <1>   0.1810 
 14 N       -6.0490     2.6390    -0.0090 N.4   1 <1>  -0.9590 
 15 C        4.1140     5.9660    -0.1680 C.3   1 <1>  -0.2400 
 16 C        3.4450     5.1650     2.0950 C.3   1 <1>  -0.2400 
 17 C        5.0630     3.8370     0.7420 C.3   1 <1>  -0.2400 
 18 C       -7.4150     2.0460     0.1800 C.3   1 <1>   0.3430 
 19 C       -5.8810     3.0970    -1.4320 C.3   1 <1>   0.3430 
 20 C       -8.5240     3.0450    -0.2360 C.3   1 <1>   0.1100 
 21 C       -7.0110     4.0740    -1.8440 C.3   1 <1>   0.1100 
 22 N       -7.9690     4.3220    -0.7420 N.3   1 <1>  -0.8100 
 23 C       -9.0330     5.2450    -1.1540 C.3   1 <1>   0.0300 
 24 H       -0.7270     2.6450     1.6960 H     1 <1>   0.3700 
 25 H       -2.6310     1.3990     2.1430 H     1 <1>   0.0800 
 26 H       -2.5280     0.7200     0.5340 H     1 <1>   0.0800 
 27 H        1.1030     3.9020     1.5480 H     1 <1>   0.1500 
 28 H       -3.3870     2.9570    -0.3320 H     1 <1>   0.0800 
 29 H       -3.7770     3.3590     1.3300 H     1 <1>   0.0800 
 30 H        1.1370     1.1260    -2.5560 H     1 <1>   0.0800 
 31 H        2.2590     2.2350    -3.3240 H     1 <1>   0.0800 
 32 H        0.5540     2.6370    -3.2370 H     1 <1>   0.0800 
 33 H       -5.2280     1.3740     1.4650 H     1 <1>   0.0800 
 34 H       -4.8150     0.9360    -0.1760 H     1 <1>   0.0800 
 35 H       -6.0920     3.5220     0.5270 H     1 <1>   0.4500 
 36 H        3.2390     6.5860    -0.2430 H     1 <1>   0.0800 
 37 H        4.4060     5.6800    -1.1630 H     1 <1>   0.0800 
 38 H        4.9110     6.5380     0.2720 H     1 <1>   0.0800 
 39 H        3.2400     4.3120     2.7170 H     1 <1>   0.0800 
 40 H        2.5790     5.8020     2.0800 H     1 <1>   0.0800 
 41 H        4.2590     5.7140     2.5340 H     1 <1>   0.0800 
 42 H        4.8600     2.9480     1.3120 H     1 <1>   0.0800 
 43 H        5.8780     4.3670     1.2000 H     1 <1>   0.0800 
 44 H        5.3610     3.5380    -0.2470 H     1 <1>   0.0800 
 45 H       -7.5600     1.7790     1.2140 H     1 <1>   0.0800 
 46 H       -7.5110     1.1480    -0.4070 H     1 <1>   0.0800 
 47 H       -5.8840     2.2490    -2.0960 H     1 <1>   0.0800 
 48 H       -4.9350     3.6000    -1.5510 H     1 <1>   0.0800 
 49 H       -9.1510     3.2450     0.6170 H     1 <1>   0.0800 
 50 H       -9.1430     2.5900    -0.9910 H     1 <1>   0.0800 
 51 H       -7.5300     3.6720    -2.6990 H     1 <1>   0.0800 
 52 H       -6.5680     5.0080    -2.1470 H     1 <1>   0.0800 
 53 H       -9.6910     5.4440    -0.3240 H     1 <1>   0.0800 
 54 H       -9.6090     4.8290    -1.9640 H     1 <1>   0.0800 
 55 H       -8.6060     6.1810    -1.4740 H     1 <1>   0.0800 
@<TRIPOS>BOND
  1   1   2  2   
  2   2   3  am  
  3   2   4  1   
  4   3   5  1   
  5   3  24  1   
  6   4   6  1   
  7   4   7  2   
  8   5   8  1   
  9   5  25  1   
 10   5  26  1   
 11   6   9  1   
 12   6  10  1   
 13   7  11  1   
 14   7  27  1   
 15   8  12  1   
 16   8  28  1   
 17   8  29  1   
 18   9  11  2   
 19  10  30  1   
 20  10  31  1   
 21  10  32  1   
 22  11  13  1   
 23  12  14  1   
 24  12  33  1   
 25  12  34  1   
 26  13  15  1   
 27  13  16  1   
 28  13  17  1   
 29  14  18  1   
 30  14  19  1   
 31  14  35  1   
 32  15  36  1   
 33  15  37  1   
 34  15  38  1   
 35  16  39  1   
 36  16  40  1   
 37  16  41  1   
 38  17  42  1   
 39  17  43  1   
 40  17  44  1   
 41  18  20  1   
 42  18  45  1   
 43  18  46  1   
 44  19  21  1   
 45  19  47  1   
 46  19  48  1   
 47  20  22  1   
 48  20  49  1   
 49  20  50  1   
 50  21  22  1   
 51  21  51  1   
 52  21  52  1   
 53  22  23  1   
 54  23  53  1   
 55  23  54  1   
 56  23  55  1   
@<TRIPOS>SUBSTRUCTURE
  1 ****   2 GROUP 4 **** **** 0

# MOE 2024.06 (io_trps.svl 2023.06)
