@<TRIPOS>MOLECULE
N-Cyclohexyl-2-(2-isopropyl-3-oxo-2,3-dihydro-benzo[1,4]oxazin-4-yl)-acetamide
50 52 1 0 0 
SMALL
USER_CHARGES


@<TRIPOS>ATOM
  1 O       -0.2690    -1.1890     2.1630 O.2   1 <1>  -0.5700 
  2 C       -1.2100    -1.2980     1.4050 C.2   1 <1>   0.5690 
  3 N       -1.4220    -2.4370     0.6680 N.am  1 <1>  -0.4770 
  4 C       -2.1960    -0.1300     1.2370 C.3   1 <1>   0.2610 
  5 C       -2.5400    -2.5180    -0.1920 C.ar  1 <1>   0.1170 
  6 C       -0.5130    -3.6130     0.8650 C.3   1 <1>   0.2010 
  7 O       -3.5000    -0.6140     0.9100 O.3   1 <1>  -0.3630 
  8 C       -1.7540     0.8970     0.1590 C.3   1 <1>  -0.0800 
  9 C       -3.5870    -1.6040    -0.0190 C.ar  1 <1>   0.0830 
 10 C       -2.6530    -3.4620    -1.2090 C.ar  1 <1>  -0.1500 
 11 C        0.7670    -3.4910     0.0480 C.2   1 <1>   0.5690 
 12 C       -0.4110     1.5590     0.5110 C.3   1 <1>  -0.2400 
 13 C       -2.8040     2.0020    -0.0520 C.3   1 <1>  -0.2400 
 14 C       -4.7290    -1.6730    -0.7960 C.ar  1 <1>  -0.1500 
 15 C       -3.7920    -3.5230    -1.9940 C.ar  1 <1>  -0.1500 
 16 O        0.9760    -4.2870    -0.8370 O.2   1 <1>  -0.5700 
 17 N        1.6300    -2.4860     0.3460 N.am  1 <1>  -0.7300 
 18 C       -4.8340    -2.6350    -1.7850 C.ar  1 <1>  -0.1500 
 19 C        2.8820    -2.1830    -0.3570 C.3   1 <1>   0.2200 
 20 C        4.0390    -2.2350     0.6450 C.3   1 <1>  -0.1600 
 21 C        2.7650    -0.7970    -0.9980 C.3   1 <1>  -0.1600 
 22 C        5.3630    -1.8200    -0.0140 C.3   1 <1>  -0.1600 
 23 C        4.0850    -0.3810    -1.6640 C.3   1 <1>  -0.1600 
 24 C        5.2490    -0.4350    -0.6660 C.3   1 <1>  -0.1600 
 25 H       -2.2860     0.3710     2.1830 H     1 <1>   0.0800 
 26 H       -1.0190    -4.5230     0.6030 H     1 <1>   0.0800 
 27 H       -0.2460    -3.6870     1.9030 H     1 <1>   0.0800 
 28 H       -1.6230     0.3710    -0.7710 H     1 <1>   0.0800 
 29 H       -1.8550    -4.1550    -1.4060 H     1 <1>   0.1500 
 30 H       -0.4740     2.0680     1.4570 H     1 <1>   0.0800 
 31 H       -0.1370     2.2750    -0.2440 H     1 <1>   0.0800 
 32 H        0.3740     0.8280     0.5690 H     1 <1>   0.0800 
 33 H       -2.9850     2.5350     0.8650 H     1 <1>   0.0800 
 34 H       -3.7340     1.5820    -0.3920 H     1 <1>   0.0800 
 35 H       -2.4680     2.7030    -0.7960 H     1 <1>   0.0800 
 36 H       -5.5260    -0.9710    -0.6290 H     1 <1>   0.1500 
 37 H       -3.8670    -4.2630    -2.7730 H     1 <1>   0.1500 
 38 H        1.3610    -1.8250     1.0870 H     1 <1>   0.3700 
 39 H       -5.7210    -2.6890    -2.3930 H     1 <1>   0.1500 
 40 H        3.0510    -2.9170    -1.1290 H     1 <1>   0.0800 
 41 H        4.1310    -3.2360     1.0290 H     1 <1>   0.0800 
 42 H        3.8330    -1.5710     1.4670 H     1 <1>   0.0800 
 43 H        2.5130    -0.0730    -0.2440 H     1 <1>   0.0800 
 44 H        1.9820    -0.8120    -1.7360 H     1 <1>   0.0800 
 45 H        5.6290    -2.5460    -0.7640 H     1 <1>   0.0800 
 46 H        6.1460    -1.8090     0.7250 H     1 <1>   0.0800 
 47 H        3.9920     0.6160    -2.0580 H     1 <1>   0.0800 
 48 H        4.2910    -1.0430    -2.4880 H     1 <1>   0.0800 
 49 H        6.1690    -0.1990    -1.1720 H     1 <1>   0.0800 
 50 H        5.0960     0.3060     0.1000 H     1 <1>   0.0800 
@<TRIPOS>BOND
  1   1   2  2   
  2   2   3  am  
  3   2   4  1   
  4   3   5  1   
  5   3   6  1   
  6   4   7  1   
  7   4   8  1   
  8   4  25  1   
  9   5   9  ar  
 10   5  10  ar  
 11   6  11  1   
 12   6  26  1   
 13   6  27  1   
 14   7   9  1   
 15   8  12  1   
 16   8  13  1   
 17   8  28  1   
 18   9  14  ar  
 19  10  15  ar  
 20  10  29  1   
 21  11  16  2   
 22  11  17  am  
 23  12  30  1   
 24  12  31  1   
 25  12  32  1   
 26  13  33  1   
 27  13  34  1   
 28  13  35  1   
 29  14  18  ar  
 30  14  36  1   
 31  15  18  ar  
 32  15  37  1   
 33  17  19  1   
 34  17  38  1   
 35  18  39  1   
 36  19  20  1   
 37  19  21  1   
 38  19  40  1   
 39  20  22  1   
 40  20  41  1   
 41  20  42  1   
 42  21  23  1   
 43  21  43  1   
 44  21  44  1   
 45  22  24  1   
 46  22  45  1   
 47  22  46  1   
 48  23  24  1   
 49  23  47  1   
 50  23  48  1   
 51  24  49  1   
 52  24  50  1   
@<TRIPOS>SUBSTRUCTURE
  1 ****   3 GROUP 4 **** **** 0

# MOE 2024.06 (io_trps.svl 2023.06)
