@<TRIPOS>MOLECULE
4-(3-Fluoro-benzoylamino)-piperidine-1-carboxylic acid (3-methoxy-phenyl)-amide
49 51 1 0 0 
SMALL
USER_CHARGES


@<TRIPOS>ATOM
  1 F       -2.0020     0.3700    -2.9900 F     1 <1>  -0.1900 
  2 C       -2.1830     1.2490    -2.0430 C.ar  1 <1>   0.1900 
  3 C       -3.3020     1.1380    -1.2430 C.ar  1 <1>  -0.1500 
  4 C       -1.2470     2.2510    -1.8800 C.ar  1 <1>  -0.1500 
  5 C       -3.5240     2.0680    -0.2260 C.ar  1 <1>   0.0860 
  6 C       -1.4490     3.1750    -0.8700 C.ar  1 <1>  -0.1500 
  7 C       -4.6940     2.0000     0.6340 C.2   1 <1>   0.5440 
  8 C       -2.5690     3.0780    -0.0600 C.ar  1 <1>  -0.1500 
  9 O       -4.6740     2.4810     1.7490 O.2   1 <1>  -0.5700 
 10 N       -5.8480     1.4120     0.1990 N.am  1 <1>  -0.7300 
 11 C       -7.0760     1.2670     0.9960 C.3   1 <1>   0.2200 
 12 C       -7.6660    -0.1230     0.7570 C.3   1 <1>  -0.1600 
 13 C       -8.0630     2.3640     0.5950 C.3   1 <1>  -0.1600 
 14 C       -8.9980    -0.2740     1.4930 C.3   1 <1>   0.1400 
 15 C       -9.3960     2.1930     1.3260 C.3   1 <1>   0.1400 
 16 N       -9.9210     0.8200     1.0800 N.am  1 <1>  -0.6600 
 17 C      -11.0390     0.5500     0.3300 C.2   1 <1>   0.6900 
 18 O      -11.1550    -0.5240    -0.2300 O.2   1 <1>  -0.5700 
 19 N      -12.0200     1.4970     0.2520 N.am  1 <1>  -0.5470 
 20 C      -13.1950     1.5710    -0.5100 C.ar  1 <1>   0.1170 
 21 C      -14.2120     2.4150    -0.0850 C.ar  1 <1>  -0.1500 
 22 C      -13.3840     0.8510    -1.6860 C.ar  1 <1>  -0.1500 
 23 C      -15.3890     2.5440    -0.8010 C.ar  1 <1>   0.0830 
 24 C      -14.5570     0.9700    -2.4100 C.ar  1 <1>  -0.1500 
 25 O      -16.3180     3.3960    -0.2970 O.3   1 <1>  -0.3630 
 26 C      -15.5620     1.8140    -1.9730 C.ar  1 <1>  -0.1500 
 27 C      -17.5630     3.5770    -0.9340 C.3   1 <1>   0.0400 
 28 H       -3.9860     0.3280    -1.4110 H     1 <1>   0.1500 
 29 H       -0.3880     2.3020    -2.5250 H     1 <1>   0.1500 
 30 H       -0.7360     3.9670    -0.7130 H     1 <1>   0.1500 
 31 H       -2.7140     3.8010     0.7260 H     1 <1>   0.1500 
 32 H       -5.9330     1.1300    -0.7770 H     1 <1>   0.3700 
 33 H       -6.8410     1.3710     2.0440 H     1 <1>   0.0800 
 34 H       -6.9820    -0.8720     1.1130 H     1 <1>   0.0800 
 35 H       -7.8380    -0.2840    -0.2930 H     1 <1>   0.0800 
 36 H       -8.2430     2.3310    -0.4650 H     1 <1>   0.0800 
 37 H       -7.6460     3.3240     0.8420 H     1 <1>   0.0800 
 38 H       -8.8400    -0.2160     2.5560 H     1 <1>   0.0800 
 39 H       -9.4280    -1.2370     1.2760 H     1 <1>   0.0800 
 40 H      -10.0850     2.9420     0.9760 H     1 <1>   0.0800 
 41 H       -9.2550     2.3310     2.3840 H     1 <1>   0.0800 
 42 H      -11.9260     2.2060     0.9680 H     1 <1>   0.3700 
 43 H      -14.0980     2.9840     0.8180 H     1 <1>   0.1500 
 44 H      -12.6120     0.1940    -2.0430 H     1 <1>   0.1500 
 45 H      -14.6850     0.4020    -3.3160 H     1 <1>   0.1500 
 46 H      -16.4620     1.8880    -2.5530 H     1 <1>   0.1500 
 47 H      -18.1340     4.2810    -0.3560 H     1 <1>   0.0800 
 48 H      -18.0760     2.6320    -0.9710 H     1 <1>   0.0800 
 49 H      -17.3960     3.9650    -1.9230 H     1 <1>   0.0800 
@<TRIPOS>BOND
  1   1   2  1   
  2   2   3  ar  
  3   2   4  ar  
  4   3   5  ar  
  5   3  28  1   
  6   4   6  ar  
  7   4  29  1   
  8   5   7  1   
  9   5   8  ar  
 10   6   8  ar  
 11   6  30  1   
 12   7   9  2   
 13   7  10  am  
 14   8  31  1   
 15  10  11  1   
 16  10  32  1   
 17  11  12  1   
 18  11  13  1   
 19  11  33  1   
 20  12  14  1   
 21  12  34  1   
 22  12  35  1   
 23  13  15  1   
 24  13  36  1   
 25  13  37  1   
 26  14  16  1   
 27  14  38  1   
 28  14  39  1   
 29  15  16  1   
 30  15  40  1   
 31  15  41  1   
 32  16  17  am  
 33  17  18  2   
 34  17  19  am  
 35  19  20  1   
 36  19  42  1   
 37  20  21  ar  
 38  20  22  ar  
 39  21  23  ar  
 40  21  43  1   
 41  22  24  ar  
 42  22  44  1   
 43  23  25  1   
 44  23  26  ar  
 45  24  26  ar  
 46  24  45  1   
 47  25  27  1   
 48  26  46  1   
 49  27  47  1   
 50  27  48  1   
 51  27  49  1   
@<TRIPOS>SUBSTRUCTURE
  1 ****  13 GROUP 4 **** **** 0

# MOE 2024.06 (io_trps.svl 2023.06)
