@<TRIPOS>MOLECULE
8899
46 47 1 0 0 
SMALL
USER_CHARGES


@<TRIPOS>ATOM
  1 O        0.8980    -3.6360     1.9080 O.2   1 <1>  -0.5700 
  2 C        0.3800    -3.8280     0.8370 C.2   1 <1>   0.5690 
  3 N        1.0310    -3.6940    -0.3550 N.am  1 <1>  -0.5470 
  4 C       -1.0780    -4.2470     0.8040 C.3   1 <1>  -0.0990 
  5 C        2.3660    -3.3300    -0.5830 C.ar  1 <1>   0.1170 
  6 C       -1.9900    -3.1240     0.2820 C.3   1 <1>  -0.1600 
  7 C        2.8950    -2.0840    -0.2250 C.ar  1 <1>  -0.1430 
  8 C        3.1800    -4.2600    -1.2150 C.ar  1 <1>  -0.1500 
  9 C       -3.4610    -3.5370     0.3180 C.3   1 <1>   0.1200 
 10 C        4.2370    -1.8070    -0.4820 C.ar  1 <1>  -0.1430 
 11 C        2.0050    -1.0350     0.4470 C.3   1 <1>  -0.0970 
 12 C        4.5030    -3.9770    -1.4830 C.ar  1 <1>  -0.1500 
 13 O       -4.2190    -2.4890    -0.2380 O.3   1 <1>  -0.3630 
 14 C        5.0280    -2.7550    -1.1130 C.ar  1 <1>  -0.1500 
 15 C        4.8860    -0.4870    -0.0860 C.3   1 <1>  -0.0970 
 16 C       -5.5700    -2.5790    -0.3430 C.ar  1 <1>   0.0820 
 17 C       -6.2200    -1.5030    -0.9260 C.ar  1 <1>  -0.1500 
 18 C       -6.3130    -3.6720     0.0960 C.ar  1 <1>  -0.1500 
 19 C       -7.5960    -1.5060    -1.0760 C.ar  1 <1>  -0.1500 
 20 C       -7.6890    -3.6750    -0.0550 C.ar  1 <1>  -0.1500 
 21 C       -8.3390    -2.5990    -0.6380 C.ar  1 <1>   0.0820 
 22 O       -9.6910    -2.6880    -0.7450 O.3   1 <1>  -0.3620 
 23 C      -10.4440    -1.6450    -1.3250 C.3   1 <1>   0.0400 
 24 H        0.5070    -3.9500    -1.1880 H     1 <1>   0.3700 
 25 H       -1.3730    -4.5120     1.8040 H     1 <1>   0.0800 
 26 H       -1.1750    -5.1220     0.1890 H     1 <1>   0.0800 
 27 H       -1.7190    -2.8770    -0.7300 H     1 <1>   0.0800 
 28 H       -1.8580    -2.2480     0.8950 H     1 <1>   0.0800 
 29 H        2.7770    -5.2160    -1.4930 H     1 <1>   0.1500 
 30 H       -3.7890    -3.6940     1.3310 H     1 <1>   0.0800 
 31 H       -3.6270    -4.4220    -0.2720 H     1 <1>   0.0800 
 32 H        0.9820    -1.1360     0.1340 H     1 <1>   0.0800 
 33 H        2.3100    -0.0370     0.1990 H     1 <1>   0.0800 
 34 H        2.0500    -1.1600     1.5140 H     1 <1>   0.0800 
 35 H        5.1260    -4.7060    -1.9710 H     1 <1>   0.1500 
 36 H        6.0630    -2.5470    -1.3200 H     1 <1>   0.1500 
 37 H        4.6700    -0.2620     0.9430 H     1 <1>   0.0800 
 38 H        4.5130     0.3060    -0.7080 H     1 <1>   0.0800 
 39 H        5.9540    -0.5320    -0.1970 H     1 <1>   0.0800 
 40 H       -5.6400    -0.6630    -1.2610 H     1 <1>   0.1500 
 41 H       -5.8460    -4.5220     0.5540 H     1 <1>   0.1500 
 42 H       -8.0660    -0.6560    -1.5320 H     1 <1>   0.1500 
 43 H       -8.2730    -4.5130     0.2810 H     1 <1>   0.1500 
 44 H      -11.4800    -1.9310    -1.3030 H     1 <1>   0.0800 
 45 H      -10.1230    -1.5070    -2.3420 H     1 <1>   0.0800 
 46 H      -10.2990    -0.7490    -0.7480 H     1 <1>   0.0800 
@<TRIPOS>BOND
  1   1   2  2   
  2   2   3  am  
  3   2   4  1   
  4   3   5  1   
  5   3  24  1   
  6   4   6  1   
  7   4  25  1   
  8   4  26  1   
  9   5   7  ar  
 10   5   8  ar  
 11   6   9  1   
 12   6  27  1   
 13   6  28  1   
 14   7  10  ar  
 15   7  11  1   
 16   8  12  ar  
 17   8  29  1   
 18   9  13  1   
 19   9  30  1   
 20   9  31  1   
 21  10  14  ar  
 22  10  15  1   
 23  11  32  1   
 24  11  33  1   
 25  11  34  1   
 26  12  14  ar  
 27  12  35  1   
 28  13  16  1   
 29  14  36  1   
 30  15  37  1   
 31  15  38  1   
 32  15  39  1   
 33  16  17  ar  
 34  16  18  ar  
 35  17  19  ar  
 36  17  40  1   
 37  18  20  ar  
 38  18  41  1   
 39  19  21  ar  
 40  19  42  1   
 41  20  21  ar  
 42  20  43  1   
 43  21  22  1   
 44  22  23  1   
 45  23  44  1   
 46  23  45  1   
 47  23  46  1   
@<TRIPOS>SUBSTRUCTURE
  1 ****   6 GROUP 4 **** **** 0

# MOE 2024.06 (io_trps.svl 2023.06)
