@<TRIPOS>MOLECULE
4-(2-Methoxy-ethyl)-5-[4-(piperidine-1-sulfonyl)-phenyl]-4H-[1,2,4]triazole-3-th
47 49 1 0 0 
SMALL
USER_CHARGES


@<TRIPOS>ATOM
  1 S       -1.0580     1.1170    -1.4030 S.o2  1 <1>   1.4470 
  2 O       -0.9630     0.6400    -2.7670 O.2   1 <1>  -0.6500 
  3 O       -2.0660     2.0940    -1.0560 O.2   1 <1>  -0.6500 
  4 N       -1.2980    -0.2410    -0.4170 N.am  1 <1>  -0.8490 
  5 C        0.5620     1.7220    -0.8470 C.ar  1 <1>  -0.0090 
  6 C       -0.4420    -1.3660    -0.8100 C.3   1 <1>   0.1960 
  7 C       -2.7080    -0.6420    -0.3930 C.3   1 <1>   0.1960 
  8 C        1.6180     1.8960    -1.7330 C.ar  1 <1>  -0.1500 
  9 C        0.7910     2.0220     0.4900 C.ar  1 <1>  -0.1500 
 10 C       -0.5660    -2.5060     0.2060 C.3   1 <1>  -0.1600 
 11 C       -2.9240    -1.7660     0.6260 C.3   1 <1>  -0.1600 
 12 C        2.8550     2.3380    -1.2990 C.ar  1 <1>  -0.1500 
 13 C        2.0250     2.4650     0.9290 C.ar  1 <1>  -0.1500 
 14 C       -2.0200    -2.9710     0.3400 C.3   1 <1>  -0.1600 
 15 C        3.0910     2.6230     0.0450 C.ar  1 <1>   0.0410 
 16 C        4.3880     3.0630     0.5080 C.2   1 <1>   0.6120 
 17 N        4.6360     4.1920     1.0980 N.2   1 <1>  -0.2600 
 18 N        5.5340     2.3040     0.3740 N.pl3 1 <1>  -0.7640 
 19 N        5.9760     4.1550     1.3380 N.pl3 1 <1>  -0.3930 
 20 C        6.4920     3.0280     0.9070 C.cat 1 <1>   0.7360 
 21 C        5.7170     0.9280    -0.1490 C.3   1 <1>   0.3540 
 22 S        8.0460     2.6000     1.0540 S.3   1 <1>  -0.9360 
 23 C        5.9200    -0.0700     0.9950 C.3   1 <1>   0.1200 
 24 O        5.6630    -1.3590     0.5210 O.3   1 <1>  -0.5600 
 25 C        5.9780    -2.3600     1.4340 C.3   1 <1>   0.0400 
 26 H        0.5860    -1.0470    -0.8510 H     1 <1>   0.0800 
 27 H       -0.7240    -1.7200    -1.7900 H     1 <1>   0.0800 
 28 H       -3.0130    -0.9670    -1.3750 H     1 <1>   0.0800 
 29 H       -3.3230     0.1970    -0.1120 H     1 <1>   0.0800 
 30 H        1.4670     1.6810    -2.7790 H     1 <1>   0.1500 
 31 H       -0.0170     1.9020     1.1950 H     1 <1>   0.1500 
 32 H       -0.2030    -2.1630     1.1590 H     1 <1>   0.0800 
 33 H        0.0500    -3.3310    -0.1050 H     1 <1>   0.0800 
 34 H       -3.9550    -2.0730     0.6050 H     1 <1>   0.0800 
 35 H       -2.7170    -1.3820     1.6100 H     1 <1>   0.0800 
 36 H        3.6510     2.4670    -2.0140 H     1 <1>   0.1500 
 37 H        2.1660     2.6880     1.9740 H     1 <1>   0.1500 
 38 H       -2.1060    -3.6940     1.1330 H     1 <1>   0.0800 
 39 H       -2.3320    -3.4410    -0.5770 H     1 <1>   0.0800 
 40 H        6.5610     4.8590     1.7910 H     1 <1>   0.4500 
 41 H        6.5800     0.9040    -0.7930 H     1 <1>   0.0800 
 42 H        4.8540     0.6370    -0.7180 H     1 <1>   0.0800 
 43 H        5.2340     0.1340     1.7970 H     1 <1>   0.0800 
 44 H        6.9350    -0.0180     1.3500 H     1 <1>   0.0800 
 45 H        5.7440    -3.3100     0.9860 H     1 <1>   0.0800 
 46 H        5.3930    -2.2260     2.3280 H     1 <1>   0.0800 
 47 H        7.0300    -2.3170     1.6600 H     1 <1>   0.0800 
@<TRIPOS>BOND
  1   1   2  2   
  2   1   3  2   
  3   1   4  am  
  4   1   5  1   
  5   4   6  1   
  6   4   7  1   
  7   5   8  ar  
  8   5   9  ar  
  9   6  10  1   
 10   6  26  1   
 11   6  27  1   
 12   7  11  1   
 13   7  28  1   
 14   7  29  1   
 15   8  12  ar  
 16   8  30  1   
 17   9  13  ar  
 18   9  31  1   
 19  10  14  1   
 20  10  32  1   
 21  10  33  1   
 22  11  14  1   
 23  11  34  1   
 24  11  35  1   
 25  12  15  ar  
 26  12  36  1   
 27  13  15  ar  
 28  13  37  1   
 29  14  38  1   
 30  14  39  1   
 31  15  16  1   
 32  16  17  2   
 33  16  18  1   
 34  17  19  1   
 35  18  20  ar  
 36  18  21  1   
 37  19  20  ar  
 38  19  40  1   
 39  20  22  1   
 40  21  23  1   
 41  21  41  1   
 42  21  42  1   
 43  23  24  1   
 44  23  43  1   
 45  23  44  1   
 46  24  25  1   
 47  25  45  1   
 48  25  46  1   
 49  25  47  1   
@<TRIPOS>SUBSTRUCTURE
  1 ****  13 GROUP 4 **** **** 0

# MOE 2024.06 (io_trps.svl 2023.06)
