@<TRIPOS>MOLECULE
NONAME
45 48 1 0 0 
SMALL
USER_CHARGES


@<TRIPOS>ATOM
  1 S       -0.3060    -0.9040    -0.9410 S.3   1 <1>  -0.2860 
  2 C        0.9260     0.2960    -0.4350 C.2   1 <1>   0.2420 
  3 C       -1.2830    -0.0600    -2.2800 C.3   1 <1>   0.1310 
  4 N        0.9920     1.4840    -0.9290 N.2   1 <1>  -0.5650 
  5 N        1.8450    -0.0140     0.5190 N.pl3 1 <1>   0.0480 
  6 C       -2.7620    -0.0130    -1.9200 C.2   1 <1>   0.5690 
  7 C        2.0460     2.0250    -0.2540 C.ar  1 <1>   0.2270 
  8 C        2.5820     1.1160     0.6480 C.ar  1 <1>   0.1050 
  9 C        2.0290    -1.2760     1.2660 C.3   1 <1>   0.0960 
 10 O       -3.4700    -0.8140    -2.4850 O.2   1 <1>  -0.5700 
 11 N       -3.2540     0.9050    -1.0080 N.am  1 <1>  -0.4770 
 12 C        2.6140     3.2880    -0.3450 C.ar  1 <1>  -0.1500 
 13 N        3.6190     1.3370     1.4720 N.ar  1 <1>  -0.5670 
 14 C        2.9400    -2.2330     0.4920 C.3   1 <1>  -0.2400 
 15 C       -4.5420     0.9470    -0.4500 C.ar  1 <1>   0.1170 
 16 C       -2.4160     1.9170    -0.3010 C.3   1 <1>   0.2200 
 17 C        3.6810     3.5360     0.4870 C.ar  1 <1>  -0.1500 
 18 C        4.1360     2.5410     1.3630 C.ar  1 <1>   0.1600 
 19 C       -4.5740     1.7230     0.6890 C.ar  1 <1>  -0.1430 
 20 C       -5.7150     0.3440    -0.8880 C.ar  1 <1>  -0.1500 
 21 C       -3.2020     2.2730     0.9750 C.3   1 <1>  -0.0170 
 22 C       -2.2390     3.1500    -1.1950 C.3   1 <1>  -0.2400 
 23 C       -5.7380     1.9150     1.4090 C.ar  1 <1>  -0.1500 
 24 C       -6.8900     0.5260    -0.1770 C.ar  1 <1>  -0.1500 
 25 C       -6.9030     1.3090     0.9680 C.ar  1 <1>  -0.1500 
 26 H       -1.1440    -0.6470    -3.1690 H     1 <1>   0.0800 
 27 H       -0.8820     0.9180    -2.4440 H     1 <1>   0.0800 
 28 H        1.0690    -1.7290     1.4330 H     1 <1>   0.0800 
 29 H        2.4680    -1.0470     2.2220 H     1 <1>   0.0800 
 30 H        2.2220     4.0100    -1.0370 H     1 <1>   0.1500 
 31 H        2.5040    -2.4790    -0.4610 H     1 <1>   0.0800 
 32 H        3.0720    -3.1410     1.0510 H     1 <1>   0.0800 
 33 H        3.9060    -1.7840     0.3390 H     1 <1>   0.0800 
 34 H       -1.4640     1.5050    -0.0280 H     1 <1>   0.0800 
 35 H        4.1760     4.4910     0.4740 H     1 <1>   0.1500 
 36 H        4.9740     2.7750     1.9980 H     1 <1>   0.1500 
 37 H       -5.7150    -0.2610    -1.7760 H     1 <1>   0.1500 
 38 H       -3.2260     3.3310     1.1630 H     1 <1>   0.0800 
 39 H       -2.7760     1.7690     1.8230 H     1 <1>   0.0800 
 40 H       -3.1970     3.5710    -1.4450 H     1 <1>   0.0800 
 41 H       -1.7190     2.9020    -2.1000 H     1 <1>   0.0800 
 42 H       -1.6610     3.8940    -0.6770 H     1 <1>   0.0800 
 43 H       -5.7410     2.5240     2.2960 H     1 <1>   0.1500 
 44 H       -7.7960     0.0570    -0.5170 H     1 <1>   0.1500 
 45 H       -7.8200     1.4450     1.5140 H     1 <1>   0.1500 
@<TRIPOS>BOND
  1   1   2  1   
  2   1   3  1   
  3   2   4  2   
  4   2   5  1   
  5   3   6  1   
  6   3  26  1   
  7   3  27  1   
  8   4   7  1   
  9   5   8  1   
 10   5   9  1   
 11   6  10  2   
 12   6  11  am  
 13   7   8  ar  
 14   7  12  ar  
 15   8  13  ar  
 16   9  14  1   
 17   9  28  1   
 18   9  29  1   
 19  11  15  1   
 20  11  16  1   
 21  12  17  ar  
 22  12  30  1   
 23  13  18  ar  
 24  14  31  1   
 25  14  32  1   
 26  14  33  1   
 27  15  19  ar  
 28  15  20  ar  
 29  16  21  1   
 30  16  22  1   
 31  16  34  1   
 32  17  18  ar  
 33  17  35  1   
 34  18  36  1   
 35  19  21  1   
 36  19  23  ar  
 37  20  24  ar  
 38  20  37  1   
 39  21  38  1   
 40  21  39  1   
 41  22  40  1   
 42  22  41  1   
 43  22  42  1   
 44  23  25  ar  
 45  23  43  1   
 46  24  25  ar  
 47  24  44  1   
 48  25  45  1   
@<TRIPOS>SUBSTRUCTURE
  1 ****  16 GROUP 4 **** **** 0

# MOE 2024.06 (io_trps.svl 2023.06)
