@<TRIPOS>MOLECULE
9360
43 44 1 0 0 
SMALL
USER_CHARGES


@<TRIPOS>ATOM
  1 O        0.3160     0.0310    -0.0780 O.2   1 <1>  -0.5700 
  2 C       -0.0970    -1.0480    -0.4230 C.2   1 <1>   0.5690 
  3 N        0.6500    -2.1750    -0.3390 N.am  1 <1>  -0.7300 
  4 C       -1.5040    -1.1560    -0.9740 C.3   1 <1>  -0.0990 
  5 C        2.0190    -2.2520     0.1960 C.3   1 <1>   0.2200 
  6 C       -2.4440    -1.9170    -0.0240 C.3   1 <1>  -0.1600 
  7 C        2.9000    -2.9700    -0.8170 C.3   1 <1>  -0.1600 
  8 C        2.0230    -3.1930     1.3940 C.3   1 <1>  -0.1600 
  9 C       -3.8690    -1.9700    -0.5740 C.3   1 <1>   0.1200 
 10 C        2.6450    -4.4670    -0.6080 C.3   1 <1>  -0.1600 
 11 C        2.0770    -4.6100     0.8110 C.3   1 <1>  -0.1600 
 12 O       -4.6490    -2.7380     0.3120 O.3   1 <1>  -0.3630 
 13 C       -5.9680    -2.9600     0.0740 C.ar  1 <1>   0.0820 
 14 C       -6.6550    -2.4540    -1.0270 C.ar  1 <1>  -0.1500 
 15 C       -6.6430    -3.7400     0.9990 C.ar  1 <1>  -0.1500 
 16 C       -8.0010    -2.7350    -1.1870 C.ar  1 <1>  -0.1500 
 17 C       -7.9890    -4.0210     0.8380 C.ar  1 <1>  -0.1500 
 18 C       -8.6760    -3.5160    -0.2630 C.ar  1 <1>   0.0820 
 19 O       -9.9950    -3.7410    -0.5000 O.3   1 <1>  -0.3620 
 20 C      -10.7690    -4.5230     0.3810 C.3   1 <1>   0.0400 
 21 H        0.2590    -3.0740    -0.6130 H     1 <1>   0.3700 
 22 H       -1.4610    -1.6490    -1.9280 H     1 <1>   0.0800 
 23 H       -1.8810    -0.1610    -1.1320 H     1 <1>   0.0800 
 24 H        2.3900    -1.2700     0.4430 H     1 <1>   0.0800 
 25 H       -2.4550    -1.4230     0.9320 H     1 <1>   0.0800 
 26 H       -2.0820    -2.9210     0.1130 H     1 <1>   0.0800 
 27 H        3.9280    -2.7550    -0.5830 H     1 <1>   0.0800 
 28 H        2.7060    -2.6490    -1.8260 H     1 <1>   0.0800 
 29 H        1.1740    -3.0370     2.0360 H     1 <1>   0.0800 
 30 H        2.9190    -3.0150     1.9610 H     1 <1>   0.0800 
 31 H       -3.8900    -2.4460    -1.5390 H     1 <1>   0.0800 
 32 H       -4.2930    -0.9820    -0.6330 H     1 <1>   0.0800 
 33 H        3.5560    -5.0300    -0.7240 H     1 <1>   0.0800 
 34 H        1.9250    -4.8220    -1.3250 H     1 <1>   0.0800 
 35 H        1.0840    -5.0250     0.7640 H     1 <1>   0.0800 
 36 H        2.6920    -5.2510     1.4190 H     1 <1>   0.0800 
 37 H       -6.1670    -1.8450    -1.7630 H     1 <1>   0.1500 
 38 H       -6.1050    -4.1250     1.8460 H     1 <1>   0.1500 
 39 H       -8.5410    -2.3500    -2.0330 H     1 <1>   0.1500 
 40 H       -8.4790    -4.6290     1.5740 H     1 <1>   0.1500 
 41 H      -11.7720    -4.5640    -0.0030 H     1 <1>   0.0800 
 42 H      -10.7680    -4.0590     1.3520 H     1 <1>   0.0800 
 43 H      -10.3530    -5.5140     0.4260 H     1 <1>   0.0800 
@<TRIPOS>BOND
  1   1   2  2   
  2   2   3  am  
  3   2   4  1   
  4   3   5  1   
  5   3  21  1   
  6   4   6  1   
  7   4  22  1   
  8   4  23  1   
  9   5   7  1   
 10   5   8  1   
 11   5  24  1   
 12   6   9  1   
 13   6  25  1   
 14   6  26  1   
 15   7  10  1   
 16   7  27  1   
 17   7  28  1   
 18   8  11  1   
 19   8  29  1   
 20   8  30  1   
 21   9  12  1   
 22   9  31  1   
 23   9  32  1   
 24  10  11  1   
 25  10  33  1   
 26  10  34  1   
 27  11  35  1   
 28  11  36  1   
 29  12  13  1   
 30  13  14  ar  
 31  13  15  ar  
 32  14  16  ar  
 33  14  37  1   
 34  15  17  ar  
 35  15  38  1   
 36  16  18  ar  
 37  16  39  1   
 38  17  18  ar  
 39  17  40  1   
 40  18  19  1   
 41  19  20  1   
 42  20  41  1   
 43  20  42  1   
 44  20  43  1   
@<TRIPOS>SUBSTRUCTURE
  1 ****   9 GROUP 4 **** **** 0

# MOE 2024.06 (io_trps.svl 2023.06)
