@<TRIPOS>MOLECULE
4-Benzoylamino-piperidine-1-carboxylic acid (4-ethoxy-phenyl)-amide
52 54 1 0 0 
SMALL
USER_CHARGES


@<TRIPOS>ATOM
  1 O        0.7400    -0.0380    -0.3510 O.2   1 <1>  -0.5700 
  2 C        0.9870     0.9240    -1.0540 C.2   1 <1>   0.6900 
  3 N        2.2190     1.0490    -1.6470 N.am  1 <1>  -0.6600 
  4 N        0.0450     1.8840    -1.2930 N.am  1 <1>  -0.5470 
  5 C        2.8350     2.3550    -2.0170 C.3   1 <1>   0.1400 
  6 C        3.1540    -0.1090    -1.7090 C.3   1 <1>   0.1400 
  7 C       -1.2290     2.0960    -0.7440 C.ar  1 <1>   0.1170 
  8 C        4.0280     2.6300    -1.1000 C.3   1 <1>  -0.1600 
  9 C        4.3450     0.1460    -0.7840 C.3   1 <1>  -0.1600 
 10 C       -1.6000     1.6210     0.5100 C.ar  1 <1>  -0.1500 
 11 C       -2.1580     2.8290    -1.4730 C.ar  1 <1>  -0.1500 
 12 C        5.0230     1.4690    -1.1380 C.3   1 <1>   0.2200 
 13 C       -2.8620     1.8660     1.0220 C.ar  1 <1>  -0.1500 
 14 C       -3.4200     3.0780    -0.9670 C.ar  1 <1>  -0.1500 
 15 N        6.1020     1.7310    -0.1720 N.am  1 <1>  -0.7300 
 16 C       -3.7830     2.6000     0.2810 C.ar  1 <1>   0.0820 
 17 C        7.3360     2.2270    -0.4860 C.2   1 <1>   0.5440 
 18 O       -5.0430     2.8880     0.7040 O.3   1 <1>  -0.3630 
 19 O        7.5680     2.5100    -1.6450 O.2   1 <1>  -0.5700 
 20 C        8.3370     2.4340     0.5480 C.ar  1 <1>   0.0860 
 21 C       -5.5150     2.4080     1.9400 C.3   1 <1>   0.1200 
 22 C        9.3190     3.4150     0.4060 C.ar  1 <1>  -0.1500 
 23 C        8.3610     1.6700     1.7180 C.ar  1 <1>  -0.1500 
 24 C       -6.9570     2.8780     2.1090 C.3   1 <1>  -0.2400 
 25 C       10.2710     3.6350     1.3860 C.ar  1 <1>  -0.1500 
 26 C        9.3090     1.8860     2.7020 C.ar  1 <1>  -0.1500 
 27 C       10.2650     2.8710     2.5380 C.ar  1 <1>  -0.1500 
 28 H        0.2750     2.4590    -2.0930 H     1 <1>   0.3700 
 29 H        2.1280     3.1600    -1.9220 H     1 <1>   0.0800 
 30 H        3.1620     2.3110    -3.0420 H     1 <1>   0.0800 
 31 H        3.4950    -0.2310    -2.7230 H     1 <1>   0.0800 
 32 H        2.6540    -1.0190    -1.4190 H     1 <1>   0.0800 
 33 H        3.6680     2.7760    -0.0970 H     1 <1>   0.0800 
 34 H        4.5210     3.5300    -1.4220 H     1 <1>   0.0800 
 35 H        5.0500    -0.6590    -0.8880 H     1 <1>   0.0800 
 36 H        3.9900     0.1640     0.2310 H     1 <1>   0.0800 
 37 H       -0.8980     1.0570     1.0960 H     1 <1>   0.1500 
 38 H       -1.8970     3.2060    -2.4450 H     1 <1>   0.1500 
 39 H        5.4390     1.3950    -2.1300 H     1 <1>   0.0800 
 40 H       -3.1040     1.4780     1.9930 H     1 <1>   0.1500 
 41 H       -4.1360     3.6450    -1.5350 H     1 <1>   0.1500 
 42 H        5.8400     1.6300     0.8080 H     1 <1>   0.3700 
 43 H       -4.8910     2.8050     2.7210 H     1 <1>   0.0800 
 44 H       -5.4650     1.3320     1.9290 H     1 <1>   0.0800 
 45 H        9.3320     4.0110    -0.4900 H     1 <1>   0.1500 
 46 H        7.6340     0.8910     1.8590 H     1 <1>   0.1500 
 47 H       -6.9970     3.9530     2.1010 H     1 <1>   0.0800 
 48 H       -7.3470     2.5260     3.0470 H     1 <1>   0.0800 
 49 H       -7.5670     2.4900     1.3140 H     1 <1>   0.0800 
 50 H       11.0160     4.4000     1.2500 H     1 <1>   0.1500 
 51 H        9.3070     1.2860     3.5960 H     1 <1>   0.1500 
 52 H       11.0040     3.0410     3.3020 H     1 <1>   0.1500 
@<TRIPOS>BOND
  1   1   2  2   
  2   2   3  am  
  3   2   4  am  
  4   3   5  1   
  5   3   6  1   
  6   4   7  1   
  7   4  28  1   
  8   5   8  1   
  9   5  29  1   
 10   5  30  1   
 11   6   9  1   
 12   6  31  1   
 13   6  32  1   
 14   7  10  ar  
 15   7  11  ar  
 16   8  12  1   
 17   8  33  1   
 18   8  34  1   
 19   9  12  1   
 20   9  35  1   
 21   9  36  1   
 22  10  13  ar  
 23  10  37  1   
 24  11  14  ar  
 25  11  38  1   
 26  12  15  1   
 27  12  39  1   
 28  13  16  ar  
 29  13  40  1   
 30  14  16  ar  
 31  14  41  1   
 32  15  17  am  
 33  15  42  1   
 34  16  18  1   
 35  17  19  2   
 36  17  20  1   
 37  18  21  1   
 38  20  22  ar  
 39  20  23  ar  
 40  21  24  1   
 41  21  43  1   
 42  21  44  1   
 43  22  25  ar  
 44  22  45  1   
 45  23  26  ar  
 46  23  46  1   
 47  24  47  1   
 48  24  48  1   
 49  24  49  1   
 50  25  27  ar  
 51  25  50  1   
 52  26  27  ar  
 53  26  51  1   
 54  27  52  1   
@<TRIPOS>SUBSTRUCTURE
  1 ****   3 GROUP 4 **** **** 0

# MOE 2024.06 (io_trps.svl 2023.06)
