@<TRIPOS>MOLECULE
NONAME
42 45 1 0 0 
SMALL
USER_CHARGES


@<TRIPOS>ATOM
  1 CL      -2.0370     0.8650    -3.0090 Cl    1 <1>  -0.1770 
  2 C       -2.4370    -0.5650    -2.0920 C.ar  1 <1>   0.1770 
  3 C       -1.9990    -0.6810    -0.7890 C.ar  1 <1>  -0.1500 
  4 C       -3.1860    -1.5630    -2.6810 C.ar  1 <1>  -0.1500 
  5 C       -2.3180    -1.8160    -0.0620 C.ar  1 <1>  -0.1500 
  6 C       -3.5010    -2.6940    -1.9470 C.ar  1 <1>  -0.1500 
  7 C       -3.0830    -2.8380    -0.6240 C.ar  1 <1>  -0.1430 
  8 C       -3.4510    -4.1250     0.1540 C.3   1 <1>   0.2870 
  9 C       -4.8820    -4.5680    -0.1690 C.ar  1 <1>  -0.1440 
 10 C       -2.4310    -5.2110    -0.2840 C.3   1 <1>  -0.1600 
 11 C       -3.4120    -3.8910     1.6760 C.3   1 <1>  -0.2400 
 12 C       -5.1280    -5.9150    -0.3690 C.ar  1 <1>   0.1170 
 13 C       -5.9600    -3.6970    -0.2390 C.ar  1 <1>  -0.1500 
 14 C       -2.7690    -6.7060    -0.0400 C.3   1 <1>   0.3000 
 15 N       -4.2030    -6.9460    -0.3330 N.am  1 <1>  -0.4770 
 16 C       -6.3980    -6.4070    -0.6200 C.ar  1 <1>   0.0860 
 17 C       -7.2420    -4.1700    -0.5090 C.ar  1 <1>  -0.1500 
 18 C       -1.8900    -7.5360    -0.9890 C.3   1 <1>  -0.2400 
 19 C       -2.4840    -7.1460     1.4010 C.3   1 <1>  -0.2400 
 20 C       -4.8890    -8.1330    -0.5050 C.2   1 <1>   0.6300 
 21 C       -6.2950    -7.8300    -0.7300 C.2   1 <1>   0.4840 
 22 C       -7.4680    -5.5220    -0.7000 C.ar  1 <1>  -0.1500 
 23 O       -4.3640    -9.2310    -0.4430 O.2   1 <1>  -0.5700 
 24 O       -7.2280    -8.5790    -0.9600 O.2   1 <1>  -0.5700 
 25 H       -1.4130     0.1070    -0.3530 H     1 <1>   0.1500 
 26 H       -3.5140    -1.4560    -3.6990 H     1 <1>   0.1500 
 27 H       -1.9520    -1.8790     0.9460 H     1 <1>   0.1500 
 28 H       -4.0790    -3.4680    -2.4230 H     1 <1>   0.1500 
 29 H       -1.4710    -4.9860     0.1440 H     1 <1>   0.0800 
 30 H       -2.3060    -5.0980    -1.3460 H     1 <1>   0.0800 
 31 H       -3.9080    -4.6850     2.1990 H     1 <1>   0.0800 
 32 H       -3.9320    -2.9820     1.9200 H     1 <1>   0.0800 
 33 H       -2.4010    -3.8230     2.0350 H     1 <1>   0.0800 
 34 H       -5.8120    -2.6410    -0.0840 H     1 <1>   0.1500 
 35 H       -8.0630    -3.4750    -0.5650 H     1 <1>   0.1500 
 36 H       -2.1600    -7.3550    -2.0130 H     1 <1>   0.0800 
 37 H       -1.9810    -8.5890    -0.7900 H     1 <1>   0.0800 
 38 H       -0.8560    -7.2750    -0.8590 H     1 <1>   0.0800 
 39 H       -1.4800    -6.8830     1.6820 H     1 <1>   0.0800 
 40 H       -2.5810    -8.2140     1.4870 H     1 <1>   0.0800 
 41 H       -3.1650    -6.6990     2.0950 H     1 <1>   0.0800 
 42 H       -8.4560    -5.9000    -0.9020 H     1 <1>   0.1500 
@<TRIPOS>BOND
  1   1   2  1   
  2   2   3  ar  
  3   2   4  ar  
  4   3   5  ar  
  5   3  25  1   
  6   4   6  ar  
  7   4  26  1   
  8   5   7  ar  
  9   5  27  1   
 10   6   7  ar  
 11   6  28  1   
 12   7   8  1   
 13   8   9  1   
 14   8  10  1   
 15   8  11  1   
 16   9  12  ar  
 17   9  13  ar  
 18  10  14  1   
 19  10  29  1   
 20  10  30  1   
 21  11  31  1   
 22  11  32  1   
 23  11  33  1   
 24  12  15  1   
 25  12  16  ar  
 26  13  17  ar  
 27  13  34  1   
 28  14  15  1   
 29  14  18  1   
 30  14  19  1   
 31  15  20  am  
 32  16  21  1   
 33  16  22  ar  
 34  17  22  ar  
 35  17  35  1   
 36  18  36  1   
 37  18  37  1   
 38  18  38  1   
 39  19  39  1   
 40  19  40  1   
 41  19  41  1   
 42  20  21  1   
 43  20  23  2   
 44  21  24  2   
 45  22  42  1   
@<TRIPOS>SUBSTRUCTURE
  1 ****   9 GROUP 4 **** **** 0

# MOE 2024.06 (io_trps.svl 2023.06)
