@<TRIPOS>MOLECULE
2-(3-Cyano-6,7-dimethoxy-quinolin-2-ylsulfanyl)-N-cyclohexyl-acetamide
50 52 1 0 0 
SMALL
USER_CHARGES


@<TRIPOS>ATOM
  1 S        0.2250     0.5990    -0.5390 S.3   1 <1>  -0.3320 
  2 C       -1.5680     0.5830    -0.5580 C.ar  1 <1>   0.4120 
  3 C        0.6650     2.2040     0.3030 C.3   1 <1>   0.1310 
  4 N       -2.1420     1.6170    -0.0210 N.ar  1 <1>  -0.6200 
  5 C       -2.2260    -0.5190    -1.1390 C.ar  1 <1>   0.0730 
  6 C        2.1700     2.4030     0.4150 C.2   1 <1>   0.5690 
  7 C       -3.4970     1.6360    -0.0200 C.ar  1 <1>   0.3100 
  8 C       -1.4870    -1.6070    -1.7020 C.1   1 <1>   0.4840 
  9 C       -3.5950    -0.5040    -1.1390 C.ar  1 <1>  -0.1500 
 10 O        2.5620     3.4130     0.9460 O.2   1 <1>  -0.5700 
 11 N        3.0120     1.4520    -0.0790 N.am  1 <1>  -0.7300 
 12 C       -4.2700     0.5900    -0.5710 C.ar  1 <1>   0.0000 
 13 C       -4.1540     2.7330     0.5500 C.ar  1 <1>  -0.1500 
 14 N       -0.9290    -2.4900    -2.1600 N.1   1 <1>  -0.5570 
 15 C        4.4900     1.4310    -0.0820 C.3   1 <1>   0.2200 
 16 C       -5.6740     0.6830    -0.5310 C.ar  1 <1>  -0.1500 
 17 C       -5.5280     2.8150     0.5840 C.ar  1 <1>   0.0830 
 18 C        5.0410     1.4220     1.3490 C.3   1 <1>  -0.1600 
 19 C        5.0530     2.6000    -0.9000 C.3   1 <1>  -0.1600 
 20 C       -6.3020     1.7700     0.0330 C.ar  1 <1>   0.0830 
 21 O       -6.1900     3.8690     1.1300 O.3   1 <1>  -0.3630 
 22 C        6.5770     1.3980     1.3450 C.3   1 <1>  -0.1600 
 23 C        6.5890     2.5760    -0.9050 C.3   1 <1>  -0.1600 
 24 O       -7.6560     1.8960     0.0900 O.3   1 <1>  -0.3630 
 25 C       -5.5160     4.9650     1.7070 C.3   1 <1>   0.0400 
 26 C        7.1470     2.5650     0.5250 C.3   1 <1>  -0.1600 
 27 C       -8.5260     0.9150    -0.4280 C.3   1 <1>   0.0400 
 28 H        0.2230     2.1840     1.2810 H     1 <1>   0.0800 
 29 H        0.2310     2.9980    -0.2760 H     1 <1>   0.0800 
 30 H       -4.1640    -1.3130    -1.5650 H     1 <1>   0.1500 
 31 H        2.5790     0.6310    -0.5100 H     1 <1>   0.3700 
 32 H       -3.5300     3.5040     0.9560 H     1 <1>   0.1500 
 33 H        4.8010     0.5160    -0.5590 H     1 <1>   0.0800 
 34 H       -6.2350    -0.1260    -0.9580 H     1 <1>   0.1500 
 35 H        4.6690     0.5610     1.8740 H     1 <1>   0.0800 
 36 H        4.7130     2.3060     1.8680 H     1 <1>   0.0800 
 37 H        4.7250     3.5310    -0.4720 H     1 <1>   0.0800 
 38 H        4.6890     2.5420    -1.9100 H     1 <1>   0.0800 
 39 H        6.9200     0.4670     0.9260 H     1 <1>   0.0800 
 40 H        6.9400     1.4580     2.3560 H     1 <1>   0.0800 
 41 H        6.9590     3.4400    -1.4290 H     1 <1>   0.0800 
 42 H        6.9320     1.7000    -1.4290 H     1 <1>   0.0800 
 43 H       -6.2560     5.6580     2.0650 H     1 <1>   0.0800 
 44 H       -4.9070     5.4360     0.9560 H     1 <1>   0.0800 
 45 H       -4.9170     4.6140     2.5290 H     1 <1>   0.0800 
 46 H        8.2200     2.4940     0.4940 H     1 <1>   0.0800 
 47 H        6.8930     3.4930     1.0100 H     1 <1>   0.0800 
 48 H       -9.5360     1.2460    -0.2620 H     1 <1>   0.0800 
 49 H       -8.3560    -0.0120     0.0900 H     1 <1>   0.0800 
 50 H       -8.3460     0.8110    -1.4830 H     1 <1>   0.0800 
@<TRIPOS>BOND
  1   1   2  1   
  2   1   3  1   
  3   2   4  ar  
  4   2   5  ar  
  5   3   6  1   
  6   3  28  1   
  7   3  29  1   
  8   4   7  ar  
  9   5   8  1   
 10   5   9  ar  
 11   6  10  2   
 12   6  11  am  
 13   7  12  ar  
 14   7  13  ar  
 15   8  14  3   
 16   9  12  ar  
 17   9  30  1   
 18  11  15  1   
 19  11  31  1   
 20  12  16  ar  
 21  13  17  ar  
 22  13  32  1   
 23  15  18  1   
 24  15  19  1   
 25  15  33  1   
 26  16  20  ar  
 27  16  34  1   
 28  17  20  ar  
 29  17  21  1   
 30  18  22  1   
 31  18  35  1   
 32  18  36  1   
 33  19  23  1   
 34  19  37  1   
 35  19  38  1   
 36  20  24  1   
 37  21  25  1   
 38  22  26  1   
 39  22  39  1   
 40  22  40  1   
 41  23  26  1   
 42  23  41  1   
 43  23  42  1   
 44  24  27  1   
 45  25  43  1   
 46  25  44  1   
 47  25  45  1   
 48  26  46  1   
 49  26  47  1   
 50  27  48  1   
 51  27  49  1   
 52  27  50  1   
@<TRIPOS>SUBSTRUCTURE
  1 ****   4 GROUP 4 **** **** 0

# MOE 2024.06 (io_trps.svl 2023.06)
