@<TRIPOS>MOLECULE
NONAME
47 50 1 0 0 
SMALL
USER_CHARGES


@<TRIPOS>ATOM
  1 F        2.5590     1.2570    -3.0350 F     1 <1>  -0.1900 
  2 C        2.5080     1.8620    -1.8800 C.ar  1 <1>   0.1900 
  3 C        1.2830     2.2870    -1.4040 C.ar  1 <1>  -0.1500 
  4 C        3.6800     2.0550    -1.1750 C.ar  1 <1>  -0.1500 
  5 C        1.2330     2.9320    -0.1800 C.ar  1 <1>  -0.1500 
  6 C        3.6200     2.7010     0.0480 C.ar  1 <1>  -0.1500 
  7 C        2.4000     3.1460     0.5470 C.ar  1 <1>  -0.1430 
  8 C        2.3430     3.8730     1.8860 C.3   1 <1>   0.2390 
  9 N        3.2490     5.0430     1.9320 N.pl3 1 <1>   0.3140 
 10 N        4.0880     5.2060     2.9330 N.2   1 <1>  -0.4180 
 11 C        3.4120     6.0710     1.1070 C.2   1 <1>   0.0060 
 12 N        4.7290     6.2930     2.7020 N.2   1 <1>   0.0000 
 13 N        4.3230     6.8440     1.5660 N.2   1 <1>  -0.3380 
 14 C        2.6700     6.3060    -0.2040 C.3   1 <1>   0.2900 
 15 N        1.4730     7.1620    -0.0670 N.3   1 <1>  -0.8100 
 16 C        0.8140     7.3300    -1.3860 C.3   1 <1>   0.1100 
 17 C        0.4960     6.6870     0.9410 C.3   1 <1>   0.1100 
 18 C       -0.4360     8.2280    -1.3170 C.3   1 <1>   0.2090 
 19 C       -0.7450     7.5940     1.0290 C.3   1 <1>   0.2090 
 20 N       -1.3980     7.7120    -0.3030 N.pl3 1 <1>  -0.8380 
 21 C       -2.6650     8.2830    -0.3180 C.ar  1 <1>   0.1000 
 22 C       -3.7530     7.5210    -0.7200 C.ar  1 <1>  -0.1500 
 23 C       -2.8770     9.6050     0.0610 C.ar  1 <1>  -0.1500 
 24 C       -5.0260     8.0610    -0.7440 C.ar  1 <1>  -0.1500 
 25 C       -4.1480    10.1500     0.0390 C.ar  1 <1>  -0.1500 
 26 C       -5.2250     9.3780    -0.3640 C.ar  1 <1>  -0.1500 
 27 H        0.3930     2.1130    -1.9820 H     1 <1>   0.1500 
 28 H        4.6140     1.7070    -1.5780 H     1 <1>   0.1500 
 29 H        0.2790     3.2630     0.1950 H     1 <1>   0.1500 
 30 H        4.5310     2.8560     0.6050 H     1 <1>   0.1500 
 31 H        2.6330     3.1920     2.6660 H     1 <1>   0.0800 
 32 H        1.3460     4.2080     2.0950 H     1 <1>   0.0800 
 33 H        2.3980     5.3730    -0.6600 H     1 <1>   0.0800 
 34 H        3.3540     6.7960    -0.8760 H     1 <1>   0.0800 
 35 H        0.5170     6.3690    -1.7700 H     1 <1>   0.0800 
 36 H        1.5110     7.7680    -2.0790 H     1 <1>   0.0800 
 37 H        0.9610     6.6710     1.9100 H     1 <1>   0.0800 
 38 H        0.1700     5.6930     0.6920 H     1 <1>   0.0800 
 39 H       -0.9160     8.2540    -2.2800 H     1 <1>   0.0800 
 40 H       -0.1400     9.2300    -1.0600 H     1 <1>   0.0800 
 41 H       -0.4480     8.5670     1.3790 H     1 <1>   0.0800 
 42 H       -1.4460     7.1810     1.7330 H     1 <1>   0.0800 
 43 H       -3.5850     6.5020    -1.0130 H     1 <1>   0.1500 
 44 H       -2.0410    10.2020     0.3710 H     1 <1>   0.1500 
 45 H       -5.8600     7.4590    -1.0580 H     1 <1>   0.1500 
 46 H       -4.3010    11.1730     0.3340 H     1 <1>   0.1500 
 47 H       -6.2150     9.8000    -0.3820 H     1 <1>   0.1500 
@<TRIPOS>BOND
  1   1   2  1   
  2   2   3  ar  
  3   2   4  ar  
  4   3   5  ar  
  5   3  27  1   
  6   4   6  ar  
  7   4  28  1   
  8   5   7  ar  
  9   5  29  1   
 10   6   7  ar  
 11   6  30  1   
 12   7   8  1   
 13   8   9  1   
 14   8  31  1   
 15   8  32  1   
 16   9  10  1   
 17   9  11  1   
 18  10  12  2   
 19  11  13  2   
 20  11  14  1   
 21  12  13  1   
 22  14  15  1   
 23  14  33  1   
 24  14  34  1   
 25  15  16  1   
 26  15  17  1   
 27  16  18  1   
 28  16  35  1   
 29  16  36  1   
 30  17  19  1   
 31  17  37  1   
 32  17  38  1   
 33  18  20  1   
 34  18  39  1   
 35  18  40  1   
 36  19  20  1   
 37  19  41  1   
 38  19  42  1   
 39  20  21  1   
 40  21  22  ar  
 41  21  23  ar  
 42  22  24  ar  
 43  22  43  1   
 44  23  25  ar  
 45  23  44  1   
 46  24  26  ar  
 47  24  45  1   
 48  25  26  ar  
 49  25  46  1   
 50  26  47  1   
@<TRIPOS>SUBSTRUCTURE
  1 ****  17 GROUP 4 **** **** 0

# MOE 2024.06 (io_trps.svl 2023.06)
