@<TRIPOS>MOLECULE
NONAME
56 59 1 0 0 
SMALL
USER_CHARGES


@<TRIPOS>ATOM
  1 O        0.1540     1.1430    -0.6390 O.2   1 <1>  -0.5700 
  2 C        0.6590     1.2690     0.4570 C.2   1 <1>   0.5440 
  3 N       -0.1510     1.3100     1.5620 N.am  1 <1>  -0.7300 
  4 C        2.0950     1.4200     0.5950 C.ar  1 <1>   0.0860 
  5 C       -1.6300     1.3310     1.7390 C.3   1 <1>   0.2200 
  6 C        2.9750     0.6550    -0.1710 C.ar  1 <1>  -0.1500 
  7 C        2.6480     2.3430     1.4840 C.ar  1 <1>  -0.1500 
  8 C       -2.4140     0.6260     0.5460 C.3   1 <1>  -0.1600 
  9 C       -2.0330     2.8270     2.0000 C.3   1 <1>  -0.1600 
 10 C        4.3450     0.7930    -0.0450 C.ar  1 <1>  -0.1500 
 11 C        4.0170     2.4840     1.6150 C.ar  1 <1>  -0.1500 
 12 C       -2.7420     1.5300    -0.7070 C.3   1 <1>   0.4230 
 13 C       -2.8820     3.2140     0.8180 C.3   1 <1>   0.4230 
 14 C        4.8690     1.7070     0.8510 C.ar  1 <1>  -0.1500 
 15 N       -2.1210     2.7930    -0.3710 N.4   1 <1>  -0.9590 
 16 C       -4.2600     1.8300    -0.9980 C.3   1 <1>  -0.1600 
 17 C       -4.0430     4.0920     0.4080 C.3   1 <1>  -0.1600 
 18 C       -1.7930     3.7520    -1.4540 C.3   1 <1>   0.4860 
 19 C       -4.7780     3.3030    -0.7310 C.3   1 <1>  -0.1600 
 20 C       -0.5430     4.4880    -1.0080 C.ar  1 <1>  -0.1430 
 21 C        0.6980     4.0480    -1.4450 C.ar  1 <1>  -0.1500 
 22 C       -0.6100     5.5720    -0.1440 C.ar  1 <1>  -0.1500 
 23 C        1.8590     4.6580    -1.0050 C.ar  1 <1>  -0.1500 
 24 C        0.5500     6.1830     0.2970 C.ar  1 <1>  -0.1500 
 25 C        1.7900     5.7280    -0.1200 C.ar  1 <1>   0.0830 
 26 O        2.8770     6.3680     0.3750 O.3   1 <1>  -0.3620 
 27 C        4.1790     6.0380    -0.0550 C.3   1 <1>   0.0400 
 28 H        0.3490     1.3120     2.4570 H     1 <1>   0.3700 
 29 H       -1.8370     0.7650     2.6330 H     1 <1>   0.0800 
 30 H        2.5740    -0.0560    -0.8730 H     1 <1>   0.1500 
 31 H        2.0030     2.9710     2.0730 H     1 <1>   0.1500 
 32 H       -3.3380     0.2470     0.9420 H     1 <1>   0.0800 
 33 H       -1.8680    -0.2430     0.2230 H     1 <1>   0.0800 
 34 H       -1.1880     3.4860     2.1030 H     1 <1>   0.0800 
 35 H       -2.6320     2.8920     2.8900 H     1 <1>   0.0800 
 36 H        5.0060     0.1890    -0.6440 H     1 <1>   0.1500 
 37 H        4.4230     3.2010     2.3100 H     1 <1>   0.1500 
 38 H       -2.2660     1.1090    -1.5800 H     1 <1>   0.0800 
 39 H       -3.5710     2.4220     1.0460 H     1 <1>   0.0800 
 40 H        5.9360     1.8130     0.9520 H     1 <1>   0.1500 
 41 H       -1.1800     2.4940    -0.0510 H     1 <1>   0.4500 
 42 H       -4.8630     1.1480    -0.4250 H     1 <1>   0.0800 
 43 H       -4.4550     1.5840    -2.0270 H     1 <1>   0.0800 
 44 H       -3.7280     5.0710     0.0950 H     1 <1>   0.0800 
 45 H       -4.7020     4.2100     1.2510 H     1 <1>   0.0800 
 46 H       -2.5990     4.4400    -1.6350 H     1 <1>   0.0800 
 47 H       -1.5800     3.2160    -2.3650 H     1 <1>   0.0800 
 48 H       -5.8360     3.2750    -0.5230 H     1 <1>   0.0800 
 49 H       -4.6720     3.8640    -1.6440 H     1 <1>   0.0800 
 50 H        0.7780     3.2150    -2.1240 H     1 <1>   0.1500 
 51 H       -1.5550     5.9510     0.2000 H     1 <1>   0.1500 
 52 H        2.8030     4.2820    -1.3540 H     1 <1>   0.1500 
 53 H        0.5070     7.0220     0.9690 H     1 <1>   0.1500 
 54 H        4.8730     6.6850     0.4520 H     1 <1>   0.0800 
 55 H        4.2460     6.1940    -1.1170 H     1 <1>   0.0800 
 56 H        4.3830     5.0130     0.1970 H     1 <1>   0.0800 
@<TRIPOS>BOND
  1   1   2  2   
  2   2   3  am  
  3   2   4  1   
  4   3   5  1   
  5   3  28  1   
  6   4   6  ar  
  7   4   7  ar  
  8   5   8  1   
  9   5   9  1   
 10   5  29  1   
 11   6  10  ar  
 12   6  30  1   
 13   7  11  ar  
 14   7  31  1   
 15   8  12  1   
 16   8  32  1   
 17   8  33  1   
 18   9  13  1   
 19   9  34  1   
 20   9  35  1   
 21  10  14  ar  
 22  10  36  1   
 23  11  14  ar  
 24  11  37  1   
 25  12  15  1   
 26  12  16  1   
 27  12  38  1   
 28  13  15  1   
 29  13  17  1   
 30  13  39  1   
 31  14  40  1   
 32  15  18  1   
 33  15  41  1   
 34  16  19  1   
 35  16  42  1   
 36  16  43  1   
 37  17  19  1   
 38  17  44  1   
 39  17  45  1   
 40  18  20  1   
 41  18  46  1   
 42  18  47  1   
 43  19  48  1   
 44  19  49  1   
 45  20  21  ar  
 46  20  22  ar  
 47  21  23  ar  
 48  21  50  1   
 49  22  24  ar  
 50  22  51  1   
 51  23  25  ar  
 52  23  52  1   
 53  24  25  ar  
 54  24  53  1   
 55  25  26  1   
 56  26  27  1   
 57  27  54  1   
 58  27  55  1   
 59  27  56  1   
@<TRIPOS>SUBSTRUCTURE
  1 ****   2 GROUP 4 **** **** 0

# MOE 2024.06 (io_trps.svl 2023.06)
