@<TRIPOS>MOLECULE
NONAME
59 62 1 0 0 
SMALL
USER_CHARGES


@<TRIPOS>ATOM
  1 S       -0.5940    -1.7270     0.2410 S.3   1 <1>  -0.3220 
  2 C       -2.2530    -1.1600    -0.0240 C.cat 1 <1>   0.8920 
  3 C        0.5940    -0.9610    -0.9670 C.3   1 <1>   0.1310 
  4 N       -3.2120    -1.9430     0.4350 N.pl3 1 <1>  -0.7000 
  5 N       -2.7490    -0.0650    -0.5970 N.pl3 1 <1>  -0.7640 
  6 C        1.3550     0.1850    -0.3150 C.2   1 <1>   0.5690 
  7 C       -4.3960    -1.3510     0.1480 C.2   1 <1>   0.4260 
  8 C       -4.1480    -0.1830    -0.4910 C.2   1 <1>   0.2770 
  9 C       -2.1280     1.1760    -1.1390 C.3   1 <1>   0.3540 
 10 O        0.9670     1.3000    -0.5700 O.2   1 <1>  -0.5700 
 11 N        2.4220    -0.0330     0.5140 N.am  1 <1>  -0.6600 
 12 N       -5.6630    -1.8200     0.4430 N.am  1 <1>  -0.4360 
 13 C       -5.2730     0.6250    -0.8800 C.2   1 <1>   0.7030 
 14 C       -2.0570     2.2330    -0.0330 C.3   1 <1>  -0.1600 
 15 C        3.2440     1.1120     1.0110 C.3   1 <1>   0.2840 
 16 C        2.9100    -1.3580     0.9880 C.3   1 <1>   0.1400 
 17 C       -6.7490    -1.0340     0.0880 C.2   1 <1>   0.6900 
 18 C       -5.8570    -3.1270     1.1430 C.3   1 <1>   0.0600 
 19 O       -5.1240     1.6730    -1.4830 O.2   1 <1>  -0.5700 
 20 N       -6.5490     0.1810    -0.5560 N.am  1 <1>  -0.4200 
 21 C       -1.5530     3.5780    -0.5730 C.3   1 <1>  -0.1600 
 22 C        4.7430     0.8170     0.9610 C.ar  1 <1>  -0.1430 
 23 C        4.3040    -1.6180     0.4170 C.3   1 <1>  -0.0170 
 24 O       -7.8760    -1.4080     0.3410 O.2   1 <1>  -0.5700 
 25 C       -7.7430     1.0050    -0.9310 C.3   1 <1>   0.0600 
 26 C       -1.4670     4.6200     0.5450 C.3   1 <1>  -0.2400 
 27 C        5.2430    -0.4540     0.6930 C.ar  1 <1>  -0.1430 
 28 C        5.6290     1.8580     1.1990 C.ar  1 <1>  -0.1500 
 29 C        6.6130    -0.6650     0.6660 C.ar  1 <1>  -0.1500 
 30 C        6.9950     1.6420     1.1720 C.ar  1 <1>  -0.1500 
 31 C        7.4880     0.3790     0.9060 C.ar  1 <1>  -0.1500 
 32 H        0.0460    -0.6390    -1.8300 H     1 <1>   0.0800 
 33 H        1.2780    -1.7320    -1.2680 H     1 <1>   0.0800 
 34 H       -3.0510    -2.8230     0.9230 H     1 <1>   0.4500 
 35 H       -2.7220     1.5510    -1.9560 H     1 <1>   0.0800 
 36 H       -1.1560     0.9850    -1.5380 H     1 <1>   0.0800 
 37 H       -1.3910     1.8930     0.7410 H     1 <1>   0.0800 
 38 H       -3.0340     2.3810     0.3910 H     1 <1>   0.0800 
 39 H        2.9630     1.3230     2.0280 H     1 <1>   0.0800 
 40 H        3.0480     1.9920     0.4230 H     1 <1>   0.0800 
 41 H        2.2440    -2.1520     0.7030 H     1 <1>   0.0800 
 42 H        2.9650    -1.3430     2.0630 H     1 <1>   0.0800 
 43 H       -5.2030    -3.8730     0.7270 H     1 <1>   0.0800 
 44 H       -6.8700    -3.4750     1.0320 H     1 <1>   0.0800 
 45 H       -5.6500    -3.0110     2.1920 H     1 <1>   0.0800 
 46 H       -2.2190     3.9390    -1.3390 H     1 <1>   0.0800 
 47 H       -0.5760     3.4560    -1.0110 H     1 <1>   0.0800 
 48 H        4.2350    -1.7690    -0.6450 H     1 <1>   0.0800 
 49 H        4.7000    -2.5160     0.8560 H     1 <1>   0.0800 
 50 H       -7.4790     2.0430    -1.0420 H     1 <1>   0.0800 
 51 H       -8.5010     0.9330    -0.1690 H     1 <1>   0.0800 
 52 H       -8.1500     0.6460    -1.8600 H     1 <1>   0.0800 
 53 H       -2.4330     4.7840     0.9880 H     1 <1>   0.0800 
 54 H       -1.1120     5.5550     0.1480 H     1 <1>   0.0800 
 55 H       -0.7830     4.2960     1.3100 H     1 <1>   0.0800 
 56 H        5.2590     2.8470     1.4070 H     1 <1>   0.1500 
 57 H        7.0070    -1.6440     0.4560 H     1 <1>   0.1500 
 58 H        7.6730     2.4570     1.3580 H     1 <1>   0.1500 
 59 H        8.5500     0.2090     0.8840 H     1 <1>   0.1500 
@<TRIPOS>BOND
  1   1   2  1   
  2   1   3  1   
  3   2   4  ar  
  4   2   5  ar  
  5   3   6  1   
  6   3  32  1   
  7   3  33  1   
  8   4   7  1   
  9   4  34  1   
 10   5   8  1   
 11   5   9  1   
 12   6  10  2   
 13   6  11  am  
 14   7   8  2   
 15   7  12  1   
 16   8  13  1   
 17   9  14  1   
 18   9  35  1   
 19   9  36  1   
 20  11  15  1   
 21  11  16  1   
 22  12  17  am  
 23  12  18  1   
 24  13  19  2   
 25  13  20  am  
 26  14  21  1   
 27  14  37  1   
 28  14  38  1   
 29  15  22  1   
 30  15  39  1   
 31  15  40  1   
 32  16  23  1   
 33  16  41  1   
 34  16  42  1   
 35  17  20  am  
 36  17  24  2   
 37  18  43  1   
 38  18  44  1   
 39  18  45  1   
 40  20  25  1   
 41  21  26  1   
 42  21  46  1   
 43  21  47  1   
 44  22  27  ar  
 45  22  28  ar  
 46  23  27  1   
 47  23  48  1   
 48  23  49  1   
 49  25  50  1   
 50  25  51  1   
 51  25  52  1   
 52  26  53  1   
 53  26  54  1   
 54  26  55  1   
 55  27  29  ar  
 56  28  30  ar  
 57  28  56  1   
 58  29  31  ar  
 59  29  57  1   
 60  30  31  ar  
 61  30  58  1   
 62  31  59  1   
@<TRIPOS>SUBSTRUCTURE
  1 ****   1 GROUP 4 **** **** 0

# MOE 2024.06 (io_trps.svl 2023.06)
