@<TRIPOS>MOLECULE
10802
26 26 1 0 0 
SMALL
USER_CHARGES


@<TRIPOS>ATOM
  1 CL       0.1880    -0.4360     0.2010 Cl    1 <1>  -0.1770 
  2 C        1.5830     0.6140     0.0760 C.ar  1 <1>   0.1770 
  3 C        2.8740     0.0990     0.0310 C.ar  1 <1>  -0.1440 
  4 C        1.3360     1.9730     0.0190 C.ar  1 <1>  -0.1500 
  5 C        3.9460     0.9900    -0.0880 C.ar  1 <1>   0.1170 
  6 C        3.1290    -1.4090     0.1090 C.3   1 <1>  -0.0970 
  7 C        2.3960     2.8510    -0.0920 C.ar  1 <1>  -0.1500 
  8 N        5.2580     0.4950    -0.1680 N.am  1 <1>  -0.5470 
  9 C        3.6860     2.3580    -0.1480 C.ar  1 <1>  -0.1500 
 10 C        6.4650     1.0510     0.1210 C.2   1 <1>   0.7800 
 11 O        6.6260     2.1790     0.5390 O.2   1 <1>  -0.5700 
 12 O        7.5090     0.2510    -0.0750 O.3   1 <1>  -0.4300 
 13 C        8.8190     0.6960     0.1930 C.3   1 <1>   0.1200 
 14 C        9.7820    -0.4420    -0.1290 C.3   1 <1>  -0.2400 
 15 H        0.3240     2.3340     0.0600 H     1 <1>   0.1500 
 16 H        2.2690    -1.9480     0.4590 H     1 <1>   0.0800 
 17 H        3.9300    -1.6190     0.7950 H     1 <1>   0.0800 
 18 H        3.3890    -1.7860    -0.8640 H     1 <1>   0.0800 
 19 H        2.2210     3.9120    -0.1380 H     1 <1>   0.1500 
 20 H        5.3440    -0.4800    -0.4370 H     1 <1>   0.3700 
 21 H        4.4980     3.0550    -0.2450 H     1 <1>   0.1500 
 22 H        8.8800     0.9730     1.2320 H     1 <1>   0.0800 
 23 H        9.0190     1.5580    -0.4220 H     1 <1>   0.0800 
 24 H        9.5640    -1.2970     0.4860 H     1 <1>   0.0800 
 25 H       10.7910    -0.1280     0.0670 H     1 <1>   0.0800 
 26 H        9.7030    -0.7130    -1.1660 H     1 <1>   0.0800 
@<TRIPOS>BOND
  1   1   2  1   
  2   2   3  ar  
  3   2   4  ar  
  4   3   5  ar  
  5   3   6  1   
  6   4   7  ar  
  7   4  15  1   
  8   5   8  1   
  9   5   9  ar  
 10   6  16  1   
 11   6  17  1   
 12   6  18  1   
 13   7   9  ar  
 14   7  19  1   
 15   8  10  am  
 16   8  20  1   
 17   9  21  1   
 18  10  11  2   
 19  10  12  1   
 20  12  13  1   
 21  13  14  1   
 22  13  22  1   
 23  13  23  1   
 24  14  24  1   
 25  14  25  1   
 26  14  26  1   
@<TRIPOS>SUBSTRUCTURE
  1 ****   5 GROUP 4 **** **** 0

# MOE 2024.06 (io_trps.svl 2023.06)
