@<TRIPOS>MOLECULE
NONAME
19 18 1 0 0 
SMALL
USER_CHARGES


@<TRIPOS>ATOM
  1 S        0.2920     0.2160     0.6210 S.3   1 <1>  -0.4600 
  2 C        1.3990     0.6660    -0.7620 C.3   1 <1>   0.1310 
  3 C       -1.3580     0.6950     0.0430 C.3   1 <1>   0.2080 
  4 C        2.7690     0.0260    -0.6080 C.2   1 <1>   0.6590 
  5 C       -1.3890     2.2020    -0.1410 C.2   1 <1>  -0.2880 
  6 O        3.1380    -0.8530    -1.3460 O.2   1 <1>  -0.5700 
  7 O        3.5430     0.5080     0.3580 O.3   1 <1>  -0.4300 
  8 C       -2.1320     3.0460     0.5810 C.2   1 <1>  -0.3000 
  9 C        4.8320    -0.0130     0.6060 C.3   1 <1>   0.0400 
 10 H        1.4890     1.7360    -0.7670 H     1 <1>   0.0800 
 11 H        0.9350     0.3250    -1.6680 H     1 <1>   0.0800 
 12 H       -2.0560     0.3770     0.7980 H     1 <1>   0.0800 
 13 H       -1.5520     0.1740    -0.8770 H     1 <1>   0.0800 
 14 H       -0.7430     2.5420    -0.9310 H     1 <1>   0.1500 
 15 H       -2.1420     4.1130     0.4360 H     1 <1>   0.1500 
 16 H       -2.7890     2.7460     1.3800 H     1 <1>   0.1500 
 17 H        5.2650     0.5250     1.4310 H     1 <1>   0.0800 
 18 H        5.4350     0.1120    -0.2770 H     1 <1>   0.0800 
 19 H        4.7430    -1.0570     0.8500 H     1 <1>   0.0800 
@<TRIPOS>BOND
  1   1   2  1   
  2   1   3  1   
  3   2   4  1   
  4   2  10  1   
  5   2  11  1   
  6   3   5  1   
  7   3  12  1   
  8   3  13  1   
  9   4   6  2   
 10   4   7  1   
 11   5   8  2   
 12   5  14  1   
 13   7   9  1   
 14   8  15  1   
 15   8  16  1   
 16   9  17  1   
 17   9  18  1   
 18   9  19  1   
@<TRIPOS>SUBSTRUCTURE
  1 ****   2 GROUP 4 **** **** 0

# MOE 2024.06 (io_trps.svl 2023.06)
