@<TRIPOS>MOLECULE
NONAME
49 51 1 0 0 
SMALL
USER_CHARGES


@<TRIPOS>ATOM
  1 S       -0.8400    -0.2030     0.0200 S.3   1 <1>  -0.2860 
  2 C        0.7740     0.1060    -0.6860 C.2   1 <1>   0.2420 
  3 C       -1.9680     0.7540    -1.1060 C.3   1 <1>   0.1310 
  4 N        0.9380     0.8870    -1.6920 N.2   1 <1>  -0.5650 
  5 N        1.8950    -0.4790    -0.1890 N.pl3 1 <1>   0.0480 
  6 C       -3.4030     0.6830    -0.6150 C.2   1 <1>   0.5690 
  7 C        2.2840     0.8380    -1.8980 C.ar  1 <1>   0.2270 
  8 C        2.8960     0.0000    -0.9790 C.ar  1 <1>  -0.1520 
  9 C        2.0150    -1.4480     0.9200 C.3   1 <1>   0.1570 
 10 O       -4.2850     0.5140    -1.4220 O.2   1 <1>  -0.5700 
 11 N       -3.6560     0.8220     0.7130 N.am  1 <1>  -0.7300 
 12 C        3.0480     1.4920    -2.8620 C.ar  1 <1>  -0.1500 
 13 C        4.2780    -0.2070    -1.0030 C.ar  1 <1>  -0.1500 
 14 C        2.6320    -2.7530     0.4530 C.2   1 <1>   0.5690 
 15 C       -4.9790     0.7680     1.3410 C.3   1 <1>   0.2200 
 16 C        4.4120     1.2940    -2.8900 C.ar  1 <1>  -0.1500 
 17 C        5.0240     0.4440    -1.9610 C.ar  1 <1>  -0.1500 
 18 O        3.7150    -3.0460     0.9050 O.2   1 <1>  -0.5700 
 19 N        1.9810    -3.5770    -0.4270 N.am  1 <1>  -0.6600 
 20 C       -5.2010     2.0740     2.0970 C.3   1 <1>  -0.2400 
 21 C       -5.0090    -0.4310     2.2820 C.3   1 <1>  -0.2400 
 22 C        2.5870    -4.8330    -0.9210 C.3   1 <1>   0.1400 
 23 C        0.6740    -3.3290    -1.0800 C.3   1 <1>   0.1400 
 24 C        1.7140    -5.2530    -2.0980 C.3   1 <1>  -0.1600 
 25 C        0.3520    -4.6290    -1.8080 C.3   1 <1>  -0.1600 
 26 H       -1.8800     0.3240    -2.0860 H     1 <1>   0.0800 
 27 H       -1.6240     1.7710    -1.1210 H     1 <1>   0.0800 
 28 H        1.0510    -1.6490     1.3450 H     1 <1>   0.0800 
 29 H        2.6390    -1.0180     1.6800 H     1 <1>   0.0800 
 30 H       -2.8700     0.9060     1.3590 H     1 <1>   0.3700 
 31 H        2.5530     2.1380    -3.5630 H     1 <1>   0.1500 
 32 H        4.7470    -0.8630    -0.2900 H     1 <1>   0.1500 
 33 H       -5.7400     0.6550     0.5850 H     1 <1>   0.0800 
 34 H        5.0180     1.7910    -3.6270 H     1 <1>   0.1500 
 35 H        6.0900     0.3030    -2.0020 H     1 <1>   0.1500 
 36 H       -4.4550     2.2090     2.8590 H     1 <1>   0.0800 
 37 H       -6.1690     2.0640     2.5630 H     1 <1>   0.0800 
 38 H       -5.1660     2.9020     1.4120 H     1 <1>   0.0800 
 39 H       -4.2590    -0.3380     3.0470 H     1 <1>   0.0800 
 40 H       -4.8420    -1.3350     1.7240 H     1 <1>   0.0800 
 41 H       -5.9730    -0.5000     2.7530 H     1 <1>   0.0800 
 42 H        2.5520    -5.5710    -0.1380 H     1 <1>   0.0800 
 43 H        3.6100    -4.6740    -1.2210 H     1 <1>   0.0800 
 44 H        0.7780    -2.5270    -1.7910 H     1 <1>   0.0800 
 45 H       -0.0880    -3.0870    -0.3590 H     1 <1>   0.0800 
 46 H        1.6650    -6.3230    -2.1960 H     1 <1>   0.0800 
 47 H        2.1230    -4.8360    -3.0010 H     1 <1>   0.0800 
 48 H       -0.2180    -4.4540    -2.7040 H     1 <1>   0.0800 
 49 H       -0.2120    -5.2680    -1.1520 H     1 <1>   0.0800 
@<TRIPOS>BOND
  1   1   2  1   
  2   1   3  1   
  3   2   4  2   
  4   2   5  1   
  5   3   6  1   
  6   3  26  1   
  7   3  27  1   
  8   4   7  1   
  9   5   8  1   
 10   5   9  1   
 11   6  10  2   
 12   6  11  am  
 13   7   8  ar  
 14   7  12  ar  
 15   8  13  ar  
 16   9  14  1   
 17   9  28  1   
 18   9  29  1   
 19  11  15  1   
 20  11  30  1   
 21  12  16  ar  
 22  12  31  1   
 23  13  17  ar  
 24  13  32  1   
 25  14  18  2   
 26  14  19  am  
 27  15  20  1   
 28  15  21  1   
 29  15  33  1   
 30  16  17  ar  
 31  16  34  1   
 32  17  35  1   
 33  19  22  1   
 34  19  23  1   
 35  20  36  1   
 36  20  37  1   
 37  20  38  1   
 38  21  39  1   
 39  21  40  1   
 40  21  41  1   
 41  22  24  1   
 42  22  42  1   
 43  22  43  1   
 44  23  25  1   
 45  23  44  1   
 46  23  45  1   
 47  24  25  1   
 48  24  46  1   
 49  24  47  1   
 50  25  48  1   
 51  25  49  1   
@<TRIPOS>SUBSTRUCTURE
  1 ****   2 GROUP 4 **** **** 0

# MOE 2024.06 (io_trps.svl 2023.06)
