@<TRIPOS>MOLECULE
12185
45 46 1 0 0 
SMALL
USER_CHARGES


@<TRIPOS>ATOM
  1 O        0.4210    -2.7930     2.7370 O.2   1 <1>  -0.5700 
  2 C        0.0250    -3.0230     1.6210 C.2   1 <1>   0.5690 
  3 N        0.7700    -2.7750     0.5180 N.am  1 <1>  -0.7300 
  4 C       -1.3580    -3.6150     1.4380 C.3   1 <1>  -0.0990 
  5 C        2.1140    -2.1780     0.5130 C.3   1 <1>   0.2200 
  6 C       -2.3190    -2.6370     0.7430 C.3   1 <1>  -0.1600 
  7 C        2.0640    -0.8700    -0.2660 C.3   1 <1>  -0.1600 
  8 C        3.0350    -3.0520    -0.3290 C.3   1 <1>  -0.1600 
  9 C       -3.7160    -3.2380     0.5990 C.3   1 <1>   0.1200 
 10 C        2.1360    -1.2630    -1.7470 C.3   1 <1>  -0.1600 
 11 C        2.7650    -2.6620    -1.7870 C.3   1 <1>  -0.1600 
 12 O       -4.5110    -2.3190    -0.1110 O.3   1 <1>  -0.3630 
 13 C       -5.8050    -2.5870    -0.4290 C.ar  1 <1>   0.0820 
 14 C       -6.4940    -1.6360    -1.1750 C.ar  1 <1>  -0.1440 
 15 C       -6.4530    -3.7590    -0.0400 C.ar  1 <1>  -0.1500 
 16 C       -7.8140    -1.8670    -1.5250 C.ar  1 <1>  -0.1500 
 17 C       -5.8100    -0.3480    -1.6100 C.3   1 <1>  -0.0970 
 18 C       -7.7720    -3.9850    -0.3940 C.ar  1 <1>  -0.1440 
 19 C       -8.4500    -3.0330    -1.1370 C.ar  1 <1>  -0.1500 
 20 C       -8.4780    -5.2610     0.0300 C.3   1 <1>  -0.0970 
 21 H        0.3900    -2.9550    -0.4100 H     1 <1>   0.3700 
 22 H       -1.7450    -3.8750     2.4070 H     1 <1>   0.0800 
 23 H       -1.2680    -4.5190     0.8630 H     1 <1>   0.0800 
 24 H        2.4780    -2.0440     1.5190 H     1 <1>   0.0800 
 25 H       -1.9420    -2.3910    -0.2340 H     1 <1>   0.0800 
 26 H       -2.3840    -1.7320     1.3240 H     1 <1>   0.0800 
 27 H        2.9360    -0.2920    -0.0150 H     1 <1>   0.0800 
 28 H        1.1890    -0.2890    -0.0300 H     1 <1>   0.0800 
 29 H        2.8850    -4.1010    -0.1400 H     1 <1>   0.0800 
 30 H        4.0530    -2.8030    -0.0840 H     1 <1>   0.0800 
 31 H       -4.1650    -3.4010     1.5640 H     1 <1>   0.0800 
 32 H       -3.6830    -4.1560     0.0390 H     1 <1>   0.0800 
 33 H        2.7230    -0.5520    -2.3030 H     1 <1>   0.0800 
 34 H        1.1450    -1.2970    -2.1660 H     1 <1>   0.0800 
 35 H        2.0730    -3.3580    -2.2310 H     1 <1>   0.0800 
 36 H        3.6770    -2.6680    -2.3590 H     1 <1>   0.0800 
 37 H       -5.9450    -4.5040     0.5390 H     1 <1>   0.1500 
 38 H       -8.3580    -1.1400    -2.1010 H     1 <1>   0.1500 
 39 H       -4.9560    -0.5780    -2.2190 H     1 <1>   0.0800 
 40 H       -5.4790     0.1960    -0.7430 H     1 <1>   0.0800 
 41 H       -6.4780     0.2770    -2.1740 H     1 <1>   0.0800 
 42 H       -9.4760    -3.1950    -1.4160 H     1 <1>   0.1500 
 43 H       -7.7700    -6.0570     0.1720 H     1 <1>   0.0800 
 44 H       -9.1830    -5.5660    -0.7230 H     1 <1>   0.0800 
 45 H       -9.0050    -5.0950     0.9520 H     1 <1>   0.0800 
@<TRIPOS>BOND
  1   1   2  2   
  2   2   3  am  
  3   2   4  1   
  4   3   5  1   
  5   3  21  1   
  6   4   6  1   
  7   4  22  1   
  8   4  23  1   
  9   5   7  1   
 10   5   8  1   
 11   5  24  1   
 12   6   9  1   
 13   6  25  1   
 14   6  26  1   
 15   7  10  1   
 16   7  27  1   
 17   7  28  1   
 18   8  11  1   
 19   8  29  1   
 20   8  30  1   
 21   9  12  1   
 22   9  31  1   
 23   9  32  1   
 24  10  11  1   
 25  10  33  1   
 26  10  34  1   
 27  11  35  1   
 28  11  36  1   
 29  12  13  1   
 30  13  14  ar  
 31  13  15  ar  
 32  14  16  ar  
 33  14  17  1   
 34  15  18  ar  
 35  15  37  1   
 36  16  19  ar  
 37  16  38  1   
 38  17  39  1   
 39  17  40  1   
 40  17  41  1   
 41  18  19  ar  
 42  18  20  1   
 43  19  42  1   
 44  20  43  1   
 45  20  44  1   
 46  20  45  1   
@<TRIPOS>SUBSTRUCTURE
  1 ****   6 GROUP 4 **** **** 0

# MOE 2024.06 (io_trps.svl 2023.06)
