@<TRIPOS>MOLECULE
NONAME
36 37 1 0 0 
SMALL
USER_CHARGES


@<TRIPOS>ATOM
  1 CL       0.9550     2.8610     1.6580 Cl    1 <1>  -0.2900 
  2 C        0.4060     2.1560     0.1360 C.3   1 <1>   0.1910 
  3 C       -0.8040     2.8940    -0.4180 C.2   1 <1>   0.5690 
  4 O       -1.2400     2.5310    -1.4810 O.2   1 <1>  -0.5700 
  5 N       -1.3370     3.9410     0.2890 N.am  1 <1>  -0.5470 
  6 C       -2.4910     4.7130     0.0600 C.ar  1 <1>   0.1170 
  7 C       -2.5610     6.0490     0.4940 C.ar  1 <1>   0.0860 
  8 C       -3.6000     4.1480    -0.5670 C.ar  1 <1>  -0.1500 
  9 C       -1.4400     6.7250     1.1090 C.2   1 <1>   0.5440 
 10 C       -3.7550     6.7480     0.3100 C.ar  1 <1>  -0.1500 
 11 C       -4.7640     4.8650    -0.7540 C.ar  1 <1>  -0.1500 
 12 O       -1.5860     7.3680     2.1290 O.2   1 <1>  -0.5700 
 13 N       -0.2010     6.6700     0.5380 N.am  1 <1>  -0.7300 
 14 C       -4.8450     6.1720    -0.3080 C.ar  1 <1>  -0.1500 
 15 C        0.9950     7.4030     0.9860 C.3   1 <1>   0.2200 
 16 C        1.6130     8.0980    -0.2200 C.3   1 <1>  -0.1600 
 17 C        2.0660     6.4000     1.3930 C.3   1 <1>  -0.1600 
 18 C        2.4340     7.0250    -0.9470 C.3   1 <1>  -0.1600 
 19 C        2.6980     5.9180     0.0830 C.3   1 <1>  -0.1600 
 20 H        0.1560     1.1290     0.3250 H     1 <1>   0.0800 
 21 H        1.2220     2.2090    -0.5610 H     1 <1>   0.0800 
 22 H       -0.7790     4.2280     1.1030 H     1 <1>   0.3700 
 23 H       -3.5620     3.1300    -0.9080 H     1 <1>   0.1500 
 24 H       -3.8170     7.7650     0.6600 H     1 <1>   0.1500 
 25 H       -5.6090     4.4080    -1.2410 H     1 <1>   0.1500 
 26 H       -0.0870     6.1920    -0.3560 H     1 <1>   0.3700 
 27 H       -5.7540     6.7330    -0.4440 H     1 <1>   0.1500 
 28 H        0.7530     8.0910     1.7810 H     1 <1>   0.0800 
 29 H        2.2800     8.8640     0.1370 H     1 <1>   0.0800 
 30 H        0.8720     8.5580    -0.8500 H     1 <1>   0.0800 
 31 H        1.6670     5.6010     1.9910 H     1 <1>   0.0800 
 32 H        2.8120     6.9170     1.9710 H     1 <1>   0.0800 
 33 H        3.3540     7.4390    -1.3230 H     1 <1>   0.0800 
 34 H        1.8710     6.6260    -1.7740 H     1 <1>   0.0800 
 35 H        2.2250     5.0060    -0.2360 H     1 <1>   0.0800 
 36 H        3.7520     5.7370     0.2080 H     1 <1>   0.0800 
@<TRIPOS>BOND
  1   1   2  1   
  2   2   3  1   
  3   2  20  1   
  4   2  21  1   
  5   3   4  2   
  6   3   5  am  
  7   5   6  1   
  8   5  22  1   
  9   6   7  ar  
 10   6   8  ar  
 11   7   9  1   
 12   7  10  ar  
 13   8  11  ar  
 14   8  23  1   
 15   9  12  2   
 16   9  13  am  
 17  10  14  ar  
 18  10  24  1   
 19  11  14  ar  
 20  11  25  1   
 21  13  15  1   
 22  13  26  1   
 23  14  27  1   
 24  15  16  1   
 25  15  17  1   
 26  15  28  1   
 27  16  18  1   
 28  16  29  1   
 29  16  30  1   
 30  17  19  1   
 31  17  31  1   
 32  17  32  1   
 33  18  19  1   
 34  18  33  1   
 35  18  34  1   
 36  19  35  1   
 37  19  36  1   
@<TRIPOS>SUBSTRUCTURE
  1 ****  13 GROUP 4 **** **** 0

# MOE 2024.06 (io_trps.svl 2023.06)
