@<TRIPOS>MOLECULE
NONAME
50 52 1 0 0 
SMALL
USER_CHARGES


@<TRIPOS>ATOM
  1 O       -0.3770     0.2840     3.7020 O.2   1 <1>  -0.5700 
  2 C        0.2240     0.6450     2.7170 C.2   1 <1>   0.6900 
  3 N        1.4900     0.2130     2.5180 N.am  1 <1>  -0.5470 
  4 N       -0.3470     1.4470     1.7840 N.am  1 <1>  -0.7300 
  5 C        2.2660     0.3410     1.3650 C.ar  1 <1>   0.1170 
  6 C       -1.6780     2.0930     1.8680 C.3   1 <1>   0.2200 
  7 C        2.5860    -0.7820     0.6140 C.ar  1 <1>  -0.1500 
  8 C        2.7150     1.5860     0.9420 C.ar  1 <1>  -0.1500 
  9 C       -2.8110     0.9830     1.9390 C.3   1 <1>  -0.1600 
 10 C       -1.8020     3.0000     0.5920 C.3   1 <1>  -0.1600 
 11 C        3.3170    -0.6610    -0.5540 C.ar  1 <1>  -0.1500 
 12 C        3.4450     1.7100    -0.2270 C.ar  1 <1>  -0.1500 
 13 C       -3.0390     0.1910     0.6010 C.3   1 <1>   0.4230 
 14 C       -2.6560     2.2160    -0.3850 C.3   1 <1>   0.4230 
 15 C        3.7430     0.5860    -0.9780 C.ar  1 <1>  -0.1500 
 16 N       -2.1510     0.8240    -0.3670 N.4   1 <1>  -0.9590 
 17 C       -4.4700     0.2170    -0.0400 C.3   1 <1>  -0.1600 
 18 C       -3.7250     2.3780    -1.4400 C.3   1 <1>  -0.1600 
 19 C       -1.9180     0.1020    -1.6480 C.3   1 <1>   0.3430 
 20 C       -4.8820     1.4420    -0.9540 C.3   1 <1>  -0.1600 
 21 C       -0.6540    -0.7600    -1.5460 C.3   1 <1>  -0.1600 
 22 C       -0.6890    -1.8390    -0.4530 C.3   1 <1>  -0.2400 
 23 H        1.7960    -0.4520     3.2280 H     1 <1>   0.3700 
 24 H        0.3500     1.9450     1.2260 H     1 <1>   0.3700 
 25 H       -1.7010     2.6990     2.7610 H     1 <1>   0.0800 
 26 H        2.2600    -1.7530     0.9420 H     1 <1>   0.1500 
 27 H        2.5040     2.4580     1.5350 H     1 <1>   0.1500 
 28 H       -3.7330     1.4650     2.2110 H     1 <1>   0.0800 
 29 H       -2.6210     0.2850     2.7320 H     1 <1>   0.0800 
 30 H       -0.8550     3.2770     0.1650 H     1 <1>   0.0800 
 31 H       -2.3290     3.9020     0.8490 H     1 <1>   0.0800 
 32 H        3.5600    -1.5360    -1.1330 H     1 <1>   0.1500 
 33 H        3.7910     2.6770    -0.5500 H     1 <1>   0.1500 
 34 H       -2.7400    -0.8330     0.7610 H     1 <1>   0.0800 
 35 H       -3.4400     2.2620     0.3440 H     1 <1>   0.0800 
 36 H        4.3150     0.6800    -1.8860 H     1 <1>   0.1500 
 37 H       -1.2400     0.8520     0.1190 H     1 <1>   0.4500 
 38 H       -5.2020     0.0930     0.7390 H     1 <1>   0.0800 
 39 H       -4.5500    -0.6700    -0.6440 H     1 <1>   0.0800 
 40 H       -3.3750     2.1260    -2.4240 H     1 <1>   0.0800 
 41 H       -4.0680     3.3980    -1.4650 H     1 <1>   0.0800 
 42 H       -1.7720     0.8140    -2.4430 H     1 <1>   0.0800 
 43 H       -2.7700    -0.5090    -1.8970 H     1 <1>   0.0800 
 44 H       -5.5610     2.0490    -0.3770 H     1 <1>   0.0800 
 45 H       -5.4450     1.0920    -1.8030 H     1 <1>   0.0800 
 46 H        0.2030    -0.1250    -1.3990 H     1 <1>   0.0800 
 47 H       -0.5190    -1.2500    -2.4960 H     1 <1>   0.0800 
 48 H       -0.6550    -1.4040     0.5300 H     1 <1>   0.0800 
 49 H        0.1700    -2.4810    -0.5550 H     1 <1>   0.0800 
 50 H       -1.5710    -2.4490    -0.5440 H     1 <1>   0.0800 
@<TRIPOS>BOND
  1   1   2  2   
  2   2   3  am  
  3   2   4  am  
  4   3   5  1   
  5   3  23  1   
  6   4   6  1   
  7   4  24  1   
  8   5   7  ar  
  9   5   8  ar  
 10   6   9  1   
 11   6  10  1   
 12   6  25  1   
 13   7  11  ar  
 14   7  26  1   
 15   8  12  ar  
 16   8  27  1   
 17   9  13  1   
 18   9  28  1   
 19   9  29  1   
 20  10  14  1   
 21  10  30  1   
 22  10  31  1   
 23  11  15  ar  
 24  11  32  1   
 25  12  15  ar  
 26  12  33  1   
 27  13  16  1   
 28  13  17  1   
 29  13  34  1   
 30  14  16  1   
 31  14  18  1   
 32  14  35  1   
 33  15  36  1   
 34  16  19  1   
 35  16  37  1   
 36  17  20  1   
 37  17  38  1   
 38  17  39  1   
 39  18  20  1   
 40  18  40  1   
 41  18  41  1   
 42  19  21  1   
 43  19  42  1   
 44  19  43  1   
 45  20  44  1   
 46  20  45  1   
 47  21  22  1   
 48  21  46  1   
 49  21  47  1   
 50  22  48  1   
 51  22  49  1   
 52  22  50  1   
@<TRIPOS>SUBSTRUCTURE
  1 ****   4 GROUP 4 **** **** 0

# MOE 2024.06 (io_trps.svl 2023.06)
