@<TRIPOS>MOLECULE
NONAME
47 49 1 0 0 
SMALL
USER_CHARGES


@<TRIPOS>ATOM
  1 CL      -2.4770     3.0940     0.3690 Cl    1 <1>  -0.1770 
  2 C       -0.8160     3.3760    -0.0720 C.ar  1 <1>   0.1770 
  3 C       -0.1030     4.3740     0.5640 C.ar  1 <1>  -0.1500 
  4 C       -0.2290     2.6040    -1.0530 C.ar  1 <1>  -0.1500 
  5 C        1.2170     4.5970     0.2140 C.ar  1 <1>  -0.1500 
  6 C        1.0920     2.8340    -1.3940 C.ar  1 <1>  -0.1500 
  7 C        1.8540     3.8250    -0.7670 C.ar  1 <1>   0.0860 
  8 C        3.2370     4.0160    -1.1550 C.2   1 <1>   0.4230 
  9 O        3.6410     3.7520    -2.2590 O.2   1 <1>  -0.5700 
 10 C        4.2750     4.5540    -0.1610 C.3   1 <1>  -0.0190 
 11 C        4.7380     5.9630    -0.5810 C.3   1 <1>  -0.1600 
 12 C        5.4870     3.6030    -0.0690 C.3   1 <1>  -0.1600 
 13 C        5.8870     6.4840     0.2810 C.3   1 <1>   0.3430 
 14 C        6.6130     4.1740     0.7900 C.3   1 <1>   0.3430 
 15 N        7.0090     5.5090     0.2560 N.4   1 <1>  -0.9590 
 16 C        8.2180     6.0440     0.9420 C.3   1 <1>   0.4860 
 17 C        9.3780     5.1010     0.6900 C.ar  1 <1>  -0.1430 
 18 C        9.9850     5.0470    -0.5580 C.ar  1 <1>  -0.1500 
 19 C        9.8380     4.2760     1.7080 C.ar  1 <1>  -0.1500 
 20 C       11.0300     4.1700    -0.7910 C.ar  1 <1>  -0.1500 
 21 C       10.8810     3.4000     1.4730 C.ar  1 <1>  -0.1500 
 22 C       11.4820     3.3360     0.2270 C.ar  1 <1>   0.0830 
 23 O       12.4930     2.4470     0.0840 O.3   1 <1>  -0.3630 
 24 C       13.2100     2.3310    -1.1260 C.3   1 <1>   0.0400 
 25 H       -0.5880     4.9680     1.3190 H     1 <1>   0.1500 
 26 H       -0.8020     1.8360    -1.5430 H     1 <1>   0.1500 
 27 H        1.7430     5.3920     0.7090 H     1 <1>   0.1500 
 28 H        1.5470     2.2340    -2.1660 H     1 <1>   0.1500 
 29 H        3.8380     4.6090     0.8190 H     1 <1>   0.0800 
 30 H        3.9100     6.6470    -0.5140 H     1 <1>   0.0800 
 31 H        5.0530     5.9510    -1.6110 H     1 <1>   0.0800 
 32 H        5.8770     3.3980    -1.0520 H     1 <1>   0.0800 
 33 H        5.1710     2.6620     0.3470 H     1 <1>   0.0800 
 34 H        5.5460     6.6240     1.2940 H     1 <1>   0.0800 
 35 H        6.2150     7.4380    -0.1020 H     1 <1>   0.0800 
 36 H        7.4540     3.4970     0.7640 H     1 <1>   0.0800 
 37 H        6.2830     4.2680     1.8120 H     1 <1>   0.0800 
 38 H        7.2790     5.3540    -0.7250 H     1 <1>   0.4500 
 39 H        8.0400     6.1330     2.0010 H     1 <1>   0.0800 
 40 H        8.4660     7.0190     0.5530 H     1 <1>   0.0800 
 41 H        9.6600     5.6860    -1.3620 H     1 <1>   0.1500 
 42 H        9.3980     4.3030     2.6910 H     1 <1>   0.1500 
 43 H       11.4820     4.1470    -1.7660 H     1 <1>   0.1500 
 44 H       11.2440     2.7560     2.2550 H     1 <1>   0.1500 
 45 H       13.9670     1.5790    -0.9930 H     1 <1>   0.0800 
 46 H       13.6710     3.2760    -1.3510 H     1 <1>   0.0800 
 47 H       12.5340     2.0330    -1.9070 H     1 <1>   0.0800 
@<TRIPOS>BOND
  1   1   2  1   
  2   2   3  ar  
  3   2   4  ar  
  4   3   5  ar  
  5   3  25  1   
  6   4   6  ar  
  7   4  26  1   
  8   5   7  ar  
  9   5  27  1   
 10   6   7  ar  
 11   6  28  1   
 12   7   8  1   
 13   8   9  2   
 14   8  10  1   
 15  10  11  1   
 16  10  12  1   
 17  10  29  1   
 18  11  13  1   
 19  11  30  1   
 20  11  31  1   
 21  12  14  1   
 22  12  32  1   
 23  12  33  1   
 24  13  15  1   
 25  13  34  1   
 26  13  35  1   
 27  14  15  1   
 28  14  36  1   
 29  14  37  1   
 30  15  16  1   
 31  15  38  1   
 32  16  17  1   
 33  16  39  1   
 34  16  40  1   
 35  17  18  ar  
 36  17  19  ar  
 37  18  20  ar  
 38  18  41  1   
 39  19  21  ar  
 40  19  42  1   
 41  20  22  ar  
 42  20  43  1   
 43  21  22  ar  
 44  21  44  1   
 45  22  23  1   
 46  23  24  1   
 47  24  45  1   
 48  24  46  1   
 49  24  47  1   
@<TRIPOS>SUBSTRUCTURE
  1 ****  12 GROUP 4 **** **** 0

# MOE 2024.06 (io_trps.svl 2023.06)
