@<TRIPOS>MOLECULE
NONAME
44 46 1 0 0 
SMALL
USER_CHARGES


@<TRIPOS>ATOM
  1 S       -0.9930     0.3200     1.3440 S.3   1 <1>   0.1810 
  2 N       -0.0870    -1.1030     1.2010 N.2   1 <1>  -0.2210 
  3 C       -2.4670    -0.5440     1.5130 C.2   1 <1>  -0.1100 
  4 N       -0.8290    -2.1160     1.2720 N.2   1 <1>  -0.2270 
  5 C       -2.1890    -1.8580     1.4420 C.2   1 <1>   0.1410 
  6 C       -3.1590    -2.9350     1.5490 C.2   1 <1>   0.7160 
  7 O       -4.1930    -2.7370     2.1680 O.2   1 <1>  -0.5700 
  8 N       -2.9740    -4.1790     0.9620 N.am  1 <1>  -0.4770 
  9 C       -2.1740    -4.3820    -0.1820 C.ar  1 <1>   0.1170 
 10 C       -3.8850    -5.3140     1.3300 C.3   1 <1>   0.2010 
 11 C       -2.3690    -3.6810    -1.3740 C.ar  1 <1>   0.1900 
 12 C       -1.1390    -5.3120    -0.1570 C.ar  1 <1>  -0.1500 
 13 C       -5.1620    -5.3420     0.4940 C.2   1 <1>   0.5690 
 14 F       -3.3300    -2.7920    -1.4490 F     1 <1>  -0.1900 
 15 C       -1.5910    -3.8810    -2.4970 C.ar  1 <1>  -0.1500 
 16 C       -0.3480    -5.5260    -1.2750 C.ar  1 <1>  -0.1500 
 17 O       -5.3940    -6.3150    -0.1840 O.2   1 <1>  -0.5700 
 18 N       -5.9980    -4.2750     0.5420 N.am  1 <1>  -0.7300 
 19 C       -0.5700    -4.8150    -2.4440 C.ar  1 <1>  -0.1500 
 20 C       -7.2100    -4.0890    -0.2650 C.3   1 <1>   0.2200 
 21 C       -6.9530    -2.9730    -1.2820 C.3   1 <1>  -0.1600 
 22 C       -8.3750    -3.7390     0.6650 C.3   1 <1>  -0.1600 
 23 C       -8.2210    -2.6480    -2.0840 C.3   1 <1>  -0.1600 
 24 C       -9.6460    -3.4160    -0.1340 C.3   1 <1>  -0.1600 
 25 C       -9.3910    -2.2980    -1.1540 C.3   1 <1>  -0.1600 
 26 H       -3.3830     0.0000     1.6480 H     1 <1>   0.1500 
 27 H       -4.1560    -5.2420     2.3670 H     1 <1>   0.0800 
 28 H       -3.3690    -6.2460     1.1920 H     1 <1>   0.0800 
 29 H       -0.9460    -5.8660     0.7440 H     1 <1>   0.1500 
 30 H       -1.7810    -3.3180    -3.3930 H     1 <1>   0.1500 
 31 H        0.4490    -6.2490    -1.2350 H     1 <1>   0.1500 
 32 H       -5.7250    -3.4710     1.1220 H     1 <1>   0.3700 
 33 H        0.0500    -4.9870    -3.3070 H     1 <1>   0.1500 
 34 H       -7.4380    -5.0020    -0.7920 H     1 <1>   0.0800 
 35 H       -6.1740    -3.2830    -1.9570 H     1 <1>   0.0800 
 36 H       -6.6250    -2.0860    -0.7680 H     1 <1>   0.0800 
 37 H       -8.1120    -2.8840     1.2640 H     1 <1>   0.0800 
 38 H       -8.5680    -4.5700     1.3200 H     1 <1>   0.0800 
 39 H       -8.4880    -3.4990    -2.6870 H     1 <1>   0.0800 
 40 H       -8.0270    -1.8230    -2.7480 H     1 <1>   0.0800 
 41 H      -10.4310    -3.1180     0.5400 H     1 <1>   0.0800 
 42 H       -9.9750    -4.3020    -0.6510 H     1 <1>   0.0800 
 43 H      -10.2800    -2.1350    -1.7390 H     1 <1>   0.0800 
 44 H       -9.1690    -1.3830    -0.6320 H     1 <1>   0.0800 
@<TRIPOS>BOND
  1   1   2  1   
  2   1   3  1   
  3   2   4  2   
  4   3   5  2   
  5   3  26  1   
  6   4   5  1   
  7   5   6  1   
  8   6   7  2   
  9   6   8  am  
 10   8   9  1   
 11   8  10  1   
 12   9  11  ar  
 13   9  12  ar  
 14  10  13  1   
 15  10  27  1   
 16  10  28  1   
 17  11  14  1   
 18  11  15  ar  
 19  12  16  ar  
 20  12  29  1   
 21  13  17  2   
 22  13  18  am  
 23  15  19  ar  
 24  15  30  1   
 25  16  19  ar  
 26  16  31  1   
 27  18  20  1   
 28  18  32  1   
 29  19  33  1   
 30  20  21  1   
 31  20  22  1   
 32  20  34  1   
 33  21  23  1   
 34  21  35  1   
 35  21  36  1   
 36  22  24  1   
 37  22  37  1   
 38  22  38  1   
 39  23  25  1   
 40  23  39  1   
 41  23  40  1   
 42  24  25  1   
 43  24  41  1   
 44  24  42  1   
 45  25  43  1   
 46  25  44  1   
@<TRIPOS>SUBSTRUCTURE
  1 ****   8 GROUP 4 **** **** 0

# MOE 2024.06 (io_trps.svl 2023.06)
