@<TRIPOS>MOLECULE
3-Acetylamino-9-aza-bicyclo[3.3.1]nonane-9-carboxylic acid m-tolylamide
48 50 1 0 0 
SMALL
USER_CHARGES


@<TRIPOS>ATOM
  1 O       -0.2050     0.3150     1.2510 O.2   1 <1>  -0.5700 
  2 C       -0.3390    -0.7530     0.6860 C.2   1 <1>   0.6900 
  3 N       -1.4560    -0.9960    -0.0680 N.am  1 <1>  -0.6600 
  4 N        0.6000    -1.7400     0.7790 N.am  1 <1>  -0.5470 
  5 C       -2.4800    -0.0280    -0.3470 C.3   1 <1>   0.2200 
  6 C       -1.8940    -2.2580    -0.6850 C.3   1 <1>   0.2200 
  7 C        1.7930    -1.8530     1.5060 C.ar  1 <1>   0.1170 
  8 C       -3.6740    -0.5380     0.5260 C.3   1 <1>  -0.1600 
  9 C       -2.5950     0.0090    -1.9170 C.3   1 <1>  -0.1600 
 10 C       -2.5330    -2.9860     0.4770 C.3   1 <1>  -0.1600 
 11 C       -1.1900    -2.2650    -2.0310 C.3   1 <1>  -0.1600 
 12 C        2.7210    -2.8110     1.1140 C.ar  1 <1>  -0.1500 
 13 C        2.0880    -1.0650     2.6140 C.ar  1 <1>  -0.1500 
 14 C       -3.7520    -2.0810     0.8890 C.3   1 <1>   0.2200 
 15 C       -1.5160    -0.8670    -2.6880 C.3   1 <1>  -0.1600 
 16 C        3.9120    -2.9850     1.7990 C.ar  1 <1>  -0.1440 
 17 C        3.2760    -1.2280     3.3030 C.ar  1 <1>  -0.1500 
 18 N       -4.9530    -2.6240     0.2190 N.am  1 <1>  -0.7300 
 19 C        4.1870    -2.1870     2.8960 C.ar  1 <1>  -0.1500 
 20 C        4.9180    -4.0330     1.3570 C.3   1 <1>  -0.0970 
 21 C       -5.9570    -3.3660     0.7330 C.2   1 <1>   0.5690 
 22 O       -6.8680    -3.7080     0.0260 O.2   1 <1>  -0.5700 
 23 C       -5.9560    -3.7830     2.1830 C.3   1 <1>  -0.1790 
 24 H        0.4060    -2.5040     0.1430 H     1 <1>   0.3700 
 25 H       -2.1750     0.9470    -0.0040 H     1 <1>   0.0800 
 26 H       -2.8450    -2.1700    -1.1770 H     1 <1>   0.0800 
 27 H       -4.6010    -0.1880     0.1090 H     1 <1>   0.0800 
 28 H       -3.5710    -0.0250     1.4650 H     1 <1>   0.0800 
 29 H       -2.5160     1.0310    -2.2430 H     1 <1>   0.0800 
 30 H       -3.5810    -0.3200    -2.1970 H     1 <1>   0.0800 
 31 H       -1.8380    -3.0840     1.2910 H     1 <1>   0.0800 
 32 H       -2.8580    -3.9690     0.1880 H     1 <1>   0.0800 
 33 H       -1.5830    -3.0600    -2.6400 H     1 <1>   0.0800 
 34 H       -0.1300    -2.4100    -1.9240 H     1 <1>   0.0800 
 35 H        2.5080    -3.4250     0.2590 H     1 <1>   0.1500 
 36 H        1.3910    -0.3190     2.9470 H     1 <1>   0.1500 
 37 H       -3.8850    -2.1670     1.9530 H     1 <1>   0.0800 
 38 H       -0.6000    -0.3000    -2.7050 H     1 <1>   0.0800 
 39 H       -1.8200    -1.0030    -3.7110 H     1 <1>   0.0800 
 40 H        3.4900    -0.6080     4.1550 H     1 <1>   0.1500 
 41 H       -5.0540    -2.3960    -0.7700 H     1 <1>   0.3700 
 42 H        5.1100    -2.3070     3.4370 H     1 <1>   0.1500 
 43 H        4.4730    -4.7270     0.6680 H     1 <1>   0.0800 
 44 H        5.2760    -4.5830     2.2090 H     1 <1>   0.0800 
 45 H        5.7530    -3.5550     0.8770 H     1 <1>   0.0800 
 46 H       -6.0380    -2.9150     2.8100 H     1 <1>   0.0800 
 47 H       -5.0510    -4.3130     2.4110 H     1 <1>   0.0800 
 48 H       -6.7940    -4.4280     2.3730 H     1 <1>   0.0800 
@<TRIPOS>BOND
  1   1   2  2   
  2   2   3  am  
  3   2   4  am  
  4   3   5  1   
  5   3   6  1   
  6   4   7  1   
  7   4  24  1   
  8   5   8  1   
  9   5   9  1   
 10   5  25  1   
 11   6  10  1   
 12   6  11  1   
 13   6  26  1   
 14   7  12  ar  
 15   7  13  ar  
 16   8  14  1   
 17   8  27  1   
 18   8  28  1   
 19   9  15  1   
 20   9  29  1   
 21   9  30  1   
 22  10  14  1   
 23  10  31  1   
 24  10  32  1   
 25  11  15  1   
 26  11  33  1   
 27  11  34  1   
 28  12  16  ar  
 29  12  35  1   
 30  13  17  ar  
 31  13  36  1   
 32  14  18  1   
 33  14  37  1   
 34  15  38  1   
 35  15  39  1   
 36  16  19  ar  
 37  16  20  1   
 38  17  19  ar  
 39  17  40  1   
 40  18  21  am  
 41  18  41  1   
 42  19  42  1   
 43  20  43  1   
 44  20  44  1   
 45  20  45  1   
 46  21  22  2   
 47  21  23  1   
 48  23  46  1   
 49  23  47  1   
 50  23  48  1   
@<TRIPOS>SUBSTRUCTURE
  1 ****   3 GROUP 4 **** **** 0

# MOE 2024.06 (io_trps.svl 2023.06)
