@<TRIPOS>MOLECULE
2-(3-Methyl-2,4-dioxo-3,4-dihydro-2H-thieno[3,2-d]pyrimidin-1-yl)-N-(1-methyl-3-
47 49 1 0 0 
SMALL
USER_CHARGES


@<TRIPOS>ATOM
  1 S        2.5550     0.2650     2.3200 S.3   1 <1>  -0.0800 
  2 C        3.0870    -0.4520     0.7920 C.2   1 <1>  -0.0450 
  3 C        1.9500    -1.2840     2.8830 C.2   1 <1>  -0.1100 
  4 C        3.7560     0.2260    -0.2600 C.2   1 <1>   0.7150 
  5 C        2.7800    -1.7700     0.7620 C.2   1 <1>   0.0630 
  6 C        2.1460    -2.2430     1.9570 C.2   1 <1>  -0.1500 
  7 O        4.0050     1.4200    -0.2250 O.2   1 <1>  -0.5700 
  8 N        4.1320    -0.5370    -1.3550 N.am  1 <1>  -0.4200 
  9 N        3.1150    -2.4960    -0.3810 N.am  1 <1>  -0.4230 
 10 C        3.8570    -1.8980    -1.3930 C.2   1 <1>   0.6900 
 11 C        4.8940     0.1000    -2.4690 C.3   1 <1>   0.0600 
 12 C        2.7450    -3.9420    -0.4990 C.3   1 <1>   0.2010 
 13 O        4.2830    -2.5810    -2.3100 O.2   1 <1>  -0.5700 
 14 C        3.8570    -4.8540    -0.0010 C.2   1 <1>   0.5690 
 15 O        3.6710    -5.5140     0.9930 O.2   1 <1>  -0.5700 
 16 N        5.0240    -4.8890    -0.6950 N.am  1 <1>  -0.7300 
 17 C        6.2310    -5.6320    -0.3180 C.3   1 <1>   0.2200 
 18 C        7.3610    -4.6160    -0.1190 C.3   1 <1>  -0.1600 
 19 C        6.5180    -6.6370    -1.4310 C.3   1 <1>  -0.2400 
 20 C        8.6340    -5.2370     0.4720 C.3   1 <1>  -0.0170 
 21 C        9.6880    -4.1640     0.6930 C.ar  1 <1>  -0.1430 
 22 C        9.6660    -3.3910     1.8430 C.ar  1 <1>  -0.1500 
 23 C       10.6780    -3.9450    -0.2540 C.ar  1 <1>  -0.1500 
 24 C       10.6220    -2.4110     2.0470 C.ar  1 <1>  -0.1500 
 25 C       11.6350    -2.9660    -0.0510 C.ar  1 <1>  -0.1500 
 26 C       11.6070    -2.1980     1.0990 C.ar  1 <1>  -0.1500 
 27 H        1.5100    -1.3150     3.8650 H     1 <1>   0.1500 
 28 H        1.8710    -3.2750     2.0840 H     1 <1>   0.1500 
 29 H        4.5890     1.1250    -2.5960 H     1 <1>   0.0800 
 30 H        4.7180    -0.4210    -3.3940 H     1 <1>   0.0800 
 31 H        5.9460     0.0730    -2.2450 H     1 <1>   0.0800 
 32 H        2.5410    -4.1800    -1.5280 H     1 <1>   0.0800 
 33 H        1.8480    -4.1410     0.0560 H     1 <1>   0.0800 
 34 H        5.1240    -4.2660    -1.5080 H     1 <1>   0.3700 
 35 H        6.0500    -6.1590     0.6060 H     1 <1>   0.0800 
 36 H        7.0180    -3.8520     0.5570 H     1 <1>   0.0800 
 37 H        7.6000    -4.1470    -1.0580 H     1 <1>   0.0800 
 38 H        6.7410    -6.1310    -2.3530 H     1 <1>   0.0800 
 39 H        5.6640    -7.2750    -1.5740 H     1 <1>   0.0800 
 40 H        7.3530    -7.2600    -1.1690 H     1 <1>   0.0800 
 41 H        9.0270    -5.9880    -0.1890 H     1 <1>   0.0800 
 42 H        8.4060    -5.7110     1.4100 H     1 <1>   0.0800 
 43 H        8.9030    -3.5490     2.5850 H     1 <1>   0.1500 
 44 H       10.7080    -4.5350    -1.1530 H     1 <1>   0.1500 
 45 H       10.5970    -1.8150     2.9420 H     1 <1>   0.1500 
 46 H       12.4010    -2.8010    -0.7890 H     1 <1>   0.1500 
 47 H       12.3510    -1.4360     1.2570 H     1 <1>   0.1500 
@<TRIPOS>BOND
  1   1   2  1   
  2   1   3  1   
  3   2   4  1   
  4   2   5  2   
  5   3   6  2   
  6   3  27  1   
  7   4   7  2   
  8   4   8  am  
  9   5   6  1   
 10   5   9  1   
 11   6  28  1   
 12   8  10  am  
 13   8  11  1   
 14   9  10  am  
 15   9  12  1   
 16  10  13  2   
 17  11  29  1   
 18  11  30  1   
 19  11  31  1   
 20  12  14  1   
 21  12  32  1   
 22  12  33  1   
 23  14  15  2   
 24  14  16  am  
 25  16  17  1   
 26  16  34  1   
 27  17  18  1   
 28  17  19  1   
 29  17  35  1   
 30  18  20  1   
 31  18  36  1   
 32  18  37  1   
 33  19  38  1   
 34  19  39  1   
 35  19  40  1   
 36  20  21  1   
 37  20  41  1   
 38  20  42  1   
 39  21  22  ar  
 40  21  23  ar  
 41  22  24  ar  
 42  22  43  1   
 43  23  25  ar  
 44  23  44  1   
 45  24  26  ar  
 46  24  45  1   
 47  25  26  ar  
 48  25  46  1   
 49  26  47  1   
@<TRIPOS>SUBSTRUCTURE
  1 ****  16 GROUP 4 **** **** 0

# MOE 2024.06 (io_trps.svl 2023.06)
