@<TRIPOS>MOLECULE
7270
43 45 1 0 0 
SMALL
USER_CHARGES


@<TRIPOS>ATOM
  1 BR      -0.2830    -0.5450     1.0450 Br    1 <1>  -0.1110 
  2 C       -1.4010     0.9610     0.5870 C.ar  1 <1>   0.1110 
  3 C       -0.8130     2.1700     0.2380 C.ar  1 <1>   0.0820 
  4 C       -2.7700     0.7870     0.6320 C.ar  1 <1>  -0.1500 
  5 O        0.5430     2.2530     0.2170 O.3   1 <1>  -0.3630 
  6 C       -1.6490     3.2390    -0.0750 C.ar  1 <1>  -0.1500 
  7 C       -3.5870     1.8600     0.3180 C.ar  1 <1>  -0.1500 
  8 C        1.1930     3.5140     0.3270 C.3   1 <1>   0.1810 
  9 C       -3.0260     3.0790    -0.0330 C.ar  1 <1>  -0.1500 
 10 C        2.6970     3.3420     0.4850 C.2   1 <1>   0.5690 
 11 O        3.3420     4.3080     0.8080 O.2   1 <1>  -0.5700 
 12 N        3.2280     2.1020     0.2290 N.am  1 <1>  -0.4940 
 13 C        4.5110     1.5750     0.2790 C.2   1 <1>   0.1040 
 14 S        5.8110     2.5480     0.9530 S.3   1 <1>  -0.0800 
 15 C        4.9720     0.3440    -0.1230 C.2   1 <1>  -0.0860 
 16 C        6.9700     1.2660     0.6970 C.2   1 <1>  -0.1400 
 17 C        6.3880     0.1880     0.1540 C.2   1 <1>  -0.1810 
 18 C        4.1580    -0.6620    -0.7620 C.2   1 <1>   0.8060 
 19 C        8.4170     1.4730     1.0850 C.3   1 <1>   0.0200 
 20 C        7.2150    -1.0630    -0.1290 C.3   1 <1>   0.0210 
 21 O        4.5690    -1.7400    -1.1480 O.2   1 <1>  -0.5700 
 22 O        2.8580    -0.3900    -0.9590 O.3   1 <1>  -0.4300 
 23 C        9.2680     0.3600     0.4520 C.3   1 <1>  -0.1600 
 24 C        8.5870    -1.0160     0.5770 C.3   1 <1>  -0.1600 
 25 C        1.9870    -1.3050    -1.5980 C.3   1 <1>   0.0400 
 26 H       -3.1880    -0.1650     0.9080 H     1 <1>   0.1500 
 27 H       -1.2520     4.1960    -0.3580 H     1 <1>   0.1500 
 28 H       -4.6580     1.7480     0.3470 H     1 <1>   0.1500 
 29 H        0.8020     4.0270     1.1870 H     1 <1>   0.0800 
 30 H        0.9960     4.0810    -0.5630 H     1 <1>   0.0800 
 31 H       -3.6690     3.9080    -0.2760 H     1 <1>   0.1500 
 32 H        2.5090     1.4280    -0.0600 H     1 <1>   0.3700 
 33 H        8.4970     1.4410     2.1570 H     1 <1>   0.0800 
 34 H        8.7570     2.4350     0.7440 H     1 <1>   0.0800 
 35 H        7.3560    -1.1500    -1.1920 H     1 <1>   0.0800 
 36 H        6.6910    -1.9380     0.2120 H     1 <1>   0.0800 
 37 H       10.2360     0.3370     0.9220 H     1 <1>   0.0800 
 38 H        9.4110     0.5820    -0.5910 H     1 <1>   0.0800 
 39 H        9.2240    -1.7790     0.1650 H     1 <1>   0.0800 
 40 H        8.4440    -1.2370     1.6210 H     1 <1>   0.0800 
 41 H        1.9250    -2.2000    -1.0030 H     1 <1>   0.0800 
 42 H        2.3740    -1.5340    -2.5760 H     1 <1>   0.0800 
 43 H        1.0160    -0.8500    -1.6830 H     1 <1>   0.0800 
@<TRIPOS>BOND
  1   1   2  1   
  2   2   3  ar  
  3   2   4  ar  
  4   3   5  1   
  5   3   6  ar  
  6   4   7  ar  
  7   4  26  1   
  8   5   8  1   
  9   6   9  ar  
 10   6  27  1   
 11   7   9  ar  
 12   7  28  1   
 13   8  10  1   
 14   8  29  1   
 15   8  30  1   
 16   9  31  1   
 17  10  11  2   
 18  10  12  am  
 19  12  13  1   
 20  12  32  1   
 21  13  14  1   
 22  13  15  2   
 23  14  16  1   
 24  15  17  1   
 25  15  18  1   
 26  16  17  2   
 27  16  19  1   
 28  17  20  1   
 29  18  21  2   
 30  18  22  1   
 31  19  23  1   
 32  19  33  1   
 33  19  34  1   
 34  20  24  1   
 35  20  35  1   
 36  20  36  1   
 37  22  25  1   
 38  23  24  1   
 39  23  37  1   
 40  23  38  1   
 41  24  39  1   
 42  24  40  1   
 43  25  41  1   
 44  25  42  1   
 45  25  43  1   
@<TRIPOS>SUBSTRUCTURE
  1 ****  12 GROUP 4 **** **** 0

# MOE 2024.06 (io_trps.svl 2023.06)
