@<TRIPOS>MOLECULE
N-(2,5-Dimethoxy-phenyl)-2-(2-ethyl-5,6-dimethyl-thieno[2,3-d]pyrimidin-4-ylsulfanyl)-acetamide
51 53 1 0 0 
SMALL
USER_CHARGES


@<TRIPOS>ATOM
  1 S       -0.9770    -0.6070    -1.4540 S.3   1 <1>  -0.0800 
  2 C       -0.3560    -1.9360    -0.4880 C.ar  1 <1>   0.2970 
  3 C        0.5840    -0.3680    -2.2340 C.2   1 <1>  -0.1400 
  4 N       -1.1080    -2.5900     0.3710 N.ar  1 <1>  -0.5670 
  5 C        0.9750    -2.1650    -0.7650 C.ar  1 <1>   0.0000 
  6 C        1.4930    -1.2510    -1.7710 C.2   1 <1>  -0.1810 
  7 C        0.6170     0.7560    -3.2530 C.3   1 <1>  -0.0600 
  8 C       -0.4680    -3.5520     1.0030 C.ar  1 <1>   0.4770 
  9 C        1.4960    -3.2140    -0.0120 C.ar  1 <1>   0.4120 
 10 C        2.9400    -1.3130    -2.2400 C.3   1 <1>  -0.0590 
 11 N        0.8030    -3.9100     0.8610 N.ar  1 <1>  -0.6200 
 12 C       -1.2740    -4.3470     2.0170 C.3   1 <1>  -0.0160 
 13 S        3.2060    -3.7170    -0.1750 S.3   1 <1>  -0.3320 
 14 C       -1.0840    -3.8210     3.4480 C.3   1 <1>  -0.2400 
 15 C        3.3950    -5.1260     1.0320 C.3   1 <1>   0.1310 
 16 C        4.8100    -5.6840     1.0510 C.2   1 <1>   0.5690 
 17 O        5.0180    -6.6440     1.7520 O.2   1 <1>  -0.5700 
 18 N        5.7690    -5.0790     0.2860 N.am  1 <1>  -0.5470 
 19 C        7.1400    -5.3120     0.0680 C.ar  1 <1>   0.1170 
 20 C        7.8140    -4.4670    -0.8220 C.ar  1 <1>   0.0830 
 21 C        7.8500    -6.3320     0.6900 C.ar  1 <1>  -0.1500 
 22 O        7.0820    -3.4730    -1.4160 O.3   1 <1>  -0.3630 
 23 C        9.1700    -4.6560    -1.0720 C.ar  1 <1>  -0.1500 
 24 C        9.1990    -6.5210     0.4430 C.ar  1 <1>   0.0830 
 25 C        7.6780    -2.5710    -2.3230 C.3   1 <1>   0.0400 
 26 C        9.8600    -5.6780    -0.4430 C.ar  1 <1>  -0.1500 
 27 O        9.8030    -7.5460     1.1000 O.3   1 <1>  -0.3620 
 28 C       11.1730    -7.8260     0.9180 C.3   1 <1>   0.0400 
 29 H        0.3590     1.6850    -2.7770 H     1 <1>   0.0800 
 30 H       -0.0960     0.5590    -4.0330 H     1 <1>   0.0800 
 31 H        1.5890     0.8580    -3.6970 H     1 <1>   0.0800 
 32 H        3.1460    -0.5680    -2.9840 H     1 <1>   0.0800 
 33 H        3.1470    -2.2760    -2.6700 H     1 <1>   0.0800 
 34 H        3.6040    -1.1450    -1.4100 H     1 <1>   0.0800 
 35 H       -0.9730    -5.3780     1.9700 H     1 <1>   0.0800 
 36 H       -2.3160    -4.2990     1.7550 H     1 <1>   0.0800 
 37 H       -0.0480    -3.8830     3.7300 H     1 <1>   0.0800 
 38 H       -1.6680    -4.4030     4.1380 H     1 <1>   0.0800 
 39 H       -1.3980    -2.7940     3.5070 H     1 <1>   0.0800 
 40 H        2.7010    -5.8910     0.7390 H     1 <1>   0.0800 
 41 H        3.1340    -4.7510     2.0040 H     1 <1>   0.0800 
 42 H        5.4300    -4.2830    -0.2610 H     1 <1>   0.3700 
 43 H        7.3650    -6.9970     1.3770 H     1 <1>   0.1500 
 44 H        9.7090    -4.0230    -1.7490 H     1 <1>   0.1500 
 45 H        6.9220    -1.8840    -2.6570 H     1 <1>   0.0800 
 46 H        8.0650    -3.1230    -3.1610 H     1 <1>   0.0800 
 47 H        8.4610    -2.0340    -1.8180 H     1 <1>   0.0800 
 48 H       10.9050    -5.8000    -0.6540 H     1 <1>   0.1500 
 49 H       11.4240    -8.6710     1.5330 H     1 <1>   0.0800 
 50 H       11.7480    -6.9690     1.2220 H     1 <1>   0.0800 
 51 H       11.3460    -8.0630    -0.1160 H     1 <1>   0.0800 
@<TRIPOS>BOND
  1   1   2  1   
  2   1   3  1   
  3   2   4  ar  
  4   2   5  ar  
  5   3   6  2   
  6   3   7  1   
  7   4   8  ar  
  8   5   6  1   
  9   5   9  ar  
 10   6  10  1   
 11   7  29  1   
 12   7  30  1   
 13   7  31  1   
 14   8  11  ar  
 15   8  12  1   
 16   9  11  ar  
 17   9  13  1   
 18  10  32  1   
 19  10  33  1   
 20  10  34  1   
 21  12  14  1   
 22  12  35  1   
 23  12  36  1   
 24  13  15  1   
 25  14  37  1   
 26  14  38  1   
 27  14  39  1   
 28  15  16  1   
 29  15  40  1   
 30  15  41  1   
 31  16  17  2   
 32  16  18  am  
 33  18  19  1   
 34  18  42  1   
 35  19  20  ar  
 36  19  21  ar  
 37  20  22  1   
 38  20  23  ar  
 39  21  24  ar  
 40  21  43  1   
 41  22  25  1   
 42  23  26  ar  
 43  23  44  1   
 44  24  26  ar  
 45  24  27  1   
 46  25  45  1   
 47  25  46  1   
 48  25  47  1   
 49  26  48  1   
 50  27  28  1   
 51  28  49  1   
 52  28  50  1   
 53  28  51  1   
@<TRIPOS>SUBSTRUCTURE
  1 ****  13 GROUP 4 **** **** 0

# MOE 2024.06 (io_trps.svl 2023.06)
