@<TRIPOS>MOLECULE
1-[2-(3,4-Dihydro-2H-quinolin-1-yl)-2-oxo-ethyl]-3-ethyl-1H-thieno[3,2-d]pyrimid
45 48 1 0 0 
SMALL
USER_CHARGES


@<TRIPOS>ATOM
  1 S        3.2240    -0.6450     3.3140 S.3   1 <1>  -0.0800 
  2 C        3.4220    -1.1450     1.6290 C.2   1 <1>  -0.0450 
  3 C        2.1210    -1.9760     3.6210 C.2   1 <1>  -0.1100 
  4 C        4.2360    -0.5010     0.6620 C.2   1 <1>   0.7150 
  5 C        2.6800    -2.2470     1.3760 C.2   1 <1>   0.0630 
  6 C        1.9410    -2.7170     2.5100 C.2   1 <1>  -0.1500 
  7 O        4.8880     0.5000     0.9110 O.2   1 <1>  -0.5700 
  8 N        4.2600    -1.0620    -0.6050 N.am  1 <1>  -0.4200 
  9 N        2.7160    -2.7860     0.0870 N.am  1 <1>  -0.4230 
 10 C        3.5100    -2.1960    -0.8910 C.2   1 <1>   0.6900 
 11 C        5.0910    -0.4330    -1.6700 C.3   1 <1>   0.1400 
 12 C        1.9230    -4.0210    -0.2260 C.3   1 <1>   0.2010 
 13 O        3.5500    -2.6820    -2.0080 O.2   1 <1>  -0.5700 
 14 C        4.2670     0.6070    -2.4290 C.3   1 <1>  -0.2400 
 15 C        2.4890    -5.2720     0.4490 C.2   1 <1>   0.5690 
 16 O        1.7570    -5.8280     1.2350 O.2   1 <1>  -0.5700 
 17 N        3.7730    -5.7190     0.1830 N.am  1 <1>  -0.4770 
 18 C        4.5750    -6.4320     1.1150 C.ar  1 <1>   0.1170 
 19 C        4.3410    -5.5660    -1.1850 C.3   1 <1>   0.1400 
 20 C        5.5940    -7.2920     0.6860 C.ar  1 <1>  -0.1430 
 21 C        4.3890    -6.2780     2.4880 C.ar  1 <1>  -0.1500 
 22 C        4.8100    -6.9280    -1.6920 C.3   1 <1>  -0.1600 
 23 C        6.3640    -7.9830     1.6080 C.ar  1 <1>  -0.1500 
 24 C        5.9130    -7.4820    -0.7910 C.3   1 <1>  -0.0170 
 25 C        5.1600    -6.9690     3.4040 C.ar  1 <1>  -0.1500 
 26 C        6.1480    -7.8270     2.9650 C.ar  1 <1>  -0.1500 
 27 H        1.7180    -2.0660     4.6150 H     1 <1>   0.1500 
 28 H        1.3080    -3.5850     2.4600 H     1 <1>   0.1500 
 29 H        5.4450    -1.1870    -2.3530 H     1 <1>   0.0800 
 30 H        5.9560     0.0360    -1.2320 H     1 <1>   0.0800 
 31 H        1.8530    -4.1800    -1.2850 H     1 <1>   0.0800 
 32 H        0.9190    -3.8740     0.1260 H     1 <1>   0.0800 
 33 H        3.4160     0.1430    -2.8950 H     1 <1>   0.0800 
 34 H        4.8710     1.0560    -3.1960 H     1 <1>   0.0800 
 35 H        3.9360     1.3820    -1.7600 H     1 <1>   0.0800 
 36 H        5.1650    -4.8730    -1.1520 H     1 <1>   0.0800 
 37 H        3.6060    -5.1900    -1.8710 H     1 <1>   0.0800 
 38 H        3.6320    -5.6120     2.8550 H     1 <1>   0.1500 
 39 H        5.1750    -6.8370    -2.6990 H     1 <1>   0.0800 
 40 H        3.9730    -7.6040    -1.6990 H     1 <1>   0.0800 
 41 H        7.1410    -8.6470     1.2740 H     1 <1>   0.1500 
 42 H        6.0570    -8.5270    -1.0040 H     1 <1>   0.0800 
 43 H        6.8340    -6.9680    -1.0040 H     1 <1>   0.0800 
 44 H        4.9890    -6.8370     4.4580 H     1 <1>   0.1500 
 45 H        6.7490    -8.3700     3.6740 H     1 <1>   0.1500 
@<TRIPOS>BOND
  1   1   2  1   
  2   1   3  1   
  3   2   4  1   
  4   2   5  2   
  5   3   6  2   
  6   3  27  1   
  7   4   7  2   
  8   4   8  am  
  9   5   6  1   
 10   5   9  1   
 11   6  28  1   
 12   8  10  am  
 13   8  11  1   
 14   9  10  am  
 15   9  12  1   
 16  10  13  2   
 17  11  14  1   
 18  11  29  1   
 19  11  30  1   
 20  12  15  1   
 21  12  31  1   
 22  12  32  1   
 23  14  33  1   
 24  14  34  1   
 25  14  35  1   
 26  15  16  2   
 27  15  17  am  
 28  17  18  1   
 29  17  19  1   
 30  18  20  ar  
 31  18  21  ar  
 32  19  22  1   
 33  19  36  1   
 34  19  37  1   
 35  20  23  ar  
 36  20  24  1   
 37  21  25  ar  
 38  21  38  1   
 39  22  24  1   
 40  22  39  1   
 41  22  40  1   
 42  23  26  ar  
 43  23  41  1   
 44  24  42  1   
 45  24  43  1   
 46  25  26  ar  
 47  25  44  1   
 48  26  45  1   
@<TRIPOS>SUBSTRUCTURE
  1 ****   9 GROUP 4 **** **** 0

# MOE 2024.06 (io_trps.svl 2023.06)
