@<TRIPOS>MOLECULE
NONAME
46 49 1 0 0 
SMALL
USER_CHARGES


@<TRIPOS>ATOM
  1 S        0.6180    -0.5540    -0.1490 S.3   1 <1>  -0.0800 
  2 C        1.1240     1.0290     0.4660 C.2   1 <1>   0.4620 
  3 C       -0.7330     0.1930    -0.9650 C.ar  1 <1>   0.0400 
  4 N        0.3610     1.9920     0.0920 N.2   1 <1>  -0.5650 
  5 N        2.2490     1.1250     1.2590 N.pl3 1 <1>  -0.8220 
  6 C       -0.6810     1.5490    -0.7040 C.ar  1 <1>   0.2270 
  7 C       -1.7080    -0.4040    -1.7410 C.ar  1 <1>  -0.1500 
  8 C        3.1410    -0.0150     1.6270 C.3   1 <1>   0.2090 
  9 C        2.7210     2.4450     1.7560 C.3   1 <1>   0.2090 
 10 C       -1.6680     2.3540    -1.2570 C.ar  1 <1>  -0.1500 
 11 C       -2.6830     0.4160    -2.2840 C.ar  1 <1>  -0.1500 
 12 C        4.5370     0.2260     1.0390 C.3   1 <1>  -0.0190 
 13 C        4.1220     2.7230     1.1990 C.3   1 <1>  -0.1600 
 14 C       -2.6610     1.7880    -2.0420 C.ar  1 <1>  -0.1500 
 15 C        5.4650    -0.9220     1.4040 C.2   1 <1>   0.5690 
 16 C        5.1040     1.5810     1.5100 C.3   1 <1>  -0.1600 
 17 O        5.4210    -1.4040     2.5100 O.2   1 <1>  -0.5700 
 18 N        6.3340    -1.3760     0.4720 N.am  1 <1>  -0.7300 
 19 C        7.3200    -2.4410     0.7080 C.3   1 <1>   0.2840 
 20 C        8.3510    -2.3740    -0.4020 C.ar  1 <1>  -0.1440 
 21 C        8.2050    -3.1480    -1.5440 C.ar  1 <1>  -0.1500 
 22 C        9.4470    -1.5320    -0.2870 C.ar  1 <1>  -0.1500 
 23 C        9.1440    -3.0810    -2.5590 C.ar  1 <1>  -0.1500 
 24 C       10.3870    -1.4640    -1.3010 C.ar  1 <1>  -0.1500 
 25 C       10.2360    -2.2390    -2.4380 C.ar  1 <1>  -0.1500 
 26 H       -1.7010    -1.4660    -1.9110 H     1 <1>   0.1500 
 27 H        2.7580    -0.9530     1.2710 H     1 <1>   0.0800 
 28 H        3.2020    -0.0760     2.7010 H     1 <1>   0.0800 
 29 H        2.7490     2.4250     2.8320 H     1 <1>   0.0800 
 30 H        2.0490     3.2310     1.4560 H     1 <1>   0.0800 
 31 H       -1.6430     3.4110    -1.0650 H     1 <1>   0.1500 
 32 H       -3.4620    -0.0070    -2.8950 H     1 <1>   0.1500 
 33 H        4.4340     0.2450    -0.0300 H     1 <1>   0.0800 
 34 H        4.4910     3.6430     1.6150 H     1 <1>   0.0800 
 35 H        4.0420     2.8550     0.1340 H     1 <1>   0.0800 
 36 H       -3.4250     2.4140    -2.4700 H     1 <1>   0.1500 
 37 H        6.0470     1.7700     1.0270 H     1 <1>   0.0800 
 38 H        5.2770     1.5400     2.5720 H     1 <1>   0.0800 
 39 H        6.4020    -0.9430    -0.4510 H     1 <1>   0.3700 
 40 H        6.8240    -3.3960     0.7080 H     1 <1>   0.0800 
 41 H        7.7870    -2.2990     1.6680 H     1 <1>   0.0800 
 42 H        7.3590    -3.8050    -1.6490 H     1 <1>   0.1500 
 43 H        9.5720    -0.9240     0.5930 H     1 <1>   0.1500 
 44 H        9.0270    -3.6840    -3.4430 H     1 <1>   0.1500 
 45 H       11.2360    -0.8100    -1.2060 H     1 <1>   0.1500 
 46 H       10.9660    -2.1880    -3.2260 H     1 <1>   0.1500 
@<TRIPOS>BOND
  1   1   2  1   
  2   1   3  1   
  3   2   4  2   
  4   2   5  1   
  5   3   6  ar  
  6   3   7  ar  
  7   4   6  1   
  8   5   8  1   
  9   5   9  1   
 10   6  10  ar  
 11   7  11  ar  
 12   7  26  1   
 13   8  12  1   
 14   8  27  1   
 15   8  28  1   
 16   9  13  1   
 17   9  29  1   
 18   9  30  1   
 19  10  14  ar  
 20  10  31  1   
 21  11  14  ar  
 22  11  32  1   
 23  12  15  1   
 24  12  16  1   
 25  12  33  1   
 26  13  16  1   
 27  13  34  1   
 28  13  35  1   
 29  14  36  1   
 30  15  17  2   
 31  15  18  am  
 32  16  37  1   
 33  16  38  1   
 34  18  19  1   
 35  18  39  1   
 36  19  20  1   
 37  19  40  1   
 38  19  41  1   
 39  20  21  ar  
 40  20  22  ar  
 41  21  23  ar  
 42  21  42  1   
 43  22  24  ar  
 44  22  43  1   
 45  23  25  ar  
 46  23  44  1   
 47  24  25  ar  
 48  24  45  1   
 49  25  46  1   
@<TRIPOS>SUBSTRUCTURE
  1 ****  12 GROUP 4 **** **** 0

# MOE 2024.06 (io_trps.svl 2023.06)
