@<TRIPOS>MOLECULE
NONAME
39 40 1 0 0 
SMALL
USER_CHARGES


@<TRIPOS>ATOM
  1 S       -0.3800     1.0380    -1.3160 S.3   1 <1>  -0.2860 
  2 C       -1.7260     0.6190    -0.1990 C.2   1 <1>   0.2420 
  3 C        1.1120     1.2190    -0.2200 C.3   1 <1>   0.1310 
  4 N       -1.6150     0.5610     1.0810 N.2   1 <1>  -0.3380 
  5 N       -2.9510     0.3350    -0.6400 N.pl3 1 <1>   0.0480 
  6 C        2.0430     0.0280    -0.3970 C.2   1 <1>   0.5690 
  7 N       -2.8220     0.2170     1.5370 N.2   1 <1>  -0.3380 
  8 C       -3.6010     0.0940     0.5110 C.2   1 <1>   0.0060 
  9 C       -3.4430     0.3070    -2.0350 C.3   1 <1>   0.0160 
 10 O        2.9690     0.1270    -1.1630 O.2   1 <1>  -0.5700 
 11 N        1.8740    -1.1330     0.2860 N.am  1 <1>  -0.7300 
 12 C       -5.0680    -0.2910     0.6160 C.3   1 <1>   0.3000 
 13 C        0.8410    -1.4790     1.2940 C.3   1 <1>   0.0600 
 14 O       -5.8430     0.5150    -0.2490 O.3   1 <1>  -0.3630 
 15 C       -7.1750     0.3070    -0.3940 C.ar  1 <1>   0.0820 
 16 C       -7.8950    -0.6520     0.3150 C.ar  1 <1>  -0.1500 
 17 C       -7.8310     1.1110    -1.3120 C.ar  1 <1>  -0.1500 
 18 C       -9.2550    -0.8070     0.0980 C.ar  1 <1>  -0.1430 
 19 C       -9.1880     0.9600    -1.5280 C.ar  1 <1>  -0.1500 
 20 C       -9.8970     0.0020    -0.8250 C.ar  1 <1>  -0.1500 
 21 C      -10.0450    -1.8500     0.8680 C.3   1 <1>  -0.0970 
 22 H        0.7860     1.3230     0.7960 H     1 <1>   0.0800 
 23 H        1.6100     2.1180    -0.5290 H     1 <1>   0.0800 
 24 H       -2.6340     0.0760    -2.7040 H     1 <1>   0.0800 
 25 H       -3.8500     1.2700    -2.2830 H     1 <1>   0.0800 
 26 H       -4.2080    -0.4400    -2.1360 H     1 <1>   0.0800 
 27 H        2.5380    -1.8740     0.0460 H     1 <1>   0.3700 
 28 H       -5.4170    -0.1410     1.6220 H     1 <1>   0.0800 
 29 H       -5.1950    -1.3200     0.3310 H     1 <1>   0.0800 
 30 H        0.6330    -0.6340     1.9270 H     1 <1>   0.0800 
 31 H        1.1910    -2.2890     1.9110 H     1 <1>   0.0800 
 32 H       -0.0660    -1.7810     0.8000 H     1 <1>   0.0800 
 33 H       -7.4180    -1.2830     1.0400 H     1 <1>   0.1500 
 34 H       -7.2760     1.8550    -1.8530 H     1 <1>   0.1500 
 35 H       -9.6940     1.5870    -2.2420 H     1 <1>   0.1500 
 36 H      -10.9540    -0.1080    -0.9980 H     1 <1>   0.1500 
 37 H       -9.4010    -2.6390     1.2130 H     1 <1>   0.0800 
 38 H      -10.8030    -2.2830     0.2400 H     1 <1>   0.0800 
 39 H      -10.5190    -1.3930     1.7180 H     1 <1>   0.0800 
@<TRIPOS>BOND
  1   1   2  1   
  2   1   3  1   
  3   2   4  2   
  4   2   5  1   
  5   3   6  1   
  6   3  22  1   
  7   3  23  1   
  8   4   7  1   
  9   5   8  1   
 10   5   9  1   
 11   6  10  2   
 12   6  11  am  
 13   7   8  2   
 14   8  12  1   
 15   9  24  1   
 16   9  25  1   
 17   9  26  1   
 18  11  13  1   
 19  11  27  1   
 20  12  14  1   
 21  12  28  1   
 22  12  29  1   
 23  13  30  1   
 24  13  31  1   
 25  13  32  1   
 26  14  15  1   
 27  15  16  ar  
 28  15  17  ar  
 29  16  18  ar  
 30  16  33  1   
 31  17  19  ar  
 32  17  34  1   
 33  18  20  ar  
 34  18  21  1   
 35  19  20  ar  
 36  19  35  1   
 37  20  36  1   
 38  21  37  1   
 39  21  38  1   
 40  21  39  1   
@<TRIPOS>SUBSTRUCTURE
  1 ****   8 GROUP 4 **** **** 0

# MOE 2024.06 (io_trps.svl 2023.06)
