@<TRIPOS>MOLECULE
4-(3-Methoxy-propyl)-5-[4-(piperidine-1-sulfonyl)-phenyl]-4H-[1,2,4]triazole-3-t
50 52 1 0 0 
SMALL
USER_CHARGES


@<TRIPOS>ATOM
  1 S       -0.6010     0.8900    -1.2810 S.o2  1 <1>   1.4470 
  2 O       -0.4170     0.2190    -2.5510 O.2   1 <1>  -0.6500 
  3 O       -1.7040     1.8090    -1.1060 O.2   1 <1>  -0.6500 
  4 N       -0.7460    -0.3180    -0.1010 N.am  1 <1>  -0.8490 
  5 C        0.9410     1.7070    -0.7880 C.ar  1 <1>  -0.0090 
  6 C       -2.0880    -0.9060    -0.0990 C.3   1 <1>   0.1960 
  7 C        0.2830    -1.3580    -0.2380 C.3   1 <1>   0.1960 
  8 C        1.1000     2.2080     0.4970 C.ar  1 <1>  -0.1500 
  9 C        2.0170     1.8170    -1.6610 C.ar  1 <1>  -0.1500 
 10 C       -2.2430    -1.8670     1.0850 C.3   1 <1>  -0.1600 
 11 C        0.2190    -2.3250     0.9470 C.3   1 <1>  -0.1600 
 12 C        2.3020     2.7460     0.9160 C.ar  1 <1>  -0.1500 
 13 C        3.2220     2.3540    -1.2480 C.ar  1 <1>  -0.1500 
 14 C       -1.1700    -2.9630     1.0680 C.3   1 <1>  -0.1600 
 15 C        3.4010     2.7960     0.0620 C.ar  1 <1>   0.0410 
 16 C        4.6940     3.2230     0.5430 C.2   1 <1>   0.6120 
 17 N        4.9880     4.3960     1.0110 N.2   1 <1>  -0.2600 
 18 N        5.7840     2.3720     0.5770 N.pl3 1 <1>  -0.7640 
 19 N        6.3040     4.2960     1.3460 N.pl3 1 <1>  -0.3930 
 20 C        6.7610     3.0940     1.0840 C.cat 1 <1>   0.7360 
 21 C        5.9080     0.9530     0.1760 C.3   1 <1>   0.3540 
 22 S        8.2840     2.6100     1.3480 S.3   1 <1>  -0.9360 
 23 C        4.9570     0.0660     0.9830 C.3   1 <1>  -0.1600 
 24 C        5.1600    -1.4060     0.6350 C.3   1 <1>   0.1200 
 25 O        4.0780    -2.1090     1.1480 O.3   1 <1>  -0.5600 
 26 C        4.1920    -3.4900     1.0240 C.3   1 <1>   0.0400 
 27 H       -2.2610    -1.4260    -1.0270 H     1 <1>   0.0800 
 28 H       -2.8270    -0.1270    -0.0080 H     1 <1>   0.0800 
 29 H        1.2620    -0.9090    -0.2600 H     1 <1>   0.0800 
 30 H        0.1390    -1.8990    -1.1600 H     1 <1>   0.0800 
 31 H        0.2680     2.1560     1.1820 H     1 <1>   0.1500 
 32 H        1.9100     1.4640    -2.6750 H     1 <1>   0.1500 
 33 H       -3.2190    -2.3160     1.0530 H     1 <1>   0.0800 
 34 H       -2.1710    -1.3020     1.9980 H     1 <1>   0.0800 
 35 H        0.4560    -1.7850     1.8470 H     1 <1>   0.0800 
 36 H        0.9610    -3.0920     0.8200 H     1 <1>   0.0800 
 37 H        2.3970     3.1100     1.9260 H     1 <1>   0.1500 
 38 H        4.0410     2.4190    -1.9450 H     1 <1>   0.1500 
 39 H       -1.3390    -3.6150     0.2290 H     1 <1>   0.0800 
 40 H       -1.2290    -3.5510     1.9680 H     1 <1>   0.0800 
 41 H        6.9150     5.0080     1.7480 H     1 <1>   0.4500 
 42 H        6.9200     0.6150     0.3320 H     1 <1>   0.0800 
 43 H        5.6950     0.8630    -0.8740 H     1 <1>   0.0800 
 44 H        3.9390     0.3230     0.7630 H     1 <1>   0.0800 
 45 H        5.1430     0.2040     2.0330 H     1 <1>   0.0800 
 46 H        6.0700    -1.7790     1.0760 H     1 <1>   0.0800 
 47 H        5.1790    -1.5550    -0.4320 H     1 <1>   0.0800 
 48 H        3.3140    -3.9380     1.4520 H     1 <1>   0.0800 
 49 H        5.0640    -3.8240     1.5590 H     1 <1>   0.0800 
 50 H        4.2620    -3.7500    -0.0180 H     1 <1>   0.0800 
@<TRIPOS>BOND
  1   1   2  2   
  2   1   3  2   
  3   1   4  am  
  4   1   5  1   
  5   4   6  1   
  6   4   7  1   
  7   5   8  ar  
  8   5   9  ar  
  9   6  10  1   
 10   6  27  1   
 11   6  28  1   
 12   7  11  1   
 13   7  29  1   
 14   7  30  1   
 15   8  12  ar  
 16   8  31  1   
 17   9  13  ar  
 18   9  32  1   
 19  10  14  1   
 20  10  33  1   
 21  10  34  1   
 22  11  14  1   
 23  11  35  1   
 24  11  36  1   
 25  12  15  ar  
 26  12  37  1   
 27  13  15  ar  
 28  13  38  1   
 29  14  39  1   
 30  14  40  1   
 31  15  16  1   
 32  16  17  2   
 33  16  18  1   
 34  17  19  1   
 35  18  20  ar  
 36  18  21  1   
 37  19  20  ar  
 38  19  41  1   
 39  20  22  1   
 40  21  23  1   
 41  21  42  1   
 42  21  43  1   
 43  23  24  1   
 44  23  44  1   
 45  23  45  1   
 46  24  25  1   
 47  24  46  1   
 48  24  47  1   
 49  25  26  1   
 50  26  48  1   
 51  26  49  1   
 52  26  50  1   
@<TRIPOS>SUBSTRUCTURE
  1 ****   8 GROUP 4 **** **** 0

# MOE 2024.06 (io_trps.svl 2023.06)
