@<TRIPOS>MOLECULE
4-(4-Fluoro-benzoylamino)-piperidine-1-carboxylic acid (4-methoxy-phenyl)-amide
49 51 1 0 0 
SMALL
USER_CHARGES


@<TRIPOS>ATOM
  1 F       -1.7430     0.5840     2.8460 F     1 <1>  -0.1900 
  2 C       -2.7800     0.4380     2.0710 C.ar  1 <1>   0.1900 
  3 C       -3.6870    -0.5670     2.3460 C.ar  1 <1>  -0.1500 
  4 C       -2.9390     1.2910     0.9970 C.ar  1 <1>  -0.1500 
  5 C       -4.7870    -0.7150     1.5190 C.ar  1 <1>  -0.1500 
  6 C       -4.0450     1.1290     0.1810 C.ar  1 <1>  -0.1500 
  7 C       -4.9970     0.1320     0.4230 C.ar  1 <1>   0.0860 
  8 C       -6.1560    -0.0100    -0.4430 C.2   1 <1>   0.5440 
  9 O       -6.1160     0.3570    -1.6000 O.2   1 <1>  -0.5700 
 10 N       -7.3250    -0.5360     0.0320 N.am  1 <1>  -0.7300 
 11 C       -8.5400    -0.7470    -0.7720 C.3   1 <1>   0.2200 
 12 C       -9.4750     0.4500    -0.5860 C.3   1 <1>  -0.1600 
 13 C       -9.2100    -2.0510    -0.3360 C.3   1 <1>  -0.1600 
 14 C      -10.7890     0.2210    -1.3330 C.3   1 <1>   0.1400 
 15 C      -10.5390    -2.2520    -1.0690 C.3   1 <1>   0.1400 
 16 N      -11.4000    -1.0540    -0.8660 N.am  1 <1>  -0.6600 
 17 C      -12.6960    -1.1830    -0.4280 C.2   1 <1>   0.6900 
 18 O      -13.2340    -2.2740    -0.4210 O.2   1 <1>  -0.5700 
 19 N      -13.3500    -0.0730     0.0250 N.am  1 <1>  -0.5470 
 20 C      -14.6830     0.1270     0.4140 C.ar  1 <1>   0.1170 
 21 C      -15.7300    -0.6640    -0.0490 C.ar  1 <1>  -0.1500 
 22 C      -14.9790     1.1720     1.2810 C.ar  1 <1>  -0.1500 
 23 C      -17.0350    -0.4250     0.3450 C.ar  1 <1>  -0.1500 
 24 C      -16.2810     1.4170     1.6780 C.ar  1 <1>  -0.1500 
 25 C      -17.3180     0.6230     1.2160 C.ar  1 <1>   0.0830 
 26 O      -18.5670     0.9300     1.6550 O.3   1 <1>  -0.3620 
 27 C      -19.6780     0.1520     1.2700 C.3   1 <1>   0.0400 
 28 H       -3.5260    -1.2160     3.1880 H     1 <1>   0.1500 
 29 H       -2.2130     2.0610     0.8060 H     1 <1>   0.1500 
 30 H       -5.4870    -1.5060     1.7220 H     1 <1>   0.1500 
 31 H       -4.1820     1.7840    -0.6640 H     1 <1>   0.1500 
 32 H       -7.4290    -0.7070     1.0310 H     1 <1>   0.3700 
 33 H       -8.2720    -0.8230    -1.8140 H     1 <1>   0.0800 
 34 H       -8.9990     1.3330    -0.9730 H     1 <1>   0.0800 
 35 H       -9.6850     0.6010     0.4580 H     1 <1>   0.0800 
 36 H       -9.4040    -2.0370     0.7210 H     1 <1>   0.0800 
 37 H       -8.5610    -2.8790    -0.5560 H     1 <1>   0.0800 
 38 H      -10.5950     0.1450    -2.3900 H     1 <1>   0.0800 
 39 H      -11.4500     1.0550    -1.1820 H     1 <1>   0.0800 
 40 H      -11.0230    -3.1390    -0.6940 H     1 <1>   0.0800 
 41 H      -10.3670    -2.3870    -2.1240 H     1 <1>   0.0800 
 42 H      -12.7210     0.6960     0.2160 H     1 <1>   0.3700 
 43 H      -15.5270    -1.4740    -0.7260 H     1 <1>   0.1500 
 44 H      -14.1900     1.7980     1.6530 H     1 <1>   0.1500 
 45 H      -17.8090    -1.0630    -0.0350 H     1 <1>   0.1500 
 46 H      -16.5050     2.2260     2.3500 H     1 <1>   0.1500 
 47 H      -20.5530     0.5620     1.7420 H     1 <1>   0.0800 
 48 H      -19.5250    -0.8610     1.5980 H     1 <1>   0.0800 
 49 H      -19.7840     0.2000     0.2000 H     1 <1>   0.0800 
@<TRIPOS>BOND
  1   1   2  1   
  2   2   3  ar  
  3   2   4  ar  
  4   3   5  ar  
  5   3  28  1   
  6   4   6  ar  
  7   4  29  1   
  8   5   7  ar  
  9   5  30  1   
 10   6   7  ar  
 11   6  31  1   
 12   7   8  1   
 13   8   9  2   
 14   8  10  am  
 15  10  11  1   
 16  10  32  1   
 17  11  12  1   
 18  11  13  1   
 19  11  33  1   
 20  12  14  1   
 21  12  34  1   
 22  12  35  1   
 23  13  15  1   
 24  13  36  1   
 25  13  37  1   
 26  14  16  1   
 27  14  38  1   
 28  14  39  1   
 29  15  16  1   
 30  15  40  1   
 31  15  41  1   
 32  16  17  am  
 33  17  18  2   
 34  17  19  am  
 35  19  20  1   
 36  19  42  1   
 37  20  21  ar  
 38  20  22  ar  
 39  21  23  ar  
 40  21  43  1   
 41  22  24  ar  
 42  22  44  1   
 43  23  25  ar  
 44  23  45  1   
 45  24  25  ar  
 46  24  46  1   
 47  25  26  1   
 48  26  27  1   
 49  27  47  1   
 50  27  48  1   
 51  27  49  1   
@<TRIPOS>SUBSTRUCTURE
  1 ****  12 GROUP 4 **** **** 0

# MOE 2024.06 (io_trps.svl 2023.06)
