@<TRIPOS>MOLECULE
NONAME
50 53 1 0 0 
SMALL
USER_CHARGES


@<TRIPOS>ATOM
  1 F       -0.6270    -1.0840    -0.2030 F     1 <1>  -0.3400 
  2 C       -1.7040    -1.1150    -0.9810 C.3   1 <1>   1.1640 
  3 F       -2.1130     0.1440    -1.0890 F     1 <1>  -0.3400 
  4 F       -1.2790    -1.4740    -2.1860 F     1 <1>  -0.3400 
  5 C       -2.7920    -2.0570    -0.4470 C.ar  1 <1>  -0.1440 
  6 C       -4.1380    -1.7860    -0.6670 C.ar  1 <1>  -0.1500 
  7 C       -2.4540    -3.2100     0.2570 C.ar  1 <1>  -0.1500 
  8 C       -5.1380    -2.6270    -0.1990 C.ar  1 <1>   0.1000 
  9 C       -3.4400    -4.0590     0.7300 C.ar  1 <1>  -0.1500 
 10 N       -6.4690    -2.3000    -0.4410 N.pl3 1 <1>  -0.8380 
 11 C       -4.7710    -3.7680     0.5040 C.ar  1 <1>  -0.1500 
 12 C       -7.0700    -1.1630     0.3150 C.3   1 <1>   0.2090 
 13 C       -7.4550    -3.3450    -0.8550 C.3   1 <1>   0.2090 
 14 C       -7.9920    -1.6600     1.4450 C.3   1 <1>   0.1100 
 15 C       -8.3980    -3.7490     0.2980 C.3   1 <1>   0.1100 
 16 N       -9.0410    -2.5780     0.9460 N.3   1 <1>  -0.8100 
 17 C       -9.9350    -3.0010     2.0390 C.3   1 <1>   0.2900 
 18 C      -11.1230    -3.7890     1.5150 C.2   1 <1>   0.0070 
 19 N      -11.4810    -4.9350     1.9560 N.2   1 <1>  -0.3380 
 20 N      -11.9370    -3.4040     0.5410 N.pl3 1 <1>   0.3140 
 21 N      -12.5430    -5.2780     1.2400 N.2   1 <1>   0.0000 
 22 N      -12.8270    -4.3660     0.3830 N.2   1 <1>  -0.4180 
 23 C      -11.8880    -2.1540    -0.2780 C.3   1 <1>   0.1760 
 24 C      -12.1310    -0.8850     0.5530 C.3   1 <1>  -0.1600 
 25 C      -12.9310    -2.0810    -1.3980 C.3   1 <1>  -0.1600 
 26 C      -12.8710     0.1030    -0.3600 C.3   1 <1>  -0.1600 
 27 C      -13.0290    -0.5920    -1.7130 C.3   1 <1>  -0.1600 
 28 H       -4.4400    -0.9120    -1.2170 H     1 <1>   0.1500 
 29 H       -1.4210    -3.4550     0.4410 H     1 <1>   0.1500 
 30 H       -3.1680    -4.9460     1.2750 H     1 <1>   0.1500 
 31 H       -5.5300    -4.4260     0.8800 H     1 <1>   0.1500 
 32 H       -7.6380    -0.5520    -0.3640 H     1 <1>   0.0800 
 33 H       -6.2880    -0.5550     0.7360 H     1 <1>   0.0800 
 34 H       -6.9330    -4.2140    -1.2160 H     1 <1>   0.0800 
 35 H       -8.0450    -2.9600    -1.6670 H     1 <1>   0.0800 
 36 H       -8.4540    -0.8060     1.9090 H     1 <1>   0.0800 
 37 H       -7.3890    -2.1580     2.1850 H     1 <1>   0.0800 
 38 H       -7.8350    -4.3040     1.0280 H     1 <1>   0.0800 
 39 H       -9.1510    -4.4060    -0.1000 H     1 <1>   0.0800 
 40 H      -10.3040    -2.1350     2.5590 H     1 <1>   0.0800 
 41 H       -9.3900    -3.6060     2.7460 H     1 <1>   0.0800 
 42 H      -10.9160    -2.0880    -0.7320 H     1 <1>   0.0800 
 43 H      -11.1940    -0.4690     0.8800 H     1 <1>   0.0800 
 44 H      -12.7460    -1.1070     1.4080 H     1 <1>   0.0800 
 45 H      -13.8890    -2.4220    -1.0430 H     1 <1>   0.0800 
 46 H      -12.6370    -2.6560    -2.2590 H     1 <1>   0.0800 
 47 H      -12.3320     1.0290    -0.4630 H     1 <1>   0.0800 
 48 H      -13.8440     0.3130     0.0540 H     1 <1>   0.0800 
 49 H      -13.9610    -0.3410    -2.1900 H     1 <1>   0.0800 
 50 H      -12.2150    -0.3090    -2.3600 H     1 <1>   0.0800 
@<TRIPOS>BOND
  1   1   2  1   
  2   2   3  1   
  3   2   4  1   
  4   2   5  1   
  5   5   6  ar  
  6   5   7  ar  
  7   6   8  ar  
  8   6  28  1   
  9   7   9  ar  
 10   7  29  1   
 11   8  10  1   
 12   8  11  ar  
 13   9  11  ar  
 14   9  30  1   
 15  10  12  1   
 16  10  13  1   
 17  11  31  1   
 18  12  14  1   
 19  12  32  1   
 20  12  33  1   
 21  13  15  1   
 22  13  34  1   
 23  13  35  1   
 24  14  16  1   
 25  14  36  1   
 26  14  37  1   
 27  15  16  1   
 28  15  38  1   
 29  15  39  1   
 30  16  17  1   
 31  17  18  1   
 32  17  40  1   
 33  17  41  1   
 34  18  19  2   
 35  18  20  1   
 36  19  21  1   
 37  20  22  1   
 38  20  23  1   
 39  21  22  2   
 40  23  24  1   
 41  23  25  1   
 42  23  42  1   
 43  24  26  1   
 44  24  43  1   
 45  24  44  1   
 46  25  27  1   
 47  25  45  1   
 48  25  46  1   
 49  26  27  1   
 50  26  47  1   
 51  26  48  1   
 52  27  49  1   
 53  27  50  1   
@<TRIPOS>SUBSTRUCTURE
  1 ****  13 GROUP 4 **** **** 0

# MOE 2024.06 (io_trps.svl 2023.06)
