@<TRIPOS>MOLECULE
4-(2,3-Dihydro-benzo[1,4]dioxine-6-carbonyl)-piperidine-1-carboxylic acid phenylamide
49 52 1 0 0 
SMALL
USER_CHARGES


@<TRIPOS>ATOM
  1 O       -0.5280    -0.1110    -0.5620 O.2   1 <1>  -0.5700 
  2 C       -1.1570     0.9110    -0.3660 C.2   1 <1>   0.6900 
  3 N       -2.5250     0.8760    -0.2840 N.am  1 <1>  -0.6600 
  4 N       -0.5280     2.1100    -0.1920 N.am  1 <1>  -0.5470 
  5 C       -3.2330    -0.3990     0.0080 C.3   1 <1>   0.1400 
  6 C       -3.4050     2.0010    -0.6990 C.3   1 <1>   0.1400 
  7 C        0.8110     2.4910    -0.3500 C.ar  1 <1>   0.1170 
  8 C       -4.2890    -0.1590     1.0910 C.3   1 <1>  -0.1600 
  9 C       -4.4550     2.2560     0.3850 C.3   1 <1>  -0.1600 
 10 C        1.6950     1.8100    -1.1820 C.ar  1 <1>  -0.1500 
 11 C        1.2770     3.6090     0.3330 C.ar  1 <1>  -0.1500 
 12 C       -5.2560     0.9790     0.7030 C.3   1 <1>  -0.0190 
 13 C        3.0050     2.2310    -1.3230 C.ar  1 <1>  -0.1500 
 14 C        2.5860     4.0340     0.1950 C.ar  1 <1>  -0.1500 
 15 C       -6.3020     1.2490     1.7920 C.2   1 <1>   0.4230 
 16 C        3.4530     3.3450    -0.6340 C.ar  1 <1>  -0.1500 
 17 O       -5.9300     1.2440     2.9390 O.2   1 <1>  -0.5700 
 18 C       -7.6830     1.4980     1.4310 C.ar  1 <1>   0.0860 
 19 C       -8.0750     1.9530     0.1660 C.ar  1 <1>  -0.1500 
 20 C       -8.6990     1.2920     2.3720 C.ar  1 <1>  -0.1500 
 21 C       -9.4020     2.1680    -0.1440 C.ar  1 <1>   0.0830 
 22 C      -10.0320     1.5130     2.0750 C.ar  1 <1>  -0.1500 
 23 O       -9.7190     2.5840    -1.3960 O.3   1 <1>  -0.3630 
 24 C      -10.3920     1.9560     0.8160 C.ar  1 <1>   0.0830 
 25 C      -11.0780     2.4790    -1.7820 C.3   1 <1>   0.1200 
 26 O      -11.6960     2.1840     0.5420 O.3   1 <1>  -0.3630 
 27 C      -11.9960     2.9160    -0.6320 C.3   1 <1>   0.1200 
 28 H       -1.1280     2.7900     0.2600 H     1 <1>   0.3700 
 29 H       -2.5350    -1.1460     0.3490 H     1 <1>   0.0800 
 30 H       -3.6950    -0.7600    -0.8950 H     1 <1>   0.0800 
 31 H       -3.8910     1.7340    -1.6220 H     1 <1>   0.0800 
 32 H       -2.8340     2.8950    -0.8770 H     1 <1>   0.0800 
 33 H       -3.7850     0.0830     2.0110 H     1 <1>   0.0800 
 34 H       -4.8420    -1.0660     1.2540 H     1 <1>   0.0800 
 35 H       -5.1200     3.0340     0.0550 H     1 <1>   0.0800 
 36 H       -3.9630     2.6040     1.2770 H     1 <1>   0.0800 
 37 H        1.3590     0.9460    -1.7250 H     1 <1>   0.1500 
 38 H        0.6140     4.1500     0.9820 H     1 <1>   0.1500 
 39 H       -5.7610     0.6570    -0.1890 H     1 <1>   0.0800 
 40 H        3.6750     1.6900    -1.9680 H     1 <1>   0.1500 
 41 H        2.9330     4.9000     0.7320 H     1 <1>   0.1500 
 42 H        4.4730     3.6720    -0.7430 H     1 <1>   0.1500 
 43 H       -7.3520     2.1520    -0.6000 H     1 <1>   0.1500 
 44 H       -8.4310     0.9510     3.3580 H     1 <1>   0.1500 
 45 H      -10.7950     1.3480     2.8140 H     1 <1>   0.1500 
 46 H      -11.2730     1.4540    -2.0460 H     1 <1>   0.0800 
 47 H      -11.2270     3.1000    -2.6470 H     1 <1>   0.0800 
 48 H      -13.0280     2.7400    -0.8770 H     1 <1>   0.0800 
 49 H      -11.8570     3.9610    -0.4180 H     1 <1>   0.0800 
@<TRIPOS>BOND
  1   1   2  2   
  2   2   3  am  
  3   2   4  am  
  4   3   5  1   
  5   3   6  1   
  6   4   7  1   
  7   4  28  1   
  8   5   8  1   
  9   5  29  1   
 10   5  30  1   
 11   6   9  1   
 12   6  31  1   
 13   6  32  1   
 14   7  10  ar  
 15   7  11  ar  
 16   8  12  1   
 17   8  33  1   
 18   8  34  1   
 19   9  12  1   
 20   9  35  1   
 21   9  36  1   
 22  10  13  ar  
 23  10  37  1   
 24  11  14  ar  
 25  11  38  1   
 26  12  15  1   
 27  12  39  1   
 28  13  16  ar  
 29  13  40  1   
 30  14  16  ar  
 31  14  41  1   
 32  15  17  2   
 33  15  18  1   
 34  16  42  1   
 35  18  19  ar  
 36  18  20  ar  
 37  19  21  ar  
 38  19  43  1   
 39  20  22  ar  
 40  20  44  1   
 41  21  23  1   
 42  21  24  ar  
 43  22  24  ar  
 44  22  45  1   
 45  23  25  1   
 46  24  26  1   
 47  25  27  1   
 48  25  46  1   
 49  25  47  1   
 50  26  27  1   
 51  27  48  1   
 52  27  49  1   
@<TRIPOS>SUBSTRUCTURE
  1 ****   9 GROUP 4 **** **** 0

# MOE 2024.06 (io_trps.svl 2023.06)
