@<TRIPOS>MOLECULE
Piperidine-1,3-dicarboxylic acid 1-[(4-fluoro-phenyl)-amide] 3-indan-5-ylamide
52 55 1 0 0 
SMALL
USER_CHARGES


@<TRIPOS>ATOM
  1 F       -2.1190    -0.5390     2.2700 F     1 <1>  -0.1900 
  2 C       -2.9710     0.2390     1.6550 C.ar  1 <1>   0.1900 
  3 C       -3.3830    -0.0990     0.3800 C.ar  1 <1>  -0.1500 
  4 C       -3.4310     1.3700     2.3010 C.ar  1 <1>  -0.1500 
  5 C       -4.2860     0.7290    -0.2640 C.ar  1 <1>  -0.1500 
  6 C       -4.3350     2.1870     1.6430 C.ar  1 <1>  -0.1500 
  7 C       -4.7710     1.8810     0.3540 C.ar  1 <1>   0.1170 
  8 N       -5.6940     2.6760    -0.3400 N.am  1 <1>  -0.5470 
  9 C       -6.0040     4.0020    -0.2330 C.2   1 <1>   0.6900 
 10 O       -5.3550     4.7420     0.4810 O.2   1 <1>  -0.5700 
 11 N       -7.0540     4.4940    -0.9680 N.am  1 <1>  -0.6600 
 12 C       -8.2220     3.6760    -1.4090 C.3   1 <1>   0.1400 
 13 C       -7.2280     5.9590    -1.1720 C.3   1 <1>   0.1400 
 14 C       -9.4830     4.1200    -0.6490 C.3   1 <1>  -0.0190 
 15 C       -8.4800     6.4380    -0.4290 C.3   1 <1>  -0.1600 
 16 C      -10.6970     3.3090    -1.0850 C.2   1 <1>   0.5690 
 17 C       -9.7250     5.6320    -0.8300 C.3   1 <1>  -0.1600 
 18 O      -10.7220     2.8490    -2.2000 O.2   1 <1>  -0.5700 
 19 N      -11.7070     3.1590    -0.1740 N.am  1 <1>  -0.5470 
 20 C      -12.9330     2.4770    -0.2420 C.ar  1 <1>   0.1170 
 21 C      -13.9110     2.7890     0.6990 C.ar  1 <1>  -0.1500 
 22 C      -13.2130     1.4940    -1.1930 C.ar  1 <1>  -0.1500 
 23 C      -15.1270     2.1340     0.6760 C.ar  1 <1>  -0.1430 
 24 C      -14.4340     0.8420    -1.2120 C.ar  1 <1>  -0.1500 
 25 C      -15.3860     1.1730    -0.2670 C.ar  1 <1>  -0.1430 
 26 C      -16.3070     2.3280     1.5960 C.3   1 <1>  -0.0170 
 27 C      -16.7710     0.5970    -0.1020 C.3   1 <1>  -0.0170 
 28 C      -17.2150     1.1290     1.2720 C.3   1 <1>  -0.1600 
 29 H       -3.0020    -0.9870    -0.0900 H     1 <1>   0.1500 
 30 H       -3.0890     1.6030     3.2930 H     1 <1>   0.1500 
 31 H       -4.6130     0.4800    -1.2580 H     1 <1>   0.1500 
 32 H       -4.7020     3.0680     2.1380 H     1 <1>   0.1500 
 33 H       -6.1160     2.2490    -1.1560 H     1 <1>   0.3700 
 34 H       -8.0560     2.6290    -1.2290 H     1 <1>   0.0800 
 35 H       -8.3650     3.8140    -2.4680 H     1 <1>   0.0800 
 36 H       -7.3310     6.1540    -2.2260 H     1 <1>   0.0800 
 37 H       -6.3650     6.4980    -0.8200 H     1 <1>   0.0800 
 38 H       -9.3120     3.9190     0.3930 H     1 <1>   0.0800 
 39 H       -8.6380     7.4810    -0.6410 H     1 <1>   0.0800 
 40 H       -8.3050     6.3440     0.6290 H     1 <1>   0.0800 
 41 H      -10.5650     5.9470    -0.2350 H     1 <1>   0.0800 
 42 H       -9.9600     5.8310    -1.8630 H     1 <1>   0.0800 
 43 H      -11.5680     3.6580     0.7010 H     1 <1>   0.3700 
 44 H      -13.7280     3.5400     1.4440 H     1 <1>   0.1500 
 45 H      -12.4760     1.2270    -1.9260 H     1 <1>   0.1500 
 46 H      -14.6380     0.0880    -1.9520 H     1 <1>   0.1500 
 47 H      -16.8000     3.2530     1.3560 H     1 <1>   0.0800 
 48 H      -16.0080     2.3290     2.6300 H     1 <1>   0.0800 
 49 H      -16.7570    -0.4780    -0.1250 H     1 <1>   0.0800 
 50 H      -17.4090     0.9740    -0.8810 H     1 <1>   0.0800 
 51 H      -18.2550     1.4020     1.2770 H     1 <1>   0.0800 
 52 H      -17.0500     0.3620     2.0080 H     1 <1>   0.0800 
@<TRIPOS>BOND
  1   1   2  1   
  2   2   3  ar  
  3   2   4  ar  
  4   3   5  ar  
  5   3  29  1   
  6   4   6  ar  
  7   4  30  1   
  8   5   7  ar  
  9   5  31  1   
 10   6   7  ar  
 11   6  32  1   
 12   7   8  1   
 13   8   9  am  
 14   8  33  1   
 15   9  10  2   
 16   9  11  am  
 17  11  12  1   
 18  11  13  1   
 19  12  14  1   
 20  12  34  1   
 21  12  35  1   
 22  13  15  1   
 23  13  36  1   
 24  13  37  1   
 25  14  16  1   
 26  14  17  1   
 27  14  38  1   
 28  15  17  1   
 29  15  39  1   
 30  15  40  1   
 31  16  18  2   
 32  16  19  am  
 33  17  41  1   
 34  17  42  1   
 35  19  20  1   
 36  19  43  1   
 37  20  21  ar  
 38  20  22  ar  
 39  21  23  ar  
 40  21  44  1   
 41  22  24  ar  
 42  22  45  1   
 43  23  25  ar  
 44  23  26  1   
 45  24  25  ar  
 46  24  46  1   
 47  25  27  1   
 48  26  28  1   
 49  26  47  1   
 50  26  48  1   
 51  27  28  1   
 52  27  49  1   
 53  27  50  1   
 54  28  51  1   
 55  28  52  1   
@<TRIPOS>SUBSTRUCTURE
  1 ****  14 GROUP 4 **** **** 0

# MOE 2024.06 (io_trps.svl 2023.06)
