@<TRIPOS>MOLECULE
NONAME
53 55 1 0 0 
SMALL
USER_CHARGES


@<TRIPOS>ATOM
  1 CL      -0.9360    -0.6770    -0.4630 Cl    1 <1>  -0.1840 
  2 C       -2.0010     0.7010    -0.3980 C.ar  1 <1>   0.1700 
  3 C       -2.1870     1.3590     0.8020 C.ar  1 <1>  -0.1570 
  4 C       -2.6500     1.1110    -1.5460 C.ar  1 <1>  -0.1570 
  5 C       -3.0460     2.4430     0.8560 C.ar  1 <1>  -0.1570 
  6 C       -3.5090     2.1950    -1.4900 C.ar  1 <1>  -0.1570 
  7 C       -3.7170     2.8600    -0.2870 C.ar  1 <1>  -0.1510 
  8 C       -4.7080     4.0110    -0.2150 C.3   1 <1>   0.4930 
  9 N       -6.0930     3.5130     0.0330 N.pl3 1 <1>  -0.7670 
 10 C       -6.5890     2.2940     0.2770 C.cat 1 <1>   1.0690 
 11 C       -7.1900     4.4000     0.0430 C.2   1 <1>   0.2710 
 12 N       -7.9030     2.3670     0.4280 N.pl3 1 <1>  -0.7040 
 13 N       -5.9040     1.1530     0.3540 N.pl3 1 <1>  -0.7180 
 14 C       -7.3440     5.8110    -0.1400 C.2   1 <1>   0.6990 
 15 C       -8.2870     3.6570     0.2840 C.2   1 <1>   0.4210 
 16 C       -6.4030    -0.1880     0.7590 C.3   1 <1>   0.1610 
 17 O       -6.3750     6.5170    -0.3660 O.2   1 <1>  -0.5740 
 18 N       -8.6220     6.3490    -0.0550 N.am  1 <1>  -0.4260 
 19 N       -9.5650     4.1710     0.3540 N.am  1 <1>  -0.4410 
 20 C       -7.0730    -0.9170    -0.4200 C.3   1 <1>   0.1330 
 21 C       -9.7310     5.5370     0.1690 C.2   1 <1>   0.6860 
 22 C       -8.8310     7.8190    -0.2400 C.3   1 <1>   0.0520 
 23 C      -10.7250     3.2600     0.5940 C.3   1 <1>   0.0520 
 24 N       -8.2910    -1.6360     0.0280 N.am  1 <1>  -0.7340 
 25 O      -10.8420     6.0250     0.1960 O.2   1 <1>  -0.5740 
 26 C       -9.4440    -1.0470     0.4350 C.2   1 <1>   0.5650 
 27 O       -9.5230     0.1520     0.5720 O.2   1 <1>  -0.5740 
 28 C      -10.6450    -1.9230     0.7340 C.3   1 <1>  -0.1060 
 29 C      -11.2680    -2.5280    -0.5340 C.3   1 <1>  -0.2470 
 30 H       -1.6590     1.0240     1.6800 H     1 <1>   0.1430 
 31 H       -2.4770     0.5870    -2.4710 H     1 <1>   0.1430 
 32 H       -3.1830     2.9540     1.7970 H     1 <1>   0.1430 
 33 H       -4.0090     2.5120    -2.3920 H     1 <1>   0.1430 
 34 H       -4.6850     4.5600    -1.1420 H     1 <1>   0.0720 
 35 H       -4.4240     4.6880     0.5730 H     1 <1>   0.0720 
 36 H       -8.5250     1.5560     0.5670 H     1 <1>   0.4450 
 37 H       -4.8940     1.2140     0.1760 H     1 <1>   0.4450 
 38 H       -7.1050    -0.0690     1.5670 H     1 <1>   0.0720 
 39 H       -5.5810    -0.7800     1.1240 H     1 <1>   0.0720 
 40 H       -6.3840    -1.6210    -0.8550 H     1 <1>   0.0720 
 41 H       -7.3630    -0.2110    -1.1800 H     1 <1>   0.0720 
 42 H       -7.9200     8.3660    -0.0700 H     1 <1>   0.0720 
 43 H       -9.5720     8.1770     0.4550 H     1 <1>   0.0720 
 44 H       -9.1740     8.0110    -1.2410 H     1 <1>   0.0720 
 45 H      -10.5600     2.6820     1.4860 H     1 <1>   0.0720 
 46 H      -10.8420     2.5910    -0.2410 H     1 <1>   0.0720 
 47 H      -11.6380     3.8170     0.7170 H     1 <1>   0.0720 
 48 H       -8.2900    -2.6520    -0.1090 H     1 <1>   0.3640 
 49 H      -11.3870    -1.3320     1.2420 H     1 <1>   0.0720 
 50 H      -10.3450    -2.7120     1.4000 H     1 <1>   0.0720 
 51 H      -11.5840    -1.7450    -1.2020 H     1 <1>   0.0720 
 52 H      -12.1260    -3.1230    -0.2750 H     1 <1>   0.0720 
 53 H      -10.5590    -3.1540    -1.0460 H     1 <1>   0.0720 
@<TRIPOS>BOND
  1   1   2  1   
  2   2   3  ar  
  3   2   4  ar  
  4   3   5  ar  
  5   3  30  1   
  6   4   6  ar  
  7   4  31  1   
  8   5   7  ar  
  9   5  32  1   
 10   6   7  ar  
 11   6  33  1   
 12   7   8  1   
 13   8   9  1   
 14   8  34  1   
 15   8  35  1   
 16   9  10  ar  
 17   9  11  1   
 18  10  12  ar  
 19  10  13  ar  
 20  11  14  1   
 21  11  15  2   
 22  12  15  1   
 23  12  36  1   
 24  13  16  1   
 25  13  37  1   
 26  14  17  2   
 27  14  18  am  
 28  15  19  1   
 29  16  20  1   
 30  16  38  1   
 31  16  39  1   
 32  18  21  am  
 33  18  22  1   
 34  19  21  am  
 35  19  23  1   
 36  20  24  1   
 37  20  40  1   
 38  20  41  1   
 39  21  25  2   
 40  22  42  1   
 41  22  43  1   
 42  22  44  1   
 43  23  45  1   
 44  23  46  1   
 45  23  47  1   
 46  24  26  am  
 47  24  48  1   
 48  26  27  2   
 49  26  28  1   
 50  28  29  1   
 51  28  49  1   
 52  28  50  1   
 53  29  51  1   
 54  29  52  1   
 55  29  53  1   
@<TRIPOS>SUBSTRUCTURE
  1 ****  10 GROUP 4 **** **** 0

# MOE 2024.06 (io_trps.svl 2023.06)
