@<TRIPOS>MOLECULE
NONAME
25 25 1 0 0 
SMALL
USER_CHARGES


@<TRIPOS>ATOM
  1 O       -0.7760    -1.5240    -0.5810 O.3   1 <1>  -0.6800 
  2 C       -1.6230    -0.5280    -1.0770 C.3   1 <1>   0.1200 
  3 C       -2.4850     0.1630     0.0310 C.3   1 <1>   0.5030 
  4 N       -3.4550    -0.7330     0.7210 N.4   1 <1>  -0.9590 
  5 C       -3.4220     1.1830    -0.6210 C.3   1 <1>  -0.1600 
  6 C       -1.5980     0.8290     1.0860 C.3   1 <1>  -0.2400 
  7 C       -4.6180    -0.8990    -0.1850 C.3   1 <1>   0.3430 
  8 C       -2.9170    -2.0380     1.2220 C.3   1 <1>   0.2630 
  9 C       -4.6960     0.4060    -0.9700 C.3   1 <1>  -0.1600 
 10 H       -0.1440    -1.8270    -1.2680 H     1 <1>   0.4000 
 11 H       -1.0000     0.2110    -1.5510 H     1 <1>   0.0800 
 12 H       -2.2530    -0.9700    -1.8280 H     1 <1>   0.0800 
 13 H       -3.7760    -0.1920     1.5320 H     1 <1>   0.4500 
 14 H       -3.6660     1.9620     0.0820 H     1 <1>   0.0800 
 15 H       -2.9820     1.6480    -1.4860 H     1 <1>   0.0800 
 16 H       -0.9700     1.5660     0.6200 H     1 <1>   0.0800 
 17 H       -0.9560     0.1050     1.5560 H     1 <1>   0.0800 
 18 H       -2.1850     1.3200     1.8410 H     1 <1>   0.0800 
 19 H       -4.4400    -1.7190    -0.8630 H     1 <1>   0.0800 
 20 H       -5.5240    -1.0850     0.3690 H     1 <1>   0.0800 
 21 H       -2.6280    -2.6650     0.3940 H     1 <1>   0.0800 
 22 H       -3.6620    -2.5550     1.8040 H     1 <1>   0.0800 
 23 H       -2.0490    -1.8710     1.8370 H     1 <1>   0.0800 
 24 H       -4.7440     0.1890    -2.0230 H     1 <1>   0.0800 
 25 H       -5.5770     0.9630    -0.6970 H     1 <1>   0.0800 
@<TRIPOS>BOND
  1   1   2  1   
  2   1  10  1   
  3   2   3  1   
  4   2  11  1   
  5   2  12  1   
  6   3   4  1   
  7   3   5  1   
  8   3   6  1   
  9   4   7  1   
 10   4   8  1   
 11   4  13  1   
 12   5   9  1   
 13   5  14  1   
 14   5  15  1   
 15   6  16  1   
 16   6  17  1   
 17   6  18  1   
 18   7   9  1   
 19   7  19  1   
 20   7  20  1   
 21   8  21  1   
 22   8  22  1   
 23   8  23  1   
 24   9  24  1   
 25   9  25  1   
@<TRIPOS>SUBSTRUCTURE
  1 ****   3 GROUP 4 **** **** 0

# MOE 2024.06 (io_trps.svl 2023.06)
