@<TRIPOS>MOLECULE
NONAME
36 36 1 0 0 
SMALL
USER_CHARGES


@<TRIPOS>ATOM
  1 O       -1.2800    -0.5130     0.6840 O.2   1 <1>  -0.5700 
  2 C       -2.3980    -0.9430     0.4800 C.2   1 <1>   0.6340 
  3 O       -2.5960    -2.2660     0.5110 O.3   1 <1>  -0.4300 
  4 C       -3.5380    -0.0920     0.2020 C.ar  1 <1>   0.0860 
  5 C       -1.5640    -3.1940     0.7530 C.3   1 <1>   0.2000 
  6 C       -3.4130     1.3000     0.1860 C.ar  1 <1>  -0.1500 
  7 C       -4.8100    -0.6120    -0.0610 C.ar  1 <1>  -0.1500 
  8 C       -0.8590    -3.4900    -0.5710 C.3   1 <1>  -0.2400 
  9 C       -2.2130    -4.4490     1.3310 C.3   1 <1>  -0.2400 
 10 C       -4.4920     2.1220    -0.0740 C.ar  1 <1>  -0.1500 
 11 C       -5.8900     0.2090    -0.3220 C.ar  1 <1>  -0.1500 
 12 C       -5.7490     1.5920    -0.3310 C.ar  1 <1>   0.1170 
 13 N       -6.7950     2.4760    -0.5860 N.am  1 <1>  -0.5470 
 14 C       -8.1520     2.3560    -0.5490 C.2   1 <1>   0.5690 
 15 O       -8.7310     1.3140    -0.3470 O.2   1 <1>  -0.5700 
 16 C       -8.9770     3.6120    -0.7970 C.3   1 <1>  -0.0990 
 17 C       -8.7900     4.7270     0.2620 C.3   1 <1>  -0.2660 
 18 C       -7.4020     5.3270     0.3280 C.2   1 <1>   0.9060 
 19 O       -7.0640     5.9100     1.3560 O.co2 1 <1>  -0.9000 
 20 O       -6.6390     5.1880    -0.6360 O.co2 1 <1>  -0.9000 
 21 H       -0.8760    -2.7770     1.4700 H     1 <1>   0.0800 
 22 H       -2.4520     1.7430     0.3840 H     1 <1>   0.1500 
 23 H       -4.9580    -1.6770    -0.0610 H     1 <1>   0.1500 
 24 H       -0.3980    -2.5950    -0.9510 H     1 <1>   0.0800 
 25 H       -1.5580    -3.8690    -1.2950 H     1 <1>   0.0800 
 26 H       -0.0880    -4.2230    -0.4180 H     1 <1>   0.0800 
 27 H       -2.9220    -4.8600     0.6350 H     1 <1>   0.0800 
 28 H       -1.4610    -5.1890     1.5350 H     1 <1>   0.0800 
 29 H       -2.7130    -4.2100     2.2520 H     1 <1>   0.0800 
 30 H       -4.3730     3.1940    -0.0740 H     1 <1>   0.1500 
 31 H       -6.8530    -0.2250    -0.5220 H     1 <1>   0.1500 
 32 H       -6.5020     3.4690    -0.6960 H     1 <1>   0.3700 
 33 H      -10.0140     3.3330    -0.8250 H     1 <1>   0.0800 
 34 H       -8.7200     3.9980    -1.7670 H     1 <1>   0.0800 
 35 H       -9.0220     4.3380     1.2360 H     1 <1>   0.0800 
 36 H       -9.4670     5.5320     0.0570 H     1 <1>   0.0800 
@<TRIPOS>BOND
  1   1   2  2   
  2   2   3  1   
  3   2   4  1   
  4   3   5  1   
  5   4   6  ar  
  6   4   7  ar  
  7   5   8  1   
  8   5   9  1   
  9   5  21  1   
 10   6  10  ar  
 11   6  22  1   
 12   7  11  ar  
 13   7  23  1   
 14   8  24  1   
 15   8  25  1   
 16   8  26  1   
 17   9  27  1   
 18   9  28  1   
 19   9  29  1   
 20  10  12  ar  
 21  10  30  1   
 22  11  12  ar  
 23  11  31  1   
 24  12  13  1   
 25  13  14  am  
 26  13  32  1   
 27  14  15  2   
 28  14  16  1   
 29  16  17  1   
 30  16  33  1   
 31  16  34  1   
 32  17  18  1   
 33  17  35  1   
 34  17  36  1   
 35  18  19  ar  
 36  18  20  ar  
@<TRIPOS>SUBSTRUCTURE
  1 ****  12 GROUP 4 **** **** 0

# MOE 2024.06 (io_trps.svl 2023.06)
