@<TRIPOS>MOLECULE
NONAME
39 41 1 0 0 
SMALL
USER_CHARGES


@<TRIPOS>ATOM
  1 O       -0.2910    -2.1570     2.6960 O.2   1 <1>  -0.5700 
  2 C        0.0410    -3.0270     1.9310 C.2   1 <1>   0.5690 
  3 N        1.2690    -3.5760     2.0750 N.am  1 <1>  -0.7300 
  4 C       -0.9130    -3.4850     0.8220 C.3   1 <1>  -0.0190 
  5 C        1.9290    -4.6060     1.2430 C.3   1 <1>   0.3200 
  6 C       -1.8400    -2.3540     0.3350 C.3   1 <1>  -0.1600 
  7 C       -1.7620    -4.6830     1.2820 C.3   1 <1>  -0.1600 
  8 C        2.5800    -3.9790     0.0220 C.2   1 <1>  -0.0400 
  9 C       -2.7920    -2.8320    -0.7650 C.3   1 <1>   0.2090 
 10 C       -2.6980    -5.1620     0.1710 C.3   1 <1>   0.2090 
 11 O        3.1750    -4.7770    -0.8430 O.3   1 <1>  -0.2800 
 12 C        2.6740    -2.6930    -0.3840 C.2   1 <1>  -0.1500 
 13 N       -3.5430    -4.0260    -0.2880 N.pl3 1 <1>  -0.8380 
 14 C        3.6610    -4.0270    -1.8120 C.2   1 <1>  -0.0100 
 15 C        3.3850    -2.7240    -1.5900 C.2   1 <1>  -0.1500 
 16 C       -4.9230    -4.0830    -0.2940 C.ar  1 <1>   0.7200 
 17 N       -5.5000    -4.9930     0.4920 N.ar  1 <1>  -0.6200 
 18 N       -5.5650    -3.2240    -1.0870 N.ar  1 <1>  -0.6200 
 19 C       -6.8090    -5.0320     0.4800 C.ar  1 <1>   0.1600 
 20 C       -6.8730    -3.2870    -1.0800 C.ar  1 <1>   0.1600 
 21 C       -7.5570    -4.1870    -0.3020 C.ar  1 <1>  -0.1500 
 22 H        1.8490    -3.1570     2.8030 H     1 <1>   0.3700 
 23 H       -0.3240    -3.7900    -0.0220 H     1 <1>   0.0800 
 24 H        1.2090    -5.3390     0.9250 H     1 <1>   0.0800 
 25 H        2.6800    -5.1080     1.8280 H     1 <1>   0.0800 
 26 H       -1.2510    -1.5360    -0.0370 H     1 <1>   0.0800 
 27 H       -2.4300    -1.9850     1.1560 H     1 <1>   0.0800 
 28 H       -2.3560    -4.4020     2.1350 H     1 <1>   0.0800 
 29 H       -1.1260    -5.4960     1.5800 H     1 <1>   0.0800 
 30 H       -2.2370    -3.0980    -1.6480 H     1 <1>   0.0800 
 31 H       -3.4570    -2.0260    -1.0200 H     1 <1>   0.0800 
 32 H       -3.2960    -5.9800     0.5320 H     1 <1>   0.0800 
 33 H       -2.1220    -5.5230    -0.6630 H     1 <1>   0.0800 
 34 H        2.2950    -1.8060     0.0940 H     1 <1>   0.1500 
 35 H        4.1890    -4.5000    -2.6210 H     1 <1>   0.1500 
 36 H        3.6430    -1.8680    -2.1880 H     1 <1>   0.1500 
 37 H       -7.2970    -5.7560     1.1090 H     1 <1>   0.1500 
 38 H       -7.4130    -2.6030    -1.7120 H     1 <1>   0.1500 
 39 H       -8.6300    -4.2280    -0.3040 H     1 <1>   0.1500 
@<TRIPOS>BOND
  1   1   2  2   
  2   2   3  am  
  3   2   4  1   
  4   3   5  1   
  5   3  22  1   
  6   4   6  1   
  7   4   7  1   
  8   4  23  1   
  9   5   8  1   
 10   5  24  1   
 11   5  25  1   
 12   6   9  1   
 13   6  26  1   
 14   6  27  1   
 15   7  10  1   
 16   7  28  1   
 17   7  29  1   
 18   8  11  1   
 19   8  12  2   
 20   9  13  1   
 21   9  30  1   
 22   9  31  1   
 23  10  13  1   
 24  10  32  1   
 25  10  33  1   
 26  11  14  1   
 27  12  15  1   
 28  12  34  1   
 29  13  16  1   
 30  14  15  2   
 31  14  35  1   
 32  15  36  1   
 33  16  17  ar  
 34  16  18  ar  
 35  17  19  ar  
 36  18  20  ar  
 37  19  21  ar  
 38  19  37  1   
 39  20  21  ar  
 40  20  38  1   
 41  21  39  1   
@<TRIPOS>SUBSTRUCTURE
  1 ****   4 GROUP 4 **** **** 0

# MOE 2024.06 (io_trps.svl 2023.06)
