@<TRIPOS>MOLECULE
1-(4-Methoxy-6-methyl-pyrimidin-2-yl)-piperidine-3-carboxylic acid (furan-2-ylmethyl)-amide
46 48 1 0 0 
SMALL
USER_CHARGES


@<TRIPOS>ATOM
  1 O        0.3080    -2.3910     2.3970 O.2   1 <1>  -0.5700 
  2 C       -0.0500    -2.6970     1.2850 C.2   1 <1>   0.5690 
  3 N        0.7910    -2.6130     0.2270 N.am  1 <1>  -0.7300 
  4 C       -1.4680    -3.1930     1.0570 C.3   1 <1>  -0.0190 
  5 C        2.1740    -2.1140     0.2940 C.3   1 <1>   0.3200 
  6 C       -2.4650    -2.1620     1.5920 C.3   1 <1>   0.2090 
  7 C       -1.7050    -4.5720     1.7110 C.3   1 <1>  -0.1600 
  8 C        2.5220    -1.4660    -1.0330 C.2   1 <1>  -0.0400 
  9 N       -3.8530    -2.6560     1.3530 N.pl3 1 <1>  -0.8380 
 10 C       -3.1710    -5.0120     1.5510 C.3   1 <1>  -0.1600 
 11 O        2.4800    -2.1950    -2.1330 O.3   1 <1>  -0.2800 
 12 C        2.8890    -0.1980    -1.3210 C.2   1 <1>  -0.1500 
 13 C       -4.6480    -2.1680     0.3350 C.ar  1 <1>   0.7200 
 14 C       -4.1540    -3.9410     2.0400 C.3   1 <1>   0.2090 
 15 C        2.8190    -1.4150    -3.1410 C.2   1 <1>  -0.0100 
 16 C        3.0850    -0.1650    -2.7080 C.2   1 <1>  -0.1500 
 17 N       -5.9310    -2.5020     0.3630 N.ar  1 <1>  -0.6200 
 18 N       -4.0510    -1.4140    -0.5870 N.ar  1 <1>  -0.6200 
 19 C       -6.6710    -2.0330    -0.6080 C.ar  1 <1>   0.3930 
 20 C       -4.8090    -0.9530    -1.5490 C.ar  1 <1>   0.1670 
 21 O       -7.9700    -2.3870    -0.5570 O.3   1 <1>  -0.3620 
 22 C       -6.1480    -1.2370    -1.6090 C.ar  1 <1>  -0.1500 
 23 C       -4.1350    -0.0920    -2.5950 C.3   1 <1>  -0.0970 
 24 C       -8.9230    -1.9520    -1.5000 C.3   1 <1>   0.0400 
 25 H        0.4830    -2.8430    -0.7200 H     1 <1>   0.3700 
 26 H       -1.6320    -3.2780    -0.0010 H     1 <1>   0.0800 
 27 H        2.8410    -2.9370     0.4810 H     1 <1>   0.0800 
 28 H        2.2700    -1.4000     1.0940 H     1 <1>   0.0800 
 29 H       -2.3040    -1.2090     1.1190 H     1 <1>   0.0800 
 30 H       -2.3200    -2.0270     2.6500 H     1 <1>   0.0800 
 31 H       -1.4670    -4.5100     2.7600 H     1 <1>   0.0800 
 32 H       -1.0530    -5.3030     1.2650 H     1 <1>   0.0800 
 33 H       -3.3380    -5.9220     2.0980 H     1 <1>   0.0800 
 34 H       -3.3780    -5.2110     0.5140 H     1 <1>   0.0800 
 35 H        3.0140     0.6380    -0.6550 H     1 <1>   0.1500 
 36 H       -5.1630    -4.2640     1.8500 H     1 <1>   0.0800 
 37 H       -4.0490    -3.8010     3.1020 H     1 <1>   0.0800 
 38 H        2.8460    -1.8310    -4.1330 H     1 <1>   0.1500 
 39 H        3.3850     0.6970    -3.2770 H     1 <1>   0.1500 
 40 H       -6.7520    -0.8520    -2.4030 H     1 <1>   0.1500 
 41 H       -3.3550    -0.6540    -3.0750 H     1 <1>   0.0800 
 42 H       -3.6980     0.7690    -2.1220 H     1 <1>   0.0800 
 43 H       -4.8360     0.2380    -3.3390 H     1 <1>   0.0800 
 44 H       -9.8770    -2.3640    -1.2220 H     1 <1>   0.0800 
 45 H       -8.6410    -2.3100    -2.4740 H     1 <1>   0.0800 
 46 H       -8.9710    -0.8770    -1.4800 H     1 <1>   0.0800 
@<TRIPOS>BOND
  1   1   2  2   
  2   2   3  am  
  3   2   4  1   
  4   3   5  1   
  5   3  25  1   
  6   4   6  1   
  7   4   7  1   
  8   4  26  1   
  9   5   8  1   
 10   5  27  1   
 11   5  28  1   
 12   6   9  1   
 13   6  29  1   
 14   6  30  1   
 15   7  10  1   
 16   7  31  1   
 17   7  32  1   
 18   8  11  1   
 19   8  12  2   
 20   9  13  1   
 21   9  14  1   
 22  10  14  1   
 23  10  33  1   
 24  10  34  1   
 25  11  15  1   
 26  12  16  1   
 27  12  35  1   
 28  13  17  ar  
 29  13  18  ar  
 30  14  36  1   
 31  14  37  1   
 32  15  16  2   
 33  15  38  1   
 34  16  39  1   
 35  17  19  ar  
 36  18  20  ar  
 37  19  21  1   
 38  19  22  ar  
 39  20  22  ar  
 40  20  23  1   
 41  21  24  1   
 42  22  40  1   
 43  23  41  1   
 44  23  42  1   
 45  23  43  1   
 46  24  44  1   
 47  24  45  1   
 48  24  46  1   
@<TRIPOS>SUBSTRUCTURE
  1 ****   4 GROUP 4 **** **** 0

# MOE 2024.06 (io_trps.svl 2023.06)
