@<TRIPOS>MOLECULE
(3-Oxo-3,4-dihydro-2H-benzo[1,4]thiazin-2-yl)-acetic acid 1-cyclopentylcarbamoyl-3-methyl-butyl ester
56 58 1 0 0 
SMALL
USER_CHARGES


@<TRIPOS>ATOM
  1 S        0.9460    -0.5480    -1.3910 S.3   1 <1>  -0.3320 
  2 C        0.1570    -0.6060     0.2260 C.ar  1 <1>   0.1020 
  3 C        2.6270    -1.2620    -1.0710 C.3   1 <1>   0.2110 
  4 C        0.6240    -1.4820     1.2070 C.ar  1 <1>   0.1170 
  5 C       -0.9150     0.2360     0.4490 C.ar  1 <1>  -0.1500 
  6 C        2.5590    -2.4050    -0.0560 C.2   1 <1>   0.5690 
  7 C        3.5170    -0.1060    -0.6050 C.3   1 <1>  -0.0990 
  8 N        1.6820    -2.3740     0.9810 N.am  1 <1>  -0.5470 
  9 C       -0.0150    -1.4740     2.4400 C.ar  1 <1>  -0.1500 
 10 C       -1.5380     0.2260     1.6860 C.ar  1 <1>  -0.1500 
 11 O        3.3290    -3.3270    -0.1590 O.2   1 <1>  -0.5700 
 12 C        4.8800    -0.6220    -0.2200 C.2   1 <1>   0.6590 
 13 C       -1.0840    -0.6270     2.6790 C.ar  1 <1>  -0.1500 
 14 O        5.2950    -0.5170     0.9050 O.2   1 <1>  -0.5700 
 15 O        5.5610    -1.2160    -1.1860 O.3   1 <1>  -0.4300 
 16 C        6.8110    -1.8460    -0.9480 C.3   1 <1>   0.2610 
 17 C        7.9330    -0.7910    -0.8680 C.2   1 <1>   0.5690 
 18 C        6.9860    -2.9190    -2.0390 C.3   1 <1>  -0.1600 
 19 O        8.6900    -0.6140    -1.7960 O.2   1 <1>  -0.5700 
 20 N        8.0290    -0.0520     0.2680 N.am  1 <1>  -0.7300 
 21 C        8.2230    -3.8230    -1.8560 C.3   1 <1>  -0.0800 
 22 C        8.9660     1.0520     0.5110 C.3   1 <1>   0.2200 
 23 C        8.3200    -4.8010    -3.0320 C.3   1 <1>  -0.2400 
 24 C        8.1760    -4.6110    -0.5390 C.3   1 <1>  -0.2400 
 25 C        9.4860     0.9400     1.9390 C.3   1 <1>  -0.1600 
 26 C        8.1800     2.3560     0.5290 C.3   1 <1>  -0.1600 
 27 C        8.3890     1.5360     2.8290 C.3   1 <1>  -0.1600 
 28 C        7.5380     2.4320     1.9190 C.3   1 <1>  -0.1600 
 29 H        2.9770    -1.6480    -2.0120 H     1 <1>   0.0800 
 30 H       -1.2570     0.8910    -0.3320 H     1 <1>   0.1500 
 31 H        3.0760     0.3750     0.2490 H     1 <1>   0.0800 
 32 H        3.6250     0.6150    -1.3930 H     1 <1>   0.0800 
 33 H        1.7920    -3.1520     1.6320 H     1 <1>   0.3700 
 34 H        0.3230    -2.1320     3.2210 H     1 <1>   0.1500 
 35 H       -2.3730     0.8800     1.8740 H     1 <1>   0.1500 
 36 H       -1.5690    -0.6310     3.6410 H     1 <1>   0.1500 
 37 H        6.7400    -2.3380     0.0050 H     1 <1>   0.0800 
 38 H        7.0590    -2.4220    -2.9900 H     1 <1>   0.0800 
 39 H        6.1050    -3.5380    -2.0500 H     1 <1>   0.0800 
 40 H        7.2680    -0.1190     0.9560 H     1 <1>   0.3700 
 41 H        9.1120    -3.2140    -1.8600 H     1 <1>   0.0800 
 42 H        9.7570     1.0530    -0.2220 H     1 <1>   0.0800 
 43 H        7.4570    -5.4420    -3.0670 H     1 <1>   0.0800 
 44 H        9.2000    -5.4130    -2.9370 H     1 <1>   0.0800 
 45 H        8.3860    -4.2610    -3.9600 H     1 <1>   0.0800 
 46 H        7.2630    -5.1770    -0.4670 H     1 <1>   0.0800 
 47 H        8.2460    -3.9530     0.3070 H     1 <1>   0.0800 
 48 H        9.0050    -5.2950    -0.4880 H     1 <1>   0.0800 
 49 H       10.3730     1.5430     2.0250 H     1 <1>   0.0800 
 50 H        9.7320    -0.0740     2.2030 H     1 <1>   0.0800 
 51 H        7.4580     2.4050    -0.2670 H     1 <1>   0.0800 
 52 H        8.8720     3.1720     0.4160 H     1 <1>   0.0800 
 53 H        8.8180     2.0950     3.6430 H     1 <1>   0.0800 
 54 H        7.7760     0.7490     3.2340 H     1 <1>   0.0800 
 55 H        6.5320     2.0490     1.8770 H     1 <1>   0.0800 
 56 H        7.5090     3.4470     2.2760 H     1 <1>   0.0800 
@<TRIPOS>BOND
  1   1   2  1   
  2   1   3  1   
  3   2   4  ar  
  4   2   5  ar  
  5   3   6  1   
  6   3   7  1   
  7   3  29  1   
  8   4   8  1   
  9   4   9  ar  
 10   5  10  ar  
 11   5  30  1   
 12   6   8  am  
 13   6  11  2   
 14   7  12  1   
 15   7  31  1   
 16   7  32  1   
 17   8  33  1   
 18   9  13  ar  
 19   9  34  1   
 20  10  13  ar  
 21  10  35  1   
 22  12  14  2   
 23  12  15  1   
 24  13  36  1   
 25  15  16  1   
 26  16  17  1   
 27  16  18  1   
 28  16  37  1   
 29  17  19  2   
 30  17  20  am  
 31  18  21  1   
 32  18  38  1   
 33  18  39  1   
 34  20  22  1   
 35  20  40  1   
 36  21  23  1   
 37  21  24  1   
 38  21  41  1   
 39  22  25  1   
 40  22  26  1   
 41  22  42  1   
 42  23  43  1   
 43  23  44  1   
 44  23  45  1   
 45  24  46  1   
 46  24  47  1   
 47  24  48  1   
 48  25  27  1   
 49  25  49  1   
 50  25  50  1   
 51  26  28  1   
 52  26  51  1   
 53  26  52  1   
 54  27  28  1   
 55  27  53  1   
 56  27  54  1   
 57  28  55  1   
 58  28  56  1   
@<TRIPOS>SUBSTRUCTURE
  1 ****  12 GROUP 4 **** **** 0

# MOE 2024.06 (io_trps.svl 2023.06)
