@<TRIPOS>MOLECULE
NONAME
55 58 1 0 0 
SMALL
USER_CHARGES


@<TRIPOS>ATOM
  1 S       -0.5380     0.4240     2.4000 S.o2  1 <1>   1.4470 
  2 O       -1.0720     1.5270     3.1650 O.2   1 <1>  -0.6500 
  3 O       -0.0870    -0.7710     3.0780 O.2   1 <1>  -0.6500 
  4 N       -1.8150    -0.1050     1.4100 N.am  1 <1>  -0.8490 
  5 C        0.6950     1.0170     1.2100 C.ar  1 <1>  -0.0090 
  6 C       -3.0350    -0.3040     2.2100 C.3   1 <1>   0.1960 
  7 C       -1.4730    -1.3240     0.6560 C.3   1 <1>   0.1960 
  8 C        1.8000     0.2390     0.8780 C.ar  1 <1>  -0.1500 
  9 C        0.5440     2.2470     0.5760 C.ar  1 <1>  -0.1500 
 10 C       -4.2240    -0.7730     1.3450 C.3   1 <1>   0.3430 
 11 C       -2.6440    -1.7960    -0.2330 C.3   1 <1>   0.3430 
 12 C        2.7180     0.6700    -0.0620 C.ar  1 <1>   0.0830 
 13 C        1.4640     2.6950    -0.3580 C.ar  1 <1>  -0.1500 
 14 N       -3.9180    -2.0250     0.5500 N.4   1 <1>  -0.9590 
 15 O        3.7620    -0.1390    -0.3720 O.3   1 <1>  -0.3620 
 16 C        2.5570     1.9110    -0.6770 C.ar  1 <1>   0.0830 
 17 C       -5.0390    -2.4980    -0.3330 C.3   1 <1>   0.4230 
 18 C        4.5150     0.1910    -1.5260 C.3   1 <1>   0.1200 
 19 O        3.4570     2.3690    -1.5800 O.3   1 <1>  -0.3630 
 20 C       -6.4030    -2.3620     0.3790 C.3   1 <1>  -0.1600 
 21 C       -4.7400    -3.9470    -0.7720 C.3   1 <1>  -0.1600 
 22 C        4.7090     1.7110    -1.6240 C.3   1 <1>   0.1200 
 23 C       -7.6280    -2.8930    -0.3870 C.3   1 <1>  -0.1600 
 24 C       -5.5850    -4.3820    -1.9790 C.3   1 <1>  -0.1600 
 25 C       -7.6870    -4.4240    -0.4400 C.3   1 <1>  -0.1600 
 26 C       -6.9180    -5.0480    -1.6130 C.3   1 <1>  -0.1600 
 27 H       -2.8510    -1.0200     2.9940 H     1 <1>   0.0800 
 28 H       -3.3110     0.6260     2.6800 H     1 <1>   0.0800 
 29 H       -1.2010    -2.1200     1.3300 H     1 <1>   0.0800 
 30 H       -0.6230    -1.1270     0.0240 H     1 <1>   0.0800 
 31 H        1.9570    -0.7140     1.3530 H     1 <1>   0.1500 
 32 H       -0.3030     2.8670     0.8210 H     1 <1>   0.1500 
 33 H       -4.4880     0.0260     0.6730 H     1 <1>   0.0800 
 34 H       -5.0650    -0.9470     1.9960 H     1 <1>   0.0800 
 35 H       -2.8160    -1.0470    -0.9890 H     1 <1>   0.0800 
 36 H       -2.3420    -2.7000    -0.7320 H     1 <1>   0.0800 
 37 H        1.3430     3.6510    -0.8370 H     1 <1>   0.1500 
 38 H       -3.7440    -2.7790     1.2260 H     1 <1>   0.4500 
 39 H       -5.0670    -1.8780    -1.2160 H     1 <1>   0.0800 
 40 H        3.9830    -0.1730    -2.3870 H     1 <1>   0.0800 
 41 H        5.4620    -0.3120    -1.4570 H     1 <1>   0.0800 
 42 H       -6.6050    -1.3200     0.5440 H     1 <1>   0.0800 
 43 H       -6.3620    -2.8510     1.3370 H     1 <1>   0.0800 
 44 H       -4.8860    -4.6310     0.0460 H     1 <1>   0.0800 
 45 H       -3.7190    -4.0380    -1.0860 H     1 <1>   0.0800 
 46 H        5.1910     1.9760    -2.5480 H     1 <1>   0.0800 
 47 H        5.3030     2.0660    -0.8010 H     1 <1>   0.0800 
 48 H       -7.6800    -2.4760    -1.3790 H     1 <1>   0.0800 
 49 H       -8.5080    -2.5570     0.1370 H     1 <1>   0.0800 
 50 H       -5.0230    -5.0920    -2.5630 H     1 <1>   0.0800 
 51 H       -5.7700    -3.5370    -2.6220 H     1 <1>   0.0800 
 52 H       -8.7180    -4.7250    -0.5320 H     1 <1>   0.0800 
 53 H       -7.3330    -4.8370     0.4890 H     1 <1>   0.0800 
 54 H       -6.7400    -6.0840    -1.3800 H     1 <1>   0.0800 
 55 H       -7.5480    -5.0320    -2.4870 H     1 <1>   0.0800 
@<TRIPOS>BOND
  1   1   2  2   
  2   1   3  2   
  3   1   4  am  
  4   1   5  1   
  5   4   6  1   
  6   4   7  1   
  7   5   8  ar  
  8   5   9  ar  
  9   6  10  1   
 10   6  27  1   
 11   6  28  1   
 12   7  11  1   
 13   7  29  1   
 14   7  30  1   
 15   8  12  ar  
 16   8  31  1   
 17   9  13  ar  
 18   9  32  1   
 19  10  14  1   
 20  10  33  1   
 21  10  34  1   
 22  11  14  1   
 23  11  35  1   
 24  11  36  1   
 25  12  15  1   
 26  12  16  ar  
 27  13  16  ar  
 28  13  37  1   
 29  14  17  1   
 30  14  38  1   
 31  15  18  1   
 32  16  19  1   
 33  17  20  1   
 34  17  21  1   
 35  17  39  1   
 36  18  22  1   
 37  18  40  1   
 38  18  41  1   
 39  19  22  1   
 40  20  23  1   
 41  20  42  1   
 42  20  43  1   
 43  21  24  1   
 44  21  44  1   
 45  21  45  1   
 46  22  46  1   
 47  22  47  1   
 48  23  25  1   
 49  23  48  1   
 50  23  49  1   
 51  24  26  1   
 52  24  50  1   
 53  24  51  1   
 54  25  26  1   
 55  25  52  1   
 56  25  53  1   
 57  26  54  1   
 58  26  55  1   
@<TRIPOS>SUBSTRUCTURE
  1 ****   7 GROUP 4 **** **** 0

# MOE 2024.06 (io_trps.svl 2023.06)
