@<TRIPOS>MOLECULE
NONAME
53 57 1 0 0 
SMALL
USER_CHARGES


@<TRIPOS>ATOM
  1 O       -0.5970    -0.3290     0.8360 O.2   1 <1>  -0.5700 
  2 C        0.0680     0.6270     0.5210 C.2   1 <1>   0.5690 
  3 N       -0.4690     1.8040     0.1020 N.am  1 <1>  -0.7300 
  4 C        1.5870     0.5110     0.5930 C.3   1 <1>  -0.0190 
  5 C       -1.8860     2.1680    -0.0470 C.3   1 <1>   0.3000 
  6 C        2.1960     1.5460     1.5620 C.3   1 <1>  -0.1600 
  7 C        2.2310     0.6270    -0.8030 C.3   1 <1>  -0.1600 
  8 C       -1.9390     3.6220    -0.5530 C.3   1 <1>  -0.1600 
  9 C       -2.6190     2.0840     1.3050 C.3   1 <1>  -0.1600 
 10 C       -2.5820     1.2580    -1.0770 C.3   1 <1>  -0.1600 
 11 C        3.7220     1.4570     1.5900 C.3   1 <1>   0.2090 
 12 C        3.7560     0.5510    -0.7220 C.3   1 <1>   0.2090 
 13 C       -3.4010     4.0740    -0.7320 C.3   1 <1>  -0.0800 
 14 C       -4.0880     2.5200     1.1350 C.3   1 <1>  -0.0800 
 15 C       -4.0500     1.6910    -1.2550 C.3   1 <1>  -0.0800 
 16 N        4.2410     1.6020     0.2040 N.pl3 1 <1>  -0.8380 
 17 C       -4.1300     3.9720     0.6210 C.3   1 <1>  -0.1600 
 18 C       -4.0930     3.1490    -1.7510 C.3   1 <1>  -0.1600 
 19 C       -4.7710     1.6000     0.1050 C.3   1 <1>  -0.1600 
 20 C        5.5420     2.0520     0.0280 C.ar  1 <1>   0.4100 
 21 N        6.4280     1.7130     0.9570 N.ar  1 <1>  -0.6200 
 22 C        5.8910     2.8190    -1.0970 C.ar  1 <1>   0.1600 
 23 C        7.6390     2.1730     0.6920 C.ar  1 <1>   0.1600 
 24 N        7.1010     3.2750    -1.3660 N.ar  1 <1>  -0.6200 
 25 C        7.9680     2.9240    -0.4280 C.ar  1 <1>   0.1600 
 26 H        0.1700     2.5590    -0.1390 H     1 <1>   0.3700 
 27 H        1.8130    -0.4680     0.9780 H     1 <1>   0.0800 
 28 H        1.8140     1.3790     2.5530 H     1 <1>   0.0800 
 29 H        1.9230     2.5430     1.2670 H     1 <1>   0.0800 
 30 H        1.9600     1.5590    -1.2640 H     1 <1>   0.0800 
 31 H        1.8700    -0.1690    -1.4310 H     1 <1>   0.0800 
 32 H       -1.4270     3.7000    -1.4950 H     1 <1>   0.0800 
 33 H       -1.4530     4.2720     0.1530 H     1 <1>   0.0800 
 34 H       -2.1330     2.7170     2.0260 H     1 <1>   0.0800 
 35 H       -2.5950     1.0750     1.6740 H     1 <1>   0.0800 
 36 H       -2.5580     0.2370    -0.7400 H     1 <1>   0.0800 
 37 H       -2.0700     1.3130    -2.0200 H     1 <1>   0.0800 
 38 H        4.0380     0.5090     1.9930 H     1 <1>   0.0800 
 39 H        4.1230     2.2400     2.2130 H     1 <1>   0.0800 
 40 H        4.1830     0.6900    -1.7010 H     1 <1>   0.0800 
 41 H        4.0620    -0.4140    -0.3540 H     1 <1>   0.0800 
 42 H       -3.4300     5.0910    -1.0860 H     1 <1>   0.0800 
 43 H       -4.5990     2.4520     2.0800 H     1 <1>   0.0800 
 44 H       -4.5360     1.0470    -1.9680 H     1 <1>   0.0800 
 45 H       -5.1520     4.2880     0.5090 H     1 <1>   0.0800 
 46 H       -3.6640     4.6260     1.3380 H     1 <1>   0.0800 
 47 H       -3.6010     3.2230    -2.7060 H     1 <1>   0.0800 
 48 H       -5.1150     3.4570    -1.8880 H     1 <1>   0.0800 
 49 H       -4.7520     0.5830     0.4580 H     1 <1>   0.0800 
 50 H       -5.8030     1.8840    -0.0100 H     1 <1>   0.0800 
 51 H        5.1060     3.0540    -1.7890 H     1 <1>   0.1500 
 52 H        8.4150     1.9400     1.4000 H     1 <1>   0.1500 
 53 H        8.9850     3.2510    -0.5540 H     1 <1>   0.1500 
@<TRIPOS>BOND
  1   1   2  2   
  2   2   3  am  
  3   2   4  1   
  4   3   5  1   
  5   3  26  1   
  6   4   6  1   
  7   4   7  1   
  8   4  27  1   
  9   5   8  1   
 10   5   9  1   
 11   5  10  1   
 12   6  11  1   
 13   6  28  1   
 14   6  29  1   
 15   7  12  1   
 16   7  30  1   
 17   7  31  1   
 18   8  13  1   
 19   8  32  1   
 20   8  33  1   
 21   9  14  1   
 22   9  34  1   
 23   9  35  1   
 24  10  15  1   
 25  10  36  1   
 26  10  37  1   
 27  11  16  1   
 28  11  38  1   
 29  11  39  1   
 30  12  16  1   
 31  12  40  1   
 32  12  41  1   
 33  13  17  1   
 34  13  18  1   
 35  13  42  1   
 36  14  17  1   
 37  14  19  1   
 38  14  43  1   
 39  15  18  1   
 40  15  19  1   
 41  15  44  1   
 42  16  20  1   
 43  17  45  1   
 44  17  46  1   
 45  18  47  1   
 46  18  48  1   
 47  19  49  1   
 48  19  50  1   
 49  20  21  ar  
 50  20  22  ar  
 51  21  23  ar  
 52  22  24  ar  
 53  22  51  1   
 54  23  25  ar  
 55  23  52  1   
 56  24  25  ar  
 57  25  53  1   
@<TRIPOS>SUBSTRUCTURE
  1 ****   3 GROUP 4 **** **** 0

# MOE 2024.06 (io_trps.svl 2023.06)
