@<TRIPOS>MOLECULE
Cyclopropanecarboxylic acid [3-(3-cyano-7-methyl-quinolin-2-ylamino)-propyl]-amide
43 45 1 0 0 
SMALL
USER_CHARGES


@<TRIPOS>ATOM
  1 O       -0.2630    -1.5610     1.5780 O.2   1 <1>  -0.5700 
  2 C       -0.2160    -2.1230     0.5110 C.2   1 <1>   0.6300 
  3 N        0.9220    -2.1940    -0.2240 N.am  1 <1>  -0.7300 
  4 C       -1.4660    -2.7910    -0.0380 C.3   1 <1>  -0.1000 
  5 C        2.2220    -1.6060     0.1580 C.3   1 <1>   0.1400 
  6 C       -1.8660    -2.6650    -1.4820 C.3   1 <1>  -0.2000 
  7 C       -2.6630    -1.9700    -0.4220 C.3   1 <1>  -0.2000 
  8 C        3.2540    -2.7230     0.2890 C.3   1 <1>  -0.1600 
  9 C        4.6050    -2.1570     0.7140 C.3   1 <1>   0.2090 
 10 N        5.5830    -3.2650     0.7750 N.pl3 1 <1>  -0.8690 
 11 C        6.9430    -3.1280     0.5760 C.ar  1 <1>   0.4100 
 12 N        7.3750    -1.9340     0.2720 N.ar  1 <1>  -0.6200 
 13 C        7.8010    -4.2530     0.7070 C.ar  1 <1>   0.0730 
 14 C        8.7020    -1.7630     0.0710 C.ar  1 <1>   0.3100 
 15 C        7.2480    -5.5260     1.0450 C.1   1 <1>   0.4840 
 16 C        9.1420    -4.0900     0.5060 C.ar  1 <1>  -0.1500 
 17 C        9.6330    -2.8180     0.1770 C.ar  1 <1>   0.0000 
 18 C        9.1790    -0.4850    -0.2580 C.ar  1 <1>  -0.1500 
 19 N        6.7930    -6.5350     1.3220 N.1   1 <1>  -0.5570 
 20 C       10.9960    -2.5530    -0.0490 C.ar  1 <1>  -0.1500 
 21 C       10.5110    -0.2400    -0.4750 C.ar  1 <1>  -0.1440 
 22 C       11.4260    -1.2930    -0.3680 C.ar  1 <1>  -0.1500 
 23 C       11.0170     1.1460    -0.8300 C.3   1 <1>  -0.0970 
 24 H        0.8940    -2.6910    -1.1140 H     1 <1>   0.3700 
 25 H       -1.6600    -3.7230     0.4620 H     1 <1>   0.1000 
 26 H        2.1250    -1.0820     1.0960 H     1 <1>   0.0800 
 27 H        2.5270    -0.8990    -0.5960 H     1 <1>   0.0800 
 28 H       -2.2980    -3.5180    -1.9750 H     1 <1>   0.1000 
 29 H       -1.2810    -2.0540    -2.1480 H     1 <1>   0.1000 
 30 H       -2.5930    -0.9000    -0.3280 H     1 <1>   0.1000 
 31 H       -3.6400    -2.3430    -0.1700 H     1 <1>   0.1000 
 32 H        3.3660    -3.2190    -0.6590 H     1 <1>   0.0800 
 33 H        2.9180    -3.4280     1.0280 H     1 <1>   0.0800 
 34 H        4.5320    -1.6930     1.6840 H     1 <1>   0.0800 
 35 H        4.9300    -1.4160     0.0020 H     1 <1>   0.0800 
 36 H        5.2180    -4.1420     1.1580 H     1 <1>   0.4000 
 37 H        9.8310    -4.9120     0.5940 H     1 <1>   0.1500 
 38 H        8.4520     0.3020    -0.3320 H     1 <1>   0.1500 
 39 H       11.7020    -3.3610     0.0330 H     1 <1>   0.1500 
 40 H       12.4710    -1.1000    -0.5390 H     1 <1>   0.1500 
 41 H       10.2070     1.8510    -0.8770 H     1 <1>   0.0800 
 42 H       11.5070     1.1250    -1.7870 H     1 <1>   0.0800 
 43 H       11.7190     1.4820    -0.0880 H     1 <1>   0.0800 
@<TRIPOS>BOND
  1   1   2  2   
  2   2   3  am  
  3   2   4  1   
  4   3   5  1   
  5   3  24  1   
  6   4   6  1   
  7   4   7  1   
  8   4  25  1   
  9   5   8  1   
 10   5  26  1   
 11   5  27  1   
 12   6   7  1   
 13   6  28  1   
 14   6  29  1   
 15   7  30  1   
 16   7  31  1   
 17   8   9  1   
 18   8  32  1   
 19   8  33  1   
 20   9  10  1   
 21   9  34  1   
 22   9  35  1   
 23  10  11  1   
 24  10  36  1   
 25  11  12  ar  
 26  11  13  ar  
 27  12  14  ar  
 28  13  15  1   
 29  13  16  ar  
 30  14  17  ar  
 31  14  18  ar  
 32  15  19  3   
 33  16  17  ar  
 34  16  37  1   
 35  17  20  ar  
 36  18  21  ar  
 37  18  38  1   
 38  20  22  ar  
 39  20  39  1   
 40  21  22  ar  
 41  21  23  1   
 42  22  40  1   
 43  23  41  1   
 44  23  42  1   
 45  23  43  1   
@<TRIPOS>SUBSTRUCTURE
  1 ****  10 GROUP 4 **** **** 0

# MOE 2024.06 (io_trps.svl 2023.06)
