@<TRIPOS>MOLECULE
1-(5-Methyl-[1,2,4]triazolo[1,5-a]pyrimidin-7-yl)-piperidine-4-carboxylic acid 2-chloro-benzylamide
49 52 1 0 0 
SMALL
USER_CHARGES


@<TRIPOS>ATOM
  1 CL      -1.0870    -0.7810     1.8870 Cl    1 <1>  -0.1770 
  2 C       -1.3820    -1.7000     0.4290 C.ar  1 <1>   0.1770 
  3 C       -2.3130    -1.2620    -0.5010 C.ar  1 <1>  -0.1440 
  4 C       -0.6700    -2.8710     0.2420 C.ar  1 <1>  -0.1500 
  5 C       -2.5330    -2.0340    -1.6330 C.ar  1 <1>  -0.1500 
  6 C       -3.0950     0.0250    -0.3080 C.3   1 <1>   0.2840 
  7 C       -0.8930    -3.6290    -0.8950 C.ar  1 <1>  -0.1500 
  8 C       -1.8260    -3.2090    -1.8290 C.ar  1 <1>  -0.1500 
  9 N       -4.3440    -0.2970     0.4080 N.am  1 <1>  -0.7300 
 10 C       -5.5810    -0.2110    -0.1370 C.2   1 <1>   0.5690 
 11 O       -5.7570     0.2220    -1.2500 O.2   1 <1>  -0.5700 
 12 C       -6.7770    -0.6970     0.6770 C.3   1 <1>  -0.0190 
 13 C       -7.2870    -2.0440     0.1300 C.3   1 <1>  -0.1600 
 14 C       -7.9120     0.3460     0.6910 C.3   1 <1>  -0.1600 
 15 C       -8.5420    -2.5290     0.8590 C.3   1 <1>   0.2090 
 16 C       -9.1510    -0.1740     1.4200 C.3   1 <1>   0.2090 
 17 N       -9.5780    -1.4600     0.8030 N.pl3 1 <1>  -0.8380 
 18 C      -10.7340    -1.5880     0.0830 C.2   1 <1>   0.4790 
 19 N      -11.5000    -2.7190     0.1750 N.pl3 1 <1>  -0.3220 
 20 C      -11.2060    -0.6130    -0.7660 C.2   1 <1>  -0.1360 
 21 N      -11.3750    -3.8470     0.9570 N.2   1 <1>  -0.2600 
 22 C      -12.6330    -2.8020    -0.5390 C.cat 1 <1>   0.9620 
 23 C      -12.3880    -0.8120    -1.4690 C.2   1 <1>   0.3750 
 24 C      -12.4070    -4.5510     0.6730 C.2   1 <1>   0.5030 
 25 N      -13.1180    -1.8960    -1.3730 N.2   1 <1>  -0.6120 
 26 N      -13.2070    -3.9520    -0.2460 N.pl3 1 <1>  -0.7000 
 27 C      -12.8950     0.2600    -2.4110 C.3   1 <1>  -0.1790 
 28 H        0.0480    -3.1830     0.9780 H     1 <1>   0.1500 
 29 H       -3.2600    -1.7210    -2.3650 H     1 <1>   0.1500 
 30 H       -3.3160     0.4640    -1.2660 H     1 <1>   0.0800 
 31 H       -2.5280     0.7430     0.2580 H     1 <1>   0.0800 
 32 H       -0.3440    -4.5420    -1.0520 H     1 <1>   0.1500 
 33 H       -2.0040    -3.7990    -2.7120 H     1 <1>   0.1500 
 34 H       -4.2030    -0.7230     1.3240 H     1 <1>   0.3700 
 35 H       -6.4550    -0.8490     1.6920 H     1 <1>   0.0800 
 36 H       -6.5140    -2.7860     0.2230 H     1 <1>   0.0800 
 37 H       -7.5130    -1.9430    -0.9180 H     1 <1>   0.0800 
 38 H       -8.1830     0.6020    -0.3180 H     1 <1>   0.0800 
 39 H       -7.5660     1.2450     1.1710 H     1 <1>   0.0800 
 40 H       -8.3150    -2.7540     1.8870 H     1 <1>   0.0800 
 41 H       -8.8930    -3.4290     0.3840 H     1 <1>   0.0800 
 42 H       -9.9430     0.5540     1.3720 H     1 <1>   0.0800 
 43 H       -8.9200    -0.3420     2.4590 H     1 <1>   0.0800 
 44 H      -10.6510     0.2950    -0.8950 H     1 <1>   0.1500 
 45 H      -12.6330    -5.5140     1.1080 H     1 <1>   0.1500 
 46 H      -14.0880    -4.2560    -0.6520 H     1 <1>   0.4500 
 47 H      -12.2310     1.1050    -2.4380 H     1 <1>   0.0800 
 48 H      -13.8660     0.5950    -2.0930 H     1 <1>   0.0800 
 49 H      -12.9800    -0.1400    -3.4050 H     1 <1>   0.0800 
@<TRIPOS>BOND
  1   1   2  1   
  2   2   3  ar  
  3   2   4  ar  
  4   3   5  ar  
  5   3   6  1   
  6   4   7  ar  
  7   4  28  1   
  8   5   8  ar  
  9   5  29  1   
 10   6   9  1   
 11   6  30  1   
 12   6  31  1   
 13   7   8  ar  
 14   7  32  1   
 15   8  33  1   
 16   9  10  am  
 17   9  34  1   
 18  10  11  2   
 19  10  12  1   
 20  12  13  1   
 21  12  14  1   
 22  12  35  1   
 23  13  15  1   
 24  13  36  1   
 25  13  37  1   
 26  14  16  1   
 27  14  38  1   
 28  14  39  1   
 29  15  17  1   
 30  15  40  1   
 31  15  41  1   
 32  16  17  1   
 33  16  42  1   
 34  16  43  1   
 35  17  18  1   
 36  18  19  1   
 37  18  20  2   
 38  19  21  1   
 39  19  22  ar  
 40  20  23  1   
 41  20  44  1   
 42  21  24  2   
 43  22  25  1   
 44  22  26  ar  
 45  23  25  2   
 46  23  27  1   
 47  24  26  1   
 48  24  45  1   
 49  26  46  1   
 50  27  47  1   
 51  27  48  1   
 52  27  49  1   
@<TRIPOS>SUBSTRUCTURE
  1 ****  13 GROUP 4 **** **** 0

# MOE 2024.06 (io_trps.svl 2023.06)
