@<TRIPOS>MOLECULE
1-Benzyl-cyclopropylamine
25 26 1 0 0 
SMALL
USER_CHARGES


@<TRIPOS>ATOM
  1 N       -0.0990    -1.6790     0.9020 N.4   1 <1>  -0.7460 
  2 C       -0.9060    -1.7150    -0.3210 C.3   1 <1>   0.3010 
  3 C       -2.3380    -1.3370    -0.1430 C.3   1 <1>  -0.2000 
  4 C       -1.3920    -0.4180    -0.8680 C.3   1 <1>  -0.2000 
  5 C       -0.5470    -2.8980    -1.2400 C.3   1 <1>   0.0780 
  6 C       -0.2700    -4.1330    -0.3950 C.ar  1 <1>  -0.1430 
  7 C        1.0270    -4.6000    -0.2350 C.ar  1 <1>  -0.1500 
  8 C       -1.3130    -4.7820     0.2500 C.ar  1 <1>  -0.1500 
  9 C        1.2790    -5.6920     0.5770 C.ar  1 <1>  -0.1500 
 10 C       -1.0590    -5.8740     1.0620 C.ar  1 <1>  -0.1500 
 11 C        0.2370    -6.3260     1.2280 C.ar  1 <1>  -0.1500 
 12 H       -0.5170    -1.0610     1.6010 H     1 <1>   0.4500 
 13 H        0.8570    -1.3750     0.7050 H     1 <1>   0.4500 
 14 H       -0.0560    -2.6370     1.2830 H     1 <1>   0.4500 
 15 H       -2.7110    -1.0240     0.8170 H     1 <1>   0.1000 
 16 H       -3.1000    -1.8170    -0.7340 H     1 <1>   0.1000 
 17 H       -1.5280    -0.3060    -1.9300 H     1 <1>   0.1000 
 18 H       -1.1140     0.5090    -0.3950 H     1 <1>   0.1000 
 19 H        0.3200    -2.6450    -1.8250 H     1 <1>   0.0800 
 20 H       -1.3480    -3.0960    -1.9310 H     1 <1>   0.0800 
 21 H        1.8540    -4.1310    -0.7420 H     1 <1>   0.1500 
 22 H       -2.3320    -4.4530     0.1260 H     1 <1>   0.1500 
 23 H        2.2850    -6.0570     0.6980 H     1 <1>   0.1500 
 24 H       -1.8700    -6.3790     1.5600 H     1 <1>   0.1500 
 25 H        0.4330    -7.1790     1.8570 H     1 <1>   0.1500 
@<TRIPOS>BOND
  1   1   2  1   
  2   1  12  1   
  3   1  13  1   
  4   1  14  1   
  5   2   3  1   
  6   2   4  1   
  7   2   5  1   
  8   3   4  1   
  9   3  15  1   
 10   3  16  1   
 11   4  17  1   
 12   4  18  1   
 13   5   6  1   
 14   5  19  1   
 15   5  20  1   
 16   6   7  ar  
 17   6   8  ar  
 18   7   9  ar  
 19   7  21  1   
 20   8  10  ar  
 21   8  22  1   
 22   9  11  ar  
 23   9  23  1   
 24  10  11  ar  
 25  10  24  1   
 26  11  25  1   
@<TRIPOS>SUBSTRUCTURE
  1 ****   6 GROUP 4 **** **** 0

# MOE 2024.06 (io_trps.svl 2023.06)
