@<TRIPOS>MOLECULE
N-Cyclopentyl-2-[5-phenyl-4-(tetrahydro-furan-2-ylmethyl)-4H-[1,2,4]triazol-3-ylsulfanyl]-acetamide
53 56 1 0 0 
SMALL
USER_CHARGES


@<TRIPOS>ATOM
  1 S        0.5770    -0.7060    -0.4020 S.3   1 <1>  -0.2860 
  2 C       -1.1830    -0.8770    -0.1000 C.2   1 <1>   0.2420 
  3 C        1.3020    -2.1150     0.5770 C.3   1 <1>   0.1310 
  4 N       -1.6800    -1.7800     0.6660 N.2   1 <1>  -0.3380 
  5 N       -2.0940    -0.0720    -0.6370 N.pl3 1 <1>   0.0480 
  6 C        2.8220    -2.1240     0.5170 C.2   1 <1>   0.5690 
  7 N       -2.9960    -1.5780     0.6560 N.2   1 <1>  -0.3380 
  8 C       -3.2410    -0.5610    -0.1250 C.2   1 <1>   0.1330 
  9 C       -1.8910     1.1160    -1.4990 C.3   1 <1>   0.0960 
 10 O        3.4040    -3.1250     0.8570 O.2   1 <1>  -0.5700 
 11 N        3.4870    -1.0160     0.0970 N.am  1 <1>  -0.7300 
 12 C       -4.5480    -0.0100    -0.3820 C.ar  1 <1>   0.0530 
 13 C       -2.2350     2.4040    -0.7470 C.3   1 <1>   0.2000 
 14 C        4.9460    -0.8740    -0.0180 C.3   1 <1>   0.2200 
 15 C       -5.3310     0.4620     0.6680 C.ar  1 <1>  -0.1500 
 16 C       -5.0650     0.0830    -1.6730 C.ar  1 <1>  -0.1500 
 17 O       -1.9170     3.4840    -1.5540 O.3   1 <1>  -0.5600 
 18 C       -1.4350     2.6460     0.5260 C.3   1 <1>  -0.1600 
 19 C        5.3770     0.3690     0.7510 C.3   1 <1>  -0.1600 
 20 C        5.2890    -0.5280    -1.4620 C.3   1 <1>  -0.1600 
 21 C       -6.5710     1.0290     0.4400 C.ar  1 <1>  -0.1500 
 22 C       -6.3040     0.6510    -1.9080 C.ar  1 <1>  -0.1500 
 23 C       -1.7770     4.6340    -0.7810 C.3   1 <1>   0.1200 
 24 C       -1.4050     4.1630     0.6230 C.3   1 <1>  -0.1600 
 25 C        5.0960     1.5540    -0.1800 C.3   1 <1>  -0.1600 
 26 C        5.0370     0.9780    -1.6010 C.3   1 <1>  -0.1600 
 27 C       -7.0580     1.1290    -0.8510 C.ar  1 <1>  -0.1500 
 28 H        0.9060    -3.0240     0.1650 H     1 <1>   0.0800 
 29 H        0.9710    -2.0030     1.5930 H     1 <1>   0.0800 
 30 H       -2.5160     1.0300    -2.3670 H     1 <1>   0.0800 
 31 H       -0.8660     1.1540    -1.8180 H     1 <1>   0.0800 
 32 H        2.9540    -0.2050    -0.2200 H     1 <1>   0.3700 
 33 H       -3.2930     2.4600    -0.5470 H     1 <1>   0.0800 
 34 H        5.4470    -1.7650     0.3230 H     1 <1>   0.0800 
 35 H       -4.9570     0.3790     1.6740 H     1 <1>   0.1500 
 36 H       -4.4950    -0.2990    -2.5000 H     1 <1>   0.1500 
 37 H       -0.4350     2.2660     0.4110 H     1 <1>   0.0800 
 38 H       -1.8950     2.1850     1.3830 H     1 <1>   0.0800 
 39 H        6.4360     0.3070     0.9270 H     1 <1>   0.0800 
 40 H        4.8760     0.4540     1.6990 H     1 <1>   0.0800 
 41 H        4.7230    -1.1130    -2.1650 H     1 <1>   0.0800 
 42 H        6.3350    -0.7230    -1.6170 H     1 <1>   0.0800 
 43 H       -7.1590     1.3910     1.2660 H     1 <1>   0.1500 
 44 H       -6.6860     0.7180    -2.9120 H     1 <1>   0.1500 
 45 H       -2.7180     5.1580    -0.7830 H     1 <1>   0.0800 
 46 H       -1.0110     5.2500    -1.2210 H     1 <1>   0.0800 
 47 H       -0.4330     4.5240     0.9110 H     1 <1>   0.0800 
 48 H       -2.1340     4.5210     1.3290 H     1 <1>   0.0800 
 49 H        5.8650     2.3020    -0.0900 H     1 <1>   0.0800 
 50 H        4.1480     2.0000     0.0700 H     1 <1>   0.0800 
 51 H        4.0610     1.1490    -2.0220 H     1 <1>   0.0800 
 52 H        5.7750     1.4320    -2.2410 H     1 <1>   0.0800 
 53 H       -8.0230     1.5700    -1.0320 H     1 <1>   0.1500 
@<TRIPOS>BOND
  1   1   2  1   
  2   1   3  1   
  3   2   4  2   
  4   2   5  1   
  5   3   6  1   
  6   3  28  1   
  7   3  29  1   
  8   4   7  1   
  9   5   8  1   
 10   5   9  1   
 11   6  10  2   
 12   6  11  am  
 13   7   8  2   
 14   8  12  1   
 15   9  13  1   
 16   9  30  1   
 17   9  31  1   
 18  11  14  1   
 19  11  32  1   
 20  12  15  ar  
 21  12  16  ar  
 22  13  17  1   
 23  13  18  1   
 24  13  33  1   
 25  14  19  1   
 26  14  20  1   
 27  14  34  1   
 28  15  21  ar  
 29  15  35  1   
 30  16  22  ar  
 31  16  36  1   
 32  17  23  1   
 33  18  24  1   
 34  18  37  1   
 35  18  38  1   
 36  19  25  1   
 37  19  39  1   
 38  19  40  1   
 39  20  26  1   
 40  20  41  1   
 41  20  42  1   
 42  21  27  ar  
 43  21  43  1   
 44  22  27  ar  
 45  22  44  1   
 46  23  24  1   
 47  23  45  1   
 48  23  46  1   
 49  24  47  1   
 50  24  48  1   
 51  25  26  1   
 52  25  49  1   
 53  25  50  1   
 54  26  51  1   
 55  26  52  1   
 56  27  53  1   
@<TRIPOS>SUBSTRUCTURE
  1 ****   2 GROUP 4 **** **** 0

# MOE 2024.06 (io_trps.svl 2023.06)
