@<TRIPOS>MOLECULE
(3-Ethoxy-phenoxy)-acetic acid
25 25 1 0 0 
SMALL
USER_CHARGES


@<TRIPOS>ATOM
  1 O        0.2970    -1.0000     1.0110 O.co2 1 <1>  -0.9000 
  2 C       -0.2120    -1.3700    -0.0550 C.2   1 <1>   0.9060 
  3 O        0.2800    -1.0770    -1.1520 O.co2 1 <1>  -0.9000 
  4 C       -1.4200    -2.2960    -0.0130 C.3   1 <1>   0.0140 
  5 O       -2.6700    -1.6050    -0.0270 O.3   1 <1>  -0.3630 
  6 C       -3.8470    -2.2750     0.0060 C.ar  1 <1>   0.0830 
  7 C       -4.9970    -1.5050    -0.0120 C.ar  1 <1>  -0.1500 
  8 C       -3.9460    -3.6640     0.0550 C.ar  1 <1>  -0.1500 
  9 C       -6.2500    -2.1090     0.0190 C.ar  1 <1>   0.0830 
 10 C       -5.1920    -4.2670     0.0870 C.ar  1 <1>  -0.1500 
 11 O       -7.4200    -1.4210     0.0050 O.3   1 <1>  -0.3630 
 12 C       -6.3380    -3.4920     0.0690 C.ar  1 <1>  -0.1500 
 13 C       -7.4270    -0.0140    -0.0450 C.3   1 <1>   0.1200 
 14 C       -8.8800     0.4520    -0.0490 C.3   1 <1>  -0.2400 
 15 H       -1.3660    -2.8750     0.8890 H     1 <1>   0.0800 
 16 H       -1.3800    -2.9370    -0.8720 H     1 <1>   0.0800 
 17 H       -4.8760    -0.4410    -0.0500 H     1 <1>   0.1500 
 18 H       -3.0670    -4.2790     0.0700 H     1 <1>   0.1500 
 19 H       -5.2690    -5.3400     0.1250 H     1 <1>   0.1500 
 20 H       -7.3090    -3.9520     0.0930 H     1 <1>   0.1500 
 21 H       -6.9230     0.2980    -0.9430 H     1 <1>   0.0800 
 22 H       -6.9090     0.3600     0.8220 H     1 <1>   0.0800 
 23 H       -9.3900     0.0590    -0.9100 H     1 <1>   0.0800 
 24 H       -8.9180     1.5250    -0.0860 H     1 <1>   0.0800 
 25 H       -9.3760     0.1200     0.8450 H     1 <1>   0.0800 
@<TRIPOS>BOND
  1   1   2  ar  
  2   2   3  ar  
  3   2   4  1   
  4   4   5  1   
  5   4  15  1   
  6   4  16  1   
  7   5   6  1   
  8   6   7  ar  
  9   6   8  ar  
 10   7   9  ar  
 11   7  17  1   
 12   8  10  ar  
 13   8  18  1   
 14   9  11  1   
 15   9  12  ar  
 16  10  12  ar  
 17  10  19  1   
 18  11  13  1   
 19  12  20  1   
 20  13  14  1   
 21  13  21  1   
 22  13  22  1   
 23  14  23  1   
 24  14  24  1   
 25  14  25  1   
@<TRIPOS>SUBSTRUCTURE
  1 ****   6 GROUP 4 **** **** 0

# MOE 2024.06 (io_trps.svl 2023.06)
