@<TRIPOS>MOLECULE
3-(Cyclopropanecarbonyl-amino)-9-aza-bicyclo[3.3.1]nonane-9-carboxylic acid p-tolylamide
52 55 1 0 0 
SMALL
USER_CHARGES


@<TRIPOS>ATOM
  1 O        0.0190     0.1060     1.4570 O.2   1 <1>  -0.5700 
  2 C       -0.0910    -0.9000     0.7810 C.2   1 <1>   0.6900 
  3 N       -1.2680    -1.6030     0.7900 N.am  1 <1>  -0.6600 
  4 N        0.9450    -1.3590     0.0190 N.am  1 <1>  -0.5470 
  5 C       -1.6480    -2.7560     0.0210 C.3   1 <1>   0.2200 
  6 C       -2.3890    -1.3320     1.7060 C.3   1 <1>   0.2200 
  7 C        2.2020    -0.8130    -0.2760 C.ar  1 <1>   0.1170 
  8 C       -2.8210    -2.2100    -0.8600 C.3   1 <1>  -0.1600 
  9 C       -1.9120    -3.8890     1.0840 C.3   1 <1>  -0.1600 
 10 C       -3.1640    -0.2590     0.9760 C.3   1 <1>  -0.1600 
 11 C       -1.9670    -2.0150     2.9950 C.3   1 <1>  -0.1600 
 12 C        2.4740     0.5490    -0.2010 C.ar  1 <1>  -0.1500 
 13 C        3.2220    -1.6650    -0.6830 C.ar  1 <1>  -0.1500 
 14 C       -3.6490    -0.9570    -0.3460 C.3   1 <1>   0.2200 
 15 C       -1.5790    -3.4900     2.5860 C.3   1 <1>  -0.1600 
 16 C        3.7270     1.0420    -0.5200 C.ar  1 <1>  -0.1500 
 17 C        4.4750    -1.1750    -1.0030 C.ar  1 <1>  -0.1500 
 18 N       -5.0390    -1.4070    -0.1300 N.am  1 <1>  -0.7300 
 19 C        4.7360     0.1830    -0.9240 C.ar  1 <1>  -0.1430 
 20 C       -6.0150    -1.3870    -1.0690 C.2   1 <1>   0.6300 
 21 C        6.1100     0.7260    -1.2710 C.3   1 <1>  -0.0970 
 22 O       -5.8210    -1.0000    -2.1950 O.2   1 <1>  -0.5700 
 23 C       -7.3980    -1.8780    -0.6750 C.3   1 <1>  -0.1000 
 24 C       -7.5990    -3.0970     0.1830 C.3   1 <1>  -0.2000 
 25 C       -7.9530    -3.1390    -1.2710 C.3   1 <1>  -0.2000 
 26 H        0.7970    -2.3020    -0.3120 H     1 <1>   0.3700 
 27 H       -0.8460    -3.0690    -0.6240 H     1 <1>   0.0800 
 28 H       -3.1990    -2.0300     1.5910 H     1 <1>   0.0800 
 29 H       -3.4760    -3.0200    -1.1280 H     1 <1>   0.0800 
 30 H       -2.3680    -1.8940    -1.7820 H     1 <1>   0.0800 
 31 H       -1.3410    -4.7590     0.8150 H     1 <1>   0.0800 
 32 H       -2.9460    -4.1790     1.0210 H     1 <1>   0.0800 
 33 H       -2.5220     0.5760     0.7570 H     1 <1>   0.0800 
 34 H       -3.9900     0.0970     1.5630 H     1 <1>   0.0800 
 35 H       -2.7880    -2.0200     3.6900 H     1 <1>   0.0800 
 36 H       -1.1400    -1.4960     3.4480 H     1 <1>   0.0800 
 37 H        1.7050     1.2330     0.1050 H     1 <1>   0.1500 
 38 H        3.0390    -2.7210    -0.7470 H     1 <1>   0.1500 
 39 H       -3.6620    -0.2140    -1.1270 H     1 <1>   0.0800 
 40 H       -0.5150    -3.5860     2.7180 H     1 <1>   0.0800 
 41 H       -2.0410    -4.1910     3.2610 H     1 <1>   0.0800 
 42 H        3.9110     2.0990    -0.4490 H     1 <1>   0.1500 
 43 H        5.2500    -1.8550    -1.3120 H     1 <1>   0.1500 
 44 H       -5.2630    -1.7590     0.7990 H     1 <1>   0.3700 
 45 H        6.0290     1.7150    -1.6840 H     1 <1>   0.0800 
 46 H        6.5930     0.0950    -1.9950 H     1 <1>   0.0800 
 47 H        6.7170     0.7670    -0.3850 H     1 <1>   0.0800 
 48 H       -8.0830    -1.0570    -0.5560 H     1 <1>   0.1000 
 49 H       -8.3980    -3.0970     0.9050 H     1 <1>   0.1000 
 50 H       -6.7500    -3.6730     0.5060 H     1 <1>   0.1000 
 51 H       -7.3280    -3.6940    -1.9500 H     1 <1>   0.1000 
 52 H       -8.9890    -3.1530    -1.5610 H     1 <1>   0.1000 
@<TRIPOS>BOND
  1   1   2  2   
  2   2   3  am  
  3   2   4  am  
  4   3   5  1   
  5   3   6  1   
  6   4   7  1   
  7   4  26  1   
  8   5   8  1   
  9   5   9  1   
 10   5  27  1   
 11   6  10  1   
 12   6  11  1   
 13   6  28  1   
 14   7  12  ar  
 15   7  13  ar  
 16   8  14  1   
 17   8  29  1   
 18   8  30  1   
 19   9  15  1   
 20   9  31  1   
 21   9  32  1   
 22  10  14  1   
 23  10  33  1   
 24  10  34  1   
 25  11  15  1   
 26  11  35  1   
 27  11  36  1   
 28  12  16  ar  
 29  12  37  1   
 30  13  17  ar  
 31  13  38  1   
 32  14  18  1   
 33  14  39  1   
 34  15  40  1   
 35  15  41  1   
 36  16  19  ar  
 37  16  42  1   
 38  17  19  ar  
 39  17  43  1   
 40  18  20  am  
 41  18  44  1   
 42  19  21  1   
 43  20  22  2   
 44  20  23  1   
 45  21  45  1   
 46  21  46  1   
 47  21  47  1   
 48  23  24  1   
 49  23  25  1   
 50  23  48  1   
 51  24  25  1   
 52  24  49  1   
 53  24  50  1   
 54  25  51  1   
 55  25  52  1   
@<TRIPOS>SUBSTRUCTURE
  1 ****   3 GROUP 4 **** **** 0

# MOE 2024.06 (io_trps.svl 2023.06)
