@<TRIPOS>MOLECULE
Methanesulfonylamino-acetic acid
15 14 1 0 0 
SMALL
USER_CHARGES


@<TRIPOS>ATOM
  1 S        0.2160    -0.1340    -0.9090 S.o2  1 <1>   1.3330 
  2 O       -0.5950    -1.1390    -1.5550 O.2   1 <1>  -0.6500 
  3 O        1.0510     0.7530    -1.6830 O.2   1 <1>  -0.6500 
  4 N        1.1150    -0.8990     0.2790 N.am  1 <1>  -0.9140 
  5 C       -0.8720     0.8690     0.0770 C.3   1 <1>  -0.1350 
  6 C        2.3290    -0.1640     0.7290 C.3   1 <1>   0.0900 
  7 C        3.6150    -0.6700     0.0650 C.2   1 <1>   0.9060 
  8 O        3.5380    -1.7100    -0.6060 O.co2 1 <1>  -0.9000 
  9 O        4.6760    -0.0660     0.2590 O.co2 1 <1>  -0.9000 
 10 H        1.5640    -1.6780    -0.2380 H     1 <1>   0.4200 
 11 H       -1.4380     0.2470     0.7420 H     1 <1>   0.0800 
 12 H       -1.5480     1.4070    -0.5570 H     1 <1>   0.0800 
 13 H       -0.3030     1.5690     0.6540 H     1 <1>   0.0800 
 14 H        2.4520    -0.3120     1.7850 H     1 <1>   0.0800 
 15 H        2.2430     0.8910     0.5460 H     1 <1>   0.0800 
@<TRIPOS>BOND
  1   1   2  2   
  2   1   3  2   
  3   1   4  am  
  4   1   5  1   
  5   4   6  1   
  6   4  10  1   
  7   5  11  1   
  8   5  12  1   
  9   5  13  1   
 10   6   7  1   
 11   6  14  1   
 12   6  15  1   
 13   7   8  ar  
 14   7   9  ar  
@<TRIPOS>SUBSTRUCTURE
  1 ****   4 GROUP 4 **** **** 0

# MOE 2024.06 (io_trps.svl 2023.06)
