@<TRIPOS>MOLECULE
9072
47 48 1 0 0 
SMALL
USER_CHARGES


@<TRIPOS>ATOM
  1 O       -0.2550     0.0780    -0.1060 O.2   1 <1>  -0.5700 
  2 C        0.2000    -1.0380    -0.2450 C.2   1 <1>   0.5440 
  3 N        1.5630    -1.1200    -0.2900 N.am  1 <1>  -0.5470 
  4 C       -0.6830    -2.1870    -0.3530 C.ar  1 <1>   0.0860 
  5 C        2.4300    -2.2160    -0.2020 C.ar  1 <1>   0.1170 
  6 C       -0.4250    -3.2460    -1.2220 C.ar  1 <1>  -0.1500 
  7 C       -1.8400    -2.2570     0.4210 C.ar  1 <1>  -0.1500 
  8 C        3.5830    -2.2370    -0.9750 C.ar  1 <1>  -0.1500 
  9 C        2.1780    -3.2850     0.6520 C.ar  1 <1>  -0.1500 
 10 C       -1.2660    -4.3400    -1.3070 C.ar  1 <1>   0.0830 
 11 C       -2.6980    -3.3480     0.3450 C.ar  1 <1>   0.0830 
 12 C        4.4560    -3.3070    -0.9090 C.ar  1 <1>  -0.1500 
 13 C        3.0460    -4.3600     0.7190 C.ar  1 <1>  -0.1500 
 14 O       -0.9110    -5.3160    -2.1790 O.3   1 <1>  -0.3630 
 15 C       -2.4080    -4.3900    -0.5170 C.ar  1 <1>  -0.1500 
 16 O       -3.8340    -3.4640     1.0780 O.3   1 <1>  -0.3630 
 17 C        4.1950    -4.3760    -0.0670 C.ar  1 <1>   0.0830 
 18 C       -1.7150    -6.4610    -2.3620 C.3   1 <1>   0.0400 
 19 C       -4.2750    -2.4200     1.9180 C.3   1 <1>   0.0400 
 20 O        5.0990    -5.3900    -0.0680 O.3   1 <1>  -0.3630 
 21 C        4.8850    -6.5510     0.7000 C.3   1 <1>   0.1200 
 22 C        6.0470    -7.5120     0.4490 C.3   1 <1>  -0.1600 
 23 C        5.8820    -8.8060     1.2560 C.3   1 <1>  -0.1600 
 24 C        7.0480    -9.7650     1.0020 C.3   1 <1>  -0.2400 
 25 H        2.0000    -0.2000    -0.3400 H     1 <1>   0.3700 
 26 H        0.4490    -3.2240    -1.8480 H     1 <1>   0.1500 
 27 H       -2.0480    -1.4340     1.0800 H     1 <1>   0.1500 
 28 H        3.7960    -1.4170    -1.6360 H     1 <1>   0.1500 
 29 H        1.2980    -3.2780     1.2700 H     1 <1>   0.1500 
 30 H        5.3470    -3.3240    -1.5110 H     1 <1>   0.1500 
 31 H        2.8130    -5.1670     1.3870 H     1 <1>   0.1500 
 32 H       -3.0870    -5.2190    -0.5510 H     1 <1>   0.1500 
 33 H       -1.2450    -7.0840    -3.1010 H     1 <1>   0.0800 
 34 H       -2.6870    -6.1540    -2.7070 H     1 <1>   0.0800 
 35 H       -1.7860    -6.9910    -1.4290 H     1 <1>   0.0800 
 36 H       -5.2070    -2.7190     2.3620 H     1 <1>   0.0800 
 37 H       -4.4200    -1.5330     1.3270 H     1 <1>   0.0800 
 38 H       -3.5410    -2.2550     2.6870 H     1 <1>   0.0800 
 39 H        3.9530    -6.9940     0.3940 H     1 <1>   0.0800 
 40 H        4.8440    -6.2690     1.7380 H     1 <1>   0.0800 
 41 H        6.9680    -7.0290     0.7290 H     1 <1>   0.0800 
 42 H        6.0870    -7.7470    -0.6010 H     1 <1>   0.0800 
 43 H        4.9600    -9.2900     0.9810 H     1 <1>   0.0800 
 44 H        5.8380    -8.5750     2.3070 H     1 <1>   0.0800 
 45 H        7.0990   -10.0280    -0.0400 H     1 <1>   0.0800 
 46 H        6.9160   -10.6660     1.5750 H     1 <1>   0.0800 
 47 H        7.9800    -9.3100     1.2900 H     1 <1>   0.0800 
@<TRIPOS>BOND
  1   1   2  2   
  2   2   3  am  
  3   2   4  1   
  4   3   5  1   
  5   3  25  1   
  6   4   6  ar  
  7   4   7  ar  
  8   5   8  ar  
  9   5   9  ar  
 10   6  10  ar  
 11   6  26  1   
 12   7  11  ar  
 13   7  27  1   
 14   8  12  ar  
 15   8  28  1   
 16   9  13  ar  
 17   9  29  1   
 18  10  14  1   
 19  10  15  ar  
 20  11  15  ar  
 21  11  16  1   
 22  12  17  ar  
 23  12  30  1   
 24  13  17  ar  
 25  13  31  1   
 26  14  18  1   
 27  15  32  1   
 28  16  19  1   
 29  17  20  1   
 30  18  33  1   
 31  18  34  1   
 32  18  35  1   
 33  19  36  1   
 34  19  37  1   
 35  19  38  1   
 36  20  21  1   
 37  21  22  1   
 38  21  39  1   
 39  21  40  1   
 40  22  23  1   
 41  22  41  1   
 42  22  42  1   
 43  23  24  1   
 44  23  43  1   
 45  23  44  1   
 46  24  45  1   
 47  24  46  1   
 48  24  47  1   
@<TRIPOS>SUBSTRUCTURE
  1 ****   9 GROUP 4 **** **** 0

# MOE 2024.06 (io_trps.svl 2023.06)
