@<TRIPOS>MOLECULE
2-(6,7-Dimethoxy-3-methyl-quinolin-2-ylsulfanyl)-N-(5-methyl-[1,3,4]thiadiazol-2-yl)-acetamide
44 46 1 0 0 
SMALL
USER_CHARGES


@<TRIPOS>ATOM
  1 S       -1.1440    -0.9130    -0.0470 S.3   1 <1>  -0.0800 
  2 C       -1.3210     0.7450     0.4420 C.2   1 <1>   0.4420 
  3 C        0.5230    -0.7840     0.3910 C.2   1 <1>   0.1980 
  4 N       -0.2180     1.2450     0.8640 N.2   1 <1>  -0.3380 
  5 N       -2.5260     1.4100     0.3670 N.am  1 <1>  -0.4940 
  6 N        0.8310     0.3670     0.8330 N.2   1 <1>  -0.3380 
  7 C        1.4000    -2.0020     0.2100 C.3   1 <1>  -0.0600 
  8 C       -3.7680     1.0230    -0.0520 C.2   1 <1>   0.5690 
  9 O       -4.0130    -0.0820    -0.4650 O.2   1 <1>  -0.5700 
 10 C       -4.9080     2.0290    -0.0020 C.3   1 <1>   0.1310 
 11 S       -4.3550     3.6820     0.6580 S.3   1 <1>  -0.3320 
 12 C       -5.8470     4.6760     0.6220 C.ar  1 <1>   0.4120 
 13 N       -6.9100     4.0790     0.1780 N.ar  1 <1>  -0.6200 
 14 C       -5.7760     6.0120     1.0660 C.ar  1 <1>  -0.1430 
 15 C       -8.0480     4.8140     0.1430 C.ar  1 <1>   0.3100 
 16 C       -6.9180     6.7570     1.0320 C.ar  1 <1>  -0.1500 
 17 C       -4.4720     6.6190     1.5700 C.3   1 <1>  -0.0970 
 18 C       -8.1020     6.1620     0.5610 C.ar  1 <1>   0.0000 
 19 C       -9.2200     4.2100    -0.3290 C.ar  1 <1>  -0.1500 
 20 C       -9.3260     6.8530     0.4910 C.ar  1 <1>  -0.1500 
 21 C      -10.4130     4.8930    -0.3940 C.ar  1 <1>   0.0830 
 22 C      -10.4670     6.2420     0.0240 C.ar  1 <1>   0.0830 
 23 O      -11.5640     4.3290    -0.8480 O.3   1 <1>  -0.3630 
 24 O      -11.6680     6.8770    -0.0580 O.3   1 <1>  -0.3630 
 25 C      -11.6170     2.9910    -1.2890 C.3   1 <1>   0.0400 
 26 C      -11.8320     8.2210     0.3340 C.3   1 <1>   0.0400 
 27 H       -2.4690     2.3760     0.6900 H     1 <1>   0.3700 
 28 H        1.4110    -2.2920    -0.8240 H     1 <1>   0.0800 
 29 H        1.0230    -2.8140     0.8040 H     1 <1>   0.0800 
 30 H        2.4040    -1.7770     0.5210 H     1 <1>   0.0800 
 31 H       -5.6890     1.6730     0.6440 H     1 <1>   0.0800 
 32 H       -5.3010     2.1950    -0.9880 H     1 <1>   0.0800 
 33 H       -6.9400     7.7830     1.3550 H     1 <1>   0.1500 
 34 H       -3.7260     6.5880     0.7950 H     1 <1>   0.0800 
 35 H       -4.1130     6.0680     2.4210 H     1 <1>   0.0800 
 36 H       -4.6120     7.6430     1.8640 H     1 <1>   0.0800 
 37 H       -9.1350     3.1870    -0.6360 H     1 <1>   0.1500 
 38 H       -9.3310     7.8750     0.8170 H     1 <1>   0.1500 
 39 H      -12.6260     2.7820    -1.5960 H     1 <1>   0.0800 
 40 H      -10.9500     2.8710    -2.1240 H     1 <1>   0.0800 
 41 H      -11.3410     2.3430    -0.4760 H     1 <1>   0.0800 
 42 H      -12.8610     8.4900     0.1750 H     1 <1>   0.0800 
 43 H      -11.5870     8.3140     1.3770 H     1 <1>   0.0800 
 44 H      -11.1950     8.8410    -0.2720 H     1 <1>   0.0800 
@<TRIPOS>BOND
  1   1   2  1   
  2   1   3  1   
  3   2   4  2   
  4   2   5  1   
  5   3   6  2   
  6   3   7  1   
  7   4   6  1   
  8   5   8  am  
  9   5  27  1   
 10   7  28  1   
 11   7  29  1   
 12   7  30  1   
 13   8   9  2   
 14   8  10  1   
 15  10  11  1   
 16  10  31  1   
 17  10  32  1   
 18  11  12  1   
 19  12  13  ar  
 20  12  14  ar  
 21  13  15  ar  
 22  14  16  ar  
 23  14  17  1   
 24  15  18  ar  
 25  15  19  ar  
 26  16  18  ar  
 27  16  33  1   
 28  17  34  1   
 29  17  35  1   
 30  17  36  1   
 31  18  20  ar  
 32  19  21  ar  
 33  19  37  1   
 34  20  22  ar  
 35  20  38  1   
 36  21  22  ar  
 37  21  23  1   
 38  22  24  1   
 39  23  25  1   
 40  24  26  1   
 41  25  39  1   
 42  25  40  1   
 43  25  41  1   
 44  26  42  1   
 45  26  43  1   
 46  26  44  1   
@<TRIPOS>SUBSTRUCTURE
  1 ****  13 GROUP 4 **** **** 0

# MOE 2024.06 (io_trps.svl 2023.06)
