@<TRIPOS>MOLECULE
NONAME
66 70 1 0 0 
SMALL
USER_CHARGES


@<TRIPOS>ATOM
  1 O       -0.4310     2.0870    -1.3390 O.2   1 <1>  -0.5700 
  2 C       -1.6370     2.0840    -1.3840 C.2   1 <1>   0.5690 
  3 N       -2.4480     1.0050    -1.5770 N.am  1 <1>  -0.6600 
  4 C       -2.4810     3.3020    -1.1900 C.3   1 <1>  -0.0190 
  5 C       -3.8860     1.4480    -1.8080 C.3   1 <1>   0.2810 
  6 C       -1.9600    -0.3900    -1.6540 C.3   1 <1>   0.2200 
  7 C       -3.6290     2.9320    -2.1070 C.3   1 <1>   0.4180 
  8 C       -2.2750     4.7920    -1.5280 C.3   1 <1>  -0.0190 
  9 C       -4.8500     1.1940    -0.6340 C.2   1 <1>   0.5690 
 10 C       -2.7670    -1.2160    -2.6550 C.3   1 <1>  -0.2400 
 11 C       -1.9910    -1.0100    -0.2600 C.3   1 <1>  -0.2400 
 12 O       -4.4390     4.0260    -1.8510 O.3   1 <1>  -0.5600 
 13 C       -3.3000     3.2120    -3.5700 C.2   1 <1>  -0.2880 
 14 C       -2.1660     5.6430    -0.2750 C.2   1 <1>   0.5690 
 15 C       -3.5850     5.0530    -2.3140 C.3   1 <1>   0.3380 
 16 O       -5.2060     0.0560    -0.4370 O.2   1 <1>  -0.5700 
 17 N       -5.3080     2.2290     0.1330 N.am  1 <1>  -0.7300 
 18 C       -3.3170     4.5290    -3.7020 C.2   1 <1>  -0.2880 
 19 O       -3.0850     6.3490     0.0540 O.2   1 <1>  -0.5700 
 20 N       -1.0550     5.6110     0.4940 N.am  1 <1>  -0.7300 
 21 C       -6.1670     2.1850     1.3340 C.3   1 <1>   0.2200 
 22 C        0.1830     4.8240     0.3410 C.3   1 <1>   0.2200 
 23 C       -5.5130     1.3570     2.4470 C.3   1 <1>  -0.1600 
 24 C       -7.5680     1.6690     0.9870 C.3   1 <1>  -0.1600 
 25 C        0.2140     3.7450     1.4170 C.3   1 <1>  -0.1600 
 26 C        1.3690     5.7090     0.6990 C.3   1 <1>  -0.1600 
 27 C       -6.4060     1.3190     3.6960 C.3   1 <1>  -0.1600 
 28 C       -8.4610     1.6290     2.2370 C.3   1 <1>  -0.1600 
 29 C        0.7050     4.4400     2.6910 C.3   1 <1>  -0.1600 
 30 C        1.4550     5.6970     2.2300 C.3   1 <1>  -0.1600 
 31 C       -7.8120     0.8030     3.3560 C.3   1 <1>  -0.1600 
 32 H       -2.8210     3.2440    -0.1710 H     1 <1>   0.0800 
 33 H       -4.2830     0.9760    -2.6860 H     1 <1>   0.0800 
 34 H       -0.9340    -0.3670    -1.9870 H     1 <1>   0.0800 
 35 H       -1.4160     4.9560    -2.1530 H     1 <1>   0.0800 
 36 H       -3.7830    -1.3410    -2.3220 H     1 <1>   0.0800 
 37 H       -2.3290    -2.1930    -2.7480 H     1 <1>   0.0800 
 38 H       -2.7530    -0.7490    -3.6220 H     1 <1>   0.0800 
 39 H       -2.9970    -1.0880     0.1080 H     1 <1>   0.0800 
 40 H       -1.4090    -0.4140     0.4200 H     1 <1>   0.0800 
 41 H       -1.5660    -1.9960    -0.2910 H     1 <1>   0.0800 
 42 H       -3.1100     2.4180    -4.2710 H     1 <1>   0.1500 
 43 H       -4.0500     6.0240    -2.2480 H     1 <1>   0.0800 
 44 H       -5.1570     3.1830    -0.2240 H     1 <1>   0.3700 
 45 H       -3.1520     5.1890    -4.5360 H     1 <1>   0.1500 
 46 H       -1.0810     6.1820     1.3410 H     1 <1>   0.3700 
 47 H       -6.2680     3.1950     1.6950 H     1 <1>   0.0800 
 48 H        0.2730     4.4170    -0.6510 H     1 <1>   0.0800 
 49 H       -4.5590     1.7830     2.7000 H     1 <1>   0.0800 
 50 H       -5.3570     0.3490     2.1070 H     1 <1>   0.0800 
 51 H       -7.4970     0.6740     0.5830 H     1 <1>   0.0800 
 52 H       -8.0150     2.3070     0.2460 H     1 <1>   0.0800 
 53 H        0.9330     2.9980     1.1250 H     1 <1>   0.0800 
 54 H       -0.7400     3.2650     1.5460 H     1 <1>   0.0800 
 55 H        1.2780     6.7010     0.2950 H     1 <1>   0.0800 
 56 H        2.2600     5.2570     0.2990 H     1 <1>   0.0800 
 57 H       -6.4810     2.3100     4.1130 H     1 <1>   0.0800 
 58 H       -5.9580     0.6820     4.4390 H     1 <1>   0.0800 
 59 H       -9.4160     1.2020     1.9820 H     1 <1>   0.0800 
 60 H       -8.6310     2.6330     2.5870 H     1 <1>   0.0800 
 61 H        1.3410     3.7870     3.2630 H     1 <1>   0.0800 
 62 H       -0.1380     4.7240     3.2990 H     1 <1>   0.0800 
 63 H        0.9780     6.5730     2.6330 H     1 <1>   0.0800 
 64 H        2.4820     5.6810     2.5550 H     1 <1>   0.0800 
 65 H       -8.4320     0.8360     4.2360 H     1 <1>   0.0800 
 66 H       -7.7430    -0.2250     3.0410 H     1 <1>   0.0800 
@<TRIPOS>BOND
  1   1   2  2   
  2   2   3  am  
  3   2   4  1   
  4   3   5  1   
  5   3   6  1   
  6   4   7  1   
  7   4   8  1   
  8   4  32  1   
  9   5   7  1   
 10   5   9  1   
 11   5  33  1   
 12   6  10  1   
 13   6  11  1   
 14   6  34  1   
 15   7  12  1   
 16   7  13  1   
 17   8  14  1   
 18   8  15  1   
 19   8  35  1   
 20   9  16  2   
 21   9  17  am  
 22  10  36  1   
 23  10  37  1   
 24  10  38  1   
 25  11  39  1   
 26  11  40  1   
 27  11  41  1   
 28  12  15  1   
 29  13  18  2   
 30  13  42  1   
 31  14  19  2   
 32  14  20  am  
 33  15  18  1   
 34  15  43  1   
 35  17  21  1   
 36  17  44  1   
 37  18  45  1   
 38  20  22  1   
 39  20  46  1   
 40  21  23  1   
 41  21  24  1   
 42  21  47  1   
 43  22  25  1   
 44  22  26  1   
 45  22  48  1   
 46  23  27  1   
 47  23  49  1   
 48  23  50  1   
 49  24  28  1   
 50  24  51  1   
 51  24  52  1   
 52  25  29  1   
 53  25  53  1   
 54  25  54  1   
 55  26  30  1   
 56  26  55  1   
 57  26  56  1   
 58  27  31  1   
 59  27  57  1   
 60  27  58  1   
 61  28  31  1   
 62  28  59  1   
 63  28  60  1   
 64  29  30  1   
 65  29  61  1   
 66  29  62  1   
 67  30  63  1   
 68  30  64  1   
 69  31  65  1   
 70  31  66  1   
@<TRIPOS>SUBSTRUCTURE
  1 ****   4 GROUP 4 **** **** 0

# MOE 2024.06 (io_trps.svl 2023.06)
