@<TRIPOS>MOLECULE
Methyl-[2-(1H-pyrazol-4-yl)-ethyl]-[3-(4-trifluoromethyl-phenyl)-[1,2,4]oxadiazo
41 43 1 0 0 
SMALL
USER_CHARGES


@<TRIPOS>ATOM
  1 F        0.3470     0.7700    -0.1930 F     1 <1>  -0.3400 
  2 C        0.3010    -0.2700     0.6320 C.3   1 <1>   1.1640 
  3 F        0.3400     0.2320     1.8610 F     1 <1>  -0.3400 
  4 F       -0.9030    -0.8070     0.4870 F     1 <1>  -0.3400 
  5 C        1.4200    -1.2910     0.3670 C.ar  1 <1>  -0.1440 
  6 C        1.9450    -2.0640     1.3970 C.ar  1 <1>  -0.1500 
  7 C        1.9320    -1.4750    -0.9130 C.ar  1 <1>  -0.1500 
  8 C        2.9490    -2.9830     1.1530 C.ar  1 <1>  -0.1500 
  9 C        2.9360    -2.3960    -1.1490 C.ar  1 <1>  -0.1500 
 10 C        3.4750    -3.1760    -0.1250 C.ar  1 <1>   0.0540 
 11 C        4.5320    -4.1400    -0.3840 C.2   1 <1>   0.4620 
 12 N        5.0740    -4.3670    -1.5280 N.2   1 <1>  -0.4100 
 13 N        5.0640    -4.9050     0.5750 N.2   1 <1>  -0.5650 
 14 O        5.9720    -5.2880    -1.3690 O.3   1 <1>  -0.0190 
 15 C        5.9190    -5.5680    -0.0930 C.2   1 <1>   0.2980 
 16 C        6.8690    -6.6260     0.4640 C.3   1 <1>   0.2900 
 17 N        6.6670    -7.9810    -0.1130 N.3   1 <1>  -0.8100 
 18 C        7.7170    -8.9060     0.3500 C.3   1 <1>   0.1100 
 19 C        5.3150    -8.4850     0.1900 C.3   1 <1>   0.0300 
 20 C        7.8430   -10.1200    -0.5750 C.3   1 <1>   0.0210 
 21 C        9.0400   -10.9620    -0.1740 C.2   1 <1>  -0.1810 
 22 C       10.3790   -10.6570    -0.4000 C.2   1 <1>   0.1390 
 23 C        9.0640   -12.1490     0.4680 C.2   1 <1>  -0.3020 
 24 N       11.1770   -11.5690     0.0650 N.2   1 <1>  -0.7070 
 25 N       10.3600   -12.4950     0.6000 N.pl3 1 <1>   0.3000 
 26 H        1.5730    -1.9560     2.4030 H     1 <1>   0.1500 
 27 H        1.5500    -0.8990    -1.7410 H     1 <1>   0.1500 
 28 H        3.3340    -3.5650     1.9730 H     1 <1>   0.1500 
 29 H        3.3120    -2.5150    -2.1510 H     1 <1>   0.1500 
 30 H        6.7510    -6.6690     1.5320 H     1 <1>   0.0800 
 31 H        7.8720    -6.3000     0.2540 H     1 <1>   0.0800 
 32 H        7.5180    -9.2290     1.3580 H     1 <1>   0.0800 
 33 H        8.6660    -8.3960     0.3470 H     1 <1>   0.0800 
 34 H        4.5690    -7.8130    -0.2020 H     1 <1>   0.0800 
 35 H        5.1740    -8.5780     1.2540 H     1 <1>   0.0800 
 36 H        5.1580    -9.4440    -0.2700 H     1 <1>   0.0800 
 37 H        7.9680    -9.7880    -1.5900 H     1 <1>   0.0800 
 38 H        6.9580   -10.7260    -0.5170 H     1 <1>   0.0800 
 39 H       10.7270    -9.7690    -0.9020 H     1 <1>   0.1500 
 40 H        8.2530   -12.7540     0.8310 H     1 <1>   0.1500 
 41 H       10.7190   -13.3490     1.0440 H     1 <1>   0.2700 
@<TRIPOS>BOND
  1   1   2  1   
  2   2   3  1   
  3   2   4  1   
  4   2   5  1   
  5   5   6  ar  
  6   5   7  ar  
  7   6   8  ar  
  8   6  26  1   
  9   7   9  ar  
 10   7  27  1   
 11   8  10  ar  
 12   8  28  1   
 13   9  10  ar  
 14   9  29  1   
 15  10  11  1   
 16  11  12  2   
 17  11  13  1   
 18  12  14  1   
 19  13  15  2   
 20  14  15  1   
 21  15  16  1   
 22  16  17  1   
 23  16  30  1   
 24  16  31  1   
 25  17  18  1   
 26  17  19  1   
 27  18  20  1   
 28  18  32  1   
 29  18  33  1   
 30  19  34  1   
 31  19  35  1   
 32  19  36  1   
 33  20  21  1   
 34  20  37  1   
 35  20  38  1   
 36  21  22  1   
 37  21  23  2   
 38  22  24  2   
 39  22  39  1   
 40  23  25  1   
 41  23  40  1   
 42  24  25  1   
 43  25  41  1   
@<TRIPOS>SUBSTRUCTURE
  1 ****  13 GROUP 4 **** **** 0

# MOE 2024.06 (io_trps.svl 2023.06)
