@<TRIPOS>MOLECULE
NONAME
40 43 1 0 0 
SMALL
USER_CHARGES


@<TRIPOS>ATOM
  1 BR      -0.2220     0.5980     1.6380 Br    1 <1>  -0.1110 
  2 C       -1.4400     1.7750     0.7180 C.ar  1 <1>   0.1110 
  3 C       -2.7590     1.8020     1.1050 C.ar  1 <1>  -0.1500 
  4 C       -0.9330     2.5630    -0.3160 C.ar  1 <1>  -0.1500 
  5 C       -3.6200     2.6630     0.4230 C.ar  1 <1>   0.0000 
  6 C       -1.7830     3.4130    -0.9910 C.ar  1 <1>  -0.1500 
  7 C       -5.0070     2.9540     0.5380 C.ar  1 <1>   0.2560 
  8 C       -3.1280     3.4570    -0.6140 C.ar  1 <1>  -0.1520 
  9 N       -5.9450     2.4770     1.3640 N.ar  1 <1>  -0.2560 
 10 C       -5.3030     3.9050    -0.4230 C.ar  1 <1>   0.1050 
 11 N       -4.1700     4.2090    -1.1190 N.pl3 1 <1>   0.0330 
 12 N       -7.1430     2.9640     1.2060 N.ar  1 <1>  -0.3100 
 13 N       -6.5210     4.4120    -0.6020 N.ar  1 <1>  -0.5670 
 14 C       -7.3720     3.8950     0.2470 C.ar  1 <1>   0.7220 
 15 S       -9.0530     4.4840     0.1190 S.3   1 <1>  -0.3310 
 16 C       -9.9620     3.5840     1.4690 C.3   1 <1>   0.1310 
 17 C      -11.4370     3.9580     1.4710 C.2   1 <1>   0.5690 
 18 O      -11.8210     4.6410     2.3930 O.2   1 <1>  -0.5700 
 19 N      -12.2950     3.5200     0.4880 N.am  1 <1>  -0.6600 
 20 C      -11.9020     2.7000    -0.6940 C.3   1 <1>   0.1400 
 21 C      -13.7400     3.8830     0.5100 C.3   1 <1>   0.1400 
 22 C      -12.7360     1.4140    -0.7300 C.3   1 <1>  -0.1600 
 23 C      -14.5940     2.6110     0.4850 C.3   1 <1>  -0.1600 
 24 C      -14.2410     1.7150    -0.7110 C.3   1 <1>  -0.1600 
 25 H       -3.1240     1.1840     1.9060 H     1 <1>   0.1500 
 26 H        0.1090     2.4950    -0.5710 H     1 <1>   0.1500 
 27 H       -1.4210     4.0330    -1.7930 H     1 <1>   0.1500 
 28 H       -4.1260     4.8890    -1.8830 H     1 <1>   0.2700 
 29 H       -9.5080     3.8700     2.4000 H     1 <1>   0.0800 
 30 H       -9.8360     2.5300     1.3120 H     1 <1>   0.0800 
 31 H      -10.8590     2.4450    -0.6690 H     1 <1>   0.0800 
 32 H      -12.0810     3.2730    -1.5880 H     1 <1>   0.0800 
 33 H      -13.9600     4.4910    -0.3500 H     1 <1>   0.0800 
 34 H      -13.9780     4.4570     1.3900 H     1 <1>   0.0800 
 35 H      -12.4760     0.8070     0.1200 H     1 <1>   0.0800 
 36 H      -12.4910     0.8570    -1.6170 H     1 <1>   0.0800 
 37 H      -15.6340     2.8830     0.4390 H     1 <1>   0.0800 
 38 H      -14.4360     2.0730     1.4030 H     1 <1>   0.0800 
 39 H      -14.7970     0.7950    -0.6540 H     1 <1>   0.0800 
 40 H      -14.5160     2.2150    -1.6240 H     1 <1>   0.0800 
@<TRIPOS>BOND
  1   1   2  1   
  2   2   3  ar  
  3   2   4  ar  
  4   3   5  ar  
  5   3  25  1   
  6   4   6  ar  
  7   4  26  1   
  8   5   7  1   
  9   5   8  ar  
 10   6   8  ar  
 11   6  27  1   
 12   7   9  ar  
 13   7  10  ar  
 14   8  11  1   
 15   9  12  ar  
 16  10  11  1   
 17  10  13  ar  
 18  11  28  1   
 19  12  14  ar  
 20  13  14  ar  
 21  14  15  1   
 22  15  16  1   
 23  16  17  1   
 24  16  29  1   
 25  16  30  1   
 26  17  18  2   
 27  17  19  am  
 28  19  20  1   
 29  19  21  1   
 30  20  22  1   
 31  20  31  1   
 32  20  32  1   
 33  21  23  1   
 34  21  33  1   
 35  21  34  1   
 36  22  24  1   
 37  22  35  1   
 38  22  36  1   
 39  23  24  1   
 40  23  37  1   
 41  23  38  1   
 42  24  39  1   
 43  24  40  1   
@<TRIPOS>SUBSTRUCTURE
  1 ****  14 GROUP 4 **** **** 0

# MOE 2024.06 (io_trps.svl 2023.06)
