@<TRIPOS>MOLECULE
N-(2-Chloro-phenyl)-2-[5-propyl-4-(tetrahydro-furan-2-ylmethyl)-4H-[1,2,4]triazol-3-ylsulfanyl]-acetamide
49 51 1 0 0 
SMALL
USER_CHARGES


@<TRIPOS>ATOM
  1 CL      -3.0970     5.3020    -0.7640 Cl    1 <1>  -0.1770 
  2 C       -1.5930     4.4170    -0.5940 C.ar  1 <1>   0.1770 
  3 C       -1.6280     3.0790    -0.2000 C.ar  1 <1>   0.1170 
  4 C       -0.4090     5.0780    -0.8580 C.ar  1 <1>  -0.1500 
  5 N       -2.8750     2.4720     0.0500 N.am  1 <1>  -0.5470 
  6 C       -0.4090     2.4180    -0.0740 C.ar  1 <1>  -0.1500 
  7 C        0.7900     4.3990    -0.7270 C.ar  1 <1>  -0.1500 
  8 C       -3.2510     1.1960     0.3720 C.2   1 <1>   0.5690 
  9 C        0.7850     3.0700    -0.3350 C.ar  1 <1>  -0.1500 
 10 O       -2.4770     0.2790     0.4940 O.2   1 <1>  -0.5700 
 11 C       -4.7290     0.9250     0.6020 C.3   1 <1>   0.1310 
 12 S       -5.7760     2.0530    -0.4440 S.3   1 <1>  -0.2860 
 13 C       -7.3600     2.0520     0.4000 C.2   1 <1>   0.2430 
 14 N       -7.5930     1.3710     1.4640 N.2   1 <1>  -0.3380 
 15 N       -8.4060     2.7680    -0.0160 N.pl3 1 <1>   0.0480 
 16 N       -8.8630     1.6280     1.7880 N.2   1 <1>  -0.3380 
 17 C       -9.3300     2.4490     0.9050 C.2   1 <1>   0.0060 
 18 C       -8.5060     3.6870    -1.1720 C.3   1 <1>   0.0960 
 19 C      -10.7570     2.9730     0.9220 C.3   1 <1>   0.0200 
 20 C       -8.2590     5.1330    -0.7340 C.3   1 <1>   0.2000 
 21 C      -11.6570     2.1520    -0.0110 C.3   1 <1>  -0.1600 
 22 O       -8.5090     5.9710    -1.8110 O.3   1 <1>  -0.5600 
 23 C       -6.8290     5.4580    -0.3280 C.3   1 <1>  -0.1600 
 24 C      -13.0950     2.6810    -0.0160 C.3   1 <1>  -0.2400 
 25 C       -7.8060     7.1700    -1.6840 C.3   1 <1>   0.1200 
 26 C       -6.7430     6.9450    -0.6110 C.3   1 <1>  -0.1600 
 27 H       -0.4250     6.1100    -1.1600 H     1 <1>   0.1500 
 28 H       -3.6660     3.1080    -0.0830 H     1 <1>   0.3700 
 29 H       -0.3780     1.3880     0.2290 H     1 <1>   0.1500 
 30 H        1.7220     4.9000    -0.9290 H     1 <1>   0.1500 
 31 H        1.7160     2.5390    -0.2320 H     1 <1>   0.1500 
 32 H       -4.9790     1.1060     1.6310 H     1 <1>   0.0800 
 33 H       -4.9810    -0.0850     0.3360 H     1 <1>   0.0800 
 34 H       -9.4900     3.6070    -1.5920 H     1 <1>   0.0800 
 35 H       -7.7890     3.4020    -1.9190 H     1 <1>   0.0800 
 36 H      -10.7740     4.0090     0.6380 H     1 <1>   0.0800 
 37 H      -11.1350     2.9040     1.9280 H     1 <1>   0.0800 
 38 H       -8.9440     5.4170     0.0470 H     1 <1>   0.0800 
 39 H      -11.6560     1.1260     0.3170 H     1 <1>   0.0800 
 40 H      -11.2670     2.1770    -1.0130 H     1 <1>   0.0800 
 41 H       -6.1390     4.9290    -0.9610 H     1 <1>   0.0800 
 42 H       -6.6320     5.2170     0.7020 H     1 <1>   0.0800 
 43 H      -13.5150     2.6380     0.9740 H     1 <1>   0.0800 
 44 H      -13.7040     2.0820    -0.6700 H     1 <1>   0.0800 
 45 H      -13.1240     3.7000    -0.3620 H     1 <1>   0.0800 
 46 H       -8.4970     7.9460    -1.4020 H     1 <1>   0.0800 
 47 H       -7.3650     7.4000    -2.6390 H     1 <1>   0.0800 
 48 H       -5.7650     7.2380    -0.9520 H     1 <1>   0.0800 
 49 H       -6.9940     7.5150     0.2660 H     1 <1>   0.0800 
@<TRIPOS>BOND
  1   1   2  1   
  2   2   3  ar  
  3   2   4  ar  
  4   3   5  1   
  5   3   6  ar  
  6   4   7  ar  
  7   4  27  1   
  8   5   8  am  
  9   5  28  1   
 10   6   9  ar  
 11   6  29  1   
 12   7   9  ar  
 13   7  30  1   
 14   8  10  2   
 15   8  11  1   
 16   9  31  1   
 17  11  12  1   
 18  11  32  1   
 19  11  33  1   
 20  12  13  1   
 21  13  14  2   
 22  13  15  1   
 23  14  16  1   
 24  15  17  1   
 25  15  18  1   
 26  16  17  2   
 27  17  19  1   
 28  18  20  1   
 29  18  34  1   
 30  18  35  1   
 31  19  21  1   
 32  19  36  1   
 33  19  37  1   
 34  20  22  1   
 35  20  23  1   
 36  20  38  1   
 37  21  24  1   
 38  21  39  1   
 39  21  40  1   
 40  22  25  1   
 41  23  26  1   
 42  23  41  1   
 43  23  42  1   
 44  24  43  1   
 45  24  44  1   
 46  24  45  1   
 47  25  26  1   
 48  25  46  1   
 49  25  47  1   
 50  26  48  1   
 51  26  49  1   
@<TRIPOS>SUBSTRUCTURE
  1 ****  12 GROUP 4 **** **** 0

# MOE 2024.06 (io_trps.svl 2023.06)
