@<TRIPOS>MOLECULE
9804
40 42 1 0 0 
SMALL
USER_CHARGES


@<TRIPOS>ATOM
  1 BR       2.2290    -1.6810     3.2510 Br    1 <1>  -0.1110 
  2 C        2.7420    -1.7440     1.3910 C.ar  1 <1>   0.1110 
  3 C        3.1090    -0.5750     0.7370 C.ar  1 <1>   0.0820 
  4 C        2.7290    -2.9740     0.7650 C.ar  1 <1>  -0.1500 
  5 O        3.0950     0.5930     1.4330 O.3   1 <1>  -0.3630 
  6 C        3.4750    -0.6700    -0.6030 C.ar  1 <1>  -0.1500 
  7 C        3.0950    -3.0590    -0.5730 C.ar  1 <1>  -0.1430 
  8 C        3.4370     1.8170     0.8230 C.3   1 <1>   0.0400 
  9 C        3.4670    -1.9000    -1.2440 C.ar  1 <1>  -0.1500 
 10 C        3.1050    -4.4100    -1.2970 C.3   1 <1>   0.4570 
 11 N        1.7490    -5.0030    -1.2480 N.pl3 1 <1>   0.3140 
 12 C        4.1610    -5.3300    -0.6560 C.2   1 <1>  -0.1240 
 13 N        0.6380    -4.5820    -1.8290 N.2   1 <1>  -0.4180 
 14 C        1.4590    -6.0880    -0.5620 C.2   1 <1>   0.2700 
 15 C        3.7680    -6.4500     0.0250 C.2   1 <1>  -0.0380 
 16 C        5.4810    -4.8290    -0.8700 C.2   1 <1>   0.7060 
 17 N       -0.2790    -5.4090    -1.4690 N.2   1 <1>   0.0000 
 18 N        0.2130    -6.3610    -0.6730 N.2   1 <1>  -0.3380 
 19 N        2.4360    -6.7860     0.1310 N.pl3 1 <1>  -0.5840 
 20 C        4.6940    -7.4480     0.7050 C.3   1 <1>  -0.1020 
 21 O        5.7720    -4.1420    -1.8310 O.2   1 <1>  -0.5700 
 22 O        6.4320    -5.1030     0.0270 O.3   1 <1>  -0.4300 
 23 C        7.7410    -4.5950    -0.1050 C.3   1 <1>   0.1200 
 24 C        8.5620    -5.0950     1.0800 C.3   1 <1>  -0.2400 
 25 H        2.4350    -3.8450     1.3260 H     1 <1>   0.1500 
 26 H        3.7700     0.1980    -1.1620 H     1 <1>   0.1500 
 27 H        3.3440     2.5940     1.5600 H     1 <1>   0.0800 
 28 H        2.7590     2.0040     0.0090 H     1 <1>   0.0800 
 29 H        4.4530     1.7630     0.4750 H     1 <1>   0.0800 
 30 H        3.7630    -1.9460    -2.2800 H     1 <1>   0.1500 
 31 H        3.3390    -4.2640    -2.3360 H     1 <1>   0.0800 
 32 H        2.1220    -7.6210     0.6390 H     1 <1>   0.4000 
 33 H        4.3310    -8.4500     0.5620 H     1 <1>   0.0800 
 34 H        4.7380    -7.2450     1.7600 H     1 <1>   0.0800 
 35 H        5.6890    -7.4130     0.3040 H     1 <1>   0.0800 
 36 H        7.6910    -3.5190    -0.1130 H     1 <1>   0.0800 
 37 H        8.1540    -4.9460    -1.0360 H     1 <1>   0.0800 
 38 H        8.1310    -4.7460     2.0020 H     1 <1>   0.0800 
 39 H        9.5670    -4.7200     1.0090 H     1 <1>   0.0800 
 40 H        8.5960    -6.1690     1.0820 H     1 <1>   0.0800 
@<TRIPOS>BOND
  1   1   2  1   
  2   2   3  ar  
  3   2   4  ar  
  4   3   5  1   
  5   3   6  ar  
  6   4   7  ar  
  7   4  25  1   
  8   5   8  1   
  9   6   9  ar  
 10   6  26  1   
 11   7   9  ar  
 12   7  10  1   
 13   8  27  1   
 14   8  28  1   
 15   8  29  1   
 16   9  30  1   
 17  10  11  1   
 18  10  12  1   
 19  10  31  1   
 20  11  13  1   
 21  11  14  1   
 22  12  15  2   
 23  12  16  1   
 24  13  17  2   
 25  14  18  2   
 26  14  19  1   
 27  15  19  1   
 28  15  20  1   
 29  16  21  2   
 30  16  22  1   
 31  17  18  1   
 32  19  32  1   
 33  20  33  1   
 34  20  34  1   
 35  20  35  1   
 36  22  23  1   
 37  23  24  1   
 38  23  36  1   
 39  23  37  1   
 40  24  38  1   
 41  24  39  1   
 42  24  40  1   
@<TRIPOS>SUBSTRUCTURE
  1 ****   7 GROUP 4 **** **** 0

# MOE 2024.06 (io_trps.svl 2023.06)
