@<TRIPOS>MOLECULE
ka-00563
25 25 1 0 0 
SMALL
USER_CHARGES


@<TRIPOS>ATOM
  1 O        0.7450     0.0300     2.2770 O.2   1 <1>  -0.5200 
  2 N        1.7120     0.3470     1.5650 N.pl3 1 <1>   0.8000 
  3 O        2.0810     1.5340     1.4990 O.2   1 <1>  -0.5200 
  4 C        2.4470    -0.6960     0.7570 C.3   1 <1>   0.3840 
  5 C        1.4780    -1.7420     0.1290 C.ar  1 <1>  -0.1440 
  6 C        3.1960     0.0070    -0.4080 C.3   1 <1>   0.1200 
  7 C        3.4940    -1.3330     1.7060 C.3   1 <1>   0.1200 
  8 C        0.1900    -1.3820    -0.2630 C.ar  1 <1>  -0.1500 
  9 C        1.8760    -3.0590    -0.0960 C.ar  1 <1>  -0.1500 
 10 O        4.0350    -0.8730    -1.0950 O.3   1 <1>  -0.6800 
 11 O        2.9150    -2.0360     2.7620 O.3   1 <1>  -0.6800 
 12 C       -0.6730    -2.3040    -0.8280 C.ar  1 <1>  -0.1500 
 13 C        1.0150    -3.9830    -0.6610 C.ar  1 <1>  -0.1500 
 14 C       -0.2630    -3.6080    -1.0260 C.ar  1 <1>  -0.1500 
 15 H        3.8170     0.8070    -0.0400 H     1 <1>   0.0800 
 16 H        2.4860     0.4030    -1.1130 H     1 <1>   0.0800 
 17 H        4.1230    -0.5680     2.1300 H     1 <1>   0.0800 
 18 H        4.1320    -2.0150     1.1730 H     1 <1>   0.0800 
 19 H       -0.1750    -0.3770    -0.1340 H     1 <1>   0.1500 
 20 H        2.8680    -3.3960     0.1480 H     1 <1>   0.1500 
 21 H        4.3990    -0.4570    -1.9040 H     1 <1>   0.4000 
 22 H        2.2200    -2.6540     2.4470 H     1 <1>   0.4000 
 23 H       -1.6670    -2.0050    -1.1140 H     1 <1>   0.1500 
 24 H        1.3420    -4.9950    -0.8230 H     1 <1>   0.1500 
 25 H       -0.9350    -4.3260    -1.4640 H     1 <1>   0.1500 
@<TRIPOS>BOND
  1   1   2  2   
  2   2   3  2   
  3   2   4  1   
  4   4   5  1   
  5   4   6  1   
  6   4   7  1   
  7   5   8  ar  
  8   5   9  ar  
  9   6  10  1   
 10   6  15  1   
 11   6  16  1   
 12   7  11  1   
 13   7  17  1   
 14   7  18  1   
 15   8  12  ar  
 16   8  19  1   
 17   9  13  ar  
 18   9  20  1   
 19  10  21  1   
 20  11  22  1   
 21  12  14  ar  
 22  12  23  1   
 23  13  14  ar  
 24  13  24  1   
 25  14  25  1   
@<TRIPOS>SUBSTRUCTURE
  1 ****   5 GROUP 4 **** **** 0

# MOE 2024.06 (io_trps.svl 2023.06)
