@<TRIPOS>MOLECULE
NONAME
47 50 1 0 0 
SMALL
USER_CHARGES


@<TRIPOS>ATOM
  1 F        0.0400     1.1120     0.8370 F     1 <1>  -0.1900 
  2 C       -0.9090     2.0090     0.7110 C.ar  1 <1>   0.1900 
  3 C       -0.6150     3.2730     0.1820 C.ar  1 <1>   0.1000 
  4 C       -2.1770     1.6440     1.1180 C.ar  1 <1>  -0.1500 
  5 N        0.6480     3.7030    -0.2460 N.pl3 1 <1>  -0.8380 
  6 C       -1.6740     4.1660     0.0790 C.ar  1 <1>  -0.1500 
  7 C       -3.2100     2.5600     1.0000 C.ar  1 <1>  -0.1500 
  8 C        1.6860     4.0580     0.7640 C.3   1 <1>   0.2090 
  9 C        1.2090     3.1820    -1.5250 C.3   1 <1>   0.2090 
 10 C       -2.9540     3.8190     0.4800 C.ar  1 <1>  -0.1500 
 11 C        2.7500     2.9550     0.9250 C.3   1 <1>   0.1100 
 12 C        2.2780     2.0960    -1.2960 C.3   1 <1>   0.1100 
 13 N        3.3440     2.5220    -0.3610 N.3   1 <1>  -0.8100 
 14 C        4.3790     1.4960    -0.1130 C.3   1 <1>   0.2900 
 15 C        4.9960     0.9120    -1.3800 C.2   1 <1>   0.0070 
 16 N        6.0000     1.4160    -1.9920 N.2   1 <1>  -0.3380 
 17 N        4.6090    -0.1950    -2.0040 N.pl3 1 <1>   0.3140 
 18 N        6.2380     0.6140    -3.0220 N.2   1 <1>   0.0000 
 19 N        5.4050    -0.3610    -3.0380 N.2   1 <1>  -0.4180 
 20 C        3.5160    -1.1540    -1.7250 C.3   1 <1>   0.2390 
 21 C        3.5380    -1.6560    -0.2860 C.ar  1 <1>  -0.1430 
 22 C        2.4130    -1.5100     0.5190 C.ar  1 <1>  -0.1500 
 23 C        4.6850    -2.2530     0.2260 C.ar  1 <1>  -0.1500 
 24 C        2.4330    -1.9480     1.8320 C.ar  1 <1>  -0.1500 
 25 C        4.7150    -2.6960     1.5380 C.ar  1 <1>  -0.1500 
 26 C        3.5870    -2.5330     2.3170 C.ar  1 <1>   0.1900 
 27 F        3.6120    -2.9440     3.5560 F     1 <1>  -0.1900 
 28 H       -2.3550     0.6630     1.5190 H     1 <1>   0.1500 
 29 H       -1.4790     5.1440    -0.3230 H     1 <1>   0.1500 
 30 H       -4.2060     2.2960     1.3110 H     1 <1>   0.1500 
 31 H        1.2140     4.2420     1.7130 H     1 <1>   0.0800 
 32 H        2.1710     4.9670     0.4550 H     1 <1>   0.0800 
 33 H        1.6540     3.9990    -2.0660 H     1 <1>   0.0800 
 34 H        0.4140     2.7820    -2.1290 H     1 <1>   0.0800 
 35 H       -3.7540     4.5330     0.3880 H     1 <1>   0.1500 
 36 H        2.2960     2.1130     1.4180 H     1 <1>   0.0800 
 37 H        3.5280     3.3300     1.5660 H     1 <1>   0.0800 
 38 H        2.7130     1.8660    -2.2520 H     1 <1>   0.0800 
 39 H        1.7950     1.2150    -0.9190 H     1 <1>   0.0800 
 40 H        3.9740     0.7150     0.5010 H     1 <1>   0.0800 
 41 H        5.1740     1.9560     0.4490 H     1 <1>   0.0800 
 42 H        3.6250    -1.9920    -2.3900 H     1 <1>   0.0800 
 43 H        2.5810    -0.6770    -1.9480 H     1 <1>   0.0800 
 44 H        1.5140    -1.0550     0.1370 H     1 <1>   0.1500 
 45 H        5.5620    -2.3760    -0.3910 H     1 <1>   0.1500 
 46 H        1.5740    -1.8400     2.4700 H     1 <1>   0.1500 
 47 H        5.5940    -3.1590     1.9510 H     1 <1>   0.1500 
@<TRIPOS>BOND
  1   1   2  1   
  2   2   3  ar  
  3   2   4  ar  
  4   3   5  1   
  5   3   6  ar  
  6   4   7  ar  
  7   4  28  1   
  8   5   8  1   
  9   5   9  1   
 10   6  10  ar  
 11   6  29  1   
 12   7  10  ar  
 13   7  30  1   
 14   8  11  1   
 15   8  31  1   
 16   8  32  1   
 17   9  12  1   
 18   9  33  1   
 19   9  34  1   
 20  10  35  1   
 21  11  13  1   
 22  11  36  1   
 23  11  37  1   
 24  12  13  1   
 25  12  38  1   
 26  12  39  1   
 27  13  14  1   
 28  14  15  1   
 29  14  40  1   
 30  14  41  1   
 31  15  16  2   
 32  15  17  1   
 33  16  18  1   
 34  17  19  1   
 35  17  20  1   
 36  18  19  2   
 37  20  21  1   
 38  20  42  1   
 39  20  43  1   
 40  21  22  ar  
 41  21  23  ar  
 42  22  24  ar  
 43  22  44  1   
 44  23  25  ar  
 45  23  45  1   
 46  24  26  ar  
 47  24  46  1   
 48  25  26  ar  
 49  25  47  1   
 50  26  27  1   
@<TRIPOS>SUBSTRUCTURE
  1 ****  12 GROUP 4 **** **** 0

# MOE 2024.06 (io_trps.svl 2023.06)
