@<TRIPOS>MOLECULE
9645
46 47 1 0 0 
SMALL
USER_CHARGES


@<TRIPOS>ATOM
  1 O        0.5330     0.5910     2.7980 O.2   1 <1>  -0.5700 
  2 C        0.5070    -0.4920     2.2730 C.2   1 <1>   0.5690 
  3 N        1.6010    -0.9490     1.6100 N.am  1 <1>  -0.5470 
  4 C       -0.7630    -1.3230     2.3520 C.3   1 <1>  -0.0990 
  5 C        1.7850    -2.1620     0.9440 C.ar  1 <1>   0.1170 
  6 C       -1.5960    -1.2300     1.0630 C.3   1 <1>  -0.1600 
  7 C        1.7980    -2.2020    -0.4420 C.ar  1 <1>  -0.1500 
  8 C        1.9580    -3.3410     1.6510 C.ar  1 <1>  -0.1500 
  9 C       -2.8740    -2.0620     1.1630 C.3   1 <1>   0.1200 
 10 C        1.9680    -3.3960    -1.1230 C.ar  1 <1>  -0.1430 
 11 C        2.1300    -4.5380     0.9820 C.ar  1 <1>  -0.1500 
 12 O       -3.5890    -1.9130    -0.0410 O.3   1 <1>  -0.3630 
 13 C        2.1350    -4.5770    -0.4050 C.ar  1 <1>  -0.1430 
 14 C        1.9650    -3.3870    -2.6450 C.3   1 <1>  -0.0970 
 15 C       -4.7820    -2.5340    -0.2290 C.ar  1 <1>   0.0830 
 16 C        2.3240    -5.9140    -1.1060 C.3   1 <1>  -0.0970 
 17 C       -5.4190    -2.3030    -1.4380 C.ar  1 <1>  -0.1500 
 18 C       -5.3810    -3.3700     0.7100 C.ar  1 <1>  -0.1500 
 19 C       -6.6400    -2.8920    -1.7180 C.ar  1 <1>  -0.1500 
 20 C       -6.6020    -3.9590     0.4300 C.ar  1 <1>  -0.1500 
 21 C       -7.2390    -3.7280    -0.7780 C.ar  1 <1>   0.0830 
 22 O       -8.4330    -4.3470    -0.9670 O.3   1 <1>  -0.3630 
 23 C       -9.1590    -4.1740    -2.1640 C.3   1 <1>   0.0400 
 24 H        2.3610    -0.2710     1.5600 H     1 <1>   0.3700 
 25 H       -1.3470    -0.9640     3.1810 H     1 <1>   0.0800 
 26 H       -0.5070    -2.3470     2.5520 H     1 <1>   0.0800 
 27 H       -1.0130    -1.5860     0.2310 H     1 <1>   0.0800 
 28 H       -1.8570    -0.2000     0.8850 H     1 <1>   0.0800 
 29 H        1.6650    -1.2840    -0.9850 H     1 <1>   0.1500 
 30 H        1.9610    -3.3200     2.7260 H     1 <1>   0.1500 
 31 H       -3.4940    -1.7130     1.9700 H     1 <1>   0.0800 
 32 H       -2.6400    -3.1050     1.2910 H     1 <1>   0.0800 
 33 H        2.2620    -5.4420     1.5490 H     1 <1>   0.1500 
 34 H        1.8220    -2.3920    -3.0260 H     1 <1>   0.0800 
 35 H        1.1690    -4.0070    -3.0160 H     1 <1>   0.0800 
 36 H        2.9030    -3.7580    -3.0180 H     1 <1>   0.0800 
 37 H        3.2030    -5.8850    -1.7240 H     1 <1>   0.0800 
 38 H        1.4700    -6.1320    -1.7200 H     1 <1>   0.0800 
 39 H        2.4390    -6.7110    -0.3940 H     1 <1>   0.0800 
 40 H       -4.9500    -1.6570    -2.1580 H     1 <1>   0.1500 
 41 H       -4.9170    -3.5730     1.6560 H     1 <1>   0.1500 
 42 H       -7.1040    -2.6900    -2.6640 H     1 <1>   0.1500 
 43 H       -7.0720    -4.6060     1.1490 H     1 <1>   0.1500 
 44 H      -10.0630    -4.7520    -2.0910 H     1 <1>   0.0800 
 45 H       -8.5640    -4.5280    -2.9870 H     1 <1>   0.0800 
 46 H       -9.4000    -3.1320    -2.2790 H     1 <1>   0.0800 
@<TRIPOS>BOND
  1   1   2  2   
  2   2   3  am  
  3   2   4  1   
  4   3   5  1   
  5   3  24  1   
  6   4   6  1   
  7   4  25  1   
  8   4  26  1   
  9   5   7  ar  
 10   5   8  ar  
 11   6   9  1   
 12   6  27  1   
 13   6  28  1   
 14   7  10  ar  
 15   7  29  1   
 16   8  11  ar  
 17   8  30  1   
 18   9  12  1   
 19   9  31  1   
 20   9  32  1   
 21  10  13  ar  
 22  10  14  1   
 23  11  13  ar  
 24  11  33  1   
 25  12  15  1   
 26  13  16  1   
 27  14  34  1   
 28  14  35  1   
 29  14  36  1   
 30  15  17  ar  
 31  15  18  ar  
 32  16  37  1   
 33  16  38  1   
 34  16  39  1   
 35  17  19  ar  
 36  17  40  1   
 37  18  20  ar  
 38  18  41  1   
 39  19  21  ar  
 40  19  42  1   
 41  20  21  ar  
 42  20  43  1   
 43  21  22  1   
 44  22  23  1   
 45  23  44  1   
 46  23  45  1   
 47  23  46  1   
@<TRIPOS>SUBSTRUCTURE
  1 ****   9 GROUP 4 **** **** 0

# MOE 2024.06 (io_trps.svl 2023.06)
