@<TRIPOS>MOLECULE
NONAME
54 56 1 0 0 
SMALL
USER_CHARGES


@<TRIPOS>ATOM
  1 O       -0.4270     3.5280     2.3570 O.2   1 <1>  -0.5700 
  2 C       -0.3930     3.5810     1.1540 C.2   1 <1>   0.4230 
  3 C        0.8140     3.3240     0.3970 C.ar  1 <1>   0.0860 
  4 C       -1.7030     3.9540     0.4470 C.3   1 <1>  -0.0190 
  5 C        2.0630     3.5110     0.9950 C.ar  1 <1>  -0.1500 
  6 C        0.8110     2.8820    -0.9320 C.ar  1 <1>  -0.1500 
  7 C       -2.3740     5.1720     1.1170 C.3   1 <1>  -0.1600 
  8 C       -2.6730     2.7580     0.4450 C.3   1 <1>  -0.1600 
  9 C        3.2440     3.2940     0.3120 C.ar  1 <1>  -0.1500 
 10 C        1.9880     2.6650    -1.6220 C.ar  1 <1>  -0.1500 
 11 C       -3.7340     5.4930     0.5050 C.3   1 <1>   0.3430 
 12 C       -4.0340     3.1150    -0.1500 C.3   1 <1>   0.3430 
 13 C        3.2130     2.8710    -1.0130 C.ar  1 <1>   0.0830 
 14 N       -4.6040     4.2880     0.5720 N.4   1 <1>  -0.9590 
 15 O        4.3150     2.6400    -1.7580 O.3   1 <1>  -0.3630 
 16 C       -6.0290     4.5720     0.1440 C.3   1 <1>   0.4040 
 17 C        5.6150     2.8060    -1.2360 C.3   1 <1>   0.0400 
 18 C       -7.0250     3.4670     0.5420 C.2   1 <1>   0.5690 
 19 O       -6.6870     2.6880     1.4030 O.2   1 <1>  -0.5700 
 20 N       -8.2350     3.3710    -0.0660 N.am  1 <1>  -0.7300 
 21 C       -9.2800     2.4020     0.3160 C.3   1 <1>   0.2840 
 22 C      -10.6080     2.9960    -0.1090 C.ar  1 <1>  -0.1430 
 23 C      -11.1420     2.7010    -1.3550 C.ar  1 <1>  -0.1500 
 24 C      -11.2950     3.8500     0.7410 C.ar  1 <1>  -0.1500 
 25 C      -12.3470     3.2570    -1.7480 C.ar  1 <1>  -0.1500 
 26 C      -12.5000     4.4060     0.3490 C.ar  1 <1>  -0.1500 
 27 C      -13.0270     4.1100    -0.8960 C.ar  1 <1>  -0.1500 
 28 H       -1.4870     4.2310    -0.5700 H     1 <1>   0.0800 
 29 H        2.1030     3.8340     2.0220 H     1 <1>   0.1500 
 30 H       -0.1130     2.6910    -1.4430 H     1 <1>   0.1500 
 31 H       -1.7310     6.0300     1.0210 H     1 <1>   0.0800 
 32 H       -2.5050     4.9920     2.1710 H     1 <1>   0.0800 
 33 H       -2.8150     2.4030     1.4530 H     1 <1>   0.0800 
 34 H       -2.2460     1.9470    -0.1180 H     1 <1>   0.0800 
 35 H        4.1750     3.4570     0.8210 H     1 <1>   0.1500 
 36 H        1.9720     2.3280    -2.6440 H     1 <1>   0.1500 
 37 H       -3.6060     5.7980    -0.5220 H     1 <1>   0.0800 
 38 H       -4.1860     6.3080     1.0490 H     1 <1>   0.0800 
 39 H       -4.6940     2.2660    -0.0540 H     1 <1>   0.0800 
 40 H       -3.9240     3.3450    -1.1980 H     1 <1>   0.0800 
 41 H       -4.6750     3.9880     1.5600 H     1 <1>   0.4500 
 42 H       -6.0690     4.7050    -0.9230 H     1 <1>   0.0800 
 43 H       -6.3630     5.4850     0.6060 H     1 <1>   0.0800 
 44 H        6.3190     2.5620    -2.0110 H     1 <1>   0.0800 
 45 H        5.7440     2.1400    -0.4020 H     1 <1>   0.0800 
 46 H        5.7420     3.8310    -0.9360 H     1 <1>   0.0800 
 47 H       -8.5780     4.0480    -0.7540 H     1 <1>   0.3700 
 48 H       -9.2650     2.2330     1.3800 H     1 <1>   0.0800 
 49 H       -9.1090     1.4640    -0.1840 H     1 <1>   0.0800 
 50 H      -10.6260     2.0380    -2.0280 H     1 <1>   0.1500 
 51 H      -10.8960     4.0870     1.7120 H     1 <1>   0.1500 
 52 H      -12.7590     3.0250    -2.7150 H     1 <1>   0.1500 
 53 H      -13.0300     5.0670     1.0130 H     1 <1>   0.1500 
 54 H      -13.9650     4.5410    -1.2000 H     1 <1>   0.1500 
@<TRIPOS>BOND
  1   1   2  2   
  2   2   3  1   
  3   2   4  1   
  4   3   5  ar  
  5   3   6  ar  
  6   4   7  1   
  7   4   8  1   
  8   4  28  1   
  9   5   9  ar  
 10   5  29  1   
 11   6  10  ar  
 12   6  30  1   
 13   7  11  1   
 14   7  31  1   
 15   7  32  1   
 16   8  12  1   
 17   8  33  1   
 18   8  34  1   
 19   9  13  ar  
 20   9  35  1   
 21  10  13  ar  
 22  10  36  1   
 23  11  14  1   
 24  11  37  1   
 25  11  38  1   
 26  12  14  1   
 27  12  39  1   
 28  12  40  1   
 29  13  15  1   
 30  14  16  1   
 31  14  41  1   
 32  15  17  1   
 33  16  18  1   
 34  16  42  1   
 35  16  43  1   
 36  17  44  1   
 37  17  45  1   
 38  17  46  1   
 39  18  19  2   
 40  18  20  am  
 41  20  21  1   
 42  20  47  1   
 43  21  22  1   
 44  21  48  1   
 45  21  49  1   
 46  22  23  ar  
 47  22  24  ar  
 48  23  25  ar  
 49  23  50  1   
 50  24  26  ar  
 51  24  51  1   
 52  25  27  ar  
 53  25  52  1   
 54  26  27  ar  
 55  26  53  1   
 56  27  54  1   
@<TRIPOS>SUBSTRUCTURE
  1 ****  12 GROUP 4 **** **** 0

# MOE 2024.06 (io_trps.svl 2023.06)
