@<TRIPOS>MOLECULE
NONAME
53 55 1 0 0 
SMALL
USER_CHARGES


@<TRIPOS>ATOM
  1 S        1.0400     0.2830    -1.6180 S.o2  1 <1>   1.4470 
  2 O        0.9540    -0.9330    -2.3980 O.2   1 <1>  -0.6500 
  3 O        1.9610     1.3230    -2.0210 O.2   1 <1>  -0.6500 
  4 N        1.4630    -0.1620    -0.0490 N.am  1 <1>  -0.8490 
  5 C       -0.6150     1.0070    -1.4140 C.ar  1 <1>  -0.0090 
  6 C        2.9000    -0.3890    -0.0080 C.3   1 <1>   0.4660 
  7 C        0.7410    -1.3340     0.4350 C.3   1 <1>   0.1960 
  8 C       -0.8620     1.9730    -0.4470 C.ar  1 <1>  -0.1500 
  9 C       -1.6780     0.6240    -2.2230 C.ar  1 <1>  -0.1500 
 10 N        3.2850    -1.1020     1.2270 N.3   1 <1>  -0.8100 
 11 C        0.9970    -1.4650     1.9410 C.3   1 <1>  -0.1600 
 12 C       -2.1210     2.5290    -0.2920 C.ar  1 <1>  -0.1500 
 13 C       -2.9370     1.1810    -2.0680 C.ar  1 <1>  -0.1500 
 14 C        2.3610    -0.8900     2.3410 C.3   1 <1>   0.1100 
 15 C        4.6690    -0.7860     1.6010 C.3   1 <1>   0.2530 
 16 C       -3.1840     2.1440    -1.0980 C.ar  1 <1>  -0.0090 
 17 C        5.6280    -1.1080     0.4620 C.ar  1 <1>  -0.1430 
 18 S       -4.8340     2.8770    -0.8820 S.o2  1 <1>   1.4470 
 19 C        5.7240    -2.4050    -0.0190 C.ar  1 <1>  -0.1500 
 20 C        6.4090    -0.1130    -0.1080 C.ar  1 <1>  -0.1500 
 21 O       -4.7240     4.3170    -0.9680 O.2   1 <1>  -0.6500 
 22 O       -5.8010     2.1850    -1.7090 O.2   1 <1>  -0.6500 
 23 N       -5.2110     2.4990     0.7330 N.am  1 <1>  -0.8490 
 24 C        6.5900    -2.7060    -1.0560 C.ar  1 <1>  -0.1500 
 25 C        7.2750    -0.4130    -1.1460 C.ar  1 <1>  -0.1500 
 26 C       -6.3000     3.3330     1.2500 C.3   1 <1>   0.1160 
 27 C       -5.5290     1.0820     0.9310 C.3   1 <1>   0.1160 
 28 C        7.3660    -1.7090    -1.6200 C.ar  1 <1>  -0.1500 
 29 H        3.4030     0.5640    -0.0600 H     1 <1>   0.0800 
 30 H        3.2120    -0.9790    -0.8570 H     1 <1>   0.0800 
 31 H        1.0970    -2.2140    -0.0770 H     1 <1>   0.0800 
 32 H       -0.3160    -1.2360     0.2540 H     1 <1>   0.0800 
 33 H       -0.0550     2.2930     0.1920 H     1 <1>   0.1500 
 34 H       -1.5180    -0.1200    -2.9870 H     1 <1>   0.1500 
 35 H        0.9500    -2.5030     2.2140 H     1 <1>   0.0800 
 36 H        0.2280    -0.9510     2.4880 H     1 <1>   0.0800 
 37 H       -2.2850     3.2770     0.4660 H     1 <1>   0.1500 
 38 H       -3.7400     0.8620    -2.7130 H     1 <1>   0.1500 
 39 H        2.2720     0.1660     2.5360 H     1 <1>   0.0800 
 40 H        2.7180    -1.3820     3.2300 H     1 <1>   0.0800 
 41 H        4.9480    -1.3730     2.4590 H     1 <1>   0.0800 
 42 H        4.7450     0.2550     1.8670 H     1 <1>   0.0800 
 43 H        5.1150    -3.1790     0.4130 H     1 <1>   0.1500 
 44 H        6.3460     0.9000     0.2490 H     1 <1>   0.1500 
 45 H        6.6560    -3.7150    -1.4250 H     1 <1>   0.1500 
 46 H        7.8770     0.3630    -1.5850 H     1 <1>   0.1500 
 47 H       -6.0250     4.3730     1.2000 H     1 <1>   0.0800 
 48 H       -6.5010     3.0890     2.2790 H     1 <1>   0.0800 
 49 H       -7.1950     3.1840     0.6690 H     1 <1>   0.0800 
 50 H       -4.7130     0.4680     0.5890 H     1 <1>   0.0800 
 51 H       -6.4190     0.8130     0.3850 H     1 <1>   0.0800 
 52 H       -5.6860     0.8820     1.9770 H     1 <1>   0.0800 
 53 H        8.0390    -1.9420    -2.4270 H     1 <1>   0.1500 
@<TRIPOS>BOND
  1   1   2  2   
  2   1   3  2   
  3   1   4  am  
  4   1   5  1   
  5   4   6  1   
  6   4   7  1   
  7   5   8  ar  
  8   5   9  ar  
  9   6  10  1   
 10   6  29  1   
 11   6  30  1   
 12   7  11  1   
 13   7  31  1   
 14   7  32  1   
 15   8  12  ar  
 16   8  33  1   
 17   9  13  ar  
 18   9  34  1   
 19  10  14  1   
 20  10  15  1   
 21  11  14  1   
 22  11  35  1   
 23  11  36  1   
 24  12  16  ar  
 25  12  37  1   
 26  13  16  ar  
 27  13  38  1   
 28  14  39  1   
 29  14  40  1   
 30  15  17  1   
 31  15  41  1   
 32  15  42  1   
 33  16  18  1   
 34  17  19  ar  
 35  17  20  ar  
 36  18  21  2   
 37  18  22  2   
 38  18  23  am  
 39  19  24  ar  
 40  19  43  1   
 41  20  25  ar  
 42  20  44  1   
 43  23  26  1   
 44  23  27  1   
 45  24  28  ar  
 46  24  45  1   
 47  25  28  ar  
 48  25  46  1   
 49  26  47  1   
 50  26  48  1   
 51  26  49  1   
 52  27  50  1   
 53  27  51  1   
 54  27  52  1   
 55  28  53  1   
@<TRIPOS>SUBSTRUCTURE
  1 ****   4 GROUP 4 **** **** 0

# MOE 2024.06 (io_trps.svl 2023.06)
