@<TRIPOS>MOLECULE
ka-06002
28 28 1 0 0 
SMALL
USER_CHARGES


@<TRIPOS>ATOM
  1 O       -0.2670     2.9960    -1.7830 O.2   1 <1>  -0.5700 
  2 C       -0.3790     2.4540    -0.7140 C.2   1 <1>   0.6590 
  3 O        0.4170     1.4610    -0.3360 O.3   1 <1>  -0.4300 
  4 C       -1.4320     2.8820     0.2880 C.3   1 <1>   0.0440 
  5 C        1.4150     0.9560    -1.1900 C.3   1 <1>   0.1200 
  6 C       -2.5650     1.8690     0.3850 C.ar  1 <1>  -0.1440 
  7 C        2.1270    -0.1820    -0.4640 C.3   1 <1>  -0.2400 
  8 C       -3.5930     1.8850    -0.5460 C.ar  1 <1>  -0.1500 
  9 C       -2.5790     0.9210     1.3960 C.ar  1 <1>  -0.1500 
 10 C       -4.6270     0.9670    -0.4680 C.ar  1 <1>  -0.1500 
 11 C       -3.6110     0.0030     1.4770 C.ar  1 <1>  -0.1500 
 12 C       -4.6400     0.0180     0.5500 C.ar  1 <1>   0.0830 
 13 O       -5.6130    -0.9160     0.7000 O.3   1 <1>  -0.3630 
 14 C       -6.6930    -0.9990    -0.2020 C.3   1 <1>   0.0400 
 15 H       -1.8270     3.8350    -0.0120 H     1 <1>   0.0800 
 16 H       -0.9640     3.0080     1.2460 H     1 <1>   0.0800 
 17 H        2.0990     1.7540    -1.4260 H     1 <1>   0.0800 
 18 H        0.9450     0.6040    -2.0930 H     1 <1>   0.0800 
 19 H        2.5820     0.1820     0.4400 H     1 <1>   0.0800 
 20 H        2.8950    -0.5900    -1.0950 H     1 <1>   0.0800 
 21 H        1.4270    -0.9630    -0.2260 H     1 <1>   0.0800 
 22 H       -3.5900     2.6110    -1.3410 H     1 <1>   0.1500 
 23 H       -1.7860     0.8870     2.1240 H     1 <1>   0.1500 
 24 H       -5.4060     1.0070    -1.2040 H     1 <1>   0.1500 
 25 H       -3.6250    -0.7330     2.2590 H     1 <1>   0.1500 
 26 H       -7.3260    -1.8100     0.1090 H     1 <1>   0.0800 
 27 H       -6.3100    -1.1910    -1.1880 H     1 <1>   0.0800 
 28 H       -7.2430    -0.0750    -0.1730 H     1 <1>   0.0800 
@<TRIPOS>BOND
  1   1   2  2   
  2   2   3  1   
  3   2   4  1   
  4   3   5  1   
  5   4   6  1   
  6   4  15  1   
  7   4  16  1   
  8   5   7  1   
  9   5  17  1   
 10   5  18  1   
 11   6   8  ar  
 12   6   9  ar  
 13   7  19  1   
 14   7  20  1   
 15   7  21  1   
 16   8  10  ar  
 17   8  22  1   
 18   9  11  ar  
 19   9  23  1   
 20  10  12  ar  
 21  10  24  1   
 22  11  12  ar  
 23  11  25  1   
 24  12  13  1   
 25  13  14  1   
 26  14  26  1   
 27  14  27  1   
 28  14  28  1   
@<TRIPOS>SUBSTRUCTURE
  1 ****   6 GROUP 4 **** **** 0

# MOE 2024.06 (io_trps.svl 2023.06)
