@<TRIPOS>MOLECULE
NONAME
39 40 1 0 0 
SMALL
USER_CHARGES


@<TRIPOS>ATOM
  1 S       -0.0970    -1.1500     1.3280 S.o2  1 <1>   1.4470 
  2 O        0.6630    -0.5810     2.4200 O.2   1 <1>  -0.6500 
  3 O       -0.7480    -2.4250     1.5580 O.2   1 <1>  -0.6500 
  4 N        0.9110    -1.3810    -0.0230 N.am  1 <1>  -0.8490 
  5 C       -1.3520     0.0460     0.7820 C.ar  1 <1>  -0.0090 
  6 C        1.4580    -0.1730    -0.6670 C.3   1 <1>   0.1960 
  7 C        1.9410    -2.4080     0.1590 C.3   1 <1>   0.1960 
  8 C       -2.5860    -0.3720     0.2950 C.ar  1 <1>  -0.1500 
  9 C       -1.1040     1.4140     0.8150 C.ar  1 <1>  -0.1500 
 10 C        2.6230     0.4320     0.1110 C.3   1 <1>  -0.1860 
 11 C        3.1650    -1.8900     0.9330 C.3   1 <1>  -0.1600 
 12 C       -3.5460     0.5300    -0.1390 C.ar  1 <1>  -0.1440 
 13 C       -2.0440     2.3290     0.3800 C.ar  1 <1>  -0.1500 
 14 C        3.0370     1.6840    -0.6360 C.2   1 <1>   0.9060 
 15 C        3.7400    -0.6130     0.3050 C.3   1 <1>  -0.1600 
 16 C       -3.2750     1.8940    -0.1000 C.ar  1 <1>   0.0820 
 17 C       -4.8830     0.0200    -0.6560 C.3   1 <1>  -0.0970 
 18 O        2.3280     2.6860    -0.4990 O.co2 1 <1>  -0.9000 
 19 O        4.0140     1.6580    -1.3910 O.co2 1 <1>  -0.9000 
 20 O       -4.2360     2.7460    -0.5440 O.3   1 <1>  -0.3630 
 21 C       -3.9890     4.1290    -0.6670 C.3   1 <1>   0.0400 
 22 H        0.6900     0.5640    -0.8160 H     1 <1>   0.0800 
 23 H        1.8160    -0.4410    -1.6480 H     1 <1>   0.0800 
 24 H        2.2650    -2.7350    -0.8140 H     1 <1>   0.0800 
 25 H        1.5210    -3.2620     0.6640 H     1 <1>   0.0800 
 26 H       -2.7910    -1.4280     0.2600 H     1 <1>   0.1500 
 27 H       -0.1510     1.7710     1.1770 H     1 <1>   0.1500 
 28 H        2.2830     0.7670     1.0710 H     1 <1>   0.0800 
 29 H        3.9230    -2.6520     0.9420 H     1 <1>   0.0800 
 30 H        2.8930    -1.7000     1.9550 H     1 <1>   0.0800 
 31 H       -1.7880     3.3710     0.4210 H     1 <1>   0.1500 
 32 H        4.5150    -0.2010     0.9270 H     1 <1>   0.0800 
 33 H        4.1750    -0.8460    -0.6520 H     1 <1>   0.0800 
 34 H       -4.9400    -1.0520    -0.6030 H     1 <1>   0.0800 
 35 H       -5.0140     0.3220    -1.6800 H     1 <1>   0.0800 
 36 H       -5.6820     0.4370    -0.0700 H     1 <1>   0.0800 
 37 H       -4.8660     4.5890    -1.0850 H     1 <1>   0.0800 
 38 H       -3.1490     4.2760    -1.3240 H     1 <1>   0.0800 
 39 H       -3.7910     4.5370     0.3080 H     1 <1>   0.0800 
@<TRIPOS>BOND
  1   1   2  2   
  2   1   3  2   
  3   1   4  am  
  4   1   5  1   
  5   4   6  1   
  6   4   7  1   
  7   5   8  ar  
  8   5   9  ar  
  9   6  10  1   
 10   6  22  1   
 11   6  23  1   
 12   7  11  1   
 13   7  24  1   
 14   7  25  1   
 15   8  12  ar  
 16   8  26  1   
 17   9  13  ar  
 18   9  27  1   
 19  10  14  1   
 20  10  15  1   
 21  10  28  1   
 22  11  15  1   
 23  11  29  1   
 24  11  30  1   
 25  12  16  ar  
 26  12  17  1   
 27  13  16  ar  
 28  13  31  1   
 29  14  18  ar  
 30  14  19  ar  
 31  15  32  1   
 32  15  33  1   
 33  16  20  1   
 34  17  34  1   
 35  17  35  1   
 36  17  36  1   
 37  20  21  1   
 38  21  37  1   
 39  21  38  1   
 40  21  39  1   
@<TRIPOS>SUBSTRUCTURE
  1 ****   5 GROUP 4 **** **** 0

# MOE 2024.06 (io_trps.svl 2023.06)
