@<TRIPOS>MOLECULE
2-(2-tert-Butyl-quinazolin-4-ylsulfanyl)-N-(5-methyl-[1,3,4]thiadiazol-2-yl)-acetamide
44 46 1 0 0 
SMALL
USER_CHARGES


@<TRIPOS>ATOM
  1 S        1.1260     2.3810    -0.6680 S.3   1 <1>  -0.0800 
  2 C        1.7550     0.9880     0.1500 C.2   1 <1>   0.4420 
  3 C       -0.4570     1.7880    -0.3040 C.2   1 <1>   0.1980 
  4 N        0.8240     0.2320     0.6060 N.2   1 <1>  -0.3380 
  5 N        3.1270     0.8760     0.2050 N.am  1 <1>  -0.4940 
  6 N       -0.4370     0.6950     0.3430 N.2   1 <1>  -0.3380 
  7 C       -1.6470     2.5950    -0.7710 C.3   1 <1>  -0.0600 
  8 C        3.9080    -0.0930     0.7720 C.2   1 <1>   0.5690 
  9 O        3.4650    -1.0540     1.3440 O.2   1 <1>  -0.5700 
 10 C        5.4200     0.0420     0.6800 C.3   1 <1>   0.1310 
 11 S        5.9310     1.5840    -0.2370 S.3   1 <1>  -0.3320 
 12 C        7.7180     1.5190    -0.2130 C.ar  1 <1>   0.4120 
 13 N        8.2390     0.5030     0.3840 N.ar  1 <1>  -0.6200 
 14 C        8.4490     2.5500    -0.8290 C.ar  1 <1>   0.0000 
 15 C        9.5890     0.4460     0.4070 C.ar  1 <1>   0.4770 
 16 C        9.8350     2.3960    -0.7480 C.ar  1 <1>   0.3100 
 17 C        7.9270     3.6820    -1.4940 C.ar  1 <1>  -0.1500 
 18 N       10.3780     1.3300    -0.1220 N.ar  1 <1>  -0.6200 
 19 C       10.1980    -0.7890     1.1320 C.3   1 <1>   0.1430 
 20 C       10.6670     3.3640    -1.3270 C.ar  1 <1>  -0.1500 
 21 C        8.7600     4.6160    -2.0520 C.ar  1 <1>  -0.1500 
 22 C        9.7470    -0.8150     2.6060 C.3   1 <1>  -0.2400 
 23 C        9.7290    -2.0890     0.4510 C.3   1 <1>  -0.2400 
 24 C       11.7420    -0.7890     1.1200 C.3   1 <1>  -0.2400 
 25 C       10.1460     4.4570    -1.9700 C.ar  1 <1>  -0.1500 
 26 H        3.6450     1.6280    -0.2440 H     1 <1>   0.3700 
 27 H       -1.6190     3.5750    -0.3330 H     1 <1>   0.0800 
 28 H       -2.5560     2.1050    -0.4730 H     1 <1>   0.0800 
 29 H       -1.6320     2.6820    -1.8420 H     1 <1>   0.0800 
 30 H        5.8340    -0.7970     0.1520 H     1 <1>   0.0800 
 31 H        5.8470     0.0970     1.6640 H     1 <1>   0.0800 
 32 H        6.8620     3.8100    -1.5610 H     1 <1>   0.1500 
 33 H       11.7300     3.2210    -1.2520 H     1 <1>   0.1500 
 34 H        8.3620     5.4780    -2.5600 H     1 <1>   0.1500 
 35 H       10.0550     0.0890     3.1010 H     1 <1>   0.0800 
 36 H       10.1760    -1.6540     3.1230 H     1 <1>   0.0800 
 37 H        8.6760    -0.8880     2.6730 H     1 <1>   0.0800 
 38 H        8.6580    -2.1760     0.4960 H     1 <1>   0.0800 
 39 H       10.1580    -2.9500     0.9330 H     1 <1>   0.0800 
 40 H       10.0250    -2.0900    -0.5830 H     1 <1>   0.0800 
 41 H       12.1320    -1.6520     1.6270 H     1 <1>   0.0800 
 42 H       12.1080    -0.7950     0.1080 H     1 <1>   0.0800 
 43 H       12.1200     0.0920     1.6080 H     1 <1>   0.0800 
 44 H       10.7910     5.1970    -2.4130 H     1 <1>   0.1500 
@<TRIPOS>BOND
  1   1   2  1   
  2   1   3  1   
  3   2   4  2   
  4   2   5  1   
  5   3   6  2   
  6   3   7  1   
  7   4   6  1   
  8   5   8  am  
  9   5  26  1   
 10   7  27  1   
 11   7  28  1   
 12   7  29  1   
 13   8   9  2   
 14   8  10  1   
 15  10  11  1   
 16  10  30  1   
 17  10  31  1   
 18  11  12  1   
 19  12  13  ar  
 20  12  14  ar  
 21  13  15  ar  
 22  14  16  ar  
 23  14  17  ar  
 24  15  18  ar  
 25  15  19  1   
 26  16  18  ar  
 27  16  20  ar  
 28  17  21  ar  
 29  17  32  1   
 30  19  22  1   
 31  19  23  1   
 32  19  24  1   
 33  20  25  ar  
 34  20  33  1   
 35  21  25  ar  
 36  21  34  1   
 37  22  35  1   
 38  22  36  1   
 39  22  37  1   
 40  23  38  1   
 41  23  39  1   
 42  23  40  1   
 43  24  41  1   
 44  24  42  1   
 45  24  43  1   
 46  25  44  1   
@<TRIPOS>SUBSTRUCTURE
  1 ****  11 GROUP 4 **** **** 0

# MOE 2024.06 (io_trps.svl 2023.06)
