@<TRIPOS>MOLECULE
5115
43 45 1 0 0 
SMALL
USER_CHARGES


@<TRIPOS>ATOM
  1 BR       1.0060     1.5190     0.3450 Br    1 <1>  -0.1110 
  2 C        2.2130     0.0430     0.0820 C.ar  1 <1>   0.1110 
  3 C        3.5720     0.2860     0.1080 C.ar  1 <1>  -0.1500 
  4 C        1.6830    -1.2170    -0.1240 C.ar  1 <1>  -0.1500 
  5 C        4.4390    -0.7860    -0.0830 C.ar  1 <1>   0.0830 
  6 C        2.5530    -2.2780    -0.3140 C.ar  1 <1>  -0.1500 
  7 O        5.7890    -0.6680    -0.0780 O.3   1 <1>  -0.3630 
  8 C        3.9220    -2.0580    -0.2930 C.ar  1 <1>  -0.1500 
  9 C        6.4120     0.6120    -0.0960 C.3   1 <1>   0.1810 
 10 C        7.9280     0.4870    -0.1710 C.2   1 <1>   0.5690 
 11 O        8.5640     1.4870    -0.3910 O.2   1 <1>  -0.5700 
 12 N        8.4740    -0.7560     0.0330 N.am  1 <1>  -0.4940 
 13 C        9.7710    -1.2520     0.0350 C.2   1 <1>   0.1040 
 14 S       11.1000    -0.1830    -0.3910 S.3   1 <1>  -0.0800 
 15 C       10.2270    -2.5140     0.3270 C.2   1 <1>  -0.0860 
 16 C       12.2660    -1.4660    -0.1770 C.2   1 <1>  -0.1400 
 17 C       11.6660    -2.6110     0.1760 C.2   1 <1>  -0.1810 
 18 C        9.3840    -3.6060     0.7530 C.2   1 <1>   0.8060 
 19 C       13.7360    -1.1900    -0.3960 C.3   1 <1>   0.0200 
 20 C       12.4970    -3.8740     0.3890 C.3   1 <1>   0.0210 
 21 O        9.7930    -4.6960     1.1070 O.2   1 <1>  -0.5700 
 22 O        8.0550    -3.4090     0.7720 O.3   1 <1>  -0.4300 
 23 C       14.5550    -2.3580     0.1780 C.3   1 <1>  -0.1600 
 24 C       13.9260    -3.7200    -0.1740 C.3   1 <1>  -0.1600 
 25 C        7.1540    -4.4110     1.2060 C.3   1 <1>   0.0400 
 26 H        3.9150     1.2880     0.2750 H     1 <1>   0.1500 
 27 H        0.6170    -1.3630    -0.1370 H     1 <1>   0.1500 
 28 H        2.1660    -3.2690    -0.4780 H     1 <1>   0.1500 
 29 H        4.5990    -2.8790    -0.4450 H     1 <1>   0.1500 
 30 H        6.1470     1.1350     0.8040 H     1 <1>   0.0800 
 31 H        6.0580     1.1520    -0.9550 H     1 <1>   0.0800 
 32 H        7.7550    -1.4650     0.2150 H     1 <1>   0.3700 
 33 H       14.0170    -0.2720     0.0900 H     1 <1>   0.0800 
 34 H       13.9180    -1.0900    -1.4510 H     1 <1>   0.0800 
 35 H       12.0300    -4.7110    -0.0990 H     1 <1>   0.0800 
 36 H       12.5430    -4.0830     1.4430 H     1 <1>   0.0800 
 37 H       14.5950    -2.2620     1.2490 H     1 <1>   0.0800 
 38 H       15.5630    -2.3090    -0.1970 H     1 <1>   0.0800 
 39 H       13.8860    -3.8150    -1.2460 H     1 <1>   0.0800 
 40 H       14.5430    -4.5170     0.2030 H     1 <1>   0.0800 
 41 H        7.2430    -5.2650     0.5560 H     1 <1>   0.0800 
 42 H        6.1550    -4.0150     1.1650 H     1 <1>   0.0800 
 43 H        7.3990    -4.6870     2.2170 H     1 <1>   0.0800 
@<TRIPOS>BOND
  1   1   2  1   
  2   2   3  ar  
  3   2   4  ar  
  4   3   5  ar  
  5   3  26  1   
  6   4   6  ar  
  7   4  27  1   
  8   5   7  1   
  9   5   8  ar  
 10   6   8  ar  
 11   6  28  1   
 12   7   9  1   
 13   8  29  1   
 14   9  10  1   
 15   9  30  1   
 16   9  31  1   
 17  10  11  2   
 18  10  12  am  
 19  12  13  1   
 20  12  32  1   
 21  13  14  1   
 22  13  15  2   
 23  14  16  1   
 24  15  17  1   
 25  15  18  1   
 26  16  17  2   
 27  16  19  1   
 28  17  20  1   
 29  18  21  2   
 30  18  22  1   
 31  19  23  1   
 32  19  33  1   
 33  19  34  1   
 34  20  24  1   
 35  20  35  1   
 36  20  36  1   
 37  22  25  1   
 38  23  24  1   
 39  23  37  1   
 40  23  38  1   
 41  24  39  1   
 42  24  40  1   
 43  25  41  1   
 44  25  42  1   
 45  25  43  1   
@<TRIPOS>SUBSTRUCTURE
  1 ****  12 GROUP 4 **** **** 0

# MOE 2024.06 (io_trps.svl 2023.06)
