@<TRIPOS>MOLECULE
2-[2-(1-Cyclopentyl-3-phenyl-ureido)-acetylamino]-4,5,6,7-tetrahydro-benzo[b]thiophene-3-carboxylic acid ami
59 62 1 0 0 
SMALL
USER_CHARGES


@<TRIPOS>ATOM
  1 S       -0.8780    -0.2290     1.6630 S.3   1 <1>  -0.0800 
  2 C        0.5950     0.5530     1.1040 C.2   1 <1>   0.1040 
  3 C       -1.8570     0.7520     0.5940 C.2   1 <1>  -0.1400 
  4 N        1.8170     0.1700     1.6340 N.am  1 <1>  -0.4940 
  5 C        0.3180     1.5010     0.1540 C.2   1 <1>  -0.0860 
  6 C       -1.0960     1.5850    -0.1290 C.2   1 <1>  -0.1810 
  7 C       -3.3600     0.5920     0.5750 C.3   1 <1>   0.0200 
  8 C        2.2620    -0.9570     2.2760 C.2   1 <1>   0.5690 
  9 C        1.3090     2.3080    -0.5090 C.2   1 <1>   0.7160 
 10 C       -1.7240     2.5330    -1.1430 C.3   1 <1>   0.0210 
 11 C       -3.9800     1.7880    -0.1680 C.3   1 <1>  -0.1600 
 12 O        1.5650    -1.8940     2.5790 O.2   1 <1>  -0.5700 
 13 C        3.7600    -1.0270     2.5790 C.3   1 <1>   0.2010 
 14 O        1.3390     2.4420    -1.7150 O.2   1 <1>  -0.5700 
 15 N        2.2810     2.9450     0.1800 N.am  1 <1>  -0.8000 
 16 C       -3.1880     2.1440    -1.4430 C.3   1 <1>  -0.1600 
 17 N        4.6080    -0.6300     1.3930 N.am  1 <1>  -0.6600 
 18 C        4.7920     0.7080     1.1350 C.2   1 <1>   0.6900 
 19 C        4.8520    -1.7510     0.4350 C.3   1 <1>   0.2200 
 20 O        4.3170     1.5310     1.8980 O.2   1 <1>  -0.5700 
 21 N        5.3900     1.1190    -0.0150 N.am  1 <1>  -0.5470 
 22 C        6.3380    -1.9180     0.0960 C.3   1 <1>  -0.1600 
 23 C        4.1030    -1.5790    -0.8950 C.3   1 <1>  -0.1600 
 24 C        5.3730     2.4020    -0.5660 C.ar  1 <1>   0.1170 
 25 C        6.3860    -2.2380    -1.3990 C.3   1 <1>  -0.1600 
 26 C        5.1640    -1.5490    -1.9990 C.3   1 <1>  -0.1600 
 27 C        4.8800     2.5970    -1.8510 C.ar  1 <1>  -0.1500 
 28 C        5.8170     3.5030     0.1550 C.ar  1 <1>  -0.1500 
 29 C        4.8280     3.8640    -2.4000 C.ar  1 <1>  -0.1500 
 30 C        5.7700     4.7720    -0.3930 C.ar  1 <1>  -0.1500 
 31 C        5.2740     4.9540    -1.6730 C.ar  1 <1>  -0.1500 
 32 H        2.5890     0.8200     1.4530 H     1 <1>   0.3700 
 33 H       -3.7400     0.5460     1.5810 H     1 <1>   0.0800 
 34 H       -3.6050    -0.3270     0.0730 H     1 <1>   0.0800 
 35 H       -1.1710     2.5140    -2.0650 H     1 <1>   0.0800 
 36 H       -1.6860     3.5340    -0.7500 H     1 <1>   0.0800 
 37 H       -3.9810     2.6420     0.4880 H     1 <1>   0.0800 
 38 H       -5.0020     1.5630    -0.4200 H     1 <1>   0.0800 
 39 H        4.0080    -2.0260     2.8890 H     1 <1>   0.0800 
 40 H        3.9680    -0.3770     3.4100 H     1 <1>   0.0800 
 41 H        3.0420     3.3910    -0.3390 H     1 <1>   0.3700 
 42 H        2.4350     2.8520     1.1840 H     1 <1>   0.3700 
 43 H       -3.1880     1.2900    -2.0980 H     1 <1>   0.0800 
 44 H       -3.6710     2.9540    -1.9600 H     1 <1>   0.0800 
 45 H        4.5130    -2.6750     0.8740 H     1 <1>   0.0800 
 46 H        5.6130     0.3500    -0.6430 H     1 <1>   0.3700 
 47 H        6.7740    -2.7170     0.6700 H     1 <1>   0.0800 
 48 H        6.8920    -1.0180     0.2910 H     1 <1>   0.0800 
 49 H        3.4740    -0.7060    -0.9200 H     1 <1>   0.0800 
 50 H        3.4770    -2.4420    -1.0420 H     1 <1>   0.0800 
 51 H        6.2930    -3.3030    -1.5360 H     1 <1>   0.0800 
 52 H        7.3040    -1.9080    -1.8550 H     1 <1>   0.0800 
 53 H        5.4090    -0.5350    -2.2580 H     1 <1>   0.0800 
 54 H        4.8230    -2.0530    -2.8890 H     1 <1>   0.0800 
 55 H        4.5180     1.7600    -2.4200 H     1 <1>   0.1500 
 56 H        6.1960     3.3610     1.1510 H     1 <1>   0.1500 
 57 H        4.4350     4.0040    -3.3930 H     1 <1>   0.1500 
 58 H        6.1180     5.6180     0.1750 H     1 <1>   0.1500 
 59 H        5.2340     5.9410    -2.1010 H     1 <1>   0.1500 
@<TRIPOS>BOND
  1   1   2  1   
  2   1   3  1   
  3   2   4  1   
  4   2   5  2   
  5   3   6  2   
  6   3   7  1   
  7   4   8  am  
  8   4  32  1   
  9   5   6  1   
 10   5   9  1   
 11   6  10  1   
 12   7  11  1   
 13   7  33  1   
 14   7  34  1   
 15   8  12  2   
 16   8  13  1   
 17   9  14  2   
 18   9  15  am  
 19  10  16  1   
 20  10  35  1   
 21  10  36  1   
 22  11  16  1   
 23  11  37  1   
 24  11  38  1   
 25  13  17  1   
 26  13  39  1   
 27  13  40  1   
 28  15  41  1   
 29  15  42  1   
 30  16  43  1   
 31  16  44  1   
 32  17  18  am  
 33  17  19  1   
 34  18  20  2   
 35  18  21  am  
 36  19  22  1   
 37  19  23  1   
 38  19  45  1   
 39  21  24  1   
 40  21  46  1   
 41  22  25  1   
 42  22  47  1   
 43  22  48  1   
 44  23  26  1   
 45  23  49  1   
 46  23  50  1   
 47  24  27  ar  
 48  24  28  ar  
 49  25  26  1   
 50  25  51  1   
 51  25  52  1   
 52  26  53  1   
 53  26  54  1   
 54  27  29  ar  
 55  27  55  1   
 56  28  30  ar  
 57  28  56  1   
 58  29  31  ar  
 59  29  57  1   
 60  30  31  ar  
 61  30  58  1   
 62  31  59  1   
@<TRIPOS>SUBSTRUCTURE
  1 ****   9 GROUP 4 **** **** 0

# MOE 2024.06 (io_trps.svl 2023.06)
