@<TRIPOS>MOLECULE
NONAME
53 55 1 0 0 
SMALL
USER_CHARGES


@<TRIPOS>ATOM
  1 CL       2.6600     0.2150    -3.7080 Cl    1 <1>  -0.1770 
  2 C        2.7910    -1.2570    -2.7820 C.ar  1 <1>   0.1770 
  3 C        2.8240    -1.1910    -1.4030 C.ar  1 <1>  -0.1500 
  4 C        2.8600    -2.4690    -3.4410 C.ar  1 <1>  -0.1500 
  5 C        2.9290    -2.3610    -0.6700 C.ar  1 <1>  -0.1500 
  6 C        2.9650    -3.6360    -2.7020 C.ar  1 <1>  -0.1500 
  7 C        3.0070    -3.5950    -1.3120 C.ar  1 <1>  -0.1430 
  8 C        3.1370    -4.9150    -0.5410 C.3   1 <1>   0.5140 
  9 N        1.8500    -5.6750    -0.6120 N.3   1 <1>  -0.8100 
 10 C        3.6930    -4.7270     0.8810 C.2   1 <1>   0.0060 
 11 C        0.6600    -4.8890    -0.1860 C.3   1 <1>   0.1100 
 12 C        1.9300    -6.9950     0.0600 C.3   1 <1>   0.1100 
 13 N        2.9710    -4.5940     1.9340 N.2   1 <1>  -0.3380 
 14 N        4.9860    -4.6770     1.2170 N.pl3 1 <1>   0.3140 
 15 C       -0.6460    -5.6980    -0.3000 C.3   1 <1>   0.3430 
 16 C        0.6150    -7.7910    -0.0660 C.3   1 <1>   0.3430 
 17 N        3.8090    -4.4680     2.9450 N.2   1 <1>   0.0000 
 18 N        5.0170    -4.5220     2.5310 N.2   1 <1>  -0.4180 
 19 C        6.2690    -4.8080     0.4090 C.3   1 <1>   0.2560 
 20 N       -0.5540    -7.0010     0.4440 N.4   1 <1>  -0.9590 
 21 C        7.4970    -4.4100     1.2570 C.3   1 <1>  -0.2400 
 22 C        6.2650    -3.8890    -0.8280 C.3   1 <1>  -0.2400 
 23 C        6.4590    -6.2720    -0.0270 C.3   1 <1>  -0.2400 
 24 C       -1.8080    -7.7930     0.3750 C.3   1 <1>   0.3430 
 25 C       -2.8820    -7.1310     1.2280 C.3   1 <1>  -0.2400 
 26 H        2.7660    -0.2350    -0.9140 H     1 <1>   0.1500 
 27 H        2.8290    -2.4930    -4.5160 H     1 <1>   0.1500 
 28 H        2.9490    -2.2880     0.4060 H     1 <1>   0.1500 
 29 H        3.0120    -4.5800    -3.2180 H     1 <1>   0.1500 
 30 H        3.8510    -5.5090    -1.0780 H     1 <1>   0.0800 
 31 H        0.5590    -4.0160    -0.8070 H     1 <1>   0.0800 
 32 H        0.7650    -4.5520     0.8290 H     1 <1>   0.0800 
 33 H        2.1540    -6.8760     1.1050 H     1 <1>   0.0800 
 34 H        2.7250    -7.5700    -0.3830 H     1 <1>   0.0800 
 35 H       -0.8420    -5.8850    -1.3430 H     1 <1>   0.0800 
 36 H       -1.4550    -5.1040     0.0890 H     1 <1>   0.0800 
 37 H        0.7070    -8.7090     0.4900 H     1 <1>   0.0800 
 38 H        0.4630    -8.0410    -1.1030 H     1 <1>   0.0800 
 39 H       -0.3620    -6.7740     1.4290 H     1 <1>   0.4500 
 40 H        7.5950    -5.0510     2.1160 H     1 <1>   0.0800 
 41 H        7.4090    -3.3920     1.5940 H     1 <1>   0.0800 
 42 H        8.4030    -4.4940     0.6840 H     1 <1>   0.0800 
 43 H        5.9840    -2.8870    -0.5520 H     1 <1>   0.0800 
 44 H        5.6090    -4.2470    -1.5960 H     1 <1>   0.0800 
 45 H        7.2480    -3.8480    -1.2630 H     1 <1>   0.0800 
 46 H        6.4920    -6.9140     0.8370 H     1 <1>   0.0800 
 47 H        7.3890    -6.3820    -0.5560 H     1 <1>   0.0800 
 48 H        5.6730    -6.6030    -0.6770 H     1 <1>   0.0800 
 49 H       -1.6280    -8.7880     0.7530 H     1 <1>   0.0800 
 50 H       -2.1420    -7.8760    -0.6480 H     1 <1>   0.0800 
 51 H       -2.5510    -7.0220     2.2460 H     1 <1>   0.0800 
 52 H       -3.7600    -7.7520     1.2310 H     1 <1>   0.0800 
 53 H       -3.1650    -6.1720     0.8330 H     1 <1>   0.0800 
@<TRIPOS>BOND
  1   1   2  1   
  2   2   3  ar  
  3   2   4  ar  
  4   3   5  ar  
  5   3  26  1   
  6   4   6  ar  
  7   4  27  1   
  8   5   7  ar  
  9   5  28  1   
 10   6   7  ar  
 11   6  29  1   
 12   7   8  1   
 13   8   9  1   
 14   8  10  1   
 15   8  30  1   
 16   9  11  1   
 17   9  12  1   
 18  10  13  2   
 19  10  14  1   
 20  11  15  1   
 21  11  31  1   
 22  11  32  1   
 23  12  16  1   
 24  12  33  1   
 25  12  34  1   
 26  13  17  1   
 27  14  18  1   
 28  14  19  1   
 29  15  20  1   
 30  15  35  1   
 31  15  36  1   
 32  16  20  1   
 33  16  37  1   
 34  16  38  1   
 35  17  18  2   
 36  19  21  1   
 37  19  22  1   
 38  19  23  1   
 39  20  24  1   
 40  20  39  1   
 41  21  40  1   
 42  21  41  1   
 43  21  42  1   
 44  22  43  1   
 45  22  44  1   
 46  22  45  1   
 47  23  46  1   
 48  23  47  1   
 49  23  48  1   
 50  24  25  1   
 51  24  49  1   
 52  24  50  1   
 53  25  51  1   
 54  25  52  1   
 55  25  53  1   
@<TRIPOS>SUBSTRUCTURE
  1 ****   8 GROUP 4 **** **** 0

# MOE 2024.06 (io_trps.svl 2023.06)
