@<TRIPOS>MOLECULE
8900
46 47 1 0 0 
SMALL
USER_CHARGES


@<TRIPOS>ATOM
  1 O        0.6990    -0.5880     3.1510 O.2   1 <1>  -0.5700 
  2 C        0.5690    -1.4640     2.3360 C.2   1 <1>   0.5690 
  3 N        1.5630    -1.7080     1.4430 N.am  1 <1>  -0.5470 
  4 C       -0.7200    -2.2690     2.3170 C.3   1 <1>  -0.0990 
  5 C        1.6100    -2.6370     0.4000 C.ar  1 <1>   0.1170 
  6 C       -1.6740    -1.8130     1.2000 C.3   1 <1>  -0.1600 
  7 C        1.5320    -2.2270    -0.9310 C.ar  1 <1>  -0.1430 
  8 C        1.7440    -3.9900     0.6900 C.ar  1 <1>  -0.1500 
  9 C       -2.9800    -2.6060     1.2230 C.3   1 <1>   0.1200 
 10 C        1.5760    -3.1760    -1.9390 C.ar  1 <1>  -0.1500 
 11 C        1.3910    -0.7540    -1.2930 C.3   1 <1>  -0.0970 
 12 C        1.7870    -4.9360    -0.3190 C.ar  1 <1>  -0.1430 
 13 O       -3.8040    -2.1230     0.1880 O.3   1 <1>  -0.3630 
 14 C        1.7010    -4.5210    -1.6370 C.ar  1 <1>  -0.1500 
 15 C        1.9300    -6.4130    -0.0010 C.3   1 <1>  -0.0970 
 16 C       -5.0410    -2.6430    -0.0240 C.ar  1 <1>   0.0820 
 17 C       -5.7760    -2.0930    -1.0620 C.ar  1 <1>  -0.1500 
 18 C       -5.5910    -3.6750     0.7320 C.ar  1 <1>  -0.1500 
 19 C       -7.0470    -2.5580    -1.3510 C.ar  1 <1>  -0.1500 
 20 C       -6.8620    -4.1400     0.4430 C.ar  1 <1>  -0.1500 
 21 C       -7.5980    -3.5900    -0.5950 C.ar  1 <1>   0.0820 
 22 O       -8.8350    -4.1080    -0.8070 O.3   1 <1>  -0.3620 
 23 C       -9.6610    -3.6160    -1.8390 C.3   1 <1>   0.0400 
 24 H        2.3340    -1.0450     1.5030 H     1 <1>   0.3700 
 25 H       -1.2030    -2.1470     3.2700 H     1 <1>   0.0800 
 26 H       -0.4880    -3.3110     2.2000 H     1 <1>   0.0800 
 27 H       -1.2010    -1.9520     0.2440 H     1 <1>   0.0800 
 28 H       -1.8930    -0.7670     1.3280 H     1 <1>   0.0800 
 29 H        1.8190    -4.2950     1.7170 H     1 <1>   0.1500 
 30 H       -3.4940    -2.4670     2.1580 H     1 <1>   0.0800 
 31 H       -2.7940    -3.6520     1.0480 H     1 <1>   0.0800 
 32 H        1.5130    -2.8760    -2.9700 H     1 <1>   0.1500 
 33 H        0.5380    -0.3300    -0.7930 H     1 <1>   0.0800 
 34 H        1.2580    -0.6280    -2.3520 H     1 <1>   0.0800 
 35 H        2.2720    -0.2170    -0.9940 H     1 <1>   0.0800 
 36 H        1.7320    -5.2430    -2.4340 H     1 <1>   0.1500 
 37 H        1.9260    -6.5810     1.0610 H     1 <1>   0.0800 
 38 H        2.8550    -6.7840    -0.4040 H     1 <1>   0.0800 
 39 H        1.1150    -6.9620    -0.4370 H     1 <1>   0.0800 
 40 H       -5.3440    -1.2970    -1.6400 H     1 <1>   0.1500 
 41 H       -5.0520    -4.1260     1.5430 H     1 <1>   0.1500 
 42 H       -7.5880    -2.1080    -2.1620 H     1 <1>   0.1500 
 43 H       -7.2960    -4.9360     1.0210 H     1 <1>   0.1500 
 44 H      -10.5830    -4.1680    -1.8200 H     1 <1>   0.0800 
 45 H       -9.1660    -3.7620    -2.7820 H     1 <1>   0.0800 
 46 H       -9.8570    -2.5730    -1.6620 H     1 <1>   0.0800 
@<TRIPOS>BOND
  1   1   2  2   
  2   2   3  am  
  3   2   4  1   
  4   3   5  1   
  5   3  24  1   
  6   4   6  1   
  7   4  25  1   
  8   4  26  1   
  9   5   7  ar  
 10   5   8  ar  
 11   6   9  1   
 12   6  27  1   
 13   6  28  1   
 14   7  10  ar  
 15   7  11  1   
 16   8  12  ar  
 17   8  29  1   
 18   9  13  1   
 19   9  30  1   
 20   9  31  1   
 21  10  14  ar  
 22  10  32  1   
 23  11  33  1   
 24  11  34  1   
 25  11  35  1   
 26  12  14  ar  
 27  12  15  1   
 28  13  16  1   
 29  14  36  1   
 30  15  37  1   
 31  15  38  1   
 32  15  39  1   
 33  16  17  ar  
 34  16  18  ar  
 35  17  19  ar  
 36  17  40  1   
 37  18  20  ar  
 38  18  41  1   
 39  19  21  ar  
 40  19  42  1   
 41  20  21  ar  
 42  20  43  1   
 43  21  22  1   
 44  22  23  1   
 45  23  44  1   
 46  23  45  1   
 47  23  46  1   
@<TRIPOS>SUBSTRUCTURE
  1 ****   9 GROUP 4 **** **** 0

# MOE 2024.06 (io_trps.svl 2023.06)
