@<TRIPOS>MOLECULE
NONAME
45 47 1 0 0 
SMALL
USER_CHARGES


@<TRIPOS>ATOM
  1 O       -0.7810    -0.2890     3.2220 O.2   1 <1>  -0.5700 
  2 C       -0.1390     0.3390     2.4140 C.2   1 <1>   0.5690 
  3 N       -0.6610     0.9340     1.3040 N.am  1 <1>  -0.5470 
  4 C        1.3720     0.4860     2.6150 C.3   1 <1>   0.1710 
  5 C       -1.9350     0.9720     0.7120 C.ar  1 <1>   0.1170 
  6 N        2.1110     0.8660     1.3750 N.3   1 <1>  -0.8100 
  7 C       -2.0440     1.4470    -0.5990 C.ar  1 <1>   0.0820 
  8 C       -3.0840     0.5650     1.3780 C.ar  1 <1>  -0.1500 
  9 C        3.4560     1.3840     1.6870 C.3   1 <1>   0.2530 
 10 C        2.2060    -0.2550     0.4240 C.3   1 <1>   0.1100 
 11 O       -0.8910     1.8390    -1.2220 O.3   1 <1>  -0.3630 
 12 C       -3.2900     1.5040    -1.2150 C.ar  1 <1>  -0.1500 
 13 C       -4.3250     0.6200     0.7640 C.ar  1 <1>  -0.1430 
 14 C        4.2760     1.6680     0.4300 C.ar  1 <1>  -0.1430 
 15 C        2.6760     0.2720    -0.9340 C.3   1 <1>  -0.0170 
 16 C       -0.9170     2.4790    -2.4780 C.3   1 <1>   0.0400 
 17 C       -4.4230     1.0920    -0.5330 C.ar  1 <1>  -0.1500 
 18 C       -5.5670     0.1690     1.5120 C.3   1 <1>  -0.0970 
 19 C        3.9230     1.1330    -0.8040 C.ar  1 <1>  -0.1430 
 20 C        5.4080     2.4640     0.5260 C.ar  1 <1>  -0.1500 
 21 C        4.6990     1.3970    -1.9210 C.ar  1 <1>  -0.1500 
 22 C        6.1820     2.7260    -0.5910 C.ar  1 <1>  -0.1500 
 23 C        5.8270     2.1910    -1.8160 C.ar  1 <1>  -0.1500 
 24 H        0.0710     1.3600     0.7200 H     1 <1>   0.3700 
 25 H        1.7620    -0.4370     3.0080 H     1 <1>   0.0800 
 26 H        1.5130     1.2490     3.3600 H     1 <1>   0.0800 
 27 H       -3.0100     0.2050     2.3870 H     1 <1>   0.1500 
 28 H        3.9890     0.6670     2.2880 H     1 <1>   0.0800 
 29 H        3.3560     2.2940     2.2520 H     1 <1>   0.0800 
 30 H        1.2470    -0.7300     0.2990 H     1 <1>   0.0800 
 31 H        2.9040    -0.9900     0.7910 H     1 <1>   0.0800 
 32 H       -3.4030     1.8610    -2.2200 H     1 <1>   0.1500 
 33 H        1.8880     0.8600    -1.3690 H     1 <1>   0.0800 
 34 H        2.8700    -0.5600    -1.5860 H     1 <1>   0.0800 
 35 H        0.0910     2.7530    -2.7330 H     1 <1>   0.0800 
 36 H       -1.5280     3.3620    -2.4080 H     1 <1>   0.0800 
 37 H       -1.3060     1.7960    -3.2120 H     1 <1>   0.0800 
 38 H       -5.3820     1.1400    -1.0180 H     1 <1>   0.1500 
 39 H       -5.3110    -0.5540     2.2660 H     1 <1>   0.0800 
 40 H       -6.2690    -0.2820     0.8340 H     1 <1>   0.0800 
 41 H       -6.0320     1.0140     1.9860 H     1 <1>   0.0800 
 42 H        5.6940     2.8850     1.4740 H     1 <1>   0.1500 
 43 H        4.4260     0.9870    -2.8770 H     1 <1>   0.1500 
 44 H        7.0580     3.3450    -0.5080 H     1 <1>   0.1500 
 45 H        6.4270     2.3930    -2.6860 H     1 <1>   0.1500 
@<TRIPOS>BOND
  1   1   2  2   
  2   2   3  am  
  3   2   4  1   
  4   3   5  1   
  5   3  24  1   
  6   4   6  1   
  7   4  25  1   
  8   4  26  1   
  9   5   7  ar  
 10   5   8  ar  
 11   6   9  1   
 12   6  10  1   
 13   7  11  1   
 14   7  12  ar  
 15   8  13  ar  
 16   8  27  1   
 17   9  14  1   
 18   9  28  1   
 19   9  29  1   
 20  10  15  1   
 21  10  30  1   
 22  10  31  1   
 23  11  16  1   
 24  12  17  ar  
 25  12  32  1   
 26  13  17  ar  
 27  13  18  1   
 28  14  19  ar  
 29  14  20  ar  
 30  15  19  1   
 31  15  33  1   
 32  15  34  1   
 33  16  35  1   
 34  16  36  1   
 35  16  37  1   
 36  17  38  1   
 37  18  39  1   
 38  18  40  1   
 39  18  41  1   
 40  19  21  ar  
 41  20  22  ar  
 42  20  42  1   
 43  21  23  ar  
 44  21  43  1   
 45  22  23  ar  
 46  22  44  1   
 47  23  45  1   
@<TRIPOS>SUBSTRUCTURE
  1 ****   3 GROUP 4 **** **** 0

# MOE 2024.06 (io_trps.svl 2023.06)
