@<TRIPOS>MOLECULE
6149
48 50 1 0 0 
SMALL
USER_CHARGES


@<TRIPOS>ATOM
  1 S        1.3800    -0.2430    -0.0650 S.3   1 <1>  -0.0800 
  2 C        2.6290     0.9890    -0.0390 C.2   1 <1>   0.1040 
  3 C        0.2280     0.8050     0.7440 C.2   1 <1>  -0.1400 
  4 N        3.8940     0.7180    -0.5400 N.am  1 <1>  -0.4940 
  5 C        2.1520     2.1330     0.5400 C.2   1 <1>  -0.0860 
  6 C        0.7850     2.0050     0.9940 C.2   1 <1>  -0.1810 
  7 C       -1.1320     0.1900     1.0100 C.3   1 <1>  -0.0600 
  8 C        4.4290    -0.3690    -1.1810 C.2   1 <1>   0.5690 
  9 C        2.9110     3.3450     0.6810 C.2   1 <1>   0.8060 
 10 C        0.0970     3.1700     1.6920 C.3   1 <1>  -0.0590 
 11 O        3.7960    -1.3240    -1.5470 O.2   1 <1>  -0.5700 
 12 C        5.9220    -0.3680    -1.4390 C.3   1 <1>  -0.0990 
 13 O        3.1820     3.8350     1.7580 O.2   1 <1>  -0.5700 
 14 O        3.3200     4.0140    -0.4030 O.3   1 <1>  -0.4300 
 15 C        6.7100    -0.5310    -0.1300 C.3   1 <1>   0.1400 
 16 C        2.7650     3.8010    -1.6800 C.3   1 <1>   0.1200 
 17 N        7.5790     0.6420     0.1560 N.am  1 <1>  -0.4200 
 18 C        3.2760     4.9020    -2.6020 C.3   1 <1>  -0.2400 
 19 C        7.1810     1.9470     0.3110 C.2   1 <1>   0.5440 
 20 C        8.9070     0.5610     0.4940 C.2   1 <1>   0.5440 
 21 O        6.0570     2.3410     0.0790 O.2   1 <1>  -0.5700 
 22 C        8.2970     2.7290     0.7590 C.ar  1 <1>   0.0860 
 23 O        9.5490    -0.4680     0.4760 O.2   1 <1>  -0.5700 
 24 C        9.3760     1.8660     0.8680 C.ar  1 <1>   0.0860 
 25 C        8.4400     4.0770     1.0650 C.ar  1 <1>  -0.1500 
 26 C       10.6140     2.3400     1.2830 C.ar  1 <1>  -0.1500 
 27 C        9.6750     4.5490     1.4790 C.ar  1 <1>  -0.1500 
 28 C       10.7570     3.6840     1.5870 C.ar  1 <1>  -0.1500 
 29 H        4.5920     1.4520    -0.3480 H     1 <1>   0.3700 
 30 H       -1.0190    -0.6840     1.6260 H     1 <1>   0.0800 
 31 H       -1.5880    -0.0990     0.0800 H     1 <1>   0.0800 
 32 H       -1.7810     0.8820     1.5110 H     1 <1>   0.0800 
 33 H       -0.9220     2.9340     1.9360 H     1 <1>   0.0800 
 34 H        0.0990     4.0370     1.0560 H     1 <1>   0.0800 
 35 H        0.6140     3.4080     2.6040 H     1 <1>   0.0800 
 36 H        6.1970     0.5280    -1.9630 H     1 <1>   0.0800 
 37 H        6.1470    -1.2010    -2.0810 H     1 <1>   0.0800 
 38 H        7.3230    -1.4140    -0.2000 H     1 <1>   0.0800 
 39 H        6.0380    -0.6730     0.7000 H     1 <1>   0.0800 
 40 H        1.6900     3.8370    -1.6030 H     1 <1>   0.0800 
 41 H        3.0740     2.8350    -2.0400 H     1 <1>   0.0800 
 42 H        2.9720     5.8660    -2.2320 H     1 <1>   0.0800 
 43 H        2.8700     4.7700    -3.5880 H     1 <1>   0.0800 
 44 H        4.3490     4.8640    -2.6640 H     1 <1>   0.0800 
 45 H        7.5920     4.7360     0.9800 H     1 <1>   0.1500 
 46 H       11.4450     1.6600     1.3650 H     1 <1>   0.1500 
 47 H        9.7980     5.5920     1.7200 H     1 <1>   0.1500 
 48 H       11.7130     4.0630     1.9100 H     1 <1>   0.1500 
@<TRIPOS>BOND
  1   1   2  1   
  2   1   3  1   
  3   2   4  1   
  4   2   5  2   
  5   3   6  2   
  6   3   7  1   
  7   4   8  am  
  8   4  29  1   
  9   5   6  1   
 10   5   9  1   
 11   6  10  1   
 12   7  30  1   
 13   7  31  1   
 14   7  32  1   
 15   8  11  2   
 16   8  12  1   
 17   9  13  2   
 18   9  14  1   
 19  10  33  1   
 20  10  34  1   
 21  10  35  1   
 22  12  15  1   
 23  12  36  1   
 24  12  37  1   
 25  14  16  1   
 26  15  17  1   
 27  15  38  1   
 28  15  39  1   
 29  16  18  1   
 30  16  40  1   
 31  16  41  1   
 32  17  19  am  
 33  17  20  am  
 34  18  42  1   
 35  18  43  1   
 36  18  44  1   
 37  19  21  2   
 38  19  22  1   
 39  20  23  2   
 40  20  24  1   
 41  22  24  ar  
 42  22  25  ar  
 43  24  26  ar  
 44  25  27  ar  
 45  25  45  1   
 46  26  28  ar  
 47  26  46  1   
 48  27  28  ar  
 49  27  47  1   
 50  28  48  1   
@<TRIPOS>SUBSTRUCTURE
  1 ****  21 GROUP 4 **** **** 0

# MOE 2024.06 (io_trps.svl 2023.06)
