@<TRIPOS>MOLECULE
4-(5-Methyl-1H-benzoimidazol-2-yl)-piperidine-1-carboxylic acid phenylamide
47 50 1 0 0 
SMALL
USER_CHARGES


@<TRIPOS>ATOM
  1 O       -0.6300     0.1110     0.3750 O.2   1 <1>  -0.5700 
  2 C       -1.1220    -1.0020     0.3580 C.2   1 <1>   0.6900 
  3 N       -2.3500    -1.2230     0.9280 N.am  1 <1>  -0.6600 
  4 N       -0.4920    -2.0480    -0.2530 N.am  1 <1>  -0.5470 
  5 C       -3.2820    -0.0940     1.1870 C.3   1 <1>   0.1400 
  6 C       -2.7840    -2.5320     1.4870 C.3   1 <1>   0.1400 
  7 C        0.7970    -2.1740    -0.7900 C.ar  1 <1>   0.1170 
  8 C       -4.6700    -0.4410     0.6370 C.3   1 <1>  -0.1600 
  9 C       -4.1580    -2.8920     0.9210 C.3   1 <1>  -0.1600 
 10 C        1.0300    -3.1480    -1.7540 C.ar  1 <1>  -0.1500 
 11 C        1.8640    -1.3780    -0.3840 C.ar  1 <1>  -0.1500 
 12 C       -5.1860    -1.7790     1.1900 C.3   1 <1>   0.1000 
 13 C        2.2890    -3.3230    -2.3000 C.ar  1 <1>  -0.1500 
 14 C        3.1240    -1.5480    -0.9280 C.ar  1 <1>  -0.1500 
 15 C       -6.5550    -2.1100     0.5990 C.2   1 <1>   0.0070 
 16 C        3.3400    -2.5210    -1.8880 C.ar  1 <1>  -0.1500 
 17 N       -7.6710    -1.4340     0.9790 N.pl3 1 <1>   0.0330 
 18 N       -6.7850    -3.0240    -0.2820 N.2   1 <1>  -0.5650 
 19 C       -8.6970    -1.9690     0.2730 C.ar  1 <1>  -0.1520 
 20 C       -8.1270    -2.9560    -0.5050 C.ar  1 <1>   0.2270 
 21 C      -10.0670    -1.7030     0.2240 C.ar  1 <1>  -0.1500 
 22 C       -8.9270    -3.7090    -1.3620 C.ar  1 <1>  -0.1500 
 23 C      -10.8560    -2.4510    -0.6250 C.ar  1 <1>  -0.1430 
 24 C      -10.2800    -3.4540    -1.4170 C.ar  1 <1>  -0.1500 
 25 C      -12.3510    -2.2070    -0.7210 C.3   1 <1>  -0.0970 
 26 H       -1.1290    -2.8080    -0.4580 H     1 <1>   0.3700 
 27 H       -2.9250     0.8050     0.7120 H     1 <1>   0.0800 
 28 H       -3.3310     0.0840     2.2470 H     1 <1>   0.0800 
 29 H       -2.8420    -2.4480     2.5590 H     1 <1>   0.0800 
 30 H       -2.0760    -3.3080     1.2570 H     1 <1>   0.0800 
 31 H       -4.6140    -0.4960    -0.4360 H     1 <1>   0.0800 
 32 H       -5.3520     0.3510     0.8870 H     1 <1>   0.0800 
 33 H       -4.5010    -3.8100     1.3640 H     1 <1>   0.0800 
 34 H       -4.0680    -3.0560    -0.1390 H     1 <1>   0.0800 
 35 H        0.2220    -3.7740    -2.0840 H     1 <1>   0.1500 
 36 H        1.7120    -0.6210     0.3630 H     1 <1>   0.1500 
 37 H       -5.3000    -1.6880     2.2570 H     1 <1>   0.0800 
 38 H        2.4540    -4.0800    -3.0470 H     1 <1>   0.1500 
 39 H        3.9360    -0.9210    -0.6040 H     1 <1>   0.1500 
 40 H        4.3200    -2.6530    -2.3120 H     1 <1>   0.1500 
 41 H       -7.7380    -0.6720     1.6560 H     1 <1>   0.2700 
 42 H      -10.4850    -0.9290     0.8410 H     1 <1>   0.1500 
 43 H       -8.4650    -4.4720    -1.9590 H     1 <1>   0.1500 
 44 H      -10.9060    -4.0310    -2.0750 H     1 <1>   0.1500 
 45 H      -12.6540    -1.4140    -0.0620 H     1 <1>   0.0800 
 46 H      -12.8840    -3.1010    -0.4510 H     1 <1>   0.0800 
 47 H      -12.6120    -1.9350    -1.7280 H     1 <1>   0.0800 
@<TRIPOS>BOND
  1   1   2  2   
  2   2   3  am  
  3   2   4  am  
  4   3   5  1   
  5   3   6  1   
  6   4   7  1   
  7   4  26  1   
  8   5   8  1   
  9   5  27  1   
 10   5  28  1   
 11   6   9  1   
 12   6  29  1   
 13   6  30  1   
 14   7  10  ar  
 15   7  11  ar  
 16   8  12  1   
 17   8  31  1   
 18   8  32  1   
 19   9  12  1   
 20   9  33  1   
 21   9  34  1   
 22  10  13  ar  
 23  10  35  1   
 24  11  14  ar  
 25  11  36  1   
 26  12  15  1   
 27  12  37  1   
 28  13  16  ar  
 29  13  38  1   
 30  14  16  ar  
 31  14  39  1   
 32  15  17  1   
 33  15  18  2   
 34  16  40  1   
 35  17  19  1   
 36  17  41  1   
 37  18  20  1   
 38  19  20  ar  
 39  19  21  ar  
 40  20  22  ar  
 41  21  23  ar  
 42  21  42  1   
 43  22  24  ar  
 44  22  43  1   
 45  23  24  ar  
 46  23  25  1   
 47  24  44  1   
 48  25  45  1   
 49  25  46  1   
 50  25  47  1   
@<TRIPOS>SUBSTRUCTURE
  1 ****   9 GROUP 4 **** **** 0

# MOE 2024.06 (io_trps.svl 2023.06)
