@<TRIPOS>MOLECULE
(S)-2-Amino-3-phenyl-propionic acid methyl ester
26 26 1 0 0 
SMALL
USER_CHARGES


@<TRIPOS>ATOM
  1 O       -1.0550     0.7600     1.5690 O.2   1 <1>  -0.5700 
  2 C       -0.8460     1.3950     0.5630 C.2   1 <1>   0.6590 
  3 O        0.3700     1.8260     0.2440 O.3   1 <1>  -0.4300 
  4 C       -1.9750     1.7370    -0.4320 C.3   1 <1>   0.2510 
  5 C        1.4780     1.6180     1.0930 C.3   1 <1>   0.0400 
  6 N       -2.7470     0.5610    -0.9000 N.3   1 <1>  -0.9900 
  7 C       -2.9560     2.7430     0.1810 C.3   1 <1>  -0.0170 
  8 C       -2.2490     4.0260     0.5930 C.ar  1 <1>  -0.1440 
  9 C       -1.8150     4.2010     1.8990 C.ar  1 <1>  -0.1500 
 10 C       -2.0250     5.0290    -0.3370 C.ar  1 <1>  -0.1500 
 11 C       -1.1640     5.3640     2.2700 C.ar  1 <1>  -0.1500 
 12 C       -1.3730     6.1930     0.0320 C.ar  1 <1>  -0.1500 
 13 C       -0.9420     6.3610     1.3360 C.ar  1 <1>  -0.1500 
 14 H       -1.5210     2.1990    -1.2910 H     1 <1>   0.0800 
 15 H        2.3480     2.0490     0.6310 H     1 <1>   0.0800 
 16 H        1.6170     0.5600     1.2350 H     1 <1>   0.0800 
 17 H        1.2850     2.0980     2.0370 H     1 <1>   0.0800 
 18 H       -3.0830     0.0650    -0.0630 H     1 <1>   0.3600 
 19 H       -2.1050    -0.0870    -1.3690 H     1 <1>   0.3600 
 20 H       -3.7200     2.9760    -0.5390 H     1 <1>   0.0800 
 21 H       -3.4310     2.3020     1.0400 H     1 <1>   0.0800 
 22 H       -1.9800     3.4300     2.6330 H     1 <1>   0.1500 
 23 H       -2.3570     4.9100    -1.3540 H     1 <1>   0.1500 
 24 H       -0.8300     5.4920     3.2840 H     1 <1>   0.1500 
 25 H       -1.2020     6.9680    -0.6940 H     1 <1>   0.1500 
 26 H       -0.4350     7.2650     1.6240 H     1 <1>   0.1500 
@<TRIPOS>BOND
  1   1   2  2   
  2   2   3  1   
  3   2   4  1   
  4   3   5  1   
  5   4   6  1   
  6   4   7  1   
  7   4  14  1   
  8   5  15  1   
  9   5  16  1   
 10   5  17  1   
 11   6  18  1   
 12   6  19  1   
 13   7   8  1   
 14   7  20  1   
 15   7  21  1   
 16   8   9  ar  
 17   8  10  ar  
 18   9  11  ar  
 19   9  22  1   
 20  10  12  ar  
 21  10  23  1   
 22  11  13  ar  
 23  11  24  1   
 24  12  13  ar  
 25  12  25  1   
 26  13  26  1   
@<TRIPOS>SUBSTRUCTURE
  1 ****   8 GROUP 4 **** **** 0

# MOE 2024.06 (io_trps.svl 2023.06)
