@<TRIPOS>MOLECULE
N-(2,5-Dimethoxy-phenyl)-2-[4-(5-fluoro-2-methyl-benzoimidazol-1-yl)-piperidin-1-yl]-acetamide
58 61 1 0 0 
SMALL
USER_CHARGES


@<TRIPOS>ATOM
  1 F        1.4520     0.1670     1.4190 F     1 <1>  -0.1900 
  2 C        2.6590    -0.2980     1.2160 C.ar  1 <1>   0.1900 
  3 C        2.9450    -1.5910     1.5750 C.ar  1 <1>  -0.1500 
  4 C        3.6010     0.5570     0.6380 C.ar  1 <1>  -0.1500 
  5 C        4.2380    -2.0510     1.3440 C.ar  1 <1>   0.2270 
  6 C        4.8790     0.0950     0.4120 C.ar  1 <1>  -0.1500 
  7 N        4.7600    -3.2760     1.6080 N.2   1 <1>  -0.5650 
  8 C        5.1930    -1.2240     0.7720 C.ar  1 <1>  -0.1520 
  9 C        5.9810    -3.1980     1.2140 C.2   1 <1>   0.0060 
 10 N        6.3280    -1.9840     0.6930 N.pl3 1 <1>   0.0480 
 11 C        6.9360    -4.3710     1.3290 C.3   1 <1>  -0.0600 
 12 C        7.6640    -1.5920     0.1630 C.3   1 <1>   0.1760 
 13 C        8.2800    -0.4490     0.9810 C.3   1 <1>  -0.1600 
 14 C        7.5960    -1.2410    -1.3290 C.3   1 <1>  -0.1600 
 15 C        9.6310    -0.0460     0.3920 C.3   1 <1>   0.1100 
 16 C        8.9700    -0.8040    -1.8340 C.3   1 <1>   0.1100 
 17 N        9.4600     0.3210    -1.0210 N.3   1 <1>  -0.8100 
 18 C       10.7000     0.8960    -1.6210 C.3   1 <1>   0.1710 
 19 C       11.9160    -0.0400    -1.6740 C.2   1 <1>   0.5690 
 20 O       12.1080    -0.6850    -2.6770 O.2   1 <1>  -0.5700 
 21 N       12.7140    -0.1040    -0.5650 N.am  1 <1>  -0.5470 
 22 C       13.8310    -0.8880    -0.2230 C.ar  1 <1>   0.1170 
 23 C       14.2350    -0.8950     1.1170 C.ar  1 <1>   0.0830 
 24 C       14.5470    -1.6420    -1.1450 C.ar  1 <1>  -0.1500 
 25 O       13.5060    -0.1340     1.9930 O.3   1 <1>  -0.3620 
 26 C       15.3340    -1.6530     1.5080 C.ar  1 <1>  -0.1500 
 27 C       15.6410    -2.3960    -0.7570 C.ar  1 <1>   0.0830 
 28 C       13.9180     0.0210     3.3340 C.3   1 <1>   0.0400 
 29 C       16.0340    -2.4010     0.5770 C.ar  1 <1>  -0.1500 
 30 O       16.2750    -3.0990    -1.7310 O.3   1 <1>  -0.3620 
 31 C       17.3920    -3.9100    -1.4410 C.3   1 <1>   0.0400 
 32 H        2.2160    -2.2410     2.0180 H     1 <1>   0.1500 
 33 H        3.3110     1.5590     0.3800 H     1 <1>   0.1500 
 34 H        5.6190     0.7360    -0.0320 H     1 <1>   0.1500 
 35 H        6.4270    -5.2110     1.7670 H     1 <1>   0.0800 
 36 H        7.7680    -4.1120     1.9570 H     1 <1>   0.0800 
 37 H        7.2910    -4.6570     0.3560 H     1 <1>   0.0800 
 38 H        8.3190    -2.4380     0.2580 H     1 <1>   0.0800 
 39 H        8.4170    -0.7660     1.9990 H     1 <1>   0.0800 
 40 H        7.6390     0.4130     0.9780 H     1 <1>   0.0800 
 41 H        6.9020    -0.4400    -1.5040 H     1 <1>   0.0800 
 42 H        7.2710    -2.0990    -1.8900 H     1 <1>   0.0800 
 43 H       10.3250    -0.8670     0.4830 H     1 <1>   0.0800 
 44 H       10.0180     0.7960     0.9410 H     1 <1>   0.0800 
 45 H        8.8880    -0.4980    -2.8640 H     1 <1>   0.0800 
 46 H        9.6630    -1.6280    -1.7830 H     1 <1>   0.0800 
 47 H       10.9720     1.7800    -1.0740 H     1 <1>   0.0800 
 48 H       10.4820     1.2070    -2.6270 H     1 <1>   0.0800 
 49 H       12.4040     0.4570     0.2290 H     1 <1>   0.3700 
 50 H       14.2660    -1.6510    -2.1800 H     1 <1>   0.1500 
 51 H       15.6630    -1.6790     2.5300 H     1 <1>   0.1500 
 52 H       13.2360     0.6950     3.8200 H     1 <1>   0.0800 
 53 H       14.9120     0.4340     3.3500 H     1 <1>   0.0800 
 54 H       13.8920    -0.9380     3.8220 H     1 <1>   0.0800 
 55 H       16.8780    -2.9770     0.9080 H     1 <1>   0.1500 
 56 H       17.7190    -4.3670    -2.3570 H     1 <1>   0.0800 
 57 H       17.0990    -4.6690    -0.7380 H     1 <1>   0.0800 
 58 H       18.1770    -3.2930    -1.0410 H     1 <1>   0.0800 
@<TRIPOS>BOND
  1   1   2  1   
  2   2   3  ar  
  3   2   4  ar  
  4   3   5  ar  
  5   3  32  1   
  6   4   6  ar  
  7   4  33  1   
  8   5   7  1   
  9   5   8  ar  
 10   6   8  ar  
 11   6  34  1   
 12   7   9  2   
 13   8  10  1   
 14   9  10  1   
 15   9  11  1   
 16  10  12  1   
 17  11  35  1   
 18  11  36  1   
 19  11  37  1   
 20  12  13  1   
 21  12  14  1   
 22  12  38  1   
 23  13  15  1   
 24  13  39  1   
 25  13  40  1   
 26  14  16  1   
 27  14  41  1   
 28  14  42  1   
 29  15  17  1   
 30  15  43  1   
 31  15  44  1   
 32  16  17  1   
 33  16  45  1   
 34  16  46  1   
 35  17  18  1   
 36  18  19  1   
 37  18  47  1   
 38  18  48  1   
 39  19  20  2   
 40  19  21  am  
 41  21  22  1   
 42  21  49  1   
 43  22  23  ar  
 44  22  24  ar  
 45  23  25  1   
 46  23  26  ar  
 47  24  27  ar  
 48  24  50  1   
 49  25  28  1   
 50  26  29  ar  
 51  26  51  1   
 52  27  29  ar  
 53  27  30  1   
 54  28  52  1   
 55  28  53  1   
 56  28  54  1   
 57  29  55  1   
 58  30  31  1   
 59  31  56  1   
 60  31  57  1   
 61  31  58  1   
@<TRIPOS>SUBSTRUCTURE
  1 ****  15 GROUP 4 **** **** 0

# MOE 2024.06 (io_trps.svl 2023.06)
