@<TRIPOS>MOLECULE
2902
47 48 1 0 0 
SMALL
USER_CHARGES


@<TRIPOS>ATOM
  1 O       -0.9450     3.1450     1.4910 O.2   1 <1>  -0.5700 
  2 C       -0.6640     3.1850     0.3070 C.2   1 <1>   0.5440 
  3 N       -1.6170     3.6060    -0.5790 N.am  1 <1>  -0.7300 
  4 C        0.6380     2.7910    -0.1670 C.ar  1 <1>   0.0860 
  5 C       -3.0260     3.9130    -0.2290 C.3   1 <1>   0.1400 
  6 C        1.7190     3.6850    -0.2510 C.ar  1 <1>   0.0830 
  7 C        0.8390     1.4720    -0.5990 C.ar  1 <1>   0.0830 
  8 C       -3.7780     2.6260     0.1040 C.3   1 <1>   0.1200 
  9 O        1.6570     4.9870     0.1140 O.3   1 <1>  -0.3630 
 10 C        2.9400     3.2680    -0.7550 C.ar  1 <1>  -0.1500 
 11 O       -0.2170     0.6210    -0.5320 O.3   1 <1>  -0.3630 
 12 C        2.0770     1.0670    -1.0900 C.ar  1 <1>  -0.1500 
 13 O       -5.1590     2.9140     0.1740 O.3   1 <1>  -0.3630 
 14 C        1.1380     5.3600     1.3740 C.3   1 <1>   0.0400 
 15 C        3.1250     1.9640    -1.1690 C.ar  1 <1>  -0.1500 
 16 C       -0.1020    -0.7600    -0.7960 C.3   1 <1>   0.0400 
 17 C       -6.0640     1.9330     0.4170 C.ar  1 <1>   0.0830 
 18 C       -5.7180     0.6220     0.7350 C.ar  1 <1>  -0.1500 
 19 C       -7.4010     2.2840     0.3350 C.ar  1 <1>  -0.1500 
 20 C       -6.7040    -0.3240     0.9610 C.ar  1 <1>  -0.1430 
 21 C       -8.3940     1.3450     0.5620 C.ar  1 <1>  -0.1430 
 22 C       -8.0380     0.0430     0.8740 C.ar  1 <1>  -0.1500 
 23 C       -6.3360    -1.7550     1.3110 C.3   1 <1>  -0.0970 
 24 C       -9.8580     1.7320     0.4700 C.3   1 <1>  -0.0970 
 25 H       -1.3950     3.5800    -1.5750 H     1 <1>   0.3700 
 26 H       -3.4960     4.4050    -1.0620 H     1 <1>   0.0800 
 27 H       -3.0450     4.5690     0.6250 H     1 <1>   0.0800 
 28 H       -3.4570     2.2460     1.0580 H     1 <1>   0.0800 
 29 H       -3.6290     1.8930    -0.6680 H     1 <1>   0.0800 
 30 H        3.7480     3.9750    -0.8180 H     1 <1>   0.1500 
 31 H        2.2470     0.0600    -1.4210 H     1 <1>   0.1500 
 32 H        1.3250     4.5740     2.0850 H     1 <1>   0.0800 
 33 H        0.0820     5.5400     1.2790 H     1 <1>   0.0800 
 34 H        1.6300     6.2620     1.6860 H     1 <1>   0.0800 
 35 H        4.0810     1.6510    -1.5530 H     1 <1>   0.1500 
 36 H       -1.0580    -1.2150    -0.6100 H     1 <1>   0.0800 
 37 H        0.6370    -1.1810    -0.1390 H     1 <1>   0.0800 
 38 H        0.1720    -0.8980    -1.8270 H     1 <1>   0.0800 
 39 H       -4.6890     0.3270     0.8130 H     1 <1>   0.1500 
 40 H       -7.6530     3.2990     0.0900 H     1 <1>   0.1500 
 41 H       -8.8040    -0.6900     1.0500 H     1 <1>   0.1500 
 42 H       -5.3230    -1.9700     1.0220 H     1 <1>   0.0800 
 43 H       -6.9880    -2.4400     0.8000 H     1 <1>   0.0800 
 44 H       -6.4340    -1.9060     2.3710 H     1 <1>   0.0800 
 45 H       -9.9750     2.7980     0.5410 H     1 <1>   0.0800 
 46 H      -10.4140     1.2750     1.2680 H     1 <1>   0.0800 
 47 H      -10.2620     1.4020    -0.4700 H     1 <1>   0.0800 
@<TRIPOS>BOND
  1   1   2  2   
  2   2   3  am  
  3   2   4  1   
  4   3   5  1   
  5   3  25  1   
  6   4   6  ar  
  7   4   7  ar  
  8   5   8  1   
  9   5  26  1   
 10   5  27  1   
 11   6   9  1   
 12   6  10  ar  
 13   7  11  1   
 14   7  12  ar  
 15   8  13  1   
 16   8  28  1   
 17   8  29  1   
 18   9  14  1   
 19  10  15  ar  
 20  10  30  1   
 21  11  16  1   
 22  12  15  ar  
 23  12  31  1   
 24  13  17  1   
 25  14  32  1   
 26  14  33  1   
 27  14  34  1   
 28  15  35  1   
 29  16  36  1   
 30  16  37  1   
 31  16  38  1   
 32  17  18  ar  
 33  17  19  ar  
 34  18  20  ar  
 35  18  39  1   
 36  19  21  ar  
 37  19  40  1   
 38  20  22  ar  
 39  20  23  1   
 40  21  22  ar  
 41  21  24  1   
 42  22  41  1   
 43  23  42  1   
 44  23  43  1   
 45  23  44  1   
 46  24  45  1   
 47  24  46  1   
 48  24  47  1   
@<TRIPOS>SUBSTRUCTURE
  1 ****   8 GROUP 4 **** **** 0

# MOE 2024.06 (io_trps.svl 2023.06)
