@<TRIPOS>MOLECULE
4-[3-(4-Trifluoromethyl-phenyl)-[1,2,4]oxadiazol-5-ylmethyl]-piperazine-1-carbox
46 48 1 0 0 
SMALL
USER_CHARGES


@<TRIPOS>ATOM
  1 F        1.3810     0.9590     0.9780 F     1 <1>  -0.3400 
  2 C        1.9260     0.6750    -0.2000 C.3   1 <1>   1.1640 
  3 F        0.9490     0.1770    -0.9480 F     1 <1>  -0.3400 
  4 F        2.2580     1.8380    -0.7460 F     1 <1>  -0.3400 
  5 C        3.1330    -0.2710    -0.0850 C.ar  1 <1>  -0.1440 
  6 C        3.4510    -1.1550    -1.1100 C.ar  1 <1>  -0.1500 
  7 C        3.9460    -0.2610     1.0430 C.ar  1 <1>  -0.1500 
  8 C        4.5400    -2.0010    -1.0050 C.ar  1 <1>  -0.1500 
  9 C        5.0330    -1.1090     1.1420 C.ar  1 <1>  -0.1500 
 10 C        5.3620    -2.0040     0.1230 C.ar  1 <1>   0.0540 
 11 C        6.5080    -2.8920     0.2380 C.2   1 <1>   0.4620 
 12 N        7.3290    -2.9310     1.2260 N.2   1 <1>  -0.4100 
 13 N        6.8300    -3.7830    -0.7060 N.2   1 <1>  -0.5650 
 14 O        8.2140    -3.8430     0.9760 O.3   1 <1>  -0.0190 
 15 C        7.8630    -4.3160    -0.1920 C.2   1 <1>   0.2980 
 16 C        8.7030    -5.4280    -0.8130 C.3   1 <1>   0.2900 
 17 N        8.6760    -6.6930    -0.0400 N.3   1 <1>  -0.8100 
 18 C        9.6010    -7.6880    -0.6260 C.3   1 <1>   0.1100 
 19 C        7.3020    -7.2460     0.0450 C.3   1 <1>   0.1100 
 20 C        9.6140    -8.9990     0.1770 C.3   1 <1>   0.1400 
 21 C        7.2590    -8.5520     0.8570 C.3   1 <1>   0.1400 
 22 N        8.2330    -9.5400     0.3110 N.am  1 <1>  -0.6600 
 23 C        7.8920   -10.7900    -0.1250 C.2   1 <1>   0.7800 
 24 O        8.6970   -11.5530    -0.6240 O.2   1 <1>  -0.5700 
 25 O        6.6180   -11.1670     0.0040 O.3   1 <1>  -0.4300 
 26 C        6.1950   -12.4410    -0.4240 C.3   1 <1>   0.1200 
 27 C        4.7000   -12.5610    -0.1460 C.3   1 <1>  -0.2400 
 28 H        2.8490    -1.1920    -2.0040 H     1 <1>   0.1500 
 29 H        3.7370     0.4130     1.8590 H     1 <1>   0.1500 
 30 H        4.7590    -2.6740    -1.8160 H     1 <1>   0.1500 
 31 H        5.6420    -1.0770     2.0290 H     1 <1>   0.1500 
 32 H        9.7180    -5.0770    -0.8780 H     1 <1>   0.0800 
 33 H        8.3490    -5.6100    -1.8130 H     1 <1>   0.0800 
 34 H       10.5990    -7.2840    -0.6390 H     1 <1>   0.0800 
 35 H        9.3140    -7.9060    -1.6410 H     1 <1>   0.0800 
 36 H        6.9200    -7.4370    -0.9430 H     1 <1>   0.0800 
 37 H        6.6520    -6.5330     0.5220 H     1 <1>   0.0800 
 38 H       10.0160    -8.8120     1.1570 H     1 <1>   0.0800 
 39 H       10.2530    -9.7120    -0.3140 H     1 <1>   0.0800 
 40 H        6.2590    -8.9470     0.8390 H     1 <1>   0.0800 
 41 H        7.5120    -8.3380     1.8810 H     1 <1>   0.0800 
 42 H        6.7520   -13.1850     0.1200 H     1 <1>   0.0800 
 43 H        6.4020   -12.5320    -1.4780 H     1 <1>   0.0800 
 44 H        4.5110   -12.4580     0.9070 H     1 <1>   0.0800 
 45 H        4.3490   -13.5260    -0.4650 H     1 <1>   0.0800 
 46 H        4.1610   -11.8040    -0.6860 H     1 <1>   0.0800 
@<TRIPOS>BOND
  1   1   2  1   
  2   2   3  1   
  3   2   4  1   
  4   2   5  1   
  5   5   6  ar  
  6   5   7  ar  
  7   6   8  ar  
  8   6  28  1   
  9   7   9  ar  
 10   7  29  1   
 11   8  10  ar  
 12   8  30  1   
 13   9  10  ar  
 14   9  31  1   
 15  10  11  1   
 16  11  12  2   
 17  11  13  1   
 18  12  14  1   
 19  13  15  2   
 20  14  15  1   
 21  15  16  1   
 22  16  17  1   
 23  16  32  1   
 24  16  33  1   
 25  17  18  1   
 26  17  19  1   
 27  18  20  1   
 28  18  34  1   
 29  18  35  1   
 30  19  21  1   
 31  19  36  1   
 32  19  37  1   
 33  20  22  1   
 34  20  38  1   
 35  20  39  1   
 36  21  22  1   
 37  21  40  1   
 38  21  41  1   
 39  22  23  am  
 40  23  24  2   
 41  23  25  1   
 42  25  26  1   
 43  26  27  1   
 44  26  42  1   
 45  26  43  1   
 46  27  44  1   
 47  27  45  1   
 48  27  46  1   
@<TRIPOS>SUBSTRUCTURE
  1 ****  13 GROUP 4 **** **** 0

# MOE 2024.06 (io_trps.svl 2023.06)
