@<TRIPOS>MOLECULE
NONAME
59 62 1 0 0 
SMALL
USER_CHARGES


@<TRIPOS>ATOM
  1 O       -1.4280     0.4000     0.2480 O.2   1 <1>  -0.5700 
  2 C       -2.1260    -0.3280    -0.4210 C.2   1 <1>   0.5440 
  3 N       -3.0920     0.3080    -1.1430 N.am  1 <1>  -0.7300 
  4 C       -1.9650    -1.7710    -0.3920 C.ar  1 <1>   0.0860 
  5 C       -4.3920    -0.2000    -1.6440 C.3   1 <1>   0.2200 
  6 C       -2.0480    -2.5450    -1.5490 C.ar  1 <1>  -0.1500 
  7 C       -1.7300    -2.4370     0.8100 C.ar  1 <1>  -0.1500 
  8 C       -5.1820     1.0610    -2.1810 C.3   1 <1>  -0.1600 
  9 C       -5.1440    -0.9520    -0.4790 C.3   1 <1>  -0.1600 
 10 C       -1.9360    -3.9220    -1.5040 C.ar  1 <1>  -0.1500 
 11 C       -1.6170    -3.8140     0.8610 C.ar  1 <1>  -0.1500 
 12 C       -5.8260     1.9730    -1.0670 C.3   1 <1>   0.4230 
 13 C       -6.1800     0.0190     0.0370 C.3   1 <1>   0.4230 
 14 C       -1.7270    -4.5660    -0.2960 C.ar  1 <1>  -0.1440 
 15 N       -5.4750     1.3050     0.1780 N.4   1 <1>  -0.9590 
 16 C       -7.3970     2.1090    -1.0860 C.3   1 <1>  -0.1600 
 17 C       -7.5390     0.1020     0.6890 C.3   1 <1>  -0.1600 
 18 C       -1.6030    -6.0780    -0.2430 C.3   1 <1>  -0.0970 
 19 C       -5.5830     2.1290     1.4120 C.3   1 <1>   0.4860 
 20 C       -8.2270     1.3500     0.0340 C.3   1 <1>  -0.1600 
 21 C       -4.5520     3.2330     1.3090 C.ar  1 <1>  -0.1430 
 22 C       -4.9540     4.5230     0.9840 C.ar  1 <1>   0.0820 
 23 C       -3.2100     2.9580     1.5220 C.ar  1 <1>  -0.1500 
 24 O       -6.2800     4.7280     0.7770 O.3   1 <1>  -0.3620 
 25 C       -4.0010     5.5330     0.8740 C.ar  1 <1>  -0.1500 
 26 C       -2.2680     3.9630     1.4050 C.ar  1 <1>  -0.1500 
 27 C       -6.8060     6.0330     0.6440 C.3   1 <1>   0.0400 
 28 C       -2.6630     5.2490     1.0830 C.ar  1 <1>  -0.1500 
 29 H       -2.8530     1.2800    -1.3680 H     1 <1>   0.3700 
 30 H       -4.2000    -0.8800    -2.4580 H     1 <1>   0.0800 
 31 H       -2.1910    -2.0620    -2.4990 H     1 <1>   0.1500 
 32 H       -1.6320    -1.8630     1.7150 H     1 <1>   0.1500 
 33 H       -5.9590     0.7090    -2.8360 H     1 <1>   0.0800 
 34 H       -4.5370     1.6610    -2.7990 H     1 <1>   0.0800 
 35 H       -4.5090    -1.2950     0.3170 H     1 <1>   0.0800 
 36 H       -5.6560    -1.8070    -0.8830 H     1 <1>   0.0800 
 37 H       -2.0050    -4.4950    -2.4130 H     1 <1>   0.1500 
 38 H       -1.4380    -4.3000     1.8050 H     1 <1>   0.1500 
 39 H       -5.3740     2.9530    -1.1010 H     1 <1>   0.0800 
 40 H       -6.6530     0.0190    -0.9270 H     1 <1>   0.0800 
 41 H       -4.4680     1.0940     0.1000 H     1 <1>   0.4500 
 42 H       -7.7590     1.7990    -2.0500 H     1 <1>   0.0800 
 43 H       -7.6330     3.1570    -1.0220 H     1 <1>   0.0800 
 44 H       -7.4690     0.1780     1.7590 H     1 <1>   0.0800 
 45 H       -8.0970    -0.7870     0.4530 H     1 <1>   0.0800 
 46 H       -0.5730    -6.3630    -0.3650 H     1 <1>   0.0800 
 47 H       -2.1840    -6.5330    -1.0250 H     1 <1>   0.0800 
 48 H       -1.9560    -6.4520     0.7010 H     1 <1>   0.0800 
 49 H       -5.3760     1.5250     2.2800 H     1 <1>   0.0800 
 50 H       -6.5670     2.5510     1.5110 H     1 <1>   0.0800 
 51 H       -9.1780     1.0550    -0.3790 H     1 <1>   0.0800 
 52 H       -8.4560     2.0530     0.8170 H     1 <1>   0.0800 
 53 H       -2.8740     1.9660     1.7790 H     1 <1>   0.1500 
 54 H       -4.2750     6.5410     0.6250 H     1 <1>   0.1500 
 55 H       -1.2250     3.7430     1.5660 H     1 <1>   0.1500 
 56 H       -7.8770     5.9610     0.5750 H     1 <1>   0.0800 
 57 H       -6.4140     6.4820    -0.2520 H     1 <1>   0.0800 
 58 H       -6.5360     6.6100     1.5110 H     1 <1>   0.0800 
 59 H       -1.9260     6.0290     0.9960 H     1 <1>   0.1500 
@<TRIPOS>BOND
  1   1   2  2   
  2   2   3  am  
  3   2   4  1   
  4   3   5  1   
  5   3  29  1   
  6   4   6  ar  
  7   4   7  ar  
  8   5   8  1   
  9   5   9  1   
 10   5  30  1   
 11   6  10  ar  
 12   6  31  1   
 13   7  11  ar  
 14   7  32  1   
 15   8  12  1   
 16   8  33  1   
 17   8  34  1   
 18   9  13  1   
 19   9  35  1   
 20   9  36  1   
 21  10  14  ar  
 22  10  37  1   
 23  11  14  ar  
 24  11  38  1   
 25  12  15  1   
 26  12  16  1   
 27  12  39  1   
 28  13  15  1   
 29  13  17  1   
 30  13  40  1   
 31  14  18  1   
 32  15  19  1   
 33  15  41  1   
 34  16  20  1   
 35  16  42  1   
 36  16  43  1   
 37  17  20  1   
 38  17  44  1   
 39  17  45  1   
 40  18  46  1   
 41  18  47  1   
 42  18  48  1   
 43  19  21  1   
 44  19  49  1   
 45  19  50  1   
 46  20  51  1   
 47  20  52  1   
 48  21  22  ar  
 49  21  23  ar  
 50  22  24  1   
 51  22  25  ar  
 52  23  26  ar  
 53  23  53  1   
 54  24  27  1   
 55  25  28  ar  
 56  25  54  1   
 57  26  28  ar  
 58  26  55  1   
 59  27  56  1   
 60  27  57  1   
 61  27  58  1   
 62  28  59  1   
@<TRIPOS>SUBSTRUCTURE
  1 ****  15 GROUP 4 **** **** 0

# MOE 2024.06 (io_trps.svl 2023.06)
