@<TRIPOS>MOLECULE
4-(2-Methyl-benzoylamino)-piperidine-1-carboxylic acid (3-methoxy-phenyl)-amide
52 54 1 0 0 
SMALL
USER_CHARGES


@<TRIPOS>ATOM
  1 O        0.4030    -0.1870    -0.3730 O.2   1 <1>  -0.5700 
  2 C        0.8220     0.9290    -0.6110 C.2   1 <1>   0.6900 
  3 N        2.1010     1.1020    -1.0830 N.am  1 <1>  -0.6600 
  4 N        0.0520     2.0340    -0.3870 N.am  1 <1>  -0.5470 
  5 C        2.5790     2.3140    -1.8040 C.3   1 <1>   0.1400 
  6 C        3.0900    -0.0100    -1.0380 C.3   1 <1>   0.1400 
  7 C       -1.2960     2.1800    -0.0290 C.ar  1 <1>   0.1170 
  8 C        3.8450     2.8350    -1.1220 C.3   1 <1>  -0.1600 
  9 C        4.3740     0.4830    -0.3650 C.3   1 <1>  -0.1600 
 10 C       -1.7040     3.3690     0.5610 C.ar  1 <1>  -0.1500 
 11 C       -2.2520     1.1940    -0.2560 C.ar  1 <1>  -0.1500 
 12 C        4.9070     1.7360    -1.0620 C.3   1 <1>   0.2200 
 13 C       -3.0230     3.5780     0.9230 C.ar  1 <1>   0.0820 
 14 C       -3.5730     1.3910     0.1030 C.ar  1 <1>  -0.1500 
 15 N        6.0750     2.2390    -0.3230 N.am  1 <1>  -0.7300 
 16 O       -3.3160     4.7750     1.4920 O.3   1 <1>  -0.3630 
 17 C       -3.9650     2.5800     0.6920 C.ar  1 <1>  -0.1500 
 18 C        7.2170     2.7260    -0.8910 C.2   1 <1>   0.5440 
 19 C       -4.6240     5.0780     1.9240 C.3   1 <1>   0.0400 
 20 O        7.2800     2.8050    -2.1010 O.2   1 <1>  -0.5700 
 21 C        8.3120     3.1800    -0.0540 C.ar  1 <1>   0.0860 
 22 C        8.9470     2.3630     0.8930 C.ar  1 <1>  -0.1440 
 23 C        8.7580     4.4950    -0.1840 C.ar  1 <1>  -0.1500 
 24 C        9.9630     2.8740     1.6860 C.ar  1 <1>  -0.1500 
 25 C        8.5610     0.8980     1.0680 C.3   1 <1>  -0.0970 
 26 C        9.7740     4.9980     0.6060 C.ar  1 <1>  -0.1500 
 27 C       10.3750     4.1870     1.5480 C.ar  1 <1>  -0.1500 
 28 H        0.5970     2.8870    -0.3670 H     1 <1>   0.3700 
 29 H        1.8280     3.0830    -1.8250 H     1 <1>   0.0800 
 30 H        2.8010     2.0460    -2.8230 H     1 <1>   0.0800 
 31 H        3.2970    -0.3380    -2.0420 H     1 <1>   0.0800 
 32 H        2.6980    -0.8490    -0.4870 H     1 <1>   0.0800 
 33 H        3.5990     3.1710    -0.1310 H     1 <1>   0.0800 
 34 H        4.2300     3.6680    -1.6830 H     1 <1>   0.0800 
 35 H        5.1140    -0.2960    -0.4110 H     1 <1>   0.0800 
 36 H        4.1590     0.6930     0.6670 H     1 <1>   0.0800 
 37 H       -0.9930     4.1490     0.7500 H     1 <1>   0.1500 
 38 H       -1.9660     0.2670    -0.7170 H     1 <1>   0.1500 
 39 H        5.2030     1.4780    -2.0670 H     1 <1>   0.0800 
 40 H       -4.2960     0.6140    -0.0780 H     1 <1>   0.1500 
 41 H        5.9800     2.2740     0.6920 H     1 <1>   0.3700 
 42 H       -4.9960     2.7080     0.9610 H     1 <1>   0.1500 
 43 H       -4.6150     6.0650     2.3490 H     1 <1>   0.0800 
 44 H       -4.9190     4.3610     2.6690 H     1 <1>   0.0800 
 45 H       -5.2860     5.0500     1.0770 H     1 <1>   0.0800 
 46 H        8.2950     5.1270    -0.9220 H     1 <1>   0.1500 
 47 H       10.4470     2.2510     2.4180 H     1 <1>   0.1500 
 48 H        9.3400     0.3550     1.5740 H     1 <1>   0.0800 
 49 H        7.6590     0.8190     1.6470 H     1 <1>   0.0800 
 50 H        8.4050     0.4340     0.1100 H     1 <1>   0.0800 
 51 H       10.0970     6.0180     0.4870 H     1 <1>   0.1500 
 52 H       11.1660     4.5730     2.1680 H     1 <1>   0.1500 
@<TRIPOS>BOND
  1   1   2  2   
  2   2   3  am  
  3   2   4  am  
  4   3   5  1   
  5   3   6  1   
  6   4   7  1   
  7   4  28  1   
  8   5   8  1   
  9   5  29  1   
 10   5  30  1   
 11   6   9  1   
 12   6  31  1   
 13   6  32  1   
 14   7  10  ar  
 15   7  11  ar  
 16   8  12  1   
 17   8  33  1   
 18   8  34  1   
 19   9  12  1   
 20   9  35  1   
 21   9  36  1   
 22  10  13  ar  
 23  10  37  1   
 24  11  14  ar  
 25  11  38  1   
 26  12  15  1   
 27  12  39  1   
 28  13  16  1   
 29  13  17  ar  
 30  14  17  ar  
 31  14  40  1   
 32  15  18  am  
 33  15  41  1   
 34  16  19  1   
 35  17  42  1   
 36  18  20  2   
 37  18  21  1   
 38  19  43  1   
 39  19  44  1   
 40  19  45  1   
 41  21  22  ar  
 42  21  23  ar  
 43  22  24  ar  
 44  22  25  1   
 45  23  26  ar  
 46  23  46  1   
 47  24  27  ar  
 48  24  47  1   
 49  25  48  1   
 50  25  49  1   
 51  25  50  1   
 52  26  27  ar  
 53  26  51  1   
 54  27  52  1   
@<TRIPOS>SUBSTRUCTURE
  1 ****   8 GROUP 4 **** **** 0

# MOE 2024.06 (io_trps.svl 2023.06)
