@<TRIPOS>MOLECULE
NONAME
53 56 1 0 0 
SMALL
USER_CHARGES


@<TRIPOS>ATOM
  1 S        1.1490    -0.5990     2.3880 S.3   1 <1>  -0.0800 
  2 C        1.7210    -1.3270     0.8930 C.2   1 <1>  -0.1400 
  3 C        2.1710     0.8050     2.1450 C.2   1 <1>  -0.1100 
  4 C        2.6200    -0.5250     0.2900 C.2   1 <1>  -0.1500 
  5 C        1.1410    -2.6740     0.5240 C.3   1 <1>   0.5230 
  6 C        2.8740     0.6890     1.0050 C.2   1 <1>  -0.1500 
  7 N       -0.3320    -2.5180     0.3910 N.4   1 <1>  -0.9590 
  8 C       -1.0470    -3.7850     0.1590 C.3   1 <1>   0.4230 
  9 C       -0.7180    -1.6660    -0.7520 C.3   1 <1>   0.4230 
 10 C       -2.5170    -3.5250     0.5250 C.3   1 <1>  -0.1600 
 11 C       -0.8580    -4.0240    -1.3450 C.3   1 <1>  -0.1600 
 12 C       -2.1520    -1.2010    -0.4700 C.3   1 <1>  -0.1600 
 13 C       -0.6450    -2.6250    -1.9460 C.3   1 <1>  -0.1600 
 14 C       -3.1160    -2.3890    -0.3180 C.3   1 <1>   0.2200 
 15 N       -4.3800    -1.9260     0.2760 N.am  1 <1>  -0.7300 
 16 C       -5.3940    -1.4110    -0.4630 C.2   1 <1>   0.6900 
 17 O       -5.2580    -1.2800    -1.6620 O.2   1 <1>  -0.5700 
 18 N       -6.5420    -1.0600     0.1830 N.am  1 <1>  -0.5470 
 19 C       -7.6770    -0.3890    -0.2980 C.ar  1 <1>   0.1170 
 20 C       -8.9100    -0.6400     0.2880 C.ar  1 <1>  -0.1500 
 21 C       -7.6090     0.5390    -1.3310 C.ar  1 <1>  -0.1500 
 22 C      -10.0830    -0.0010    -0.1260 C.ar  1 <1>   0.0860 
 23 C       -8.7460     1.1910    -1.7630 C.ar  1 <1>  -0.1500 
 24 C      -11.3810    -0.2560     0.4710 C.2   1 <1>   0.4230 
 25 C       -9.9640     0.9240    -1.1660 C.ar  1 <1>  -0.1500 
 26 O      -12.3700     0.3680     0.1900 O.2   1 <1>  -0.5700 
 27 C      -11.5500    -1.3570     1.5010 C.3   1 <1>  -0.1790 
 28 H        2.1400     1.5810     2.8930 H     1 <1>   0.1500 
 29 H        3.1340    -0.7210    -0.6360 H     1 <1>   0.1500 
 30 H        1.3710    -3.3840     1.3010 H     1 <1>   0.0800 
 31 H        1.5710    -3.0210    -0.4010 H     1 <1>   0.0800 
 32 H        3.5750     1.4170     0.6300 H     1 <1>   0.1500 
 33 H       -0.6570    -2.0690     1.2540 H     1 <1>   0.4500 
 34 H       -0.6450    -4.5930     0.7510 H     1 <1>   0.0800 
 35 H       -0.0610    -0.8180    -0.8690 H     1 <1>   0.0800 
 36 H       -2.5760    -3.2890     1.5730 H     1 <1>   0.0800 
 37 H       -3.0870    -4.4210     0.3570 H     1 <1>   0.0800 
 38 H       -1.7060    -4.5270    -1.7780 H     1 <1>   0.0800 
 39 H        0.0100    -4.6390    -1.5100 H     1 <1>   0.0800 
 40 H       -2.4890    -0.5840    -1.2860 H     1 <1>   0.0800 
 41 H       -2.1560    -0.5940     0.4180 H     1 <1>   0.0800 
 42 H        0.3250    -2.5570    -2.4080 H     1 <1>   0.0800 
 43 H       -1.3840    -2.3840    -2.6930 H     1 <1>   0.0800 
 44 H       -3.3310    -2.7780    -1.3010 H     1 <1>   0.0800 
 45 H       -4.4220    -1.8460     1.2890 H     1 <1>   0.3700 
 46 H       -6.6270    -1.4420     1.1170 H     1 <1>   0.3700 
 47 H       -8.9500    -1.3570     1.0840 H     1 <1>   0.1500 
 48 H       -6.6660     0.7560    -1.8010 H     1 <1>   0.1500 
 49 H       -8.6840     1.9070    -2.5650 H     1 <1>   0.1500 
 50 H      -10.8440     1.4390    -1.5120 H     1 <1>   0.1500 
 51 H      -11.2010    -2.2920     1.1040 H     1 <1>   0.0800 
 52 H      -12.5900    -1.4610     1.7540 H     1 <1>   0.0800 
 53 H      -11.0050    -1.1110     2.3930 H     1 <1>   0.0800 
@<TRIPOS>BOND
  1   1   2  1   
  2   1   3  1   
  3   2   4  2   
  4   2   5  1   
  5   3   6  2   
  6   3  28  1   
  7   4   6  1   
  8   4  29  1   
  9   5   7  1   
 10   5  30  1   
 11   5  31  1   
 12   6  32  1   
 13   7   8  1   
 14   7   9  1   
 15   7  33  1   
 16   8  10  1   
 17   8  11  1   
 18   8  34  1   
 19   9  12  1   
 20   9  13  1   
 21   9  35  1   
 22  10  14  1   
 23  10  36  1   
 24  10  37  1   
 25  11  13  1   
 26  11  38  1   
 27  11  39  1   
 28  12  14  1   
 29  12  40  1   
 30  12  41  1   
 31  13  42  1   
 32  13  43  1   
 33  14  15  1   
 34  14  44  1   
 35  15  16  am  
 36  15  45  1   
 37  16  17  2   
 38  16  18  am  
 39  18  19  1   
 40  18  46  1   
 41  19  20  ar  
 42  19  21  ar  
 43  20  22  ar  
 44  20  47  1   
 45  21  23  ar  
 46  21  48  1   
 47  22  24  1   
 48  22  25  ar  
 49  23  25  ar  
 50  23  49  1   
 51  24  26  2   
 52  24  27  1   
 53  25  50  1   
 54  27  51  1   
 55  27  52  1   
 56  27  53  1   
@<TRIPOS>SUBSTRUCTURE
  1 ****  15 GROUP 4 **** **** 0

# MOE 2024.06 (io_trps.svl 2023.06)
