@<TRIPOS>MOLECULE
4890
54 56 1 0 0 
SMALL
USER_CHARGES


@<TRIPOS>ATOM
  1 O       -0.0090     2.5250    -1.2320 O.2   1 <1>  -0.5700 
  2 C        0.3770     3.1310    -0.2520 C.2   1 <1>   0.5440 
  3 N        1.4970     2.7780     0.4520 N.am  1 <1>  -0.4200 
  4 C       -0.2640     4.2350     0.4020 C.ar  1 <1>   0.0860 
  5 C        1.5450     3.5520     1.5880 C.2   1 <1>   0.5440 
  6 C        2.2890     1.5530     0.1160 C.3   1 <1>   0.2810 
  7 C        0.4620     4.4930     1.5530 C.ar  1 <1>   0.0860 
  8 C       -1.3850     4.9950     0.0920 C.ar  1 <1>  -0.1500 
  9 O        2.3670     3.4450     2.4720 O.2   1 <1>  -0.5700 
 10 C        1.5620     0.3100     0.6570 C.2   1 <1>   0.5690 
 11 C        3.8040     1.6540     0.4600 C.3   1 <1>  -0.0800 
 12 C        0.0750     5.5150     2.4110 C.ar  1 <1>  -0.1500 
 13 C       -1.7690     6.0150     0.9470 C.ar  1 <1>  -0.1500 
 14 O        1.9700    -0.2620     1.6390 O.2   1 <1>  -0.5700 
 15 N        0.4300    -0.0790    -0.0170 N.am  1 <1>  -0.5470 
 16 C        4.4520     2.9290    -0.1130 C.3   1 <1>  -0.2400 
 17 C        4.5840     0.4430    -0.0850 C.3   1 <1>  -0.2400 
 18 C       -1.0420     6.2740     2.1030 C.ar  1 <1>  -0.1500 
 19 C       -0.4340    -1.1650     0.1520 C.ar  1 <1>   0.1170 
 20 C       -0.1190    -2.2950     0.9000 C.ar  1 <1>  -0.1500 
 21 C       -1.6750    -1.1280    -0.4720 C.ar  1 <1>  -0.1500 
 22 C       -1.0140    -3.3400     1.0220 C.ar  1 <1>  -0.1500 
 23 C       -2.5690    -2.1750    -0.3490 C.ar  1 <1>  -0.1500 
 24 C       -2.2670    -3.3150     0.4030 C.ar  1 <1>   0.0860 
 25 C       -3.1930    -4.4210     0.5400 C.2   1 <1>   0.6340 
 26 O       -2.9390    -5.4270     1.1720 O.2   1 <1>  -0.5700 
 27 O       -4.3830    -4.3170    -0.0630 O.3   1 <1>  -0.4300 
 28 C       -5.3590    -5.3330    -0.0170 C.3   1 <1>   0.2000 
 29 C       -5.0600    -6.3420    -1.1260 C.3   1 <1>  -0.2400 
 30 C       -6.7150    -4.6640    -0.2230 C.3   1 <1>  -0.2400 
 31 H        2.2570     1.4590    -0.9540 H     1 <1>   0.0800 
 32 H       -1.9430     4.7850    -0.8050 H     1 <1>   0.1500 
 33 H        3.9160     1.6550     1.5320 H     1 <1>   0.0800 
 34 H        0.6480     5.7040     3.3050 H     1 <1>   0.1500 
 35 H       -2.6370     6.6120     0.7180 H     1 <1>   0.1500 
 36 H        0.1210     0.5990    -0.7260 H     1 <1>   0.3700 
 37 H        4.3310     2.9730    -1.1810 H     1 <1>   0.0800 
 38 H        5.5040     2.9440     0.1130 H     1 <1>   0.0800 
 39 H        4.0200     3.8130     0.3200 H     1 <1>   0.0800 
 40 H        4.4970     0.3790    -1.1550 H     1 <1>   0.0800 
 41 H        4.2240    -0.4740     0.3460 H     1 <1>   0.0800 
 42 H        5.6260     0.5300     0.1680 H     1 <1>   0.0800 
 43 H       -1.3500     7.0690     2.7620 H     1 <1>   0.1500 
 44 H        0.8330    -2.3660     1.3940 H     1 <1>   0.1500 
 45 H       -1.9450    -0.2680    -1.0590 H     1 <1>   0.1500 
 46 H       -0.7410    -4.1990     1.6100 H     1 <1>   0.1500 
 47 H       -3.5210    -2.1080    -0.8460 H     1 <1>   0.1500 
 48 H       -5.3300    -5.8060     0.9510 H     1 <1>   0.0800 
 49 H       -5.0530    -5.8570    -2.0860 H     1 <1>   0.0800 
 50 H       -5.8110    -7.1100    -1.1330 H     1 <1>   0.0800 
 51 H       -4.1070    -6.8080    -0.9530 H     1 <1>   0.0800 
 52 H       -6.7480    -4.1650    -1.1740 H     1 <1>   0.0800 
 53 H       -6.8940    -3.9510     0.5620 H     1 <1>   0.0800 
 54 H       -7.4960    -5.4020    -0.1930 H     1 <1>   0.0800 
@<TRIPOS>BOND
  1   1   2  2   
  2   2   3  am  
  3   2   4  1   
  4   3   5  am  
  5   3   6  1   
  6   4   7  ar  
  7   4   8  ar  
  8   5   7  1   
  9   5   9  2   
 10   6  10  1   
 11   6  11  1   
 12   6  31  1   
 13   7  12  ar  
 14   8  13  ar  
 15   8  32  1   
 16  10  14  2   
 17  10  15  am  
 18  11  16  1   
 19  11  17  1   
 20  11  33  1   
 21  12  18  ar  
 22  12  34  1   
 23  13  18  ar  
 24  13  35  1   
 25  15  19  1   
 26  15  36  1   
 27  16  37  1   
 28  16  38  1   
 29  16  39  1   
 30  17  40  1   
 31  17  41  1   
 32  17  42  1   
 33  18  43  1   
 34  19  20  ar  
 35  19  21  ar  
 36  20  22  ar  
 37  20  44  1   
 38  21  23  ar  
 39  21  45  1   
 40  22  24  ar  
 41  22  46  1   
 42  23  24  ar  
 43  23  47  1   
 44  24  25  1   
 45  25  26  2   
 46  25  27  1   
 47  27  28  1   
 48  28  29  1   
 49  28  30  1   
 50  28  48  1   
 51  29  49  1   
 52  29  50  1   
 53  29  51  1   
 54  30  52  1   
 55  30  53  1   
 56  30  54  1   
@<TRIPOS>SUBSTRUCTURE
  1 ****  15 GROUP 4 **** **** 0

# MOE 2024.06 (io_trps.svl 2023.06)
