@<TRIPOS>MOLECULE
NONAME
54 57 1 0 0 
SMALL
USER_CHARGES


@<TRIPOS>ATOM
  1 O       -0.5480    -1.1740     2.1230 O.2   1 <1>  -0.5700 
  2 C       -1.0580    -1.7890     1.2050 C.2   1 <1>   0.5440 
  3 N       -0.3020    -2.6620     0.4860 N.am  1 <1>  -0.7300 
  4 C       -2.4580    -1.6060     0.8660 C.ar  1 <1>   0.0860 
  5 C        1.1410    -2.4700     0.1260 C.3   1 <1>   0.1140 
  6 C       -2.9270    -1.7790    -0.4360 C.ar  1 <1>  -0.1500 
  7 C       -3.3970    -1.2450     1.8290 C.ar  1 <1>  -0.1500 
  8 C        1.2580    -2.4130    -1.4160 C.2   1 <1>   0.9060 
  9 C        1.9880    -3.6040     0.7620 C.3   1 <1>  -0.0800 
 10 C       -4.2630    -1.6140    -0.7540 C.ar  1 <1>  -0.1500 
 11 C       -4.7330    -1.0790     1.5130 C.ar  1 <1>  -0.1500 
 12 O        0.3580    -2.9580    -2.0840 O.co2 1 <1>  -0.9000 
 13 O        2.1920    -1.8070    -1.9570 O.co2 1 <1>  -0.9000 
 14 C        1.7990    -3.6840     2.2880 C.3   1 <1>  -0.2400 
 15 C        3.4870    -3.4320     0.4670 C.3   1 <1>  -0.2400 
 16 C       -5.1980    -1.2620     0.2150 C.ar  1 <1>  -0.1430 
 17 C       -6.7000    -1.0670    -0.0930 C.3   1 <1>   0.1430 
 18 C       -7.5430    -2.0530     0.7510 C.3   1 <1>  -0.1600 
 19 C       -7.0520    -1.3080    -1.5840 C.3   1 <1>  -0.1600 
 20 C       -7.1260     0.3790     0.2590 C.3   1 <1>  -0.1600 
 21 C       -9.0500    -1.8490     0.5050 C.3   1 <1>  -0.0800 
 22 C       -8.5550    -1.1050    -1.8500 C.3   1 <1>  -0.0800 
 23 C       -8.6320     0.5920     0.0100 C.3   1 <1>  -0.0800 
 24 C       -9.3580    -2.0910    -0.9830 C.3   1 <1>  -0.1600 
 25 C       -9.4320    -0.4030     0.8730 C.3   1 <1>  -0.1600 
 26 C       -8.9420     0.3360    -1.4750 C.3   1 <1>  -0.1600 
 27 H       -0.7430    -3.1020    -0.3360 H     1 <1>   0.3700 
 28 H        1.4750    -1.5230     0.5070 H     1 <1>   0.0800 
 29 H       -2.2310    -2.0400    -1.2180 H     1 <1>   0.1500 
 30 H       -3.0620    -1.0940     2.8410 H     1 <1>   0.1500 
 31 H        1.6700    -4.5360     0.3250 H     1 <1>   0.0800 
 32 H       -4.5420    -1.7670    -1.7790 H     1 <1>   0.1500 
 33 H       -5.4100    -0.8020     2.3000 H     1 <1>   0.1500 
 34 H        2.0440    -2.7390     2.7410 H     1 <1>   0.0800 
 35 H        2.4250    -4.4480     2.7090 H     1 <1>   0.0800 
 36 H        0.7780    -3.9170     2.5290 H     1 <1>   0.0800 
 37 H        3.8320    -2.4800     0.8290 H     1 <1>   0.0800 
 38 H        3.6700    -3.4760    -0.5930 H     1 <1>   0.0800 
 39 H        4.0580    -4.2120     0.9350 H     1 <1>   0.0800 
 40 H       -7.3430    -1.9140     1.7980 H     1 <1>   0.0800 
 41 H       -7.2670    -3.0620     0.5020 H     1 <1>   0.0800 
 42 H       -6.7820    -2.3120    -1.8630 H     1 <1>   0.0800 
 43 H       -6.4940    -0.6280    -2.2030 H     1 <1>   0.0800 
 44 H       -6.5580     1.0730    -0.3360 H     1 <1>   0.0800 
 45 H       -6.9140     0.5910     1.2900 H     1 <1>   0.0800 
 46 H       -9.6150    -2.5390     1.1090 H     1 <1>   0.0800 
 47 H       -8.7690    -1.2790    -2.8910 H     1 <1>   0.0800 
 48 H       -8.9050     1.6000     0.2700 H     1 <1>   0.0800 
 49 H      -10.4110    -1.9600    -1.1640 H     1 <1>   0.0800 
 50 H       -9.1040    -3.1020    -1.2490 H     1 <1>   0.0800 
 51 H       -9.2300    -0.2260     1.9150 H     1 <1>   0.0800 
 52 H      -10.4860    -0.2540     0.7160 H     1 <1>   0.0800 
 53 H       -9.9910     0.4920    -1.6600 H     1 <1>   0.0800 
 54 H       -8.3960     1.0330    -2.0870 H     1 <1>   0.0800 
@<TRIPOS>BOND
  1   1   2  2   
  2   2   3  am  
  3   2   4  1   
  4   3   5  1   
  5   3  27  1   
  6   4   6  ar  
  7   4   7  ar  
  8   5   8  1   
  9   5   9  1   
 10   5  28  1   
 11   6  10  ar  
 12   6  29  1   
 13   7  11  ar  
 14   7  30  1   
 15   8  12  ar  
 16   8  13  ar  
 17   9  14  1   
 18   9  15  1   
 19   9  31  1   
 20  10  16  ar  
 21  10  32  1   
 22  11  16  ar  
 23  11  33  1   
 24  14  34  1   
 25  14  35  1   
 26  14  36  1   
 27  15  37  1   
 28  15  38  1   
 29  15  39  1   
 30  16  17  1   
 31  17  18  1   
 32  17  19  1   
 33  17  20  1   
 34  18  21  1   
 35  18  40  1   
 36  18  41  1   
 37  19  22  1   
 38  19  42  1   
 39  19  43  1   
 40  20  23  1   
 41  20  44  1   
 42  20  45  1   
 43  21  24  1   
 44  21  25  1   
 45  21  46  1   
 46  22  24  1   
 47  22  26  1   
 48  22  47  1   
 49  23  25  1   
 50  23  26  1   
 51  23  48  1   
 52  24  49  1   
 53  24  50  1   
 54  25  51  1   
 55  25  52  1   
 56  26  53  1   
 57  26  54  1   
@<TRIPOS>SUBSTRUCTURE
  1 ****   6 GROUP 4 **** **** 0

# MOE 2024.06 (io_trps.svl 2023.06)
