@<TRIPOS>MOLECULE
8800
33 33 1 0 0 
SMALL
USER_CHARGES


@<TRIPOS>ATOM
  1 CL       0.3180     1.8380     1.5510 Cl    1 <1>  -0.1770 
  2 C        2.0130     1.9720     1.1530 C.ar  1 <1>   0.1770 
  3 C        2.7200     0.8350     0.8080 C.ar  1 <1>  -0.1500 
  4 C        2.6210     3.2130     1.1890 C.ar  1 <1>  -0.1500 
  5 C        4.0650     0.9390     0.4920 C.ar  1 <1>  -0.1500 
  6 C        3.9650     3.3140     0.8720 C.ar  1 <1>  -0.1500 
  7 C        4.6920     2.1840     0.5240 C.ar  1 <1>   0.0830 
  8 O        6.0020     2.3760     0.2300 O.3   1 <1>  -0.3630 
  9 C        6.8430     1.3030    -0.1230 C.3   1 <1>   0.1200 
 10 C        8.2410     1.8650    -0.3850 C.3   1 <1>  -0.1600 
 11 C        9.2440     0.7470    -0.7130 C.3   1 <1>  -0.0990 
 12 C       10.6240     1.2910    -1.0260 C.2   1 <1>   0.5690 
 13 O       11.0300     1.2430    -2.1600 O.2   1 <1>  -0.5700 
 14 N       11.3610     1.8110    -0.0170 N.am  1 <1>  -0.7300 
 15 C       12.6880     2.4160    -0.1760 C.3   1 <1>   0.2780 
 16 C       12.7480     3.6060     0.7560 C.2   1 <1>  -0.2880 
 17 C       13.5540     3.7220     1.8160 C.2   1 <1>  -0.3000 
 18 H        2.2180    -0.1160     0.7890 H     1 <1>   0.1500 
 19 H        2.0500     4.0820     1.4600 H     1 <1>   0.1500 
 20 H        4.6010     0.0480     0.2250 H     1 <1>   0.1500 
 21 H        4.4590     4.2690     0.8930 H     1 <1>   0.1500 
 22 H        6.4470     0.8370    -1.0090 H     1 <1>   0.0800 
 23 H        6.8590     0.6030     0.6950 H     1 <1>   0.0800 
 24 H        8.5730     2.4030     0.4850 H     1 <1>   0.0800 
 25 H        8.1930     2.5500    -1.2150 H     1 <1>   0.0800 
 26 H        8.8990     0.1920    -1.5680 H     1 <1>   0.0800 
 27 H        9.3240     0.0650     0.1140 H     1 <1>   0.0800 
 28 H       10.9880     1.8580     0.9310 H     1 <1>   0.3700 
 29 H       12.8410     2.7270    -1.1960 H     1 <1>   0.0800 
 30 H       13.4420     1.6920     0.0830 H     1 <1>   0.0800 
 31 H       12.0520     4.3760     0.4690 H     1 <1>   0.1500 
 32 H       13.5750     4.5840     2.4620 H     1 <1>   0.1500 
 33 H       14.2600     2.9720     2.1300 H     1 <1>   0.1500 
@<TRIPOS>BOND
  1   1   2  1   
  2   2   3  ar  
  3   2   4  ar  
  4   3   5  ar  
  5   3  18  1   
  6   4   6  ar  
  7   4  19  1   
  8   5   7  ar  
  9   5  20  1   
 10   6   7  ar  
 11   6  21  1   
 12   7   8  1   
 13   8   9  1   
 14   9  10  1   
 15   9  22  1   
 16   9  23  1   
 17  10  11  1   
 18  10  24  1   
 19  10  25  1   
 20  11  12  1   
 21  11  26  1   
 22  11  27  1   
 23  12  13  2   
 24  12  14  am  
 25  14  15  1   
 26  14  28  1   
 27  15  16  1   
 28  15  29  1   
 29  15  30  1   
 30  16  17  2   
 31  16  31  1   
 32  17  32  1   
 33  17  33  1   
@<TRIPOS>SUBSTRUCTURE
  1 ****   9 GROUP 4 **** **** 0

# MOE 2024.06 (io_trps.svl 2023.06)
