@<TRIPOS>MOLECULE
NONAME
50 53 1 0 0 
SMALL
USER_CHARGES


@<TRIPOS>ATOM
  1 O       -0.8720    -0.9370     0.9660 O.2   1 <1>  -0.5700 
  2 C       -0.3560    -1.5010     0.0210 C.2   1 <1>   0.6900 
  3 N       -1.1350    -2.2870    -0.7730 N.am  1 <1>  -0.6600 
  4 N        0.9750    -1.4500    -0.2520 N.am  1 <1>  -0.5470 
  5 C       -1.1770    -3.7310    -0.4240 C.3   1 <1>   0.1400 
  6 C       -2.4730    -1.7530    -1.1550 C.3   1 <1>   0.1400 
  7 C        2.0640    -0.9070     0.4460 C.ar  1 <1>   0.1170 
  8 C       -2.1950    -3.9710     0.7120 C.3   1 <1>   0.3430 
  9 C       -3.5020    -2.0060    -0.0330 C.3   1 <1>   0.3430 
 10 C        3.3670    -1.4350     0.2080 C.ar  1 <1>   0.0000 
 11 C        1.9060     0.1320     1.3370 C.ar  1 <1>  -0.1500 
 12 N       -3.5790    -3.4600     0.3780 N.4   1 <1>  -0.9590 
 13 C        4.4680    -0.8720     0.8970 C.ar  1 <1>   0.0000 
 14 C        3.6310    -2.5060    -0.6780 C.ar  1 <1>  -0.1500 
 15 C        2.9940     0.6770     2.0170 C.ar  1 <1>  -0.1500 
 16 C       -4.5410    -3.6660     1.5050 C.3   1 <1>   0.4230 
 17 C        4.2490     0.1850     1.7990 C.ar  1 <1>  -0.1500 
 18 C        5.7610    -1.3830     0.6670 C.ar  1 <1>  -0.1500 
 19 C        4.8970    -2.9840    -0.8810 C.ar  1 <1>  -0.1500 
 20 C       -4.7120    -5.1590     1.8010 C.3   1 <1>  -0.1600 
 21 C       -5.9620    -3.2970     1.0700 C.3   1 <1>  -0.1600 
 22 C        5.9760    -2.4150    -0.2020 C.ar  1 <1>  -0.1500 
 23 C       -5.6540    -5.6950     0.7170 C.3   1 <1>  -0.1600 
 24 C       -6.4680    -4.4850     0.2420 C.3   1 <1>  -0.1600 
 25 H        1.2150    -1.9150    -1.1220 H     1 <1>   0.3700 
 26 H       -0.2020    -4.0530    -0.0970 H     1 <1>   0.0800 
 27 H       -1.4440    -4.3090    -1.2920 H     1 <1>   0.0800 
 28 H       -2.3960    -0.6930    -1.3300 H     1 <1>   0.0800 
 29 H       -2.8000    -2.2140    -2.0710 H     1 <1>   0.0800 
 30 H       -2.2260    -5.0260     0.9180 H     1 <1>   0.0800 
 31 H       -1.8330    -3.4720     1.5970 H     1 <1>   0.0800 
 32 H       -4.4620    -1.6610    -0.3740 H     1 <1>   0.0800 
 33 H       -3.2210    -1.4060     0.8180 H     1 <1>   0.0800 
 34 H        0.9380     0.5560     1.5260 H     1 <1>   0.1500 
 35 H       -3.9490    -4.0030    -0.4100 H     1 <1>   0.4500 
 36 H        2.8220    -2.9680    -1.2100 H     1 <1>   0.1500 
 37 H        2.8290     1.4860     2.7080 H     1 <1>   0.1500 
 38 H       -4.2310    -3.1150     2.3790 H     1 <1>   0.0800 
 39 H        5.0920     0.6020     2.3190 H     1 <1>   0.1500 
 40 H        6.5870    -0.9410     1.1950 H     1 <1>   0.1500 
 41 H        5.0810    -3.7980    -1.5610 H     1 <1>   0.1500 
 42 H       -5.2140    -5.2480     2.7510 H     1 <1>   0.0800 
 43 H       -3.8020    -5.7230     1.8750 H     1 <1>   0.0800 
 44 H       -6.5680    -3.2290     1.9580 H     1 <1>   0.0800 
 45 H       -6.0590    -2.3620     0.5530 H     1 <1>   0.0800 
 46 H        6.9670    -2.7990    -0.3720 H     1 <1>   0.1500 
 47 H       -6.2950    -6.4660     1.1130 H     1 <1>   0.0800 
 48 H       -5.0930    -6.1080    -0.1050 H     1 <1>   0.0800 
 49 H       -6.3000    -4.3150    -0.8080 H     1 <1>   0.0800 
 50 H       -7.5230    -4.6390     0.3980 H     1 <1>   0.0800 
@<TRIPOS>BOND
  1   1   2  2   
  2   2   3  am  
  3   2   4  am  
  4   3   5  1   
  5   3   6  1   
  6   4   7  1   
  7   4  25  1   
  8   5   8  1   
  9   5  26  1   
 10   5  27  1   
 11   6   9  1   
 12   6  28  1   
 13   6  29  1   
 14   7  10  ar  
 15   7  11  ar  
 16   8  12  1   
 17   8  30  1   
 18   8  31  1   
 19   9  12  1   
 20   9  32  1   
 21   9  33  1   
 22  10  13  ar  
 23  10  14  ar  
 24  11  15  ar  
 25  11  34  1   
 26  12  16  1   
 27  12  35  1   
 28  13  17  ar  
 29  13  18  ar  
 30  14  19  ar  
 31  14  36  1   
 32  15  17  ar  
 33  15  37  1   
 34  16  20  1   
 35  16  21  1   
 36  16  38  1   
 37  17  39  1   
 38  18  22  ar  
 39  18  40  1   
 40  19  22  ar  
 41  19  41  1   
 42  20  23  1   
 43  20  42  1   
 44  20  43  1   
 45  21  24  1   
 46  21  44  1   
 47  21  45  1   
 48  22  46  1   
 49  23  24  1   
 50  23  47  1   
 51  23  48  1   
 52  24  49  1   
 53  24  50  1   
@<TRIPOS>SUBSTRUCTURE
  1 ****   2 GROUP 4 **** **** 0

# MOE 2024.06 (io_trps.svl 2023.06)
