@<TRIPOS>MOLECULE
4-Benzoylamino-piperidine-1-carboxylic acid (2,6-dimethyl-phenyl)-amide
51 53 1 0 0 
SMALL
USER_CHARGES


@<TRIPOS>ATOM
  1 O        0.4550     0.3280    -0.7710 O.2   1 <1>  -0.5700 
  2 C        0.6380     1.5010    -1.0380 C.2   1 <1>   0.6900 
  3 N        1.7870     1.8970    -1.6780 N.am  1 <1>  -0.6600 
  4 N       -0.3000     2.4410    -0.7320 N.am  1 <1>  -0.5470 
  5 C        2.3710     3.2620    -1.5570 C.3   1 <1>   0.1400 
  6 C        2.6890     0.8960    -2.3120 C.3   1 <1>   0.1400 
  7 C       -1.5150     2.2860    -0.0500 C.ar  1 <1>   0.1170 
  8 C        3.6680     3.1850    -0.7490 C.3   1 <1>  -0.1600 
  9 C        3.9860     0.7980    -1.5070 C.3   1 <1>  -0.1600 
 10 C       -2.7130     2.5350    -0.7260 C.ar  1 <1>  -0.1440 
 11 C       -1.5540     1.9200     1.3000 C.ar  1 <1>  -0.1440 
 12 C        4.6350     2.1750    -1.3680 C.3   1 <1>   0.2200 
 13 C       -3.9210     2.4180    -0.0600 C.ar  1 <1>  -0.1500 
 14 C       -2.7210     2.9220    -2.2000 C.3   1 <1>  -0.0970 
 15 C       -2.7720     1.8030     1.9470 C.ar  1 <1>  -0.1500 
 16 C       -0.2820     1.6460     2.0930 C.3   1 <1>  -0.0970 
 17 N        5.8240     2.0620    -0.5090 N.am  1 <1>  -0.7300 
 18 C       -3.9530     2.0520     1.2730 C.ar  1 <1>  -0.1500 
 19 C        7.0470     2.6120    -0.7740 C.2   1 <1>   0.5440 
 20 O        7.1830     3.2540    -1.7970 O.2   1 <1>  -0.5700 
 21 C        8.1600     2.4220     0.1410 C.ar  1 <1>   0.0860 
 22 C        9.4760     2.4400    -0.3220 C.ar  1 <1>  -0.1500 
 23 C        7.9670     2.2150     1.5100 C.ar  1 <1>  -0.1500 
 24 C       10.5480     2.2480     0.5310 C.ar  1 <1>  -0.1500 
 25 C        9.0350     2.0220     2.3680 C.ar  1 <1>  -0.1500 
 26 C       10.3280     2.0360     1.8800 C.ar  1 <1>  -0.1500 
 27 H       -0.2350     3.2660    -1.3120 H     1 <1>   0.3700 
 28 H        1.6910     3.9350    -1.0660 H     1 <1>   0.0800 
 29 H        2.5750     3.6470    -2.5420 H     1 <1>   0.0800 
 30 H        2.9040     1.2060    -3.3200 H     1 <1>   0.0800 
 31 H        2.2140    -0.0700    -2.3580 H     1 <1>   0.0800 
 32 H        3.4320     2.9000     0.2610 H     1 <1>   0.0800 
 33 H        4.1320     4.1550    -0.7320 H     1 <1>   0.0800 
 34 H        4.6610     0.1300    -2.0090 H     1 <1>   0.0800 
 35 H        3.7550     0.3910    -0.5380 H     1 <1>   0.0800 
 36 H        4.9270     2.5240    -2.3460 H     1 <1>   0.0800 
 37 H       -4.8470     2.6050    -0.5730 H     1 <1>   0.1500 
 38 H       -2.1760     2.1920    -2.7720 H     1 <1>   0.0800 
 39 H       -2.2640     3.8870    -2.3310 H     1 <1>   0.0800 
 40 H       -3.7240     2.9660    -2.5820 H     1 <1>   0.0800 
 41 H       -2.8110     1.5160     2.9830 H     1 <1>   0.1500 
 42 H        0.4640     2.3880     1.8770 H     1 <1>   0.0800 
 43 H        0.1050     0.6770     1.8310 H     1 <1>   0.0800 
 44 H       -0.4760     1.6610     3.1500 H     1 <1>   0.0800 
 45 H        5.7120     1.4640     0.3090 H     1 <1>   0.3700 
 46 H       -4.8950     1.9590     1.7840 H     1 <1>   0.1500 
 47 H        9.6550     2.6080    -1.3710 H     1 <1>   0.1500 
 48 H        6.9710     2.2140     1.9120 H     1 <1>   0.1500 
 49 H       11.5530     2.2650     0.1450 H     1 <1>   0.1500 
 50 H        8.8620     1.8630     3.4190 H     1 <1>   0.1500 
 51 H       11.1610     1.8860     2.5450 H     1 <1>   0.1500 
@<TRIPOS>BOND
  1   1   2  2   
  2   2   3  am  
  3   2   4  am  
  4   3   5  1   
  5   3   6  1   
  6   4   7  1   
  7   4  27  1   
  8   5   8  1   
  9   5  28  1   
 10   5  29  1   
 11   6   9  1   
 12   6  30  1   
 13   6  31  1   
 14   7  10  ar  
 15   7  11  ar  
 16   8  12  1   
 17   8  32  1   
 18   8  33  1   
 19   9  12  1   
 20   9  34  1   
 21   9  35  1   
 22  10  13  ar  
 23  10  14  1   
 24  11  15  ar  
 25  11  16  1   
 26  12  17  1   
 27  12  36  1   
 28  13  18  ar  
 29  13  37  1   
 30  14  38  1   
 31  14  39  1   
 32  14  40  1   
 33  15  18  ar  
 34  15  41  1   
 35  16  42  1   
 36  16  43  1   
 37  16  44  1   
 38  17  19  am  
 39  17  45  1   
 40  18  46  1   
 41  19  20  2   
 42  19  21  1   
 43  21  22  ar  
 44  21  23  ar  
 45  22  24  ar  
 46  22  47  1   
 47  23  25  ar  
 48  23  48  1   
 49  24  26  ar  
 50  24  49  1   
 51  25  26  ar  
 52  25  50  1   
 53  26  51  1   
@<TRIPOS>SUBSTRUCTURE
  1 ****   8 GROUP 4 **** **** 0

# MOE 2024.06 (io_trps.svl 2023.06)
