@<TRIPOS>MOLECULE
NONAME
64 68 1 0 0 
SMALL
USER_CHARGES


@<TRIPOS>ATOM
  1 O       -0.5110     2.3280    -1.1850 O.2   1 <1>  -0.5700 
  2 C       -1.7070     2.3590    -1.3400 C.2   1 <1>   0.5690 
  3 N       -2.5140     1.3160    -1.6740 N.am  1 <1>  -0.6600 
  4 C       -2.5540     3.5730    -1.1260 C.3   1 <1>  -0.0190 
  5 C       -3.9190     1.7840    -1.9870 C.3   1 <1>   0.2810 
  6 C       -2.1900    -0.1110    -1.4940 C.3   1 <1>   0.2780 
  7 C       -3.6380     3.2860    -2.1460 C.3   1 <1>   0.4180 
  8 C       -2.3230     5.0840    -1.3250 C.3   1 <1>  -0.0190 
  9 C       -4.9700     1.4280    -0.9230 C.2   1 <1>   0.5690 
 10 C       -2.0040    -0.3780    -0.0130 C.2   1 <1>  -0.2880 
 11 O       -4.4620     4.3600    -1.8560 O.3   1 <1>  -0.5600 
 12 C       -3.2090     3.6820    -3.5540 C.2   1 <1>  -0.2880 
 13 C       -2.3010     5.8310    -0.0020 C.2   1 <1>   0.5690 
 14 C       -3.5770     5.4160    -2.1740 C.3   1 <1>   0.3380 
 15 O       -5.3370     0.2770    -0.8720 O.2   1 <1>  -0.5700 
 16 N       -5.4820     2.3870    -0.0960 N.am  1 <1>  -0.7300 
 17 C       -2.8300    -1.0940     0.7550 C.2   1 <1>  -0.3000 
 18 C       -3.2140     5.0060    -3.5780 C.2   1 <1>  -0.2880 
 19 O       -3.2310     6.5320     0.3080 O.2   1 <1>  -0.5700 
 20 N       -1.2570     5.7150     0.8490 N.am  1 <1>  -0.7300 
 21 C       -6.3950     2.2250     1.0540 C.3   1 <1>   0.2200 
 22 C       -0.0230     4.9170     0.7340 C.3   1 <1>   0.2200 
 23 C       -5.7850     1.2950     2.1100 C.3   1 <1>  -0.1600 
 24 C       -7.7740     1.7370     0.5950 C.3   1 <1>  -0.1600 
 25 C       -0.0950     3.7560     1.7180 C.3   1 <1>  -0.1600 
 26 C        1.1430     5.7460     1.2570 C.3   1 <1>  -0.1600 
 27 C       -6.7330     1.1310     3.3080 C.3   1 <1>  -0.1600 
 28 C       -8.7230     1.5720     1.7920 C.3   1 <1>  -0.1600 
 29 C        0.2980     4.3390     3.0800 C.3   1 <1>  -0.1600 
 30 C        1.1010     5.6120     2.7840 C.3   1 <1>  -0.1600 
 31 C       -8.1170     0.6430     2.8550 C.3   1 <1>  -0.1600 
 32 H       -2.9710     3.4400    -0.1420 H     1 <1>   0.0800 
 33 H       -4.2310     1.3710    -2.9280 H     1 <1>   0.0800 
 34 H       -1.2840    -0.3460    -2.0260 H     1 <1>   0.0800 
 35 H       -2.9900    -0.7170    -1.8830 H     1 <1>   0.0800 
 36 H       -1.4220     5.2930    -1.8720 H     1 <1>   0.0800 
 37 H       -1.1110     0.0860     0.3710 H     1 <1>   0.1500 
 38 H       -2.9710     2.9480    -4.3050 H     1 <1>   0.1500 
 39 H       -4.0440     6.3810    -2.0610 H     1 <1>   0.0800 
 40 H       -5.3040     3.3710    -0.3420 H     1 <1>   0.3700 
 41 H       -2.6770    -1.2700     1.8050 H     1 <1>   0.1500 
 42 H       -3.7360    -1.5580     0.3990 H     1 <1>   0.1500 
 43 H       -2.9900     5.7310    -4.3420 H     1 <1>   0.1500 
 44 H       -1.3440     6.2190     1.7330 H     1 <1>   0.3700 
 45 H       -6.5220     3.1950     1.5060 H     1 <1>   0.0800 
 46 H        0.1430     4.5900    -0.2780 H     1 <1>   0.0800 
 47 H       -4.8460     1.6980     2.4470 H     1 <1>   0.0800 
 48 H       -5.6040     0.3260     1.6810 H     1 <1>   0.0800 
 49 H       -7.6760     0.7880     0.0990 H     1 <1>   0.0800 
 50 H       -8.1930     2.4430    -0.1000 H     1 <1>   0.0800 
 51 H        0.6350     3.0210     1.4270 H     1 <1>   0.0800 
 52 H       -1.0630     3.2860     1.7310 H     1 <1>   0.0800 
 53 H        1.0980     6.7690     0.9280 H     1 <1>   0.0800 
 54 H        2.0570     5.3090     0.8960 H     1 <1>   0.0800 
 55 H       -6.8360     2.0750     3.8150 H     1 <1>   0.0800 
 56 H       -6.3130     0.4260     4.0050 H     1 <1>   0.0800 
 57 H       -9.6610     1.1670     1.4540 H     1 <1>   0.0800 
 58 H       -8.9180     2.5360     2.2300 H     1 <1>   0.0800 
 59 H        0.8750     3.6300     3.6480 H     1 <1>   0.0800 
 60 H       -0.5880     4.5910     3.6380 H     1 <1>   0.0800 
 61 H        0.6040     6.4640     3.2160 H     1 <1>   0.0800 
 62 H        2.0970     5.5500     3.1890 H     1 <1>   0.0800 
 63 H       -8.7760     0.5870     3.7040 H     1 <1>   0.0800 
 64 H       -8.0240    -0.3490     2.4450 H     1 <1>   0.0800 
@<TRIPOS>BOND
  1   1   2  2   
  2   2   3  am  
  3   2   4  1   
  4   3   5  1   
  5   3   6  1   
  6   4   7  1   
  7   4   8  1   
  8   4  32  1   
  9   5   7  1   
 10   5   9  1   
 11   5  33  1   
 12   6  10  1   
 13   6  34  1   
 14   6  35  1   
 15   7  11  1   
 16   7  12  1   
 17   8  13  1   
 18   8  14  1   
 19   8  36  1   
 20   9  15  2   
 21   9  16  am  
 22  10  17  2   
 23  10  37  1   
 24  11  14  1   
 25  12  18  2   
 26  12  38  1   
 27  13  19  2   
 28  13  20  am  
 29  14  18  1   
 30  14  39  1   
 31  16  21  1   
 32  16  40  1   
 33  17  41  1   
 34  17  42  1   
 35  18  43  1   
 36  20  22  1   
 37  20  44  1   
 38  21  23  1   
 39  21  24  1   
 40  21  45  1   
 41  22  25  1   
 42  22  26  1   
 43  22  46  1   
 44  23  27  1   
 45  23  47  1   
 46  23  48  1   
 47  24  28  1   
 48  24  49  1   
 49  24  50  1   
 50  25  29  1   
 51  25  51  1   
 52  25  52  1   
 53  26  30  1   
 54  26  53  1   
 55  26  54  1   
 56  27  31  1   
 57  27  55  1   
 58  27  56  1   
 59  28  31  1   
 60  28  57  1   
 61  28  58  1   
 62  29  30  1   
 63  29  59  1   
 64  29  60  1   
 65  30  61  1   
 66  30  62  1   
 67  31  63  1   
 68  31  64  1   
@<TRIPOS>SUBSTRUCTURE
  1 ****   4 GROUP 4 **** **** 0

# MOE 2024.06 (io_trps.svl 2023.06)
