@<TRIPOS>MOLECULE
NONAME
30 30 1 0 0 
SMALL
USER_CHARGES


@<TRIPOS>ATOM
  1 CL      -1.3010    -0.6480     2.0690 Cl    1 <1>  -0.2090 
  2 C       -1.4640    -1.0820     0.4000 C.2   1 <1>   0.7180 
  3 O       -0.6460    -0.7310    -0.4020 O.2   1 <1>  -0.5700 
  4 C       -2.6610    -1.9520     0.0630 C.3   1 <1>   0.1810 
  5 O       -3.8680    -1.3220     0.4550 O.3   1 <1>  -0.3630 
  6 C       -5.0660    -1.9320     0.2760 C.ar  1 <1>   0.0830 
  7 C       -5.2280    -3.1640    -0.3460 C.ar  1 <1>  -0.1500 
  8 C       -6.1810    -1.2670     0.7510 C.ar  1 <1>  -0.1500 
  9 C       -6.4920    -3.7130    -0.4830 C.ar  1 <1>  -0.1500 
 10 C       -7.4400    -1.8220     0.6110 C.ar  1 <1>  -0.1500 
 11 C       -7.6240    -3.0540    -0.0080 C.ar  1 <1>  -0.1440 
 12 C       -9.0510    -3.6310    -0.1400 C.3   1 <1>   0.1440 
 13 C       -9.6630    -3.8130     1.2570 C.3   1 <1>  -0.2400 
 14 C       -9.9220    -2.6640    -0.9560 C.3   1 <1>  -0.2400 
 15 C       -9.0910    -4.9980    -0.8440 C.3   1 <1>  -0.2400 
 16 H       -2.5820    -2.8880     0.5830 H     1 <1>   0.0800 
 17 H       -2.6950    -2.1160    -0.9980 H     1 <1>   0.0800 
 18 H       -4.3930    -3.7140    -0.7330 H     1 <1>   0.1500 
 19 H       -6.0600    -0.3140     1.2320 H     1 <1>   0.1500 
 20 H       -6.5660    -4.6660    -0.9710 H     1 <1>   0.1500 
 21 H       -8.2830    -1.2740     0.9930 H     1 <1>   0.1500 
 22 H       -9.7510    -2.8720     1.7690 H     1 <1>   0.0800 
 23 H       -9.0420    -4.4610     1.8490 H     1 <1>   0.0800 
 24 H      -10.6440    -4.2470     1.1890 H     1 <1>   0.0800 
 25 H       -9.4830    -2.5030    -1.9250 H     1 <1>   0.0800 
 26 H      -10.0130    -1.7130    -0.4650 H     1 <1>   0.0800 
 27 H      -10.9110    -3.0640    -1.0910 H     1 <1>   0.0800 
 28 H       -8.6990    -4.9200    -1.8420 H     1 <1>   0.0800 
 29 H      -10.1020    -5.3580    -0.9130 H     1 <1>   0.0800 
 30 H       -8.5170    -5.7230    -0.2960 H     1 <1>   0.0800 
@<TRIPOS>BOND
  1   1   2  1   
  2   2   3  2   
  3   2   4  1   
  4   4   5  1   
  5   4  16  1   
  6   4  17  1   
  7   5   6  1   
  8   6   7  ar  
  9   6   8  ar  
 10   7   9  ar  
 11   7  18  1   
 12   8  10  ar  
 13   8  19  1   
 14   9  11  ar  
 15   9  20  1   
 16  10  11  ar  
 17  10  21  1   
 18  11  12  1   
 19  12  13  1   
 20  12  14  1   
 21  12  15  1   
 22  13  22  1   
 23  13  23  1   
 24  13  24  1   
 25  14  25  1   
 26  14  26  1   
 27  14  27  1   
 28  15  28  1   
 29  15  29  1   
 30  15  30  1   
@<TRIPOS>SUBSTRUCTURE
  1 ****   6 GROUP 4 **** **** 0

# MOE 2024.06 (io_trps.svl 2023.06)
