@<TRIPOS>MOLECULE
N-(3-Methoxy-phenyl)-2-[3-(3-methoxy-propyl)-2,4-dioxo-3,4-dihydro-2H-thieno[3,2
49 51 1 0 0 
SMALL
USER_CHARGES


@<TRIPOS>ATOM
  1 S        0.4670    -1.1570    -2.3710 S.3   1 <1>  -0.0800 
  2 C        1.9580    -1.3000    -1.4300 C.2   1 <1>  -0.0450 
  3 C       -0.2160    -2.5700    -1.5810 C.2   1 <1>  -0.1100 
  4 C        3.0980    -0.4620    -1.5380 C.2   1 <1>   0.7150 
  5 C        1.8730    -2.3480    -0.5770 C.2   1 <1>   0.0630 
  6 C        0.6430    -3.0770    -0.6760 C.2   1 <1>  -0.1500 
  7 O        3.1430     0.5000    -2.2870 O.2   1 <1>  -0.5700 
  8 N        4.1890    -0.7890    -0.7460 N.am  1 <1>  -0.4200 
  9 N        2.9580    -2.6000     0.2620 N.am  1 <1>  -0.4230 
 10 C        4.1360    -1.8800     0.1090 C.2   1 <1>   0.6900 
 11 C        5.4150     0.0560    -0.7920 C.3   1 <1>   0.1400 
 12 C        2.8640    -3.6370     1.3380 C.3   1 <1>   0.2010 
 13 O        5.1310    -2.2310     0.7230 O.2   1 <1>  -0.5700 
 14 C        5.3570     1.1170     0.3100 C.3   1 <1>  -0.1600 
 15 C        3.4150    -4.9830     0.8910 C.2   1 <1>   0.5690 
 16 C        6.6010     2.0010     0.2810 C.3   1 <1>   0.1200 
 17 O        2.6400    -5.9010     0.7750 O.2   1 <1>  -0.5700 
 18 N        4.7600    -5.0700     0.6490 N.am  1 <1>  -0.5470 
 19 O        6.5000     2.8950     1.3360 O.3   1 <1>  -0.5600 
 20 C        5.5850    -6.1340     0.2520 C.ar  1 <1>   0.1170 
 21 C        7.5640     3.7860     1.4290 C.3   1 <1>   0.0400 
 22 C        5.1840    -7.4660     0.2560 C.ar  1 <1>  -0.1500 
 23 C        6.8810    -5.8370    -0.1560 C.ar  1 <1>  -0.1500 
 24 C        6.0440    -8.4760    -0.1390 C.ar  1 <1>   0.0820 
 25 C        7.7500    -6.8370    -0.5530 C.ar  1 <1>  -0.1500 
 26 O        5.5610    -9.7440    -0.1000 O.3   1 <1>  -0.3620 
 27 C        7.3370    -8.1570    -0.5470 C.ar  1 <1>  -0.1500 
 28 C        6.3450   -10.8420    -0.5070 C.3   1 <1>   0.0400 
 29 H       -1.2000    -2.8790    -1.8870 H     1 <1>   0.1500 
 30 H        0.4520    -3.9520    -0.0790 H     1 <1>   0.1500 
 31 H        5.5000     0.5310    -1.7540 H     1 <1>   0.0800 
 32 H        6.2870    -0.5630    -0.6590 H     1 <1>   0.0800 
 33 H        1.8420    -3.7580     1.6430 H     1 <1>   0.0800 
 34 H        3.4150    -3.3100     2.2010 H     1 <1>   0.0800 
 35 H        5.2990     0.6360     1.2700 H     1 <1>   0.0800 
 36 H        4.4900     1.7380     0.1660 H     1 <1>   0.0800 
 37 H        6.6550     2.5560    -0.6410 H     1 <1>   0.0800 
 38 H        7.4930     1.4120     0.4150 H     1 <1>   0.0800 
 39 H        5.2460    -4.1670     0.7230 H     1 <1>   0.3700 
 40 H        7.3880     4.4280     2.2740 H     1 <1>   0.0800 
 41 H        7.6140     4.3750     0.5300 H     1 <1>   0.0800 
 42 H        8.4770     3.2350     1.5760 H     1 <1>   0.0800 
 43 H        4.1940    -7.7380     0.5690 H     1 <1>   0.1500 
 44 H        7.2130    -4.8150    -0.1640 H     1 <1>   0.1500 
 45 H        8.7490    -6.5890    -0.8670 H     1 <1>   0.1500 
 46 H        8.0280    -8.9160    -0.8590 H     1 <1>   0.1500 
 47 H        5.7520   -11.7320    -0.3990 H     1 <1>   0.0800 
 48 H        7.2140   -10.9030     0.1240 H     1 <1>   0.0800 
 49 H        6.6220   -10.7090    -1.5370 H     1 <1>   0.0800 
@<TRIPOS>BOND
  1   1   2  1   
  2   1   3  1   
  3   2   4  1   
  4   2   5  2   
  5   3   6  2   
  6   3  29  1   
  7   4   7  2   
  8   4   8  am  
  9   5   6  1   
 10   5   9  1   
 11   6  30  1   
 12   8  10  am  
 13   8  11  1   
 14   9  10  am  
 15   9  12  1   
 16  10  13  2   
 17  11  14  1   
 18  11  31  1   
 19  11  32  1   
 20  12  15  1   
 21  12  33  1   
 22  12  34  1   
 23  14  16  1   
 24  14  35  1   
 25  14  36  1   
 26  15  17  2   
 27  15  18  am  
 28  16  19  1   
 29  16  37  1   
 30  16  38  1   
 31  18  20  1   
 32  18  39  1   
 33  19  21  1   
 34  20  22  ar  
 35  20  23  ar  
 36  21  40  1   
 37  21  41  1   
 38  21  42  1   
 39  22  24  ar  
 40  22  43  1   
 41  23  25  ar  
 42  23  44  1   
 43  24  26  1   
 44  24  27  ar  
 45  25  27  ar  
 46  25  45  1   
 47  26  28  1   
 48  27  46  1   
 49  28  47  1   
 50  28  48  1   
 51  28  49  1   
@<TRIPOS>SUBSTRUCTURE
  1 ****  10 GROUP 4 **** **** 0

# MOE 2024.06 (io_trps.svl 2023.06)
