@<TRIPOS>MOLECULE
N-(5-Chloro-2-methyl-phenyl)-2-[3-(3-methoxy-propyl)-2,4-dioxo-3,4-dihydro-2H-th
48 50 1 0 0 
SMALL
USER_CHARGES


@<TRIPOS>ATOM
  1 CL      -1.9840    -0.1820     3.9900 Cl    1 <1>  -0.1770 
  2 C       -2.7440    -0.8730     2.5790 C.ar  1 <1>   0.1770 
  3 C       -3.6550    -0.1240     1.8660 C.ar  1 <1>  -0.1500 
  4 C       -2.4200    -2.1600     2.1990 C.ar  1 <1>  -0.1500 
  5 C       -4.2690    -0.6600     0.7420 C.ar  1 <1>   0.1170 
  6 C       -3.0220    -2.6990     1.0750 C.ar  1 <1>  -0.1500 
  7 N       -5.1820     0.1480     0.0550 N.am  1 <1>  -0.5470 
  8 C       -3.9380    -1.9600     0.3400 C.ar  1 <1>  -0.1430 
  9 C       -6.5190    -0.0500    -0.1510 C.2   1 <1>   0.5690 
 10 C       -4.5530    -2.6010    -0.8980 C.3   1 <1>  -0.0960 
 11 O       -7.1000    -1.0640     0.1520 O.2   1 <1>  -0.5700 
 12 C       -7.3180     1.0790    -0.7860 C.3   1 <1>   0.2010 
 13 N       -7.4340     2.2600     0.1280 N.am  1 <1>  -0.4230 
 14 C       -6.4060     3.1930     0.1670 C.2   1 <1>   0.6900 
 15 C       -8.5450     2.4100     0.9580 C.2   1 <1>   0.0630 
 16 O       -5.3670     2.9580    -0.4270 O.2   1 <1>  -0.5700 
 17 N       -6.5450     4.3660     0.8950 N.am  1 <1>  -0.4200 
 18 C       -8.6450     3.5470     1.6860 C.2   1 <1>  -0.0450 
 19 C       -9.6240     1.4910     1.1680 C.2   1 <1>  -0.1500 
 20 C       -7.6720     4.5800     1.6730 C.2   1 <1>   0.7150 
 21 C       -5.4850     5.4110     0.8230 C.3   1 <1>   0.1400 
 22 S      -10.1330     3.5300     2.6420 S.3   1 <1>  -0.0800 
 23 C      -10.5560     1.9380     2.0320 C.2   1 <1>  -0.1100 
 24 O       -7.7950     5.6120     2.3120 O.2   1 <1>  -0.5700 
 25 C       -5.7280     6.3160    -0.3870 C.3   1 <1>  -0.1600 
 26 C       -4.6540     7.3950    -0.4840 C.3   1 <1>   0.1200 
 27 O       -4.9110     8.1350    -1.6280 O.3   1 <1>  -0.5600 
 28 C       -4.0130     9.1740    -1.8450 C.3   1 <1>   0.0400 
 29 H       -3.8880     0.8720     2.1890 H     1 <1>   0.1500 
 30 H       -1.7090    -2.7270     2.7720 H     1 <1>   0.1500 
 31 H       -2.7710    -3.7020     0.7760 H     1 <1>   0.1500 
 32 H       -4.8570     1.1020    -0.1510 H     1 <1>   0.3700 
 33 H       -3.9300    -3.3960    -1.2660 H     1 <1>   0.0800 
 34 H       -5.5180    -3.0080    -0.6550 H     1 <1>   0.0800 
 35 H       -4.6670    -1.8770    -1.6830 H     1 <1>   0.0800 
 36 H       -8.2940     0.7180    -1.0480 H     1 <1>   0.0800 
 37 H       -6.8330     1.3760    -1.6980 H     1 <1>   0.0800 
 38 H       -9.6600     0.5340     0.6790 H     1 <1>   0.1500 
 39 H       -4.5190     4.9420     0.7410 H     1 <1>   0.0800 
 40 H       -5.4840     5.9980     1.7260 H     1 <1>   0.0800 
 41 H      -11.4680     1.4970     2.3950 H     1 <1>   0.1500 
 42 H       -6.6890     6.7920    -0.2930 H     1 <1>   0.0800 
 43 H       -5.7070     5.7260    -1.2870 H     1 <1>   0.0800 
 44 H       -3.6750     6.9540    -0.5730 H     1 <1>   0.0800 
 45 H       -4.6910     8.0500     0.3700 H     1 <1>   0.0800 
 46 H       -4.3000     9.6800    -2.7500 H     1 <1>   0.0800 
 47 H       -3.0210     8.7700    -1.9550 H     1 <1>   0.0800 
 48 H       -4.0560     9.8610    -1.0170 H     1 <1>   0.0800 
@<TRIPOS>BOND
  1   1   2  1   
  2   2   3  ar  
  3   2   4  ar  
  4   3   5  ar  
  5   3  29  1   
  6   4   6  ar  
  7   4  30  1   
  8   5   7  1   
  9   5   8  ar  
 10   6   8  ar  
 11   6  31  1   
 12   7   9  am  
 13   7  32  1   
 14   8  10  1   
 15   9  11  2   
 16   9  12  1   
 17  10  33  1   
 18  10  34  1   
 19  10  35  1   
 20  12  13  1   
 21  12  36  1   
 22  12  37  1   
 23  13  14  am  
 24  13  15  1   
 25  14  16  2   
 26  14  17  am  
 27  15  18  2   
 28  15  19  1   
 29  17  20  am  
 30  17  21  1   
 31  18  20  1   
 32  18  22  1   
 33  19  23  2   
 34  19  38  1   
 35  20  24  2   
 36  21  25  1   
 37  21  39  1   
 38  21  40  1   
 39  22  23  1   
 40  23  41  1   
 41  25  26  1   
 42  25  42  1   
 43  25  43  1   
 44  26  27  1   
 45  26  44  1   
 46  26  45  1   
 47  27  28  1   
 48  28  46  1   
 49  28  47  1   
 50  28  48  1   
@<TRIPOS>SUBSTRUCTURE
  1 ****  14 GROUP 4 **** **** 0

# MOE 2024.06 (io_trps.svl 2023.06)
