@<TRIPOS>MOLECULE
Pyrrolidine-1,2-dicarboxylic acid 2-{[2-(3,4-dimethoxy-phenyl)-ethyl]-amide} 1-p-tolylamide
59 61 1 0 0 
SMALL
USER_CHARGES


@<TRIPOS>ATOM
  1 O        4.0740    -1.1480    -1.6780 O.2   1 <1>  -0.5700 
  2 C        3.9040    -0.1130    -1.0620 C.2   1 <1>   0.6900 
  3 N        4.0340    -0.0860     0.3010 N.am  1 <1>  -0.6600 
  4 N        3.5840     0.9920    -1.7860 N.am  1 <1>  -0.5470 
  5 C        4.3280    -1.3210     1.1050 C.3   1 <1>   0.2810 
  6 C        4.4430     1.1290     1.0450 C.3   1 <1>   0.1400 
  7 C        2.7790     2.0880    -1.4590 C.ar  1 <1>   0.1170 
  8 C        3.1620    -2.3350     1.2100 C.2   1 <1>   0.5690 
  9 C        4.8120    -0.7760     2.4580 C.3   1 <1>  -0.1600 
 10 C        5.3510     0.6170     2.1540 C.3   1 <1>  -0.1600 
 11 C        1.7160     1.9760    -0.5700 C.ar  1 <1>  -0.1500 
 12 C        3.0280     3.3210    -2.0460 C.ar  1 <1>  -0.1500 
 13 O        2.8610    -2.8140     2.2810 O.2   1 <1>  -0.5700 
 14 N        2.5100    -2.7040     0.0740 N.am  1 <1>  -0.7300 
 15 C        0.9310     3.0740    -0.2650 C.ar  1 <1>  -0.1500 
 16 C        2.2430     4.4190    -1.7440 C.ar  1 <1>  -0.1500 
 17 C        1.3890    -3.6610    -0.0290 C.3   1 <1>   0.1400 
 18 C        1.1920     4.3030    -0.8490 C.ar  1 <1>  -0.1430 
 19 C        1.8420    -4.9010    -0.7980 C.3   1 <1>  -0.0170 
 20 C        0.3300     5.5080    -0.5180 C.3   1 <1>  -0.0970 
 21 C        0.6820    -5.8660    -0.9740 C.ar  1 <1>  -0.1430 
 22 C        0.3750    -6.7740     0.0280 C.ar  1 <1>  -0.1500 
 23 C       -0.0840    -5.8430    -2.1300 C.ar  1 <1>  -0.1500 
 24 C       -0.6860    -7.6530    -0.1160 C.ar  1 <1>   0.0820 
 25 C       -1.1370    -6.7280    -2.2900 C.ar  1 <1>  -0.1500 
 26 O       -0.9520    -8.4870     0.9200 O.3   1 <1>  -0.3620 
 27 C       -1.4360    -7.6460    -1.2970 C.ar  1 <1>   0.0820 
 28 C       -2.1700    -8.2680     1.5970 C.3   1 <1>   0.0400 
 29 O       -2.4560    -8.5080    -1.5300 O.3   1 <1>  -0.3630 
 30 C       -2.1090    -9.8710    -1.6380 C.3   1 <1>   0.0400 
 31 H        3.7570     0.8500    -2.7780 H     1 <1>   0.3700 
 32 H        5.1510    -1.8280     0.6340 H     1 <1>   0.0800 
 33 H        3.5690     1.5960     1.4660 H     1 <1>   0.0800 
 34 H        4.9560     1.8300     0.4080 H     1 <1>   0.0800 
 35 H        5.5490    -1.4200     2.9030 H     1 <1>   0.0800 
 36 H        3.9770    -0.6910     3.1320 H     1 <1>   0.0800 
 37 H        5.3330     1.2620     3.0150 H     1 <1>   0.0800 
 38 H        6.3600     0.5510     1.7830 H     1 <1>   0.0800 
 39 H        1.5000     1.0260    -0.1150 H     1 <1>   0.1500 
 40 H        3.8420     3.4230    -2.7390 H     1 <1>   0.1500 
 41 H        2.8480    -2.2910    -0.8090 H     1 <1>   0.3700 
 42 H        0.1140     2.9660     0.4270 H     1 <1>   0.1500 
 43 H        2.4530     5.3670    -2.2090 H     1 <1>   0.1500 
 44 H        0.5670    -3.1910    -0.5410 H     1 <1>   0.0800 
 45 H        1.0550    -3.9460     0.9560 H     1 <1>   0.0800 
 46 H        2.6340    -5.3860    -0.2550 H     1 <1>   0.0800 
 47 H        2.2210    -4.6110    -1.7610 H     1 <1>   0.0800 
 48 H       -0.4830     5.5770    -1.2180 H     1 <1>   0.0800 
 49 H        0.9110     6.4110    -0.5700 H     1 <1>   0.0800 
 50 H       -0.0730     5.4220     0.4750 H     1 <1>   0.0800 
 51 H        0.9520    -6.8030     0.9350 H     1 <1>   0.1500 
 52 H        0.1370    -5.1390    -2.9130 H     1 <1>   0.1500 
 53 H       -1.7280    -6.7140    -3.1870 H     1 <1>   0.1500 
 54 H       -2.2040    -7.2440     1.9270 H     1 <1>   0.0800 
 55 H       -2.2080    -8.9290     2.4430 H     1 <1>   0.0800 
 56 H       -2.9900    -8.4730     0.9330 H     1 <1>   0.0800 
 57 H       -2.9850   -10.4190    -1.9350 H     1 <1>   0.0800 
 58 H       -1.7600   -10.2270    -0.6860 H     1 <1>   0.0800 
 59 H       -1.3380    -9.9750    -2.3810 H     1 <1>   0.0800 
@<TRIPOS>BOND
  1   1   2  2   
  2   2   3  am  
  3   2   4  am  
  4   3   5  1   
  5   3   6  1   
  6   4   7  1   
  7   4  31  1   
  8   5   8  1   
  9   5   9  1   
 10   5  32  1   
 11   6  10  1   
 12   6  33  1   
 13   6  34  1   
 14   7  11  ar  
 15   7  12  ar  
 16   8  13  2   
 17   8  14  am  
 18   9  10  1   
 19   9  35  1   
 20   9  36  1   
 21  10  37  1   
 22  10  38  1   
 23  11  15  ar  
 24  11  39  1   
 25  12  16  ar  
 26  12  40  1   
 27  14  17  1   
 28  14  41  1   
 29  15  18  ar  
 30  15  42  1   
 31  16  18  ar  
 32  16  43  1   
 33  17  19  1   
 34  17  44  1   
 35  17  45  1   
 36  18  20  1   
 37  19  21  1   
 38  19  46  1   
 39  19  47  1   
 40  20  48  1   
 41  20  49  1   
 42  20  50  1   
 43  21  22  ar  
 44  21  23  ar  
 45  22  24  ar  
 46  22  51  1   
 47  23  25  ar  
 48  23  52  1   
 49  24  26  1   
 50  24  27  ar  
 51  25  27  ar  
 52  25  53  1   
 53  26  28  1   
 54  27  29  1   
 55  28  54  1   
 56  28  55  1   
 57  28  56  1   
 58  29  30  1   
 59  30  57  1   
 60  30  58  1   
 61  30  59  1   
@<TRIPOS>SUBSTRUCTURE
  1 ****  14 GROUP 4 **** **** 0

# MOE 2024.06 (io_trps.svl 2023.06)
