@<TRIPOS>MOLECULE
NONAME
38 40 1 0 0 
SMALL
USER_CHARGES


@<TRIPOS>ATOM
  1 O       -0.1370    -1.7010    -2.5170 O.2   1 <1>  -0.5700 
  2 C       -0.9630    -1.8170    -1.6370 C.2   1 <1>   0.5690 
  3 N       -0.9540    -2.8710    -0.7540 N.am  1 <1>  -0.4770 
  4 C       -2.0380    -0.7280    -1.4640 C.3   1 <1>   0.2610 
  5 C       -2.0270    -3.0250     0.1620 C.ar  1 <1>   0.1170 
  6 C        0.1090    -3.9330    -0.8870 C.3   1 <1>   0.2010 
  7 O       -3.2430    -1.2540    -0.9300 O.3   1 <1>  -0.3630 
  8 C       -2.4150     0.0010    -2.7610 C.3   1 <1>  -0.2400 
  9 C       -3.1590    -2.2060     0.0340 C.ar  1 <1>   0.0830 
 10 C       -2.0300    -3.9690     1.1880 C.ar  1 <1>  -0.1500 
 11 C        1.2030    -3.8880     0.1860 C.2   1 <1>   0.5690 
 12 C       -4.2430    -2.3410     0.8830 C.ar  1 <1>  -0.1500 
 13 C       -3.1120    -4.0980     2.0420 C.ar  1 <1>  -0.1500 
 14 O        1.2220    -4.7840     1.0000 O.2   1 <1>  -0.5700 
 15 N        2.1530    -2.9000     0.2170 N.am  1 <1>  -0.6600 
 16 C       -4.2220    -3.2870     1.8910 C.ar  1 <1>  -0.1500 
 17 C        2.3470    -1.8240    -0.7790 C.3   1 <1>   0.1400 
 18 C        3.2000    -2.8490     1.2600 C.3   1 <1>   0.1400 
 19 C        3.7310    -1.2620    -0.4780 C.3   1 <1>  -0.1600 
 20 C        3.9460    -1.5440     1.0060 C.3   1 <1>  -0.1600 
 21 H       -1.6700    -0.0140    -0.7510 H     1 <1>   0.0800 
 22 H        0.5820    -3.8700    -1.8490 H     1 <1>   0.0800 
 23 H       -0.3650    -4.8960    -0.8440 H     1 <1>   0.0800 
 24 H       -2.7870    -0.7040    -3.4830 H     1 <1>   0.0800 
 25 H       -1.5490     0.4860    -3.1730 H     1 <1>   0.0800 
 26 H       -3.1640     0.7460    -2.5640 H     1 <1>   0.0800 
 27 H       -1.1940    -4.6210     1.3450 H     1 <1>   0.1500 
 28 H       -5.0990    -1.7040     0.7520 H     1 <1>   0.1500 
 29 H       -3.0880    -4.8350     2.8270 H     1 <1>   0.1500 
 30 H       -5.0640    -3.3910     2.5540 H     1 <1>   0.1500 
 31 H        1.6000    -1.0640    -0.6280 H     1 <1>   0.0800 
 32 H        2.2890    -2.2020    -1.7860 H     1 <1>   0.0800 
 33 H        3.8570    -3.6930     1.1370 H     1 <1>   0.0800 
 34 H        2.7610    -2.8740     2.2440 H     1 <1>   0.0800 
 35 H        3.7970    -0.2150    -0.7130 H     1 <1>   0.0800 
 36 H        4.4600    -1.7980    -1.0620 H     1 <1>   0.0800 
 37 H        4.9870    -1.6220     1.2640 H     1 <1>   0.0800 
 38 H        3.4950    -0.7650     1.5960 H     1 <1>   0.0800 
@<TRIPOS>BOND
  1   1   2  2   
  2   2   3  am  
  3   2   4  1   
  4   3   5  1   
  5   3   6  1   
  6   4   7  1   
  7   4   8  1   
  8   4  21  1   
  9   5   9  ar  
 10   5  10  ar  
 11   6  11  1   
 12   6  22  1   
 13   6  23  1   
 14   7   9  1   
 15   8  24  1   
 16   8  25  1   
 17   8  26  1   
 18   9  12  ar  
 19  10  13  ar  
 20  10  27  1   
 21  11  14  2   
 22  11  15  am  
 23  12  16  ar  
 24  12  28  1   
 25  13  16  ar  
 26  13  29  1   
 27  15  17  1   
 28  15  18  1   
 29  16  30  1   
 30  17  19  1   
 31  17  31  1   
 32  17  32  1   
 33  18  20  1   
 34  18  33  1   
 35  18  34  1   
 36  19  20  1   
 37  19  35  1   
 38  19  36  1   
 39  20  37  1   
 40  20  38  1   
@<TRIPOS>SUBSTRUCTURE
  1 ****   3 GROUP 4 **** **** 0

# MOE 2024.06 (io_trps.svl 2023.06)
