@<TRIPOS>MOLECULE
NONAME
53 56 1 0 0 
SMALL
USER_CHARGES


@<TRIPOS>ATOM
  1 F       -0.1460     1.8670     2.2110 F     1 <1>  -0.1900 
  2 C        0.3110     2.4690     1.1370 C.ar  1 <1>   0.1900 
  3 C       -0.5850     2.9790     0.1860 C.ar  1 <1>   0.1000 
  4 C        1.6820     2.5720     1.0130 C.ar  1 <1>  -0.1500 
  5 N       -1.9840     2.8770     0.3080 N.pl3 1 <1>  -0.8380 
  6 C       -0.0150     3.6080    -0.9200 C.ar  1 <1>  -0.1500 
  7 C        2.2110     3.2060    -0.0980 C.ar  1 <1>  -0.1500 
  8 C       -2.6080     1.5540     0.6150 C.3   1 <1>   0.2090 
  9 C       -2.9040     3.9120    -0.2520 C.3   1 <1>   0.2090 
 10 C        1.3590     3.7210    -1.0610 C.ar  1 <1>  -0.1500 
 11 C       -3.9350     1.3610    -0.1460 C.3   1 <1>   0.1100 
 12 C       -4.3100     3.7600     0.3530 C.3   1 <1>   0.1100 
 13 N       -4.9520     2.4330     0.0910 N.3   1 <1>  -0.8100 
 14 C       -5.9080     2.0810     1.1740 C.3   1 <1>   0.5130 
 15 C       -6.7000     0.7770     0.9810 C.ar  1 <1>  -0.1430 
 16 C       -6.8750     3.2190     1.4880 C.2   1 <1>   0.0060 
 17 C       -7.0270     0.1700    -0.2300 C.ar  1 <1>   0.1900 
 18 C       -7.1470     0.1450     2.1370 C.ar  1 <1>  -0.1500 
 19 N       -7.0230     3.7190     2.6590 N.2   1 <1>  -0.3380 
 20 N       -7.6760     3.8400     0.6320 N.pl3 1 <1>   0.3140 
 21 F       -6.6630     0.6920    -1.3690 F     1 <1>  -0.1900 
 22 C       -7.7500    -1.0070    -0.3060 C.ar  1 <1>  -0.1500 
 23 C       -7.8720    -1.0340     2.0800 C.ar  1 <1>  -0.1500 
 24 N       -7.9370     4.6690     2.5330 N.2   1 <1>   0.0000 
 25 N       -8.3400     4.7520     1.3190 N.2   1 <1>  -0.4180 
 26 C       -7.8670     3.6420    -0.8360 C.3   1 <1>   0.1760 
 27 C       -8.1750    -1.6140     0.8610 C.ar  1 <1>  -0.1500 
 28 C       -7.7950     4.9770    -1.5940 C.3   1 <1>  -0.2400 
 29 C       -9.2040     2.9400    -1.1100 C.3   1 <1>  -0.2400 
 30 H        2.3230     2.1640     1.7740 H     1 <1>   0.1500 
 31 H       -0.6500     4.0080    -1.6870 H     1 <1>   0.1500 
 32 H        3.2780     3.2970    -0.2130 H     1 <1>   0.1500 
 33 H       -2.7880     1.4860     1.6730 H     1 <1>   0.0800 
 34 H       -1.9260     0.7670     0.3430 H     1 <1>   0.0800 
 35 H       -2.9630     3.8090    -1.3210 H     1 <1>   0.0800 
 36 H       -2.5170     4.8900    -0.0220 H     1 <1>   0.0800 
 37 H        1.7680     4.2120    -1.9270 H     1 <1>   0.1500 
 38 H       -4.3330     0.3910     0.0920 H     1 <1>   0.0800 
 39 H       -3.7050     1.3470    -1.1970 H     1 <1>   0.0800 
 40 H       -4.9410     4.5390    -0.0360 H     1 <1>   0.0800 
 41 H       -4.2140     3.9210     1.4140 H     1 <1>   0.0800 
 42 H       -5.3150     1.9450     2.0640 H     1 <1>   0.0800 
 43 H       -6.9370     0.5750     3.1030 H     1 <1>   0.1500 
 44 H       -7.9760    -1.4380    -1.2650 H     1 <1>   0.1500 
 45 H       -8.2050    -1.5020     2.9920 H     1 <1>   0.1500 
 46 H       -7.0690     3.0260    -1.1970 H     1 <1>   0.0800 
 47 H       -8.7390    -2.5310     0.8220 H     1 <1>   0.1500 
 48 H       -8.5990     5.6280    -1.2980 H     1 <1>   0.0800 
 49 H       -7.8710     4.8030    -2.6520 H     1 <1>   0.0800 
 50 H       -6.8570     5.4650    -1.3990 H     1 <1>   0.0800 
 51 H      -10.0260     3.5580    -0.7920 H     1 <1>   0.0800 
 52 H       -9.2490     2.0020    -0.5850 H     1 <1>   0.0800 
 53 H       -9.3090     2.7430    -2.1610 H     1 <1>   0.0800 
@<TRIPOS>BOND
  1   1   2  1   
  2   2   3  ar  
  3   2   4  ar  
  4   3   5  1   
  5   3   6  ar  
  6   4   7  ar  
  7   4  30  1   
  8   5   8  1   
  9   5   9  1   
 10   6  10  ar  
 11   6  31  1   
 12   7  10  ar  
 13   7  32  1   
 14   8  11  1   
 15   8  33  1   
 16   8  34  1   
 17   9  12  1   
 18   9  35  1   
 19   9  36  1   
 20  10  37  1   
 21  11  13  1   
 22  11  38  1   
 23  11  39  1   
 24  12  13  1   
 25  12  40  1   
 26  12  41  1   
 27  13  14  1   
 28  14  15  1   
 29  14  16  1   
 30  14  42  1   
 31  15  17  ar  
 32  15  18  ar  
 33  16  19  2   
 34  16  20  1   
 35  17  21  1   
 36  17  22  ar  
 37  18  23  ar  
 38  18  43  1   
 39  19  24  1   
 40  20  25  1   
 41  20  26  1   
 42  22  27  ar  
 43  22  44  1   
 44  23  27  ar  
 45  23  45  1   
 46  24  25  2   
 47  26  28  1   
 48  26  29  1   
 49  26  46  1   
 50  27  47  1   
 51  28  48  1   
 52  28  49  1   
 53  28  50  1   
 54  29  51  1   
 55  29  52  1   
 56  29  53  1   
@<TRIPOS>SUBSTRUCTURE
  1 ****  13 GROUP 4 **** **** 0

# MOE 2024.06 (io_trps.svl 2023.06)
