@<TRIPOS>MOLECULE
ka-03954
38 39 1 0 0 
SMALL
USER_CHARGES


@<TRIPOS>ATOM
  1 O       -1.2630     0.3410    -2.5340 O.2   1 <1>  -0.5700 
  2 C       -1.9500     0.8590    -1.6650 C.2   1 <1>   0.6160 
  3 N       -2.8830     0.1210    -0.9510 N.am  1 <1>  -0.4770 
  4 C       -1.7880     2.2320    -1.3640 C.2   1 <1>  -0.1360 
  5 C       -3.6540     0.7190     0.0680 C.ar  1 <1>   0.1170 
  6 C       -3.0760    -1.3230    -1.2890 C.3   1 <1>   0.0600 
  7 C       -2.5080     2.8350    -0.3850 C.2   1 <1>   0.0480 
  8 C       -3.4820     2.0880     0.3610 C.ar  1 <1>   0.0280 
  9 C       -4.5960    -0.0050     0.8100 C.ar  1 <1>  -0.1500 
 10 O       -2.3480     4.1400    -0.0600 O.3   1 <1>  -0.2270 
 11 C       -4.2580     2.6700     1.3700 C.ar  1 <1>  -0.1500 
 12 C       -5.3460     0.5890     1.8010 C.ar  1 <1>  -0.1500 
 13 C       -1.2520     4.8500    -0.3530 C.2   1 <1>   0.7800 
 14 C       -5.1770     1.9350     2.0820 C.ar  1 <1>  -0.1500 
 15 O       -1.3990     5.8190    -1.0700 O.2   1 <1>  -0.5700 
 16 N       -0.0200     4.4760     0.1450 N.am  1 <1>  -0.6600 
 17 C        1.2180     5.0390    -0.4610 C.3   1 <1>   0.1400 
 18 C        0.1680     3.4150     1.1800 C.3   1 <1>   0.1400 
 19 C        1.5290     6.4180     0.1220 C.3   1 <1>  -0.2400 
 20 C        0.8560     3.9700     2.4240 C.3   1 <1>  -0.2400 
 21 H       -1.0630     2.7510    -1.9600 H     1 <1>   0.1500 
 22 H       -2.4450    -1.6300    -2.1040 H     1 <1>   0.0800 
 23 H       -4.0990    -1.4920    -1.5760 H     1 <1>   0.0800 
 24 H       -2.8370    -1.9280    -0.4320 H     1 <1>   0.0800 
 25 H       -4.7550    -1.0490     0.6210 H     1 <1>   0.1500 
 26 H       -4.1400     3.7160     1.5960 H     1 <1>   0.1500 
 27 H       -6.0650     0.0140     2.3590 H     1 <1>   0.1500 
 28 H       -5.7670     2.3990     2.8550 H     1 <1>   0.1500 
 29 H        1.0800     5.1290    -1.5260 H     1 <1>   0.0800 
 30 H        2.0460     4.3720    -0.2920 H     1 <1>   0.0800 
 31 H        0.7490     2.6090     0.7640 H     1 <1>   0.0800 
 32 H       -0.7820     3.0130     1.4840 H     1 <1>   0.0800 
 33 H        0.7250     7.1010    -0.0890 H     1 <1>   0.0800 
 34 H        2.4240     6.8050    -0.3290 H     1 <1>   0.0800 
 35 H        1.6780     6.3670     1.1830 H     1 <1>   0.0800 
 36 H        1.8720     4.2450     2.2090 H     1 <1>   0.0800 
 37 H        0.8710     3.2170     3.1910 H     1 <1>   0.0800 
 38 H        0.3180     4.8240     2.7960 H     1 <1>   0.0800 
@<TRIPOS>BOND
  1   1   2  2   
  2   2   3  am  
  3   2   4  1   
  4   3   5  1   
  5   3   6  1   
  6   4   7  2   
  7   4  21  1   
  8   5   8  ar  
  9   5   9  ar  
 10   6  22  1   
 11   6  23  1   
 12   6  24  1   
 13   7   8  1   
 14   7  10  1   
 15   8  11  ar  
 16   9  12  ar  
 17   9  25  1   
 18  10  13  1   
 19  11  14  ar  
 20  11  26  1   
 21  12  14  ar  
 22  12  27  1   
 23  13  15  2   
 24  13  16  am  
 25  14  28  1   
 26  16  17  1   
 27  16  18  1   
 28  17  19  1   
 29  17  29  1   
 30  17  30  1   
 31  18  20  1   
 32  18  31  1   
 33  18  32  1   
 34  19  33  1   
 35  19  34  1   
 36  19  35  1   
 37  20  36  1   
 38  20  37  1   
 39  20  38  1   
@<TRIPOS>SUBSTRUCTURE
  1 ****   7 GROUP 4 **** **** 0

# MOE 2024.06 (io_trps.svl 2023.06)
