@<TRIPOS>MOLECULE
4-Furan-2-ylmethyl-5-[4-(pyrrolidine-1-sulfonyl)-phenyl]-4H-[1,2,4]triazole-3-th
44 47 1 0 0 
SMALL
USER_CHARGES


@<TRIPOS>ATOM
  1 S       -0.7320     0.8600    -1.0400 S.o2  1 <1>   1.4470 
  2 O       -0.8710     0.1420    -2.2900 O.2   1 <1>  -0.6500 
  3 O       -1.6170     1.9650    -0.7470 O.2   1 <1>  -0.6500 
  4 N       -0.9290    -0.2680     0.2080 N.am  1 <1>  -0.8490 
  5 C        0.9890     1.3880    -0.8090 C.ar  1 <1>  -0.0090 
  6 C       -2.3170    -0.6350     0.4220 C.3   1 <1>   0.1960 
  7 C       -0.2220    -1.5220     0.0130 C.3   1 <1>   0.1960 
  8 C        1.9390     1.2460    -1.8140 C.ar  1 <1>  -0.1500 
  9 C        1.4070     1.9350     0.3970 C.ar  1 <1>  -0.1500 
 10 C       -2.2530    -1.9030     1.2660 C.3   1 <1>  -0.1600 
 11 C       -0.8510    -2.4660     1.0290 C.3   1 <1>  -0.1600 
 12 C        3.2560     1.6160    -1.6140 C.ar  1 <1>  -0.1500 
 13 C        2.7230     2.3070     0.6010 C.ar  1 <1>  -0.1500 
 14 C        3.6830     2.1410    -0.3960 C.ar  1 <1>   0.0410 
 15 C        5.0690     2.4850    -0.1720 C.2   1 <1>   0.6120 
 16 N        5.7650     3.3180    -0.8840 N.2   1 <1>  -0.2600 
 17 N        5.8230     1.9510     0.8510 N.pl3 1 <1>  -0.7640 
 18 N        6.9940     3.3100    -0.2970 N.pl3 1 <1>  -0.3930 
 19 C        7.0140     2.4840     0.7220 C.cat 1 <1>   0.7360 
 20 C        5.5290     0.8130     1.7390 C.3   1 <1>   0.5340 
 21 S        8.3120     2.1600     1.6350 S.3   1 <1>  -0.9360 
 22 C        5.4840    -0.4750     0.9320 C.2   1 <1>  -0.0400 
 23 O        4.3720    -0.8210     0.3070 O.3   1 <1>  -0.2800 
 24 C        6.4490    -1.3970     0.7230 C.2   1 <1>  -0.1500 
 25 C        4.6030    -1.9620    -0.3120 C.2   1 <1>  -0.0100 
 26 C        5.8700    -2.3750    -0.0950 C.2   1 <1>  -0.1500 
 27 H       -2.7900    -0.8480    -0.5240 H     1 <1>   0.0800 
 28 H       -2.8530     0.1570     0.9190 H     1 <1>   0.0800 
 29 H        0.8370    -1.4040     0.1760 H     1 <1>   0.0800 
 30 H       -0.3960    -1.9020    -0.9810 H     1 <1>   0.0800 
 31 H        1.6410     0.8340    -2.7650 H     1 <1>   0.1500 
 32 H        0.6840     2.0650     1.1860 H     1 <1>   0.1500 
 33 H       -3.0220    -2.5930     0.9680 H     1 <1>   0.0800 
 34 H       -2.3870    -1.6560     2.3050 H     1 <1>   0.0800 
 35 H       -0.2830    -2.4430     1.9420 H     1 <1>   0.0800 
 36 H       -0.8760    -3.4740     0.6550 H     1 <1>   0.0800 
 37 H        3.9700     1.4840    -2.4100 H     1 <1>   0.1500 
 38 H        3.0090     2.7330     1.5480 H     1 <1>   0.1500 
 39 H        7.8330     3.8240    -0.5720 H     1 <1>   0.4500 
 40 H        4.5880     0.9630     2.2350 H     1 <1>   0.0800 
 41 H        6.2880     0.7270     2.4970 H     1 <1>   0.0800 
 42 H        7.4630    -1.4010     1.0880 H     1 <1>   0.1500 
 43 H        3.8130    -2.4130    -0.8870 H     1 <1>   0.1500 
 44 H        6.3660    -3.2580    -0.4570 H     1 <1>   0.1500 
@<TRIPOS>BOND
  1   1   2  2   
  2   1   3  2   
  3   1   4  am  
  4   1   5  1   
  5   4   6  1   
  6   4   7  1   
  7   5   8  ar  
  8   5   9  ar  
  9   6  10  1   
 10   6  27  1   
 11   6  28  1   
 12   7  11  1   
 13   7  29  1   
 14   7  30  1   
 15   8  12  ar  
 16   8  31  1   
 17   9  13  ar  
 18   9  32  1   
 19  10  11  1   
 20  10  33  1   
 21  10  34  1   
 22  11  35  1   
 23  11  36  1   
 24  12  14  ar  
 25  12  37  1   
 26  13  14  ar  
 27  13  38  1   
 28  14  15  1   
 29  15  16  2   
 30  15  17  1   
 31  16  18  1   
 32  17  19  ar  
 33  17  20  1   
 34  18  19  ar  
 35  18  39  1   
 36  19  21  1   
 37  20  22  1   
 38  20  40  1   
 39  20  41  1   
 40  22  23  1   
 41  22  24  2   
 42  23  25  1   
 43  24  26  1   
 44  24  42  1   
 45  25  26  2   
 46  25  43  1   
 47  26  44  1   
@<TRIPOS>SUBSTRUCTURE
  1 ****  14 GROUP 4 **** **** 0

# MOE 2024.06 (io_trps.svl 2023.06)
