@<TRIPOS>MOLECULE
NONAME
29 28 1 0 0 
SMALL
USER_CHARGES


@<TRIPOS>ATOM
  1 O        0.8900     2.4200    -1.6270 O.2   1 <1>  -0.5700 
  2 C        0.5020     2.2240    -0.5010 C.2   1 <1>   0.6590 
  3 O        1.1760     1.4970     0.3870 O.3   1 <1>  -0.4300 
  4 C       -0.8340     2.8060     0.0050 C.3   1 <1>   0.2510 
  5 C        2.4090     0.8360     0.2060 C.3   1 <1>   0.2800 
  6 N       -1.3100     3.9920    -0.7520 N.3   1 <1>  -0.9900 
  7 C       -1.9170     1.7150    -0.0170 C.3   1 <1>  -0.0220 
  8 C        3.5090     1.8560    -0.1080 C.3   1 <1>  -0.2400 
  9 C        2.2750    -0.2300    -0.8870 C.3   1 <1>  -0.2400 
 10 C        2.7060     0.1610     1.5440 C.3   1 <1>  -0.2400 
 11 C       -3.1960     2.1480     0.6860 C.2   1 <1>  -0.2880 
 12 C       -3.7450     1.5240     1.7320 C.2   1 <1>  -0.3000 
 13 H       -0.6860     3.1040     1.0280 H     1 <1>   0.0800 
 14 H       -1.3420     3.7240    -1.7440 H     1 <1>   0.3600 
 15 H       -0.5880     4.7190    -0.6950 H     1 <1>   0.3600 
 16 H       -2.1360     1.4500    -1.0370 H     1 <1>   0.0800 
 17 H       -1.5350     0.8350     0.4700 H     1 <1>   0.0800 
 18 H        4.4660     1.3690    -0.1230 H     1 <1>   0.0800 
 19 H        3.5320     2.6260     0.6420 H     1 <1>   0.0800 
 20 H        3.3580     2.3050    -1.0720 H     1 <1>   0.0800 
 21 H        3.1760    -0.8140    -0.9390 H     1 <1>   0.0800 
 22 H        2.1240     0.2190    -1.8510 H     1 <1>   0.0800 
 23 H        1.4550    -0.8900    -0.6700 H     1 <1>   0.0800 
 24 H        2.7770     0.8950     2.3260 H     1 <1>   0.0800 
 25 H        3.6390    -0.3720     1.4940 H     1 <1>   0.0800 
 26 H        1.9290    -0.5410     1.7900 H     1 <1>   0.0800 
 27 H       -3.6280     3.0340     0.2460 H     1 <1>   0.1500 
 28 H       -4.6510     1.8520     2.2130 H     1 <1>   0.1500 
 29 H       -3.3420     0.6400     2.1950 H     1 <1>   0.1500 
@<TRIPOS>BOND
  1   1   2  2   
  2   2   3  1   
  3   2   4  1   
  4   3   5  1   
  5   4   6  1   
  6   4   7  1   
  7   4  13  1   
  8   5   8  1   
  9   5   9  1   
 10   5  10  1   
 11   6  14  1   
 12   6  15  1   
 13   7  11  1   
 14   7  16  1   
 15   7  17  1   
 16   8  18  1   
 17   8  19  1   
 18   8  20  1   
 19   9  21  1   
 20   9  22  1   
 21   9  23  1   
 22  10  24  1   
 23  10  25  1   
 24  10  26  1   
 25  11  12  2   
 26  11  27  1   
 27  12  28  1   
 28  12  29  1   
@<TRIPOS>SUBSTRUCTURE
  1 ****   2 GROUP 4 **** **** 0

# MOE 2024.06 (io_trps.svl 2023.06)
