@<TRIPOS>MOLECULE
Pyrrolidine-1,2-dicarboxylic acid 2-(4-methoxy-benzylamide) 1-p-tolylamide
52 54 1 0 0 
SMALL
USER_CHARGES


@<TRIPOS>ATOM
  1 O        2.8740    -1.7220    -1.8730 O.2   1 <1>  -0.5700 
  2 C        3.1400    -0.5770    -1.5630 C.2   1 <1>   0.6900 
  3 N        4.2470    -0.2990    -0.8070 N.am  1 <1>  -0.6600 
  4 N        2.2990     0.3960    -2.0050 N.am  1 <1>  -0.5470 
  5 C        5.1200    -1.3790    -0.2400 C.3   1 <1>   0.2810 
  6 C        4.9980     0.9730    -0.9180 C.3   1 <1>   0.1400 
  7 C        1.9420     1.6180    -1.4270 C.ar  1 <1>   0.1170 
  8 C        4.4820    -2.1890     0.9150 C.2   1 <1>   0.5690 
  9 C        6.4220    -0.6510     0.1290 C.3   1 <1>  -0.1600 
 10 C        6.4600     0.5730    -0.7800 C.3   1 <1>  -0.1600 
 11 C        1.5640     2.6770    -2.2420 C.ar  1 <1>  -0.1500 
 12 C        1.9380     1.8040    -0.0490 C.ar  1 <1>  -0.1500 
 13 O        5.0260    -2.2680     1.9940 O.2   1 <1>  -0.5700 
 14 N        3.3080    -2.8290     0.6870 N.am  1 <1>  -0.7300 
 15 C        1.2010     3.8950    -1.6960 C.ar  1 <1>  -0.1500 
 16 C        1.5760     3.0210     0.4990 C.ar  1 <1>  -0.1500 
 17 C        2.5740    -3.6650     1.6460 C.3   1 <1>   0.2840 
 18 C        1.2050     4.0740    -0.3220 C.ar  1 <1>  -0.1430 
 19 C        1.9500    -4.8300     0.8970 C.ar  1 <1>  -0.1430 
 20 C        0.8080     5.4120     0.2750 C.3   1 <1>  -0.0970 
 21 C        0.8360    -4.6300     0.0950 C.ar  1 <1>  -0.1500 
 22 C        2.4890    -6.1030     1.0050 C.ar  1 <1>  -0.1500 
 23 C        0.2610    -5.6880    -0.5870 C.ar  1 <1>  -0.1500 
 24 C        1.9160    -7.1630     0.3250 C.ar  1 <1>  -0.1500 
 25 C        0.8010    -6.9660    -0.4740 C.ar  1 <1>   0.0820 
 26 O        0.3020    -8.0570    -1.1070 O.3   1 <1>  -0.3630 
 27 C       -0.8040    -7.9570    -1.9750 C.3   1 <1>   0.0400 
 28 H        1.6740     0.0460    -2.7280 H     1 <1>   0.3700 
 29 H        5.3380    -2.0720    -1.0340 H     1 <1>   0.0800 
 30 H        4.7120     1.6230    -0.1090 H     1 <1>   0.0800 
 31 H        4.8100     1.4630    -1.8590 H     1 <1>   0.0800 
 32 H        7.2800    -1.2870     0.0060 H     1 <1>   0.0800 
 33 H        6.3790    -0.3250     1.1540 H     1 <1>   0.0800 
 34 H        7.0570     1.3700    -0.3710 H     1 <1>   0.0800 
 35 H        6.8460     0.3040    -1.7480 H     1 <1>   0.0800 
 36 H        1.5590     2.5490    -3.3090 H     1 <1>   0.1500 
 37 H        2.2170     0.9920     0.5980 H     1 <1>   0.1500 
 38 H        2.8850    -2.7470    -0.2500 H     1 <1>   0.3700 
 39 H        0.9150     4.7050    -2.3440 H     1 <1>   0.1500 
 40 H        1.5830     3.1450     1.5680 H     1 <1>   0.1500 
 41 H        1.8050    -3.0760     2.1150 H     1 <1>   0.0800 
 42 H        3.2440    -4.0210     2.4110 H     1 <1>   0.0800 
 43 H        0.4320     5.2840     1.2750 H     1 <1>   0.0800 
 44 H        0.0390     5.8740    -0.3180 H     1 <1>   0.0800 
 45 H        1.6620     6.0650     0.3070 H     1 <1>   0.0800 
 46 H        0.4150    -3.6440    -0.0020 H     1 <1>   0.1500 
 47 H        3.3580    -6.2730     1.6170 H     1 <1>   0.1500 
 48 H       -0.5990    -5.4980    -1.1990 H     1 <1>   0.1500 
 49 H        2.3320    -8.1500     0.4070 H     1 <1>   0.1500 
 50 H       -1.0040    -8.9340    -2.3750 H     1 <1>   0.0800 
 51 H       -0.5600    -7.2780    -2.7730 H     1 <1>   0.0800 
 52 H       -1.6560    -7.6090    -1.4170 H     1 <1>   0.0800 
@<TRIPOS>BOND
  1   1   2  2   
  2   2   3  am  
  3   2   4  am  
  4   3   5  1   
  5   3   6  1   
  6   4   7  1   
  7   4  28  1   
  8   5   8  1   
  9   5   9  1   
 10   5  29  1   
 11   6  10  1   
 12   6  30  1   
 13   6  31  1   
 14   7  11  ar  
 15   7  12  ar  
 16   8  13  2   
 17   8  14  am  
 18   9  10  1   
 19   9  32  1   
 20   9  33  1   
 21  10  34  1   
 22  10  35  1   
 23  11  15  ar  
 24  11  36  1   
 25  12  16  ar  
 26  12  37  1   
 27  14  17  1   
 28  14  38  1   
 29  15  18  ar  
 30  15  39  1   
 31  16  18  ar  
 32  16  40  1   
 33  17  19  1   
 34  17  41  1   
 35  17  42  1   
 36  18  20  1   
 37  19  21  ar  
 38  19  22  ar  
 39  20  43  1   
 40  20  44  1   
 41  20  45  1   
 42  21  23  ar  
 43  21  46  1   
 44  22  24  ar  
 45  22  47  1   
 46  23  25  ar  
 47  23  48  1   
 48  24  25  ar  
 49  24  49  1   
 50  25  26  1   
 51  26  27  1   
 52  27  50  1   
 53  27  51  1   
 54  27  52  1   
@<TRIPOS>SUBSTRUCTURE
  1 ****   1 GROUP 4 **** **** 0

# MOE 2024.06 (io_trps.svl 2023.06)
