@<TRIPOS>MOLECULE
Pyrrolidine-1,2-dicarboxylic acid 1-[(3,5-dimethoxy-phenyl)-amide] 2-p-tolylamide
53 55 1 0 0 
SMALL
USER_CHARGES


@<TRIPOS>ATOM
  1 O        4.1350    -1.3910    -1.4890 O.2   1 <1>  -0.5700 
  2 C        4.0330    -0.3080    -0.9470 C.2   1 <1>   0.6900 
  3 N        4.1750    -0.2050     0.4110 N.am  1 <1>  -0.6600 
  4 N        3.7690     0.7640    -1.7400 N.am  1 <1>  -0.5470 
  5 C        4.4400    -1.4000     1.2830 C.3   1 <1>   0.2810 
  6 C        4.6440     1.0360     1.0740 C.3   1 <1>   0.1400 
  7 C        3.0280     1.9200    -1.4750 C.ar  1 <1>   0.1170 
  8 C        3.2320    -2.3480     1.4870 C.2   1 <1>   0.5690 
  9 C        4.9910    -0.7950     2.5840 C.3   1 <1>  -0.1600 
 10 C        5.5690     0.5570     2.1830 C.3   1 <1>  -0.1600 
 11 C        1.9490     1.9110    -0.5980 C.ar  1 <1>  -0.1500 
 12 C        3.3610     3.1090    -2.1090 C.ar  1 <1>  -0.1500 
 13 O        2.9770    -2.7590     2.5970 O.2   1 <1>  -0.5700 
 14 N        2.5140    -2.7180     0.3800 N.am  1 <1>  -0.5470 
 15 C        1.2300     3.0670    -0.3520 C.ar  1 <1>  -0.1500 
 16 C        2.6420     4.2660    -1.8650 C.ar  1 <1>  -0.1500 
 17 C        1.3700    -3.5120     0.1960 C.ar  1 <1>   0.1170 
 18 C        1.5740     4.2520    -0.9820 C.ar  1 <1>  -0.1430 
 19 C        0.5510    -3.9300     1.2390 C.ar  1 <1>  -0.1500 
 20 C        1.0370    -3.8850    -1.0990 C.ar  1 <1>  -0.1500 
 21 C        0.7850     5.5210    -0.7150 C.3   1 <1>  -0.0970 
 22 C       -0.5720    -4.7130     0.9920 C.ar  1 <1>   0.0820 
 23 C       -0.0790    -4.6590    -1.3600 C.ar  1 <1>   0.0820 
 24 O       -1.4070    -5.1600     1.9650 O.3   1 <1>  -0.3620 
 25 C       -0.8850    -5.0750    -0.3070 C.ar  1 <1>  -0.1500 
 26 O       -0.3180    -4.9690    -2.6600 O.3   1 <1>  -0.3630 
 27 C       -1.1340    -4.9090     3.3270 C.3   1 <1>   0.0400 
 28 C       -1.4270    -5.7610    -3.0260 C.3   1 <1>   0.0400 
 29 H        3.9110     0.5460    -2.7240 H     1 <1>   0.3700 
 30 H        5.2240    -1.9740     0.8220 H     1 <1>   0.0800 
 31 H        3.7970     1.5540     1.4920 H     1 <1>   0.0800 
 32 H        5.1600     1.6850     0.3860 H     1 <1>   0.0800 
 33 H        5.7200    -1.4390     3.0420 H     1 <1>   0.0800 
 34 H        4.1850    -0.6380     3.2810 H     1 <1>   0.0800 
 35 H        5.6020     1.2510     3.0040 H     1 <1>   0.0800 
 36 H        6.5620     0.4330     1.7860 H     1 <1>   0.0800 
 37 H        1.6690     0.9960    -0.1080 H     1 <1>   0.1500 
 38 H        4.1890     3.1310    -2.7940 H     1 <1>   0.1500 
 39 H        2.9210    -2.3560    -0.4930 H     1 <1>   0.3700 
 40 H        0.3980     3.0380     0.3300 H     1 <1>   0.1500 
 41 H        2.9160     5.1780    -2.3650 H     1 <1>   0.1500 
 42 H        0.7960    -3.6360     2.2380 H     1 <1>   0.1500 
 43 H        1.6520    -3.5720    -1.9220 H     1 <1>   0.1500 
 44 H        0.3650     5.5020     0.2750 H     1 <1>   0.0800 
 45 H       -0.0140     5.6090    -1.4290 H     1 <1>   0.0800 
 46 H        1.4210     6.3840    -0.7960 H     1 <1>   0.0800 
 47 H       -1.7580    -5.6770    -0.4630 H     1 <1>   0.1500 
 48 H       -1.9000    -5.3820     3.9140 H     1 <1>   0.0800 
 49 H       -1.1460    -3.8470     3.4950 H     1 <1>   0.0800 
 50 H       -0.1730    -5.3260     3.5730 H     1 <1>   0.0800 
 51 H       -1.4150    -5.8790    -4.0950 H     1 <1>   0.0800 
 52 H       -2.3290    -5.2600    -2.7240 H     1 <1>   0.0800 
 53 H       -1.3410    -6.7220    -2.5510 H     1 <1>   0.0800 
@<TRIPOS>BOND
  1   1   2  2   
  2   2   3  am  
  3   2   4  am  
  4   3   5  1   
  5   3   6  1   
  6   4   7  1   
  7   4  29  1   
  8   5   8  1   
  9   5   9  1   
 10   5  30  1   
 11   6  10  1   
 12   6  31  1   
 13   6  32  1   
 14   7  11  ar  
 15   7  12  ar  
 16   8  13  2   
 17   8  14  am  
 18   9  10  1   
 19   9  33  1   
 20   9  34  1   
 21  10  35  1   
 22  10  36  1   
 23  11  15  ar  
 24  11  37  1   
 25  12  16  ar  
 26  12  38  1   
 27  14  17  1   
 28  14  39  1   
 29  15  18  ar  
 30  15  40  1   
 31  16  18  ar  
 32  16  41  1   
 33  17  19  ar  
 34  17  20  ar  
 35  18  21  1   
 36  19  22  ar  
 37  19  42  1   
 38  20  23  ar  
 39  20  43  1   
 40  21  44  1   
 41  21  45  1   
 42  21  46  1   
 43  22  24  1   
 44  22  25  ar  
 45  23  25  ar  
 46  23  26  1   
 47  24  27  1   
 48  25  47  1   
 49  26  28  1   
 50  27  48  1   
 51  27  49  1   
 52  27  50  1   
 53  28  51  1   
 54  28  52  1   
 55  28  53  1   
@<TRIPOS>SUBSTRUCTURE
  1 ****  14 GROUP 4 **** **** 0

# MOE 2024.06 (io_trps.svl 2023.06)
