@<TRIPOS>MOLECULE
3223
47 49 1 0 0 
SMALL
USER_CHARGES


@<TRIPOS>ATOM
  1 O       -2.1770    -2.3080     2.3870 O.2   1 <1>  -0.5700 
  2 C       -2.6190    -2.0160     1.2940 C.2   1 <1>   0.6340 
  3 O       -1.8730    -2.2670     0.2130 O.3   1 <1>  -0.4300 
  4 C       -3.9190    -1.4060     1.0970 C.ar  1 <1>   0.0860 
  5 C       -0.5960    -2.8590     0.3190 C.3   1 <1>   0.1200 
  6 C       -4.7510    -1.1110     2.1800 C.ar  1 <1>  -0.1500 
  7 C       -4.4100    -1.0840    -0.1720 C.ar  1 <1>  -0.1500 
  8 C       -0.0170    -3.0070    -1.0880 C.3   1 <1>  -0.1600 
  9 C       -5.9930    -0.5310     2.0100 C.ar  1 <1>  -0.1500 
 10 C       -5.6510    -0.5040    -0.3450 C.ar  1 <1>  -0.1500 
 11 C        1.3770    -3.6460    -1.0490 C.3   1 <1>  -0.1600 
 12 C       -6.4690    -0.2130     0.7410 C.ar  1 <1>   0.1170 
 13 C        1.9550    -3.7930    -2.4590 C.3   1 <1>  -0.2400 
 14 N       -7.7180     0.3690     0.4990 N.am  1 <1>  -0.5470 
 15 C       -8.6690     0.9160     1.3240 C.2   1 <1>   0.5690 
 16 O       -8.5490     0.9950     2.5230 O.2   1 <1>  -0.5700 
 17 C       -9.9450     1.4650     0.6890 C.3   1 <1>   0.2610 
 18 O       -9.9140     1.2900    -0.7290 O.3   1 <1>  -0.3630 
 19 C      -10.1280     2.9510     1.0320 C.3   1 <1>   0.1200 
 20 C      -10.8010     2.0120    -1.4590 C.ar  1 <1>   0.0830 
 21 O      -11.2700     3.4770     0.3820 O.3   1 <1>  -0.3630 
 22 C      -11.4850     3.0940    -0.9020 C.ar  1 <1>   0.0830 
 23 C      -11.0270     1.6560    -2.7780 C.ar  1 <1>  -0.1500 
 24 C      -12.4000     3.8000    -1.6640 C.ar  1 <1>  -0.1500 
 25 C      -11.9400     2.3700    -3.5390 C.ar  1 <1>  -0.1500 
 26 C      -12.6260     3.4380    -2.9820 C.ar  1 <1>  -0.1500 
 27 H       -0.7050    -3.8180     0.7960 H     1 <1>   0.0800 
 28 H        0.0240    -2.2210     0.9280 H     1 <1>   0.0800 
 29 H       -4.4120    -1.3440     3.1760 H     1 <1>   0.1500 
 30 H       -3.8050    -1.2930    -1.0380 H     1 <1>   0.1500 
 31 H        0.0490    -2.0340    -1.5440 H     1 <1>   0.0800 
 32 H       -0.6760    -3.6220    -1.6760 H     1 <1>   0.0800 
 33 H       -6.5920    -0.3300     2.8790 H     1 <1>   0.1500 
 34 H       -5.9890    -0.2720    -1.3390 H     1 <1>   0.1500 
 35 H        1.3170    -4.6180    -0.5880 H     1 <1>   0.0800 
 36 H        2.0390    -3.0360    -0.4570 H     1 <1>   0.0800 
 37 H        1.3210    -4.4180    -3.0630 H     1 <1>   0.0800 
 38 H        2.9310    -4.2430    -2.4110 H     1 <1>   0.0800 
 39 H        2.0450    -2.8310    -2.9310 H     1 <1>   0.0800 
 40 H       -7.9890     0.4150    -0.4860 H     1 <1>   0.3700 
 41 H      -10.7830     0.9080     1.0680 H     1 <1>   0.0800 
 42 H       -9.2710     3.5180     0.7140 H     1 <1>   0.0800 
 43 H      -10.2600     3.0820     2.0910 H     1 <1>   0.0800 
 44 H      -10.4960     0.8250    -3.2050 H     1 <1>   0.1500 
 45 H      -12.9260     4.6280    -1.2250 H     1 <1>   0.1500 
 46 H      -12.1180     2.0930    -4.5640 H     1 <1>   0.1500 
 47 H      -13.3370     3.9880    -3.5750 H     1 <1>   0.1500 
@<TRIPOS>BOND
  1   1   2  2   
  2   2   3  1   
  3   2   4  1   
  4   3   5  1   
  5   4   6  ar  
  6   4   7  ar  
  7   5   8  1   
  8   5  27  1   
  9   5  28  1   
 10   6   9  ar  
 11   6  29  1   
 12   7  10  ar  
 13   7  30  1   
 14   8  11  1   
 15   8  31  1   
 16   8  32  1   
 17   9  12  ar  
 18   9  33  1   
 19  10  12  ar  
 20  10  34  1   
 21  11  13  1   
 22  11  35  1   
 23  11  36  1   
 24  12  14  1   
 25  13  37  1   
 26  13  38  1   
 27  13  39  1   
 28  14  15  am  
 29  14  40  1   
 30  15  16  2   
 31  15  17  1   
 32  17  18  1   
 33  17  19  1   
 34  17  41  1   
 35  18  20  1   
 36  19  21  1   
 37  19  42  1   
 38  19  43  1   
 39  20  22  ar  
 40  20  23  ar  
 41  21  22  1   
 42  22  24  ar  
 43  23  25  ar  
 44  23  44  1   
 45  24  26  ar  
 46  24  45  1   
 47  25  26  ar  
 48  25  46  1   
 49  26  47  1   
@<TRIPOS>SUBSTRUCTURE
  1 ****  12 GROUP 4 **** **** 0

# MOE 2024.06 (io_trps.svl 2023.06)
