@<TRIPOS>MOLECULE
NONAME
43 44 1 0 0 
SMALL
USER_CHARGES


@<TRIPOS>ATOM
  1 F        0.7230     0.5090    -0.3970 F     1 <1>  -0.3400 
  2 C        1.8850    -0.1340    -0.3670 C.3   1 <1>   1.1640 
  3 F        2.5230     0.2030    -1.4800 F     1 <1>  -0.3400 
  4 F        2.5780     0.4130     0.6300 F     1 <1>  -0.3400 
  5 C        1.7490    -1.6520    -0.2100 C.ar  1 <1>  -0.1440 
  6 C        2.8770    -2.4470     0.0300 C.ar  1 <1>   0.1170 
  7 C        0.4990    -2.2570    -0.3180 C.ar  1 <1>  -0.1500 
  8 N        4.1610    -1.8820     0.1680 N.am  1 <1>  -0.5470 
  9 C        2.7110    -3.8230     0.1540 C.ar  1 <1>  -0.1500 
 10 C        0.3560    -3.6260    -0.1910 C.ar  1 <1>  -0.1500 
 11 C        5.3770    -2.3620    -0.2500 C.2   1 <1>   0.5690 
 12 C        1.4660    -4.4110     0.0450 C.ar  1 <1>  -0.1500 
 13 O        5.4950    -3.4090    -0.8420 O.2   1 <1>  -0.5700 
 14 C        6.6240    -1.5070     0.0570 C.3   1 <1>   0.1710 
 15 N        7.9360    -2.2210     0.0590 N.3   1 <1>  -0.8100 
 16 C        9.0970    -1.3120     0.1810 C.3   1 <1>   0.1100 
 17 C        8.0110    -3.3150     1.0590 C.3   1 <1>   0.1100 
 18 C       10.4450    -2.0770     0.1140 C.3   1 <1>   0.3430 
 19 C        9.3320    -4.1160     0.9460 C.3   1 <1>   0.3430 
 20 N       10.2280    -3.5440    -0.1170 N.4   1 <1>  -0.9590 
 21 C       11.4860    -4.2940    -0.3440 C.3   1 <1>   0.3430 
 22 C       11.1720    -5.6570    -0.9490 C.3   1 <1>  -0.2400 
 23 H       -0.3860    -1.6710    -0.5070 H     1 <1>   0.1500 
 24 H        4.1790    -0.9590     0.6060 H     1 <1>   0.3700 
 25 H        3.5640    -4.4510     0.3390 H     1 <1>   0.1500 
 26 H       -0.6170    -4.0810    -0.2780 H     1 <1>   0.1500 
 27 H        1.3630    -5.4780     0.1420 H     1 <1>   0.1500 
 28 H        6.4840    -1.0330     1.0130 H     1 <1>   0.0800 
 29 H        6.6600    -0.7340    -0.6900 H     1 <1>   0.0800 
 30 H        9.0430    -0.7680     1.1090 H     1 <1>   0.0800 
 31 H        9.0690    -0.5920    -0.6200 H     1 <1>   0.0800 
 32 H        7.1930    -4.0010     0.9160 H     1 <1>   0.0800 
 33 H        7.9220    -2.9110     2.0540 H     1 <1>   0.0800 
 34 H       10.9830    -1.9260     1.0350 H     1 <1>   0.0800 
 35 H       11.0380    -1.6640    -0.6850 H     1 <1>   0.0800 
 36 H        9.0890    -5.1380     0.7100 H     1 <1>   0.0800 
 37 H        9.8340    -4.1100     1.8990 H     1 <1>   0.0800 
 38 H        9.6400    -3.5770    -0.9660 H     1 <1>   0.4500 
 39 H       12.0220    -4.4140     0.5840 H     1 <1>   0.0800 
 40 H       12.1140    -3.7460    -1.0290 H     1 <1>   0.0800 
 41 H       10.6360    -6.2810    -0.2580 H     1 <1>   0.0800 
 42 H       12.0940    -6.1550    -1.1910 H     1 <1>   0.0800 
 43 H       10.6050    -5.5500    -1.8570 H     1 <1>   0.0800 
@<TRIPOS>BOND
  1   1   2  1   
  2   2   3  1   
  3   2   4  1   
  4   2   5  1   
  5   5   6  ar  
  6   5   7  ar  
  7   6   8  1   
  8   6   9  ar  
  9   7  10  ar  
 10   7  23  1   
 11   8  11  am  
 12   8  24  1   
 13   9  12  ar  
 14   9  25  1   
 15  10  12  ar  
 16  10  26  1   
 17  11  13  2   
 18  11  14  1   
 19  12  27  1   
 20  14  15  1   
 21  14  28  1   
 22  14  29  1   
 23  15  16  1   
 24  15  17  1   
 25  16  18  1   
 26  16  30  1   
 27  16  31  1   
 28  17  19  1   
 29  17  32  1   
 30  17  33  1   
 31  18  20  1   
 32  18  34  1   
 33  18  35  1   
 34  19  20  1   
 35  19  36  1   
 36  19  37  1   
 37  20  21  1   
 38  20  38  1   
 39  21  22  1   
 40  21  39  1   
 41  21  40  1   
 42  22  41  1   
 43  22  42  1   
 44  22  43  1   
@<TRIPOS>SUBSTRUCTURE
  1 ****  11 GROUP 4 **** **** 0

# MOE 2024.06 (io_trps.svl 2023.06)
