@<TRIPOS>MOLECULE
Pyrrolidine-1,2-dicarboxylic acid 1-[(3-chloro-phenyl)-amide] 2-(phenethyl-amide)
48 50 1 0 0 
SMALL
USER_CHARGES


@<TRIPOS>ATOM
  1 CL      -0.7520    -6.0230     4.5450 Cl    1 <1>  -0.1770 
  2 C       -0.8750    -5.2860     2.9680 C.ar  1 <1>   0.1770 
  3 C       -0.7810    -6.0790     1.8430 C.ar  1 <1>  -0.1500 
  4 C       -1.0650    -3.9200     2.8750 C.ar  1 <1>  -0.1500 
  5 C       -0.8710    -5.5010     0.5810 C.ar  1 <1>   0.1170 
  6 C       -1.1640    -3.3380     1.6220 C.ar  1 <1>  -0.1500 
  7 N       -0.7850    -6.2650    -0.5870 N.am  1 <1>  -0.5470 
  8 C       -1.0680    -4.1270     0.4870 C.ar  1 <1>  -0.1500 
  9 C       -0.1750    -7.4600    -0.8110 C.2   1 <1>   0.6900 
 10 O       -0.7100    -8.2160    -1.5970 O.2   1 <1>  -0.5700 
 11 N        0.9890    -7.8140    -0.1850 N.am  1 <1>  -0.6600 
 12 C        1.6100    -9.1700    -0.3590 C.3   1 <1>   0.2810 
 13 C        2.0070    -6.8250     0.2420 C.3   1 <1>   0.1400 
 14 C        0.8510   -10.3330     0.3280 C.2   1 <1>   0.5690 
 15 C        3.0540    -8.9820     0.1320 C.3   1 <1>  -0.1600 
 16 C        3.3430    -7.4960    -0.0470 C.3   1 <1>  -0.1600 
 17 O        1.4490   -11.1400     1.0040 O.2   1 <1>  -0.5700 
 18 N       -0.4900   -10.4500     0.1270 N.am  1 <1>  -0.7300 
 19 C       -1.3750   -11.4800     0.7130 C.3   1 <1>   0.1400 
 20 C       -1.7320   -12.5200    -0.3470 C.3   1 <1>  -0.0170 
 21 C       -2.6740   -13.5620     0.2340 C.ar  1 <1>  -0.1430 
 22 C       -2.1680   -14.6210     0.9710 C.ar  1 <1>  -0.1500 
 23 C       -4.0430   -13.4610     0.0390 C.ar  1 <1>  -0.1500 
 24 C       -3.0210   -15.5710     1.5070 C.ar  1 <1>  -0.1500 
 25 C       -4.8970   -14.4100     0.5740 C.ar  1 <1>  -0.1500 
 26 C       -4.3860   -15.4660     1.3090 C.ar  1 <1>  -0.1500 
 27 H       -0.6420    -7.1390     1.9510 H     1 <1>   0.1500 
 28 H       -1.1360    -3.3260     3.7690 H     1 <1>   0.1500 
 29 H       -1.3140    -2.2750     1.5320 H     1 <1>   0.1500 
 30 H       -1.4830    -6.0680    -1.3020 H     1 <1>   0.3700 
 31 H       -1.1420    -3.6700    -0.4840 H     1 <1>   0.1500 
 32 H        1.6380    -9.3840    -1.4120 H     1 <1>   0.0800 
 33 H        1.9040    -6.6450     1.2980 H     1 <1>   0.0800 
 34 H        1.9080    -5.8970    -0.2960 H     1 <1>   0.0800 
 35 H        3.7400    -9.6070    -0.4100 H     1 <1>   0.0800 
 36 H        3.1150    -9.2290     1.1780 H     1 <1>   0.0800 
 37 H        4.1170    -7.1460     0.6120 H     1 <1>   0.0800 
 38 H        3.6270    -7.2940    -1.0660 H     1 <1>   0.0800 
 39 H       -0.9300    -9.7650    -0.5070 H     1 <1>   0.3700 
 40 H       -2.2690   -11.0110     1.0860 H     1 <1>   0.0800 
 41 H       -0.8780   -11.9610     1.5390 H     1 <1>   0.0800 
 42 H       -0.8330   -13.0010    -0.6900 H     1 <1>   0.0800 
 43 H       -2.1980   -12.0350    -1.1860 H     1 <1>   0.0800 
 44 H       -1.1070   -14.7090     1.1310 H     1 <1>   0.1500 
 45 H       -4.4510   -12.6450    -0.5300 H     1 <1>   0.1500 
 46 H       -2.6210   -16.3900     2.0780 H     1 <1>   0.1500 
 47 H       -5.9580   -14.3270     0.4190 H     1 <1>   0.1500 
 48 H       -5.0490   -16.2040     1.7260 H     1 <1>   0.1500 
@<TRIPOS>BOND
  1   1   2  1   
  2   2   3  ar  
  3   2   4  ar  
  4   3   5  ar  
  5   3  27  1   
  6   4   6  ar  
  7   4  28  1   
  8   5   7  1   
  9   5   8  ar  
 10   6   8  ar  
 11   6  29  1   
 12   7   9  am  
 13   7  30  1   
 14   8  31  1   
 15   9  10  2   
 16   9  11  am  
 17  11  12  1   
 18  11  13  1   
 19  12  14  1   
 20  12  15  1   
 21  12  32  1   
 22  13  16  1   
 23  13  33  1   
 24  13  34  1   
 25  14  17  2   
 26  14  18  am  
 27  15  16  1   
 28  15  35  1   
 29  15  36  1   
 30  16  37  1   
 31  16  38  1   
 32  18  19  1   
 33  18  39  1   
 34  19  20  1   
 35  19  40  1   
 36  19  41  1   
 37  20  21  1   
 38  20  42  1   
 39  20  43  1   
 40  21  22  ar  
 41  21  23  ar  
 42  22  24  ar  
 43  22  44  1   
 44  23  25  ar  
 45  23  45  1   
 46  24  26  ar  
 47  24  46  1   
 48  25  26  ar  
 49  25  47  1   
 50  26  48  1   
@<TRIPOS>SUBSTRUCTURE
  1 ****  18 GROUP 4 **** **** 0

# MOE 2024.06 (io_trps.svl 2023.06)
