@<TRIPOS>MOLECULE
NONAME
55 57 1 0 0 
SMALL
USER_CHARGES


@<TRIPOS>ATOM
  1 O        0.2720    -0.0760     1.0100 O.2   1 <1>  -0.5700 
  2 C        0.4240    -1.2320     0.6650 C.2   1 <1>   0.5440 
  3 N       -0.6940    -1.9490     0.3350 N.am  1 <1>  -0.7300 
  4 C        1.7490    -1.8230     0.5760 C.ar  1 <1>   0.0860 
  5 C       -2.0580    -1.4140     0.4290 C.3   1 <1>   0.2200 
  6 C        1.9590    -3.1960     0.7280 C.ar  1 <1>  -0.1500 
  7 C        2.8700    -1.0300     0.3300 C.ar  1 <1>  -0.1500 
  8 C       -3.0450    -2.5450     0.7030 C.3   1 <1>  -0.1600 
  9 C       -2.4050    -0.6920    -0.8710 C.3   1 <1>  -0.1600 
 10 C        3.2220    -3.7500     0.6240 C.ar  1 <1>  -0.1500 
 11 C        4.1360    -1.5760     0.2250 C.ar  1 <1>  -0.1500 
 12 C       -4.4700    -1.9990     0.7450 C.3   1 <1>   0.3430 
 13 C       -3.8310    -0.1570    -0.8140 C.3   1 <1>   0.3430 
 14 C        4.3140    -2.9390     0.3700 C.ar  1 <1>  -0.1500 
 15 N       -4.7750    -1.2760    -0.5280 N.4   1 <1>  -0.9590 
 16 C       -6.2080    -0.8580    -0.5980 C.3   1 <1>   0.5230 
 17 C       -7.0820    -2.0790    -0.8300 C.2   1 <1>   0.0060 
 18 N       -6.6180    -3.1730    -1.3070 N.2   1 <1>  -0.3380 
 19 N       -8.3900    -2.1980    -0.5910 N.pl3 1 <1>   0.3140 
 20 N       -7.6420    -4.0050    -1.3620 N.2   1 <1>   0.0000 
 21 N       -8.7050    -3.4360    -0.9320 N.2   1 <1>  -0.4180 
 22 C       -9.4070    -1.2180    -0.0280 C.3   1 <1>   0.2560 
 23 C      -10.8400    -1.8260    -0.1170 C.3   1 <1>  -0.1600 
 24 C       -9.3620     0.1000    -0.8310 C.3   1 <1>  -0.2400 
 25 C       -9.0610    -0.9330     1.4470 C.3   1 <1>  -0.2400 
 26 C      -12.0130    -0.9680     0.3970 C.3   1 <1>  -0.2400 
 27 H       -0.5780    -2.8660    -0.0990 H     1 <1>   0.3700 
 28 H       -2.0970    -0.7090     1.2460 H     1 <1>   0.0800 
 29 H        1.1280    -3.8430     0.9410 H     1 <1>   0.1500 
 30 H        2.7410     0.0340     0.2200 H     1 <1>   0.1500 
 31 H       -2.8170    -2.9950     1.6530 H     1 <1>   0.0800 
 32 H       -2.9760    -3.3040    -0.0570 H     1 <1>   0.0800 
 33 H       -2.2980    -1.3530    -1.7120 H     1 <1>   0.0800 
 34 H       -1.7300     0.1350    -1.0050 H     1 <1>   0.0800 
 35 H        3.3620    -4.8110     0.7440 H     1 <1>   0.1500 
 36 H        4.9830    -0.9400     0.0330 H     1 <1>   0.1500 
 37 H       -4.5710    -1.3270     1.5830 H     1 <1>   0.0800 
 38 H       -5.1600    -2.8180     0.8800 H     1 <1>   0.0800 
 39 H       -4.0750     0.3060    -1.7570 H     1 <1>   0.0800 
 40 H       -3.9000     0.5910    -0.0390 H     1 <1>   0.0800 
 41 H        5.2990    -3.3670     0.2880 H     1 <1>   0.1500 
 42 H       -4.6860    -1.9830    -1.2780 H     1 <1>   0.4500 
 43 H       -6.3470    -0.1800    -1.4240 H     1 <1>   0.0800 
 44 H       -6.4880    -0.3540     0.3100 H     1 <1>   0.0800 
 45 H      -10.8600    -2.7500     0.4380 H     1 <1>   0.0800 
 46 H      -11.0480    -2.0710    -1.1460 H     1 <1>   0.0800 
 47 H       -9.6020    -0.0860    -1.8640 H     1 <1>   0.0800 
 48 H       -8.4100     0.5860    -0.7700 H     1 <1>   0.0800 
 49 H      -10.0830     0.7990    -0.4490 H     1 <1>   0.0800 
 50 H       -8.0700    -0.5420     1.5630 H     1 <1>   0.0800 
 51 H       -9.7380    -0.2070     1.8610 H     1 <1>   0.0800 
 52 H       -9.1500    -1.8350     2.0290 H     1 <1>   0.0800 
 53 H      -11.8980    -0.7190     1.4360 H     1 <1>   0.0800 
 54 H      -12.9280    -1.5260     0.2980 H     1 <1>   0.0800 
 55 H      -12.1250    -0.0640    -0.1740 H     1 <1>   0.0800 
@<TRIPOS>BOND
  1   1   2  2   
  2   2   3  am  
  3   2   4  1   
  4   3   5  1   
  5   3  27  1   
  6   4   6  ar  
  7   4   7  ar  
  8   5   8  1   
  9   5   9  1   
 10   5  28  1   
 11   6  10  ar  
 12   6  29  1   
 13   7  11  ar  
 14   7  30  1   
 15   8  12  1   
 16   8  31  1   
 17   8  32  1   
 18   9  13  1   
 19   9  33  1   
 20   9  34  1   
 21  10  14  ar  
 22  10  35  1   
 23  11  14  ar  
 24  11  36  1   
 25  12  15  1   
 26  12  37  1   
 27  12  38  1   
 28  13  15  1   
 29  13  39  1   
 30  13  40  1   
 31  14  41  1   
 32  15  16  1   
 33  15  42  1   
 34  16  17  1   
 35  16  43  1   
 36  16  44  1   
 37  17  18  2   
 38  17  19  1   
 39  18  20  1   
 40  19  21  1   
 41  19  22  1   
 42  20  21  2   
 43  22  23  1   
 44  22  24  1   
 45  22  25  1   
 46  23  26  1   
 47  23  45  1   
 48  23  46  1   
 49  24  47  1   
 50  24  48  1   
 51  24  49  1   
 52  25  50  1   
 53  25  51  1   
 54  25  52  1   
 55  26  53  1   
 56  26  54  1   
 57  26  55  1   
@<TRIPOS>SUBSTRUCTURE
  1 ****  12 GROUP 4 **** **** 0

# MOE 2024.06 (io_trps.svl 2023.06)
