@<TRIPOS>MOLECULE
1-(2-Azepan-1-yl-2-oxo-ethyl)-3-(4-fluoro-benzyl)-1H-thieno[3,2-d]pyrimidine-2,4
51 54 1 0 0 
SMALL
USER_CHARGES


@<TRIPOS>ATOM
  1 S        1.7060    -0.3190     3.9060 S.3   1 <1>  -0.0800 
  2 C        2.6890    -0.8690     2.5420 C.2   1 <1>  -0.0450 
  3 C        0.4640    -1.5040     3.5380 C.2   1 <1>  -0.1100 
  4 C        3.9610    -0.3610     2.1770 C.2   1 <1>   0.7150 
  5 C        2.0600    -1.8680     1.8800 C.2   1 <1>   0.0630 
  6 C        0.8010    -2.2340     2.4570 C.2   1 <1>  -0.1500 
  7 O        4.5240     0.5260     2.8000 O.2   1 <1>  -0.5700 
  8 N        4.5610    -0.9280     1.0690 N.am  1 <1>  -0.4200 
  9 N        2.6890    -2.4130     0.7570 N.am  1 <1>  -0.4230 
 10 C        3.9430    -1.9540     0.3710 C.2   1 <1>   0.6900 
 11 C        5.8480    -0.3780     0.5750 C.3   1 <1>   0.2840 
 12 C        2.0480    -3.5360    -0.0070 C.3   1 <1>   0.2010 
 13 O        4.5000    -2.4510    -0.5920 O.2   1 <1>  -0.5700 
 14 C        5.5800     0.7370    -0.4270 C.ar  1 <1>  -0.1430 
 15 C        2.3460    -4.9160     0.5890 C.2   1 <1>   0.5690 
 16 C        5.4870     0.4470    -1.7840 C.ar  1 <1>  -0.1500 
 17 C        5.4240     2.0460     0.0130 C.ar  1 <1>  -0.1500 
 18 O        2.0920    -5.0790     1.7620 O.2   1 <1>  -0.5700 
 19 N        2.8550    -5.9460    -0.1700 N.am  1 <1>  -0.6600 
 20 C        5.2440     1.4570    -2.7000 C.ar  1 <1>  -0.1500 
 21 C        5.1800     3.0650    -0.8930 C.ar  1 <1>  -0.1500 
 22 C        3.3460    -7.1850     0.4880 C.3   1 <1>   0.1400 
 23 C        2.9840    -5.9710    -1.6530 C.3   1 <1>   0.1400 
 24 C        5.0950     2.7490    -2.2350 C.ar  1 <1>   0.1900 
 25 C        4.7960    -7.0160     0.9570 C.3   1 <1>  -0.1600 
 26 C        4.4140    -5.6590    -2.1120 C.3   1 <1>  -0.1600 
 27 F        4.8650     3.7050    -3.0940 F     1 <1>  -0.1900 
 28 C        5.7290    -6.2370     0.0110 C.3   1 <1>  -0.1600 
 29 C        5.5200    -6.5300    -1.4840 C.3   1 <1>  -0.1600 
 30 H       -0.3960    -1.5360     4.1840 H     1 <1>   0.1500 
 31 H        0.2060    -3.0330     2.0540 H     1 <1>   0.1500 
 32 H        6.4290    -1.1570     0.1120 H     1 <1>   0.0800 
 33 H        6.4290     0.0010     1.3980 H     1 <1>   0.0800 
 34 H        2.3760    -3.4910    -1.0260 H     1 <1>   0.0800 
 35 H        0.9840    -3.3950    -0.0150 H     1 <1>   0.0800 
 36 H        5.6010    -0.5670    -2.1300 H     1 <1>   0.1500 
 37 H        5.4890     2.2780     1.0640 H     1 <1>   0.1500 
 38 H        5.1690     1.2490    -3.7520 H     1 <1>   0.1500 
 39 H        5.0560     4.0820    -0.5680 H     1 <1>   0.1500 
 40 H        3.2850    -8.0090    -0.2010 H     1 <1>   0.0800 
 41 H        2.7210    -7.4260     1.3320 H     1 <1>   0.0800 
 42 H        2.3000    -5.2740    -2.1020 H     1 <1>   0.0800 
 43 H        2.7070    -6.9480    -2.0110 H     1 <1>   0.0800 
 44 H        5.2020    -7.9980     1.1210 H     1 <1>   0.0800 
 45 H        4.7860    -6.5200     1.9120 H     1 <1>   0.0800 
 46 H        4.6260    -4.6230    -1.9220 H     1 <1>   0.0800 
 47 H        4.4500    -5.7890    -3.1790 H     1 <1>   0.0800 
 48 H        6.7450    -6.4750     0.2760 H     1 <1>   0.0800 
 49 H        5.6030    -5.1800     0.1830 H     1 <1>   0.0800 
 50 H        6.4390    -6.3020    -1.9950 H     1 <1>   0.0800 
 51 H        5.3190    -7.5760    -1.6410 H     1 <1>   0.0800 
@<TRIPOS>BOND
  1   1   2  1   
  2   1   3  1   
  3   2   4  1   
  4   2   5  2   
  5   3   6  2   
  6   3  30  1   
  7   4   7  2   
  8   4   8  am  
  9   5   6  1   
 10   5   9  1   
 11   6  31  1   
 12   8  10  am  
 13   8  11  1   
 14   9  10  am  
 15   9  12  1   
 16  10  13  2   
 17  11  14  1   
 18  11  32  1   
 19  11  33  1   
 20  12  15  1   
 21  12  34  1   
 22  12  35  1   
 23  14  16  ar  
 24  14  17  ar  
 25  15  18  2   
 26  15  19  am  
 27  16  20  ar  
 28  16  36  1   
 29  17  21  ar  
 30  17  37  1   
 31  19  22  1   
 32  19  23  1   
 33  20  24  ar  
 34  20  38  1   
 35  21  24  ar  
 36  21  39  1   
 37  22  25  1   
 38  22  40  1   
 39  22  41  1   
 40  23  26  1   
 41  23  42  1   
 42  23  43  1   
 43  24  27  1   
 44  25  28  1   
 45  25  44  1   
 46  25  45  1   
 47  26  29  1   
 48  26  46  1   
 49  26  47  1   
 50  28  29  1   
 51  28  48  1   
 52  28  49  1   
 53  29  50  1   
 54  29  51  1   
@<TRIPOS>SUBSTRUCTURE
  1 ****  10 GROUP 4 **** **** 0

# MOE 2024.06 (io_trps.svl 2023.06)
