@<TRIPOS>MOLECULE
NONAME
51 53 1 0 0 
SMALL
USER_CHARGES


@<TRIPOS>ATOM
  1 O       -1.0680    -0.6290    -0.1480 O.2   1 <1>  -0.5700 
  2 C       -0.6580    -1.2460     0.8170 C.2   1 <1>   0.6900 
  3 N       -1.5310    -2.0310     1.5090 N.am  1 <1>  -0.6600 
  4 N        0.6390    -1.2310     1.2210 N.am  1 <1>  -0.5470 
  5 C       -2.9120    -1.5070     1.7100 C.3   1 <1>   0.1400 
  6 C       -1.5130    -3.4830     1.1890 C.3   1 <1>   0.1400 
  7 C        1.7840    -0.6440     0.6600 C.ar  1 <1>   0.1170 
  8 C       -3.7860    -1.7910     0.4720 C.3   1 <1>   0.3430 
  9 C       -2.3820    -3.7620    -0.0560 C.3   1 <1>   0.3430 
 10 C        1.8760    -0.2850    -0.6820 C.ar  1 <1>  -0.1500 
 11 C        2.8880    -0.4260     1.4770 C.ar  1 <1>  -0.1500 
 12 N       -3.8000    -3.2560     0.0880 N.4   1 <1>  -0.9590 
 13 C        3.0340     0.2760    -1.1870 C.ar  1 <1>  -0.1500 
 14 C        4.0510     0.1350     0.9770 C.ar  1 <1>  -0.1500 
 15 C       -4.6150    -3.4970    -1.1420 C.3   1 <1>   0.4230 
 16 C        4.1290     0.4900    -0.3660 C.ar  1 <1>   0.0830 
 17 C       -6.0830    -3.1430    -0.8890 C.3   1 <1>  -0.1600 
 18 C       -4.7290    -4.9970    -1.4290 C.3   1 <1>  -0.1600 
 19 O        5.2270     1.0450    -0.9440 O.3   1 <1>  -0.3630 
 20 C       -6.6690    -4.3250    -0.1070 C.3   1 <1>  -0.1600 
 21 C       -5.7870    -5.5290    -0.4550 C.3   1 <1>  -0.1600 
 22 C        6.3790     1.3280    -0.1860 C.3   1 <1>   0.1200 
 23 C        7.4140     1.9540    -1.1160 C.3   1 <1>  -0.2400 
 24 H        0.7660    -1.6280     2.1470 H     1 <1>   0.3700 
 25 H       -3.3470    -1.9550     2.5860 H     1 <1>   0.0800 
 26 H       -2.8680    -0.4420     1.8730 H     1 <1>   0.0800 
 27 H       -1.8780    -4.0450     2.0320 H     1 <1>   0.0800 
 28 H       -0.5020    -3.7990     0.9930 H     1 <1>   0.0800 
 29 H       -3.4020    -1.2080    -0.3500 H     1 <1>   0.0800 
 30 H       -4.7850    -1.4480     0.6790 H     1 <1>   0.0800 
 31 H       -1.9170    -3.2830    -0.9030 H     1 <1>   0.0800 
 32 H       -2.3810    -4.8230    -0.2350 H     1 <1>   0.0800 
 33 H        1.0450    -0.4410    -1.3440 H     1 <1>   0.1500 
 34 H        2.8420    -0.6930     2.5160 H     1 <1>   0.1500 
 35 H       -4.2610    -3.7840     0.8380 H     1 <1>   0.4500 
 36 H        3.0980     0.5530    -2.2240 H     1 <1>   0.1500 
 37 H        4.8790     0.2870     1.6430 H     1 <1>   0.1500 
 38 H       -4.2090    -2.9560    -1.9830 H     1 <1>   0.0800 
 39 H       -6.2530    -2.2010    -0.4040 H     1 <1>   0.0800 
 40 H       -6.5780    -3.0980    -1.8450 H     1 <1>   0.0800 
 41 H       -3.8100    -5.5480    -1.3840 H     1 <1>   0.0800 
 42 H       -5.1130    -5.1100    -2.4300 H     1 <1>   0.0800 
 43 H       -7.6960    -4.4980    -0.3870 H     1 <1>   0.0800 
 44 H       -6.6340    -4.1340     0.9530 H     1 <1>   0.0800 
 45 H       -5.3220    -5.9170     0.4360 H     1 <1>   0.0800 
 46 H       -6.3640    -6.3180    -0.9090 H     1 <1>   0.0800 
 47 H        6.7490     0.4070     0.2300 H     1 <1>   0.0800 
 48 H        6.1100     2.0140     0.5990 H     1 <1>   0.0800 
 49 H        7.6620     1.2680    -1.9060 H     1 <1>   0.0800 
 50 H        8.3080     2.1830    -0.5650 H     1 <1>   0.0800 
 51 H        7.0270     2.8640    -1.5390 H     1 <1>   0.0800 
@<TRIPOS>BOND
  1   1   2  2   
  2   2   3  am  
  3   2   4  am  
  4   3   5  1   
  5   3   6  1   
  6   4   7  1   
  7   4  24  1   
  8   5   8  1   
  9   5  25  1   
 10   5  26  1   
 11   6   9  1   
 12   6  27  1   
 13   6  28  1   
 14   7  10  ar  
 15   7  11  ar  
 16   8  12  1   
 17   8  29  1   
 18   8  30  1   
 19   9  12  1   
 20   9  31  1   
 21   9  32  1   
 22  10  13  ar  
 23  10  33  1   
 24  11  14  ar  
 25  11  34  1   
 26  12  15  1   
 27  12  35  1   
 28  13  16  ar  
 29  13  36  1   
 30  14  16  ar  
 31  14  37  1   
 32  15  17  1   
 33  15  18  1   
 34  15  38  1   
 35  16  19  1   
 36  17  20  1   
 37  17  39  1   
 38  17  40  1   
 39  18  21  1   
 40  18  41  1   
 41  18  42  1   
 42  19  22  1   
 43  20  21  1   
 44  20  43  1   
 45  20  44  1   
 46  21  45  1   
 47  21  46  1   
 48  22  23  1   
 49  22  47  1   
 50  22  48  1   
 51  23  49  1   
 52  23  50  1   
 53  23  51  1   
@<TRIPOS>SUBSTRUCTURE
  1 ****   2 GROUP 4 **** **** 0

# MOE 2024.06 (io_trps.svl 2023.06)
