@<TRIPOS>MOLECULE
1-(6,7-Dihydro-5H-cyclopenta[d][1,2,4]triazolo[1,5-a]pyrimidin-8-yl)-piperidine-4-carboxylic acid [2-(4-chl
56 60 1 0 0 
SMALL
USER_CHARGES


@<TRIPOS>ATOM
  1 CL       0.8120     1.2020    -1.9690 Cl    1 <1>  -0.1770 
  2 C        2.4140     1.1150    -1.2830 C.ar  1 <1>   0.1770 
  3 C        2.5700     0.6890     0.0220 C.ar  1 <1>  -0.1500 
  4 C        3.5030     1.4730    -2.0550 C.ar  1 <1>  -0.1500 
  5 C        3.8430     0.6210     0.5650 C.ar  1 <1>  -0.1500 
  6 C        4.7730     1.4030    -1.5070 C.ar  1 <1>  -0.1500 
  7 C        4.9470     0.9770    -0.1970 C.ar  1 <1>  -0.1430 
  8 C        6.3470     0.9010     0.3900 C.3   1 <1>  -0.0160 
  9 C        7.0260    -0.4040    -0.0280 C.3   1 <1>   0.1400 
 10 N        8.3950    -0.4690     0.5360 N.am  1 <1>  -0.7300 
 11 C        9.5050    -0.0250    -0.1090 C.2   1 <1>   0.5690 
 12 O        9.4400     0.4970    -1.1960 O.2   1 <1>  -0.5700 
 13 C       10.8650    -0.1860     0.5640 C.3   1 <1>  -0.0190 
 14 C       11.5660     1.1790     0.7230 C.3   1 <1>  -0.1600 
 15 C       11.7530    -1.1630    -0.2300 C.3   1 <1>  -0.1600 
 16 C       12.9820     1.0410     1.2850 C.3   1 <1>   0.2090 
 17 C       13.1520    -1.2850     0.3740 C.3   1 <1>   0.2090 
 18 N       13.7540     0.0700     0.4660 N.pl3 1 <1>  -0.8380 
 19 C       14.9420     0.3810    -0.1330 C.2   1 <1>   0.4790 
 20 N       16.0560    -0.3780     0.1200 N.pl3 1 <1>  -0.3220 
 21 C       15.1340     1.4300    -1.0060 C.2   1 <1>  -0.1240 
 22 N       16.2430    -1.4670     0.9420 N.2   1 <1>  -0.2600 
 23 C       17.2290    -0.0470    -0.4510 C.cat 1 <1>   0.9620 
 24 C       16.3860     1.6570    -1.5380 C.2   1 <1>   0.3750 
 25 C       14.1270     2.4280    -1.5410 C.3   1 <1>  -0.0220 
 26 C       17.4900    -1.7440     0.8290 C.2   1 <1>   0.5030 
 27 N       17.4610     0.9540    -1.2880 N.2   1 <1>  -0.6120 
 28 N       18.1340    -0.9010    -0.0180 N.pl3 1 <1>  -0.7000 
 29 C       16.3760     2.8380    -2.4740 C.3   1 <1>  -0.0990 
 30 C       14.8810     3.1450    -2.6740 C.3   1 <1>  -0.1600 
 31 H        1.7070     0.4170     0.6020 H     1 <1>   0.1500 
 32 H        3.3570     1.8020    -3.0680 H     1 <1>   0.1500 
 33 H        3.9660     0.2900     1.5820 H     1 <1>   0.1500 
 34 H        5.6260     1.6800    -2.1040 H     1 <1>   0.1500 
 35 H        6.2980     0.9580     1.4630 H     1 <1>   0.0800 
 36 H        6.9280     1.7330     0.0330 H     1 <1>   0.0800 
 37 H        7.0780    -0.4500    -1.1040 H     1 <1>   0.0800 
 38 H        6.4520    -1.2470     0.3160 H     1 <1>   0.0800 
 39 H        8.4720    -0.8870     1.4640 H     1 <1>   0.3700 
 40 H       10.7130    -0.5970     1.5450 H     1 <1>   0.0800 
 41 H       10.9850     1.8060     1.3750 H     1 <1>   0.0800 
 42 H       11.6140     1.6700    -0.2320 H     1 <1>   0.0800 
 43 H       11.8450    -0.8240    -1.2480 H     1 <1>   0.0800 
 44 H       11.2900    -2.1340    -0.2540 H     1 <1>   0.0800 
 45 H       12.9360     0.6820     2.3000 H     1 <1>   0.0800 
 46 H       13.4730     2.0000     1.2960 H     1 <1>   0.0800 
 47 H       13.7580    -1.9230    -0.2480 H     1 <1>   0.0800 
 48 H       13.0990    -1.7210     1.3570 H     1 <1>   0.0800 
 49 H       13.8530     3.1290    -0.7720 H     1 <1>   0.0800 
 50 H       13.2460     1.9350    -1.9160 H     1 <1>   0.0800 
 51 H       17.9880    -2.5530     1.3440 H     1 <1>   0.1500 
 52 H       19.1110    -0.8680    -0.2990 H     1 <1>   0.4500 
 53 H       16.8570     2.6020    -3.4070 H     1 <1>   0.0800 
 54 H       16.8790     3.6680    -2.0090 H     1 <1>   0.0800 
 55 H       14.6870     4.2040    -2.6740 H     1 <1>   0.0800 
 56 H       14.5610     2.7390    -3.6200 H     1 <1>   0.0800 
@<TRIPOS>BOND
  1   1   2  1   
  2   2   3  ar  
  3   2   4  ar  
  4   3   5  ar  
  5   3  31  1   
  6   4   6  ar  
  7   4  32  1   
  8   5   7  ar  
  9   5  33  1   
 10   6   7  ar  
 11   6  34  1   
 12   7   8  1   
 13   8   9  1   
 14   8  35  1   
 15   8  36  1   
 16   9  10  1   
 17   9  37  1   
 18   9  38  1   
 19  10  11  am  
 20  10  39  1   
 21  11  12  2   
 22  11  13  1   
 23  13  14  1   
 24  13  15  1   
 25  13  40  1   
 26  14  16  1   
 27  14  41  1   
 28  14  42  1   
 29  15  17  1   
 30  15  43  1   
 31  15  44  1   
 32  16  18  1   
 33  16  45  1   
 34  16  46  1   
 35  17  18  1   
 36  17  47  1   
 37  17  48  1   
 38  18  19  1   
 39  19  20  1   
 40  19  21  2   
 41  20  22  1   
 42  20  23  ar  
 43  21  24  1   
 44  21  25  1   
 45  22  26  2   
 46  23  27  1   
 47  23  28  ar  
 48  24  27  2   
 49  24  29  1   
 50  25  30  1   
 51  25  49  1   
 52  25  50  1   
 53  26  28  1   
 54  26  51  1   
 55  28  52  1   
 56  29  30  1   
 57  29  53  1   
 58  29  54  1   
 59  30  55  1   
 60  30  56  1   
@<TRIPOS>SUBSTRUCTURE
  1 ****  13 GROUP 4 **** **** 0

# MOE 2024.06 (io_trps.svl 2023.06)
