@<TRIPOS>MOLECULE
Piperidine-1,4-dicarboxylic acid 4-[(2-methoxy-5-methyl-phenyl)-amide] 1-phenylamide
52 54 1 0 0 
SMALL
USER_CHARGES


@<TRIPOS>ATOM
  1 O        0.2680    -0.0780    -0.6820 O.2   1 <1>  -0.5700 
  2 C        0.7010     0.9470    -0.1900 C.2   1 <1>   0.6900 
  3 N        1.9770     0.9880     0.3090 N.am  1 <1>  -0.6600 
  4 N       -0.0460     2.0890    -0.1530 N.am  1 <1>  -0.5470 
  5 C        2.9950    -0.0070    -0.1180 C.3   1 <1>   0.1400 
  6 C        2.4210     1.9060     1.3920 C.3   1 <1>   0.1400 
  7 C       -1.3930     2.3310    -0.4580 C.ar  1 <1>   0.1170 
  8 C        4.2550     0.7280    -0.5850 C.3   1 <1>  -0.1600 
  9 C        3.6620     2.6680     0.9260 C.3   1 <1>  -0.1600 
 10 C       -1.7810     3.6220    -0.7990 C.ar  1 <1>  -0.1500 
 11 C       -2.3670     1.3390    -0.4130 C.ar  1 <1>  -0.1500 
 12 C        4.7830     1.7040     0.4850 C.3   1 <1>  -0.0190 
 13 C       -3.1010     3.9150    -1.0910 C.ar  1 <1>  -0.1500 
 14 C       -3.6880     1.6260    -0.7050 C.ar  1 <1>  -0.1500 
 15 C        6.0270     2.4370    -0.0190 C.2   1 <1>   0.5690 
 16 C       -4.0580     2.9160    -1.0450 C.ar  1 <1>  -0.1500 
 17 O        5.9020     3.5050    -0.5690 O.2   1 <1>  -0.5700 
 18 N        7.2290     1.8200     0.1800 N.am  1 <1>  -0.5470 
 19 C        8.5580     2.1520    -0.1420 C.ar  1 <1>   0.1170 
 20 C        9.5550     1.2230     0.1780 C.ar  1 <1>   0.0830 
 21 C        8.9250     3.3450    -0.7530 C.ar  1 <1>  -0.1500 
 22 O        9.1550     0.0610     0.7800 O.3   1 <1>  -0.3630 
 23 C       10.8850     1.5030    -0.1170 C.ar  1 <1>  -0.1500 
 24 C       10.2490     3.6220    -1.0490 C.ar  1 <1>  -0.1430 
 25 C       10.0910    -0.9330     1.1380 C.3   1 <1>   0.0400 
 26 C       11.2270     2.6970    -0.7270 C.ar  1 <1>  -0.1500 
 27 C       10.6240     4.9330    -1.7170 C.3   1 <1>  -0.0970 
 28 H        0.5250     2.9120    -0.0060 H     1 <1>   0.3700 
 29 H        2.6150    -0.6140    -0.9230 H     1 <1>   0.0800 
 30 H        3.2230    -0.6560     0.7110 H     1 <1>   0.0800 
 31 H        2.6580     1.3220     2.2650 H     1 <1>   0.0800 
 32 H        1.6410     2.5960     1.6620 H     1 <1>   0.0800 
 33 H        4.0240     1.2710    -1.4850 H     1 <1>   0.0800 
 34 H        5.0140     0.0050    -0.8290 H     1 <1>   0.0800 
 35 H        4.0190     3.2940     1.7250 H     1 <1>   0.0800 
 36 H        3.3880     3.3110     0.1070 H     1 <1>   0.0800 
 37 H       -1.0460     4.4040    -0.8420 H     1 <1>   0.1500 
 38 H       -2.0940     0.3340    -0.1480 H     1 <1>   0.1500 
 39 H        5.0710     1.1290     1.3480 H     1 <1>   0.0800 
 40 H       -3.3860     4.9180    -1.3560 H     1 <1>   0.1500 
 41 H       -4.4270     0.8450    -0.6680 H     1 <1>   0.1500 
 42 H       -5.0860     3.1400    -1.2730 H     1 <1>   0.1500 
 43 H        7.1900     0.9080     0.6360 H     1 <1>   0.3700 
 44 H        8.1750     4.0710    -1.0030 H     1 <1>   0.1500 
 45 H       11.6710     0.8110     0.1160 H     1 <1>   0.1500 
 46 H        9.5580    -1.7490     1.5920 H     1 <1>   0.0800 
 47 H       10.7900    -0.5180     1.8430 H     1 <1>   0.0800 
 48 H       10.5950    -1.2750     0.2510 H     1 <1>   0.0800 
 49 H       12.2590     2.9050    -0.9510 H     1 <1>   0.1500 
 50 H        9.8060     5.3010    -2.3090 H     1 <1>   0.0800 
 51 H       11.4750     4.7980    -2.3600 H     1 <1>   0.0800 
 52 H       10.8660     5.6660    -0.9680 H     1 <1>   0.0800 
@<TRIPOS>BOND
  1   1   2  2   
  2   2   3  am  
  3   2   4  am  
  4   3   5  1   
  5   3   6  1   
  6   4   7  1   
  7   4  28  1   
  8   5   8  1   
  9   5  29  1   
 10   5  30  1   
 11   6   9  1   
 12   6  31  1   
 13   6  32  1   
 14   7  10  ar  
 15   7  11  ar  
 16   8  12  1   
 17   8  33  1   
 18   8  34  1   
 19   9  12  1   
 20   9  35  1   
 21   9  36  1   
 22  10  13  ar  
 23  10  37  1   
 24  11  14  ar  
 25  11  38  1   
 26  12  15  1   
 27  12  39  1   
 28  13  16  ar  
 29  13  40  1   
 30  14  16  ar  
 31  14  41  1   
 32  15  17  2   
 33  15  18  am  
 34  16  42  1   
 35  18  19  1   
 36  18  43  1   
 37  19  20  ar  
 38  19  21  ar  
 39  20  22  1   
 40  20  23  ar  
 41  21  24  ar  
 42  21  44  1   
 43  22  25  1   
 44  23  26  ar  
 45  23  45  1   
 46  24  26  ar  
 47  24  27  1   
 48  25  46  1   
 49  25  47  1   
 50  25  48  1   
 51  26  49  1   
 52  27  50  1   
 53  27  51  1   
 54  27  52  1   
@<TRIPOS>SUBSTRUCTURE
  1 ****  12 GROUP 4 **** **** 0

# MOE 2024.06 (io_trps.svl 2023.06)
