@<TRIPOS>MOLECULE
NONAME
56 58 1 0 0 
SMALL
USER_CHARGES


@<TRIPOS>ATOM
  1 S       -0.0950     0.1510    -0.0260 S.o2  1 <1>   1.4470 
  2 O        0.0770    -0.3950     1.3000 O.2   1 <1>  -0.6500 
  3 O        0.5200    -0.4940    -1.1650 O.2   1 <1>  -0.6500 
  4 N        0.6050     1.6980     0.0260 N.am  1 <1>  -0.8490 
  5 C       -1.8480     0.5060    -0.3350 C.ar  1 <1>  -0.0090 
  6 C        1.9620     1.6340     0.6160 C.3   1 <1>   0.1960 
  7 C        0.6590     2.3430    -1.3050 C.3   1 <1>   0.1960 
  8 C       -2.4350     0.2510    -1.5690 C.ar  1 <1>  -0.1500 
  9 C       -2.6460     1.0760     0.6490 C.ar  1 <1>  -0.1500 
 10 C        2.6920     3.0010     0.6140 C.3   1 <1>   0.3430 
 11 C        1.2470     3.7770    -1.2440 C.3   1 <1>   0.3430 
 12 C       -3.7610     0.5640    -1.8090 C.ar  1 <1>  -0.1500 
 13 C       -3.9720     1.3890     0.4090 C.ar  1 <1>  -0.1500 
 14 N        1.8020     4.1090     0.1170 N.4   1 <1>  -0.9590 
 15 C       -4.5660     1.1410    -0.8290 C.ar  1 <1>   0.0860 
 16 C        2.4570     5.4500     0.1680 C.3   1 <1>   0.2630 
 17 C       -5.9540     1.4740    -1.1000 C.2   1 <1>   0.5440 
 18 O       -6.3070     1.7640    -2.2250 O.2   1 <1>  -0.5700 
 19 N       -6.8790     1.4650    -0.0960 N.am  1 <1>  -0.7300 
 20 C       -8.2850     1.9010    -0.2180 C.3   1 <1>   0.2200 
 21 C       -8.5830     3.0200     0.8020 C.3   1 <1>  -0.0800 
 22 C       -9.1870     0.6820     0.0040 C.3   1 <1>  -0.1600 
 23 C      -10.0740     3.4020     0.7590 C.3   1 <1>  -0.1600 
 24 C       -7.7230     4.2710     0.5530 C.3   1 <1>  -0.2400 
 25 C      -10.6710     1.0720    -0.0350 C.3   1 <1>  -0.1600 
 26 C      -10.9770     2.1810     0.9800 C.3   1 <1>  -0.1600 
 27 H        2.5630     0.9150     0.0820 H     1 <1>   0.0800 
 28 H        1.8910     1.2890     1.6350 H     1 <1>   0.0800 
 29 H       -0.3300     2.3940    -1.7290 H     1 <1>   0.0800 
 30 H        1.2630     1.7520    -1.9760 H     1 <1>   0.0800 
 31 H       -1.8510    -0.2000    -2.3550 H     1 <1>   0.1500 
 32 H       -2.2200     1.2770     1.6180 H     1 <1>   0.1500 
 33 H        3.5660     2.9280    -0.0110 H     1 <1>   0.0800 
 34 H        3.0260     3.2180     1.6160 H     1 <1>   0.0800 
 35 H        0.4700     4.4800    -1.4970 H     1 <1>   0.0800 
 36 H        2.0190     3.8670    -1.9890 H     1 <1>   0.0800 
 37 H       -4.1920     0.3600    -2.7760 H     1 <1>   0.1500 
 38 H       -4.5530     1.8410     1.1940 H     1 <1>   0.1500 
 39 H        0.9840     4.0920     0.7490 H     1 <1>   0.4500 
 40 H        3.3140     5.4760    -0.4870 H     1 <1>   0.0800 
 41 H        2.7840     5.6690     1.1720 H     1 <1>   0.0800 
 42 H        1.7650     6.2180    -0.1400 H     1 <1>   0.0800 
 43 H       -6.6220     1.1160     0.8250 H     1 <1>   0.3700 
 44 H       -8.4610     2.2830    -1.2110 H     1 <1>   0.0800 
 45 H       -8.3680     2.6480     1.7890 H     1 <1>   0.0800 
 46 H       -8.9670     0.2380     0.9590 H     1 <1>   0.0800 
 47 H       -8.9930    -0.0450    -0.7650 H     1 <1>   0.0800 
 48 H      -10.3040     3.8410    -0.1980 H     1 <1>   0.0800 
 49 H      -10.2830     4.1380     1.5160 H     1 <1>   0.0800 
 50 H       -7.8920     4.6500    -0.4400 H     1 <1>   0.0800 
 51 H       -6.6780     4.0420     0.6540 H     1 <1>   0.0800 
 52 H       -7.9670     5.0420     1.2620 H     1 <1>   0.0800 
 53 H      -11.2780     0.2090     0.1780 H     1 <1>   0.0800 
 54 H      -10.9220     1.4150    -1.0240 H     1 <1>   0.0800 
 55 H      -12.0080     2.4760     0.8900 H     1 <1>   0.0800 
 56 H      -10.8290     1.8030     1.9770 H     1 <1>   0.0800 
@<TRIPOS>BOND
  1   1   2  2   
  2   1   3  2   
  3   1   4  am  
  4   1   5  1   
  5   4   6  1   
  6   4   7  1   
  7   5   8  ar  
  8   5   9  ar  
  9   6  10  1   
 10   6  27  1   
 11   6  28  1   
 12   7  11  1   
 13   7  29  1   
 14   7  30  1   
 15   8  12  ar  
 16   8  31  1   
 17   9  13  ar  
 18   9  32  1   
 19  10  14  1   
 20  10  33  1   
 21  10  34  1   
 22  11  14  1   
 23  11  35  1   
 24  11  36  1   
 25  12  15  ar  
 26  12  37  1   
 27  13  15  ar  
 28  13  38  1   
 29  14  16  1   
 30  14  39  1   
 31  15  17  1   
 32  16  40  1   
 33  16  41  1   
 34  16  42  1   
 35  17  18  2   
 36  17  19  am  
 37  19  20  1   
 38  19  43  1   
 39  20  21  1   
 40  20  22  1   
 41  20  44  1   
 42  21  23  1   
 43  21  24  1   
 44  21  45  1   
 45  22  25  1   
 46  22  46  1   
 47  22  47  1   
 48  23  26  1   
 49  23  48  1   
 50  23  49  1   
 51  24  50  1   
 52  24  51  1   
 53  24  52  1   
 54  25  26  1   
 55  25  53  1   
 56  25  54  1   
 57  26  55  1   
 58  26  56  1   
@<TRIPOS>SUBSTRUCTURE
  1 ****  13 GROUP 4 **** **** 0

# MOE 2024.06 (io_trps.svl 2023.06)
