@<TRIPOS>MOLECULE
NONAME
47 50 1 0 0 
SMALL
USER_CHARGES


@<TRIPOS>ATOM
  1 O       -0.2350     0.1890    -0.3530 O.2   1 <1>  -0.5700 
  2 C       -0.7360    -0.8510     0.0310 C.2   1 <1>   0.6900 
  3 N       -1.9570    -0.8390     0.6560 N.am  1 <1>  -0.6600 
  4 N       -0.1290    -2.0550    -0.1790 N.am  1 <1>  -0.5470 
  5 C       -2.8950     0.2980     0.4770 C.3   1 <1>   0.1400 
  6 C       -2.4030    -1.8680     1.6330 C.3   1 <1>   0.1400 
  7 C        1.1350    -2.3960    -0.6820 C.ar  1 <1>   0.1170 
  8 C       -4.2640    -0.2370     0.0450 C.3   1 <1>  -0.1600 
  9 C       -3.7550    -2.4260     1.1900 C.3   1 <1>  -0.1600 
 10 C        1.3260    -3.6390    -1.2910 C.ar  1 <1>  -0.1430 
 11 C        2.2200    -1.5320    -0.5700 C.ar  1 <1>  -0.1500 
 12 C       -4.7960    -1.3050     1.0150 C.3   1 <1>   0.1000 
 13 C        2.5790    -3.9890    -1.7690 C.ar  1 <1>  -0.1500 
 14 C        0.1750    -4.6270    -1.4480 C.3   1 <1>  -0.0970 
 15 C        3.4660    -1.8860    -1.0500 C.ar  1 <1>  -0.1500 
 16 C       -6.1400    -1.8460     0.5310 C.2   1 <1>   0.0070 
 17 C        3.6480    -3.1180    -1.6510 C.ar  1 <1>  -0.1500 
 18 N       -6.3290    -3.0090     0.0080 N.2   1 <1>  -0.5650 
 19 N       -7.2750    -1.1040     0.6230 N.pl3 1 <1>   0.0330 
 20 C       -7.6630    -3.0510    -0.2670 C.ar  1 <1>   0.2270 
 21 C       -8.2700    -1.8690     0.1110 C.ar  1 <1>  -0.1520 
 22 C       -8.4220    -4.0690    -0.8390 C.ar  1 <1>  -0.1500 
 23 C       -9.6400    -1.6660    -0.0690 C.ar  1 <1>  -0.1500 
 24 C       -9.7750    -3.8800    -1.0210 C.ar  1 <1>  -0.1500 
 25 C      -10.3830    -2.6780    -0.6360 C.ar  1 <1>  -0.1500 
 26 H       -0.7780    -2.8270    -0.0960 H     1 <1>   0.3700 
 27 H       -2.5240     0.9780    -0.2710 H     1 <1>   0.0800 
 28 H       -2.9770     0.8350     1.4070 H     1 <1>   0.0800 
 29 H       -2.4970    -1.4080     2.6020 H     1 <1>   0.0800 
 30 H       -1.6840    -2.6640     1.7170 H     1 <1>   0.0800 
 31 H       -4.1740    -0.6630    -0.9400 H     1 <1>   0.0800 
 32 H       -4.9570     0.5830    -0.0180 H     1 <1>   0.0800 
 33 H       -4.1110    -3.1320     1.9200 H     1 <1>   0.0800 
 34 H       -3.6290    -2.9540     0.2610 H     1 <1>   0.0800 
 35 H        2.0910    -0.5740    -0.1010 H     1 <1>   0.1500 
 36 H       -4.9500    -0.8470     1.9770 H     1 <1>   0.0800 
 37 H        2.7360    -4.9430    -2.2390 H     1 <1>   0.1500 
 38 H       -0.1690    -4.9490    -0.4830 H     1 <1>   0.0800 
 39 H        0.4860    -5.4940    -2.0030 H     1 <1>   0.0800 
 40 H       -0.6370    -4.1640    -1.9800 H     1 <1>   0.0800 
 41 H        4.2920    -1.2020    -0.9560 H     1 <1>   0.1500 
 42 H        4.6170    -3.3970    -2.0260 H     1 <1>   0.1500 
 43 H       -7.3730    -0.1590     0.9980 H     1 <1>   0.2700 
 44 H       -7.9300    -4.9800    -1.1250 H     1 <1>   0.1500 
 45 H      -10.0980    -0.7390     0.2300 H     1 <1>   0.1500 
 46 H      -10.3760    -4.6560    -1.4620 H     1 <1>   0.1500 
 47 H      -11.4410    -2.5550    -0.7890 H     1 <1>   0.1500 
@<TRIPOS>BOND
  1   1   2  2   
  2   2   3  am  
  3   2   4  am  
  4   3   5  1   
  5   3   6  1   
  6   4   7  1   
  7   4  26  1   
  8   5   8  1   
  9   5  27  1   
 10   5  28  1   
 11   6   9  1   
 12   6  29  1   
 13   6  30  1   
 14   7  10  ar  
 15   7  11  ar  
 16   8  12  1   
 17   8  31  1   
 18   8  32  1   
 19   9  12  1   
 20   9  33  1   
 21   9  34  1   
 22  10  13  ar  
 23  10  14  1   
 24  11  15  ar  
 25  11  35  1   
 26  12  16  1   
 27  12  36  1   
 28  13  17  ar  
 29  13  37  1   
 30  14  38  1   
 31  14  39  1   
 32  14  40  1   
 33  15  17  ar  
 34  15  41  1   
 35  16  18  2   
 36  16  19  1   
 37  17  42  1   
 38  18  20  1   
 39  19  21  1   
 40  19  43  1   
 41  20  21  ar  
 42  20  22  ar  
 43  21  23  ar  
 44  22  24  ar  
 45  22  44  1   
 46  23  25  ar  
 47  23  45  1   
 48  24  25  ar  
 49  24  46  1   
 50  25  47  1   
@<TRIPOS>SUBSTRUCTURE
  1 ****   9 GROUP 4 **** **** 0

# MOE 2024.06 (io_trps.svl 2023.06)
