@<TRIPOS>MOLECULE
11172
34 35 1 0 0 
SMALL
USER_CHARGES


@<TRIPOS>ATOM
  1 S       -0.8110    -0.6500    -0.5400 S.3   1 <1>  -0.0800 
  2 C       -2.2030     0.1020     0.1790 C.2   1 <1>   0.4420 
  3 C        0.1520     0.5250     0.2830 C.2   1 <1>   0.1980 
  4 N       -1.8850     1.0970     0.9240 N.2   1 <1>  -0.3380 
  5 N       -3.4820    -0.3520    -0.0530 N.am  1 <1>  -0.4940 
  6 N       -0.5390     1.3330     0.9790 N.2   1 <1>  -0.3380 
  7 C        1.6510     0.4700     0.0960 C.3   1 <1>  -0.0600 
  8 C       -3.9810    -1.3790    -0.8040 C.2   1 <1>   0.5690 
  9 O       -3.2950    -2.1370    -1.4430 O.2   1 <1>  -0.5700 
 10 C       -5.4910    -1.5680    -0.8360 C.3   1 <1>   0.1810 
 11 O       -6.1240    -0.6670     0.0620 O.3   1 <1>  -0.3630 
 12 C       -7.4730    -0.5160     0.0940 C.ar  1 <1>   0.0820 
 13 C       -7.9890     0.5350     0.8500 C.ar  1 <1>  -0.1430 
 14 C       -8.3380    -1.3630    -0.5960 C.ar  1 <1>  -0.1500 
 15 C       -9.3600     0.7310     0.8950 C.ar  1 <1>  -0.1500 
 16 C       -7.0790     1.4800     1.6290 C.3   1 <1>  -0.0170 
 17 C       -9.7050    -1.1560    -0.5390 C.ar  1 <1>  -0.1500 
 18 C      -10.2160    -0.1090     0.2040 C.ar  1 <1>  -0.1500 
 19 C       -6.5190     2.5760     0.7180 C.3   1 <1>  -0.2400 
 20 H       -4.2000     0.1830     0.4370 H     1 <1>   0.3700 
 21 H        1.8940     0.5960    -0.9430 H     1 <1>   0.0800 
 22 H        2.0260    -0.4780     0.4360 H     1 <1>   0.0800 
 23 H        2.1180     1.2550     0.6630 H     1 <1>   0.0800 
 24 H       -5.7370    -2.5720    -0.5420 H     1 <1>   0.0800 
 25 H       -5.8510    -1.3720    -1.8290 H     1 <1>   0.0800 
 26 H       -7.9750    -2.1870    -1.1780 H     1 <1>   0.1500 
 27 H       -9.7720     1.5430     1.4700 H     1 <1>   0.1500 
 28 H       -6.2700     0.9260     2.0730 H     1 <1>   0.0800 
 29 H       -7.6290     1.9350     2.4340 H     1 <1>   0.0800 
 30 H      -10.3730    -1.8100    -1.0730 H     1 <1>   0.1500 
 31 H      -11.2790     0.0540     0.2470 H     1 <1>   0.1500 
 32 H       -5.9520     2.1410    -0.0850 H     1 <1>   0.0800 
 33 H       -5.8780     3.2330     1.2780 H     1 <1>   0.0800 
 34 H       -7.3240     3.1520     0.2970 H     1 <1>   0.0800 
@<TRIPOS>BOND
  1   1   2  1   
  2   1   3  1   
  3   2   4  2   
  4   2   5  1   
  5   3   6  2   
  6   3   7  1   
  7   4   6  1   
  8   5   8  am  
  9   5  20  1   
 10   7  21  1   
 11   7  22  1   
 12   7  23  1   
 13   8   9  2   
 14   8  10  1   
 15  10  11  1   
 16  10  24  1   
 17  10  25  1   
 18  11  12  1   
 19  12  13  ar  
 20  12  14  ar  
 21  13  15  ar  
 22  13  16  1   
 23  14  17  ar  
 24  14  26  1   
 25  15  18  ar  
 26  15  27  1   
 27  16  19  1   
 28  16  28  1   
 29  16  29  1   
 30  17  18  ar  
 31  17  30  1   
 32  18  31  1   
 33  19  32  1   
 34  19  33  1   
 35  19  34  1   
@<TRIPOS>SUBSTRUCTURE
  1 ****  11 GROUP 4 **** **** 0

# MOE 2024.06 (io_trps.svl 2023.06)
