@<TRIPOS>MOLECULE
4-(4-Butyl-phenyl)-5-(3,4,5-trimethoxy-phenyl)-4H-[1,2,4]triazole-3-thiol
53 55 1 0 0 
SMALL
USER_CHARGES


@<TRIPOS>ATOM
  1 S       -0.3000    -0.7000     0.6290 S.3   1 <1>  -0.9360 
  2 C       -1.8310    -0.1930     0.4930 C.cat 1 <1>   0.7360 
  3 N       -2.1670     1.0760     0.4770 N.pl3 1 <1>  -0.3930 
  4 N       -2.9280    -0.9260     0.3870 N.pl3 1 <1>  -0.6370 
  5 N       -3.5130     1.2200     0.3680 N.2   1 <1>  -0.2600 
  6 C       -3.0010    -2.3220     0.2640 C.ar  1 <1>   0.3870 
  7 C       -3.9580     0.0020     0.3280 C.2   1 <1>   0.6120 
  8 C       -3.6230    -2.9010    -0.8350 C.ar  1 <1>  -0.1500 
  9 C       -2.4910    -3.1510     1.2530 C.ar  1 <1>  -0.1500 
 10 C       -5.3540    -0.3700     0.2340 C.ar  1 <1>   0.0410 
 11 C       -3.7560    -4.2750    -0.9310 C.ar  1 <1>  -0.1500 
 12 C       -2.6210    -4.5250     1.1610 C.ar  1 <1>  -0.1500 
 13 C       -6.2030     0.2520    -0.6800 C.ar  1 <1>  -0.1500 
 14 C       -5.9010    -1.3660     1.0410 C.ar  1 <1>  -0.1500 
 15 C       -3.2610    -5.0950     0.0710 C.ar  1 <1>  -0.1430 
 16 C       -7.5360    -0.1000    -0.8090 C.ar  1 <1>   0.0830 
 17 C       -7.2250    -1.7390     0.9280 C.ar  1 <1>   0.0830 
 18 C       -3.4040    -6.6050    -0.0310 C.3   1 <1>  -0.0170 
 19 O       -8.2240     0.5940    -1.7590 O.3   1 <1>  -0.3620 
 20 C       -8.0700    -1.0980     0.0180 C.ar  1 <1>   0.0830 
 21 O       -7.6560    -2.7340     1.7400 O.3   1 <1>  -0.3620 
 22 C       -2.2000    -7.2100    -0.7620 C.3   1 <1>  -0.1600 
 23 C       -9.2910     0.0000    -2.4670 C.3   1 <1>   0.0400 
 24 O       -9.3850    -1.4390    -0.0390 O.3   1 <1>  -0.3630 
 25 C       -7.9280    -3.9700     1.1160 C.3   1 <1>   0.0400 
 26 C       -2.3190    -8.7350    -0.8760 C.3   1 <1>  -0.1600 
 27 C      -10.1860    -0.9640     1.0200 C.3   1 <1>   0.0400 
 28 C       -1.1120    -9.3260    -1.6080 C.3   1 <1>  -0.2400 
 29 H       -1.4530     1.8030     0.5470 H     1 <1>   0.4500 
 30 H       -4.0040    -2.2730    -1.6180 H     1 <1>   0.1500 
 31 H       -1.9820    -2.7100     2.0910 H     1 <1>   0.1500 
 32 H       -4.2420    -4.7060    -1.7890 H     1 <1>   0.1500 
 33 H       -2.2150    -5.1490     1.9390 H     1 <1>   0.1500 
 34 H       -5.8200     1.0300    -1.3180 H     1 <1>   0.1500 
 35 H       -5.2900    -1.8670     1.7720 H     1 <1>   0.1500 
 36 H       -4.3100    -6.8470    -0.5580 H     1 <1>   0.0800 
 37 H       -3.4780    -7.0270     0.9570 H     1 <1>   0.0800 
 38 H       -1.3000    -6.9570    -0.2290 H     1 <1>   0.0800 
 39 H       -2.1320    -6.7790    -1.7470 H     1 <1>   0.0800 
 40 H       -9.4460     0.5600    -3.3720 H     1 <1>   0.0800 
 41 H      -10.1780     0.0420    -1.8610 H     1 <1>   0.0800 
 42 H       -9.0380    -1.0180    -2.7020 H     1 <1>   0.0800 
 43 H       -8.1980    -4.6780     1.8780 H     1 <1>   0.0800 
 44 H       -7.0430    -4.3010     0.6010 H     1 <1>   0.0800 
 45 H       -8.7410    -3.8480     0.4240 H     1 <1>   0.0800 
 46 H       -3.2170    -8.9910    -1.4130 H     1 <1>   0.0800 
 47 H       -2.3820    -9.1680     0.1080 H     1 <1>   0.0800 
 48 H       -9.8430    -1.3920     1.9450 H     1 <1>   0.0800 
 49 H      -11.2020    -1.2610     0.8340 H     1 <1>   0.0800 
 50 H      -10.1150     0.1090     1.0550 H     1 <1>   0.0800 
 51 H       -1.0410    -8.9230    -2.6040 H     1 <1>   0.0800 
 52 H       -1.2100   -10.3960    -1.6790 H     1 <1>   0.0800 
 53 H       -0.2030    -9.1000    -1.0780 H     1 <1>   0.0800 
@<TRIPOS>BOND
  1   1   2  1   
  2   2   3  ar  
  3   2   4  ar  
  4   3   5  1   
  5   3  29  1   
  6   4   6  1   
  7   4   7  1   
  8   5   7  2   
  9   6   8  ar  
 10   6   9  ar  
 11   7  10  1   
 12   8  11  ar  
 13   8  30  1   
 14   9  12  ar  
 15   9  31  1   
 16  10  13  ar  
 17  10  14  ar  
 18  11  15  ar  
 19  11  32  1   
 20  12  15  ar  
 21  12  33  1   
 22  13  16  ar  
 23  13  34  1   
 24  14  17  ar  
 25  14  35  1   
 26  15  18  1   
 27  16  19  1   
 28  16  20  ar  
 29  17  20  ar  
 30  17  21  1   
 31  18  22  1   
 32  18  36  1   
 33  18  37  1   
 34  19  23  1   
 35  20  24  1   
 36  21  25  1   
 37  22  26  1   
 38  22  38  1   
 39  22  39  1   
 40  23  40  1   
 41  23  41  1   
 42  23  42  1   
 43  24  27  1   
 44  25  43  1   
 45  25  44  1   
 46  25  45  1   
 47  26  28  1   
 48  26  46  1   
 49  26  47  1   
 50  27  48  1   
 51  27  49  1   
 52  27  50  1   
 53  28  51  1   
 54  28  52  1   
 55  28  53  1   
@<TRIPOS>SUBSTRUCTURE
  1 ****   8 GROUP 4 **** **** 0

# MOE 2024.06 (io_trps.svl 2023.06)
