@<TRIPOS>MOLECULE
NONAME
28 28 1 0 0 
SMALL
USER_CHARGES


@<TRIPOS>ATOM
  1 O        0.4880     0.4450     0.1670 O.2   1 <1>  -0.5700 
  2 C        1.6530     0.7310     0.0780 C.2   1 <1>   0.5690 
  3 N        2.6570    -0.1480    -0.0150 N.am  1 <1>  -0.7300 
  4 C        2.1850     2.1350     0.1040 C.3   1 <1>  -0.0990 
  5 C        4.0040     0.4680     0.0370 C.3   1 <1>   0.2810 
  6 C        3.6830     1.9340     0.4040 C.3   1 <1>  -0.1600 
  7 C        4.9910    -0.2100     1.0150 C.2   1 <1>   0.6590 
  8 O        4.6240    -1.0760     1.7670 O.2   1 <1>  -0.5700 
  9 O        6.2450     0.2240     1.0830 O.3   1 <1>  -0.4300 
 10 C        7.1970     0.3010     0.0460 C.3   1 <1>   0.2800 
 11 C        7.0530     1.6290    -0.7020 C.3   1 <1>  -0.2400 
 12 C        8.5540     0.2620     0.7490 C.3   1 <1>  -0.2400 
 13 C        7.0730    -0.9080    -0.8900 C.3   1 <1>  -0.2400 
 14 H        2.5260    -1.1280     0.2510 H     1 <1>   0.3700 
 15 H        2.0320     2.5840    -0.8600 H     1 <1>   0.0800 
 16 H        1.6950     2.7150     0.8650 H     1 <1>   0.0800 
 17 H        4.4060     0.4230    -0.9570 H     1 <1>   0.0800 
 18 H        3.8540     2.0770     1.4570 H     1 <1>   0.0800 
 19 H        4.2970     2.6290    -0.1380 H     1 <1>   0.0800 
 20 H        7.8990     1.7720    -1.3490 H     1 <1>   0.0800 
 21 H        7.0230     2.4490    -0.0050 H     1 <1>   0.0800 
 22 H        6.1780     1.6480    -1.3210 H     1 <1>   0.0800 
 23 H        8.6500     1.0940     1.4230 H     1 <1>   0.0800 
 24 H        9.3530     0.3120     0.0320 H     1 <1>   0.0800 
 25 H        8.6580    -0.6510     1.3080 H     1 <1>   0.0800 
 26 H        7.8840    -0.9050    -1.5960 H     1 <1>   0.0800 
 27 H        6.1570    -0.8900    -1.4500 H     1 <1>   0.0800 
 28 H        7.1260    -1.8230    -0.3250 H     1 <1>   0.0800 
@<TRIPOS>BOND
  1   1   2  2   
  2   2   3  am  
  3   2   4  1   
  4   3   5  1   
  5   3  14  1   
  6   4   6  1   
  7   4  15  1   
  8   4  16  1   
  9   5   6  1   
 10   5   7  1   
 11   5  17  1   
 12   6  18  1   
 13   6  19  1   
 14   7   8  2   
 15   7   9  1   
 16   9  10  1   
 17  10  11  1   
 18  10  12  1   
 19  10  13  1   
 20  11  20  1   
 21  11  21  1   
 22  11  22  1   
 23  12  23  1   
 24  12  24  1   
 25  12  25  1   
 26  13  26  1   
 27  13  27  1   
 28  13  28  1   
@<TRIPOS>SUBSTRUCTURE
  1 ****   5 GROUP 4 **** **** 0

# MOE 2024.06 (io_trps.svl 2023.06)
