@<TRIPOS>MOLECULE
1-(6,7-Dihydro-5H-cyclopenta[d][1,2,4]triazolo[1,5-a]pyrimidin-8-yl)-piperidine-4-carboxylic acid (2-chloro
50 54 1 0 0 
SMALL
USER_CHARGES


@<TRIPOS>ATOM
  1 CL       0.1170     4.7380     2.0070 Cl    1 <1>  -0.1770 
  2 C        0.4840     3.6540     0.6800 C.ar  1 <1>   0.1770 
  3 C       -0.5610     2.9990     0.0280 C.ar  1 <1>   0.1170 
  4 C        1.8060     3.4810     0.3190 C.ar  1 <1>  -0.1500 
  5 N       -1.8840     3.2300     0.4590 N.am  1 <1>  -0.5470 
  6 C       -0.2220     2.1470    -1.0210 C.ar  1 <1>  -0.1500 
  7 C        2.1170     2.6290    -0.7260 C.ar  1 <1>  -0.1500 
  8 C       -3.0930     2.7510     0.0370 C.2   1 <1>   0.5690 
  9 C        1.1010     1.9650    -1.3930 C.ar  1 <1>  -0.1500 
 10 O       -3.2250     1.9670    -0.8710 O.2   1 <1>  -0.5700 
 11 C       -4.3450     3.2430     0.7630 C.3   1 <1>  -0.0190 
 12 C       -5.1600     2.0620     1.3270 C.3   1 <1>  -0.1600 
 13 C       -5.2170     4.1020    -0.1740 C.3   1 <1>  -0.1600 
 14 C       -6.4700     2.5210     1.9700 C.3   1 <1>   0.2090 
 15 C       -6.5160     4.5460     0.5000 C.3   1 <1>   0.2090 
 16 N       -7.2360     3.3440     0.9970 N.pl3 1 <1>  -0.8380 
 17 C       -8.5120     3.0470     0.6040 C.2   1 <1>   0.4790 
 18 N       -9.5020     3.9860     0.7430 N.pl3 1 <1>  -0.3220 
 19 C       -8.9110     1.8500     0.0470 C.2   1 <1>  -0.1240 
 20 N       -9.4790     5.2530     1.2820 N.2   1 <1>  -0.2600 
 21 C      -10.7560     3.6910     0.3580 C.cat 1 <1>   0.9620 
 22 C      -10.2280     1.6790    -0.3260 C.2   1 <1>   0.3750 
 23 C       -8.0870     0.6230    -0.2900 C.3   1 <1>  -0.0220 
 24 C      -10.6910     5.6610     1.1940 C.2   1 <1>   0.5030 
 25 N      -11.1840     2.5620    -0.1890 N.2   1 <1>  -0.6120 
 26 N      -11.5100     4.7370     0.6290 N.pl3 1 <1>  -0.7000 
 27 C      -10.4560     0.3230    -0.9440 C.3   1 <1>  -0.0990 
 28 C       -9.1220    -0.4190    -0.7480 C.3   1 <1>  -0.1600 
 29 H        2.5810     4.0060     0.8490 H     1 <1>   0.1500 
 30 H       -1.9280     3.8880     1.2380 H     1 <1>   0.3700 
 31 H       -0.9830     1.6150    -1.5610 H     1 <1>   0.1500 
 32 H        3.1420     2.4830    -1.0210 H     1 <1>   0.1500 
 33 H        1.3380     1.3010    -2.2070 H     1 <1>   0.1500 
 34 H       -4.0420     3.8590     1.5910 H     1 <1>   0.0800 
 35 H       -4.5710     1.5350     2.0570 H     1 <1>   0.0800 
 36 H       -5.3820     1.3700     0.5340 H     1 <1>   0.0800 
 37 H       -5.4630     3.5380    -1.0580 H     1 <1>   0.0800 
 38 H       -4.6660     4.9700    -0.4870 H     1 <1>   0.0800 
 39 H       -6.2570     3.1180     2.8410 H     1 <1>   0.0800 
 40 H       -7.0510     1.6720     2.2870 H     1 <1>   0.0800 
 41 H       -7.1250     5.0800    -0.2100 H     1 <1>   0.0800 
 42 H       -6.3030     5.2030     1.3270 H     1 <1>   0.0800 
 43 H       -7.5410     0.2580     0.5610 H     1 <1>   0.0800 
 44 H       -7.3980     0.8530    -1.0860 H     1 <1>   0.0800 
 45 H      -11.0390     6.6280     1.5270 H     1 <1>   0.1500 
 46 H      -12.5080     4.7710     0.4360 H     1 <1>   0.4500 
 47 H      -10.6790     0.4380    -1.9900 H     1 <1>   0.0800 
 48 H      -11.2660    -0.1910    -0.4580 H     1 <1>   0.0800 
 49 H       -9.2400    -1.1650     0.0210 H     1 <1>   0.0800 
 50 H       -8.8080    -0.9090    -1.6540 H     1 <1>   0.0800 
@<TRIPOS>BOND
  1   1   2  1   
  2   2   3  ar  
  3   2   4  ar  
  4   3   5  1   
  5   3   6  ar  
  6   4   7  ar  
  7   4  29  1   
  8   5   8  am  
  9   5  30  1   
 10   6   9  ar  
 11   6  31  1   
 12   7   9  ar  
 13   7  32  1   
 14   8  10  2   
 15   8  11  1   
 16   9  33  1   
 17  11  12  1   
 18  11  13  1   
 19  11  34  1   
 20  12  14  1   
 21  12  35  1   
 22  12  36  1   
 23  13  15  1   
 24  13  37  1   
 25  13  38  1   
 26  14  16  1   
 27  14  39  1   
 28  14  40  1   
 29  15  16  1   
 30  15  41  1   
 31  15  42  1   
 32  16  17  1   
 33  17  18  1   
 34  17  19  2   
 35  18  20  1   
 36  18  21  ar  
 37  19  22  1   
 38  19  23  1   
 39  20  24  2   
 40  21  25  1   
 41  21  26  ar  
 42  22  25  2   
 43  22  27  1   
 44  23  28  1   
 45  23  43  1   
 46  23  44  1   
 47  24  26  1   
 48  24  45  1   
 49  26  46  1   
 50  27  28  1   
 51  27  47  1   
 52  27  48  1   
 53  28  49  1   
 54  28  50  1   
@<TRIPOS>SUBSTRUCTURE
  1 ****  13 GROUP 4 **** **** 0

# MOE 2024.06 (io_trps.svl 2023.06)
