@<TRIPOS>MOLECULE
1-(6,7-Dihydro-5H-cyclopenta[d][1,2,4]triazolo[1,5-a]pyrimidin-8-yl)-piperidine-4-carboxylic acid 4-fluoro-
53 57 1 0 0 
SMALL
USER_CHARGES


@<TRIPOS>ATOM
  1 F        0.2730    -3.1070     1.6750 F     1 <1>  -0.1900 
  2 C        1.3340    -2.7510     1.0020 C.ar  1 <1>   0.1900 
  3 C        1.7930    -1.4530     1.1170 C.ar  1 <1>  -0.1500 
  4 C        1.9600    -3.6860     0.2010 C.ar  1 <1>  -0.1500 
  5 C        2.9190    -1.0820     0.4020 C.ar  1 <1>  -0.1500 
  6 C        3.0860    -3.3030    -0.5100 C.ar  1 <1>  -0.1500 
  7 C        3.5670    -2.0030    -0.4130 C.ar  1 <1>  -0.1430 
  8 C        4.8050    -1.5910    -1.1890 C.3   1 <1>   0.2840 
  9 N        5.9740    -1.8340    -0.3320 N.am  1 <1>  -0.7300 
 10 C        7.2520    -1.6230    -0.7260 C.2   1 <1>   0.5690 
 11 O        7.5080    -1.2060    -1.8290 O.2   1 <1>  -0.5700 
 12 C        8.3860    -1.9220     0.2500 C.3   1 <1>  -0.0190 
 13 C        9.2710    -0.6790     0.4670 C.3   1 <1>  -0.1600 
 14 C        9.2320    -3.1110    -0.2460 C.3   1 <1>  -0.1600 
 15 C       10.4840    -0.9780     1.3500 C.3   1 <1>   0.2090 
 16 C       10.4220    -3.3880     0.6720 C.3   1 <1>   0.2090 
 17 N       11.2260    -2.1450     0.8040 N.pl3 1 <1>  -0.8380 
 18 C       12.5510    -2.0970     0.4760 C.2   1 <1>   0.4790 
 19 N       13.4270    -2.9930     1.0330 N.pl3 1 <1>  -0.3220 
 20 C       13.1140    -1.1930    -0.3990 C.2   1 <1>  -0.1240 
 21 N       13.2310    -4.0020     1.9500 N.2   1 <1>  -0.2600 
 22 C       14.7350    -2.9200     0.7280 C.cat 1 <1>   0.9620 
 23 C       14.4710    -1.2310    -0.6410 C.2   1 <1>   0.3750 
 24 C       12.4460    -0.1110    -1.2220 C.3   1 <1>  -0.0220 
 25 C       14.4010    -4.4870     2.1480 C.2   1 <1>   0.5030 
 26 N       15.3210    -2.0670    -0.1010 N.2   1 <1>  -0.6120 
 27 N       15.3550    -3.8570     1.4170 N.pl3 1 <1>  -0.7000 
 28 C       14.8790    -0.1730    -1.6340 C.3   1 <1>  -0.0990 
 29 C       13.5440     0.3480    -2.1960 C.3   1 <1>  -0.1600 
 30 H        1.2770    -0.7540     1.7510 H     1 <1>   0.1500 
 31 H        1.5720    -4.6870     0.1380 H     1 <1>   0.1500 
 32 H        3.2900    -0.0730     0.4810 H     1 <1>   0.1500 
 33 H        3.5860    -4.0210    -1.1380 H     1 <1>   0.1500 
 34 H        4.7610    -0.5470    -1.4510 H     1 <1>   0.0800 
 35 H        4.8960    -2.1650    -2.0960 H     1 <1>   0.0800 
 36 H        5.7460    -2.1940     0.5950 H     1 <1>   0.3700 
 37 H        7.9560    -2.1920     1.1980 H     1 <1>   0.0800 
 38 H        8.6870     0.1030     0.9190 H     1 <1>   0.0800 
 39 H        9.6120    -0.3110    -0.4840 H     1 <1>   0.0800 
 40 H        9.6000    -2.9050    -1.2370 H     1 <1>   0.0800 
 41 H        8.6160    -3.9910    -0.3060 H     1 <1>   0.0800 
 42 H       10.1550    -1.2110     2.3490 H     1 <1>   0.0800 
 43 H       11.1250    -0.1150     1.4060 H     1 <1>   0.0800 
 44 H       11.0210    -4.1800     0.2550 H     1 <1>   0.0800 
 45 H       10.0790    -3.6980     1.6460 H     1 <1>   0.0800 
 46 H       12.1430     0.7050    -0.5890 H     1 <1>   0.0800 
 47 H       11.5910    -0.4930    -1.7560 H     1 <1>   0.0800 
 48 H       14.6210    -5.3050     2.8190 H     1 <1>   0.1500 
 49 H       16.3590    -4.0120     1.3680 H     1 <1>   0.4500 
 50 H       15.4990    -0.5840    -2.4110 H     1 <1>   0.0800 
 51 H       15.4120     0.6110    -1.1240 H     1 <1>   0.0800 
 52 H       13.5500     1.4180    -2.3140 H     1 <1>   0.0800 
 53 H       13.3680    -0.1020    -3.1600 H     1 <1>   0.0800 
@<TRIPOS>BOND
  1   1   2  1   
  2   2   3  ar  
  3   2   4  ar  
  4   3   5  ar  
  5   3  30  1   
  6   4   6  ar  
  7   4  31  1   
  8   5   7  ar  
  9   5  32  1   
 10   6   7  ar  
 11   6  33  1   
 12   7   8  1   
 13   8   9  1   
 14   8  34  1   
 15   8  35  1   
 16   9  10  am  
 17   9  36  1   
 18  10  11  2   
 19  10  12  1   
 20  12  13  1   
 21  12  14  1   
 22  12  37  1   
 23  13  15  1   
 24  13  38  1   
 25  13  39  1   
 26  14  16  1   
 27  14  40  1   
 28  14  41  1   
 29  15  17  1   
 30  15  42  1   
 31  15  43  1   
 32  16  17  1   
 33  16  44  1   
 34  16  45  1   
 35  17  18  1   
 36  18  19  1   
 37  18  20  2   
 38  19  21  1   
 39  19  22  ar  
 40  20  23  1   
 41  20  24  1   
 42  21  25  2   
 43  22  26  1   
 44  22  27  ar  
 45  23  26  2   
 46  23  28  1   
 47  24  29  1   
 48  24  46  1   
 49  24  47  1   
 50  25  27  1   
 51  25  48  1   
 52  27  49  1   
 53  28  29  1   
 54  28  50  1   
 55  28  51  1   
 56  29  52  1   
 57  29  53  1   
@<TRIPOS>SUBSTRUCTURE
  1 ****  12 GROUP 4 **** **** 0

# MOE 2024.06 (io_trps.svl 2023.06)
