@<TRIPOS>MOLECULE
4-(2-Methoxy-benzoylamino)-piperidine-1-carboxylic acid (3-methoxy-phenyl)-amide
53 55 1 0 0 
SMALL
USER_CHARGES


@<TRIPOS>ATOM
  1 O        0.5000    -0.0430    -1.4700 O.2   1 <1>  -0.5700 
  2 C        0.9270     1.0870    -1.3260 C.2   1 <1>   0.6900 
  3 N        2.1660     1.4250    -1.8130 N.am  1 <1>  -0.6600 
  4 N        0.2090     2.0320    -0.6510 N.am  1 <1>  -0.5470 
  5 C        2.6250     2.8190    -2.0670 C.3   1 <1>   0.1400 
  6 C        3.1460     0.3800    -2.2170 C.3   1 <1>   0.1400 
  7 C       -1.0930     2.0300    -0.1330 C.ar  1 <1>   0.1170 
  8 C        3.9180     3.0660    -1.2910 C.3   1 <1>  -0.1600 
  9 C        4.4590     0.6020    -1.4630 C.3   1 <1>  -0.1600 
 10 C       -1.4100     2.9310     0.8740 C.ar  1 <1>  -0.1500 
 11 C       -2.0920     1.1780    -0.5950 C.ar  1 <1>  -0.1500 
 12 C        4.9750     2.0280    -1.6710 C.3   1 <1>   0.2200 
 13 C       -2.6810     2.9880     1.4170 C.ar  1 <1>   0.0820 
 14 C       -3.3670     1.2240    -0.0590 C.ar  1 <1>  -0.1500 
 15 N        6.1640     2.2340    -0.8360 N.am  1 <1>  -0.7300 
 16 O       -2.8850     3.9040     2.3970 O.3   1 <1>  -0.3630 
 17 C       -3.6680     2.1250     0.9460 C.ar  1 <1>  -0.1500 
 18 C        7.2280     3.0340    -1.1350 C.2   1 <1>   0.5440 
 19 C       -4.1360     4.0240     3.0360 C.3   1 <1>   0.0400 
 20 O        7.2130     3.6040    -2.2110 O.2   1 <1>  -0.5700 
 21 C        8.3480     3.2000    -0.2190 C.ar  1 <1>   0.0860 
 22 C        8.2960     2.9180     1.1610 C.ar  1 <1>   0.0820 
 23 C        9.5640     3.6690    -0.7270 C.ar  1 <1>  -0.1500 
 24 O        7.1300     2.4740     1.7030 O.3   1 <1>  -0.3620 
 25 C        9.4270     3.0980     1.9580 C.ar  1 <1>  -0.1500 
 26 C       10.6780     3.8480     0.0680 C.ar  1 <1>  -0.1500 
 27 C        6.9590     2.2370     3.0850 C.3   1 <1>   0.0400 
 28 C       10.6100     3.5600     1.4170 C.ar  1 <1>  -0.1500 
 29 H        0.7780     2.8260    -0.3840 H     1 <1>   0.3700 
 30 H        1.8780     3.5390    -1.7840 H     1 <1>   0.0800 
 31 H        2.8080     2.9360    -3.1220 H     1 <1>   0.0800 
 32 H        3.3100     0.4430    -3.2790 H     1 <1>   0.0800 
 33 H        2.7680    -0.6050    -1.9950 H     1 <1>   0.0800 
 34 H        3.7130     3.0180    -0.2360 H     1 <1>   0.0800 
 35 H        4.2880     4.0490    -1.5240 H     1 <1>   0.0800 
 36 H        5.1920    -0.0990    -1.8180 H     1 <1>   0.0800 
 37 H        4.2880     0.4190    -0.4180 H     1 <1>   0.0800 
 38 H       -0.6630     3.6020     1.2520 H     1 <1>   0.1500 
 39 H       -1.8770     0.4750    -1.3790 H     1 <1>   0.1500 
 40 H        5.2410     2.1580    -2.7080 H     1 <1>   0.0800 
 41 H       -4.1240     0.5540    -0.4290 H     1 <1>   0.1500 
 42 H        6.1140     1.8840     0.1250 H     1 <1>   0.3700 
 43 H       -4.6640     2.1410     1.3450 H     1 <1>   0.1500 
 44 H       -4.0600     4.7980     3.7780 H     1 <1>   0.0800 
 45 H       -4.3780     3.0880     3.5080 H     1 <1>   0.0800 
 46 H       -4.8780     4.2900     2.3040 H     1 <1>   0.0800 
 47 H        9.6350     3.8990    -1.7770 H     1 <1>   0.1500 
 48 H        9.4120     2.8860     3.0100 H     1 <1>   0.1500 
 49 H       11.5960     4.2110    -0.3610 H     1 <1>   0.1500 
 50 H        5.9420     1.9310     3.2500 H     1 <1>   0.0800 
 51 H        7.1560     3.1480     3.6230 H     1 <1>   0.0800 
 52 H        7.6300     1.4540     3.3920 H     1 <1>   0.0800 
 53 H       11.4770     3.6970     2.0400 H     1 <1>   0.1500 
@<TRIPOS>BOND
  1   1   2  2   
  2   2   3  am  
  3   2   4  am  
  4   3   5  1   
  5   3   6  1   
  6   4   7  1   
  7   4  29  1   
  8   5   8  1   
  9   5  30  1   
 10   5  31  1   
 11   6   9  1   
 12   6  32  1   
 13   6  33  1   
 14   7  10  ar  
 15   7  11  ar  
 16   8  12  1   
 17   8  34  1   
 18   8  35  1   
 19   9  12  1   
 20   9  36  1   
 21   9  37  1   
 22  10  13  ar  
 23  10  38  1   
 24  11  14  ar  
 25  11  39  1   
 26  12  15  1   
 27  12  40  1   
 28  13  16  1   
 29  13  17  ar  
 30  14  17  ar  
 31  14  41  1   
 32  15  18  am  
 33  15  42  1   
 34  16  19  1   
 35  17  43  1   
 36  18  20  2   
 37  18  21  1   
 38  19  44  1   
 39  19  45  1   
 40  19  46  1   
 41  21  22  ar  
 42  21  23  ar  
 43  22  24  1   
 44  22  25  ar  
 45  23  26  ar  
 46  23  47  1   
 47  24  27  1   
 48  25  28  ar  
 49  25  48  1   
 50  26  28  ar  
 51  26  49  1   
 52  27  50  1   
 53  27  51  1   
 54  27  52  1   
 55  28  53  1   
@<TRIPOS>SUBSTRUCTURE
  1 ****   8 GROUP 4 **** **** 0

# MOE 2024.06 (io_trps.svl 2023.06)
