@<TRIPOS>MOLECULE
1,4-Dioxa-8-aza-spiro[4.5]decane-8-carboxylic acid (3-acetyl-phenyl)-amide
42 44 1 0 0 
SMALL
USER_CHARGES


@<TRIPOS>ATOM
  1 O       -0.9000     0.4300    -0.0950 O.2   1 <1>  -0.5700 
  2 C       -0.6980    -0.7220     0.2400 C.2   1 <1>   0.6900 
  3 N       -1.7490    -1.5790     0.4510 N.am  1 <1>  -0.6600 
  4 N        0.5740    -1.2010     0.3770 N.am  1 <1>  -0.5470 
  5 C       -3.1260    -1.2420    -0.0070 C.3   1 <1>   0.1400 
  6 C       -1.6720    -2.8480     1.2260 C.3   1 <1>   0.1400 
  7 C        1.8230    -0.5710     0.3160 C.ar  1 <1>   0.1170 
  8 C       -3.6440    -2.3670    -0.9040 C.3   1 <1>  -0.1600 
  9 C       -2.1440    -4.0000     0.3390 C.3   1 <1>  -0.1600 
 10 C        2.9410    -1.3370     0.0220 C.ar  1 <1>  -0.1500 
 11 C        1.9980     0.7870     0.5550 C.ar  1 <1>  -0.1500 
 12 C       -3.5460    -3.7190    -0.1910 C.3   1 <1>   0.5600 
 13 C        4.2270    -0.8020    -0.0490 C.ar  1 <1>   0.0860 
 14 C        3.2560     1.3530     0.4920 C.ar  1 <1>  -0.1500 
 15 O       -4.4460    -3.7730     0.8670 O.3   1 <1>  -0.5600 
 16 O       -3.9190    -4.7480    -1.0420 O.3   1 <1>  -0.5600 
 17 C        5.3520    -1.6630    -0.3620 C.2   1 <1>   0.4230 
 18 C        4.3560     0.5690     0.1940 C.ar  1 <1>  -0.1500 
 19 C       -5.6260    -4.3490     0.4330 C.3   1 <1>   0.1200 
 20 C       -5.2730    -4.9820    -0.9000 C.3   1 <1>   0.1200 
 21 O        5.2460    -2.8530    -0.5070 O.2   1 <1>  -0.5700 
 22 C        6.7440    -1.0820    -0.5240 C.3   1 <1>  -0.1790 
 23 H        0.5970    -2.2140     0.3980 H     1 <1>   0.3700 
 24 H       -3.7650    -1.1300     0.8530 H     1 <1>   0.0800 
 25 H       -3.1320    -0.3140    -0.5530 H     1 <1>   0.0800 
 26 H       -2.3140    -2.7690     2.0870 H     1 <1>   0.0800 
 27 H       -0.6740    -3.0360     1.5790 H     1 <1>   0.0800 
 28 H       -3.0430    -2.3960    -1.7940 H     1 <1>   0.0800 
 29 H       -4.6590    -2.1640    -1.1880 H     1 <1>   0.0800 
 30 H       -1.4670    -4.1070    -0.4880 H     1 <1>   0.0800 
 31 H       -2.1520    -4.9170     0.8980 H     1 <1>   0.0800 
 32 H        2.8140    -2.3880    -0.1630 H     1 <1>   0.1500 
 33 H        1.1510     1.4050     0.7930 H     1 <1>   0.1500 
 34 H        3.3750     2.4070     0.6760 H     1 <1>   0.1500 
 35 H        5.3200     1.0420     0.1540 H     1 <1>   0.1500 
 36 H       -6.3740    -3.5840     0.3240 H     1 <1>   0.0800 
 37 H       -5.9430    -5.0810     1.1540 H     1 <1>   0.0800 
 38 H       -5.4500    -6.0420    -0.9060 H     1 <1>   0.0800 
 39 H       -5.7980    -4.5100    -1.7130 H     1 <1>   0.0800 
 40 H        6.7440    -0.3320    -1.2920 H     1 <1>   0.0800 
 41 H        7.4330    -1.8590    -0.8050 H     1 <1>   0.0800 
 42 H        7.0740    -0.6540     0.4040 H     1 <1>   0.0800 
@<TRIPOS>BOND
  1   1   2  2   
  2   2   3  am  
  3   2   4  am  
  4   3   5  1   
  5   3   6  1   
  6   4   7  1   
  7   4  23  1   
  8   5   8  1   
  9   5  24  1   
 10   5  25  1   
 11   6   9  1   
 12   6  26  1   
 13   6  27  1   
 14   7  10  ar  
 15   7  11  ar  
 16   8  12  1   
 17   8  28  1   
 18   8  29  1   
 19   9  12  1   
 20   9  30  1   
 21   9  31  1   
 22  10  13  ar  
 23  10  32  1   
 24  11  14  ar  
 25  11  33  1   
 26  12  15  1   
 27  12  16  1   
 28  13  17  1   
 29  13  18  ar  
 30  14  18  ar  
 31  14  34  1   
 32  15  19  1   
 33  16  20  1   
 34  17  21  2   
 35  17  22  1   
 36  18  35  1   
 37  19  20  1   
 38  19  36  1   
 39  19  37  1   
 40  20  38  1   
 41  20  39  1   
 42  22  40  1   
 43  22  41  1   
 44  22  42  1   
@<TRIPOS>SUBSTRUCTURE
  1 ****   4 GROUP 4 **** **** 0

# MOE 2024.06 (io_trps.svl 2023.06)
