@<TRIPOS>MOLECULE
NONAME
38 42 1 0 0 
SMALL
USER_CHARGES


@<TRIPOS>ATOM
  1 O       -0.6380    -0.7830    -1.2390 O.3   1 <1>  -0.3630 
  2 C       -1.5150    -1.0820    -0.2470 C.ar  1 <1>   0.0830 
  3 C        0.7380    -0.9360    -0.9420 C.3   1 <1>   0.1200 
  4 C       -1.1110    -1.8030     0.8800 C.ar  1 <1>   0.0830 
  5 C       -2.8260    -0.6600    -0.3640 C.ar  1 <1>  -0.1500 
  6 C        0.9700    -2.2330    -0.1540 C.3   1 <1>   0.1200 
  7 O        0.1670    -2.2510     1.0110 O.3   1 <1>  -0.3630 
  8 C       -2.0210    -2.0740     1.8870 C.ar  1 <1>  -0.1500 
  9 C       -3.7440    -0.9430     0.6380 C.ar  1 <1>   0.1000 
 10 C       -3.3310    -1.6440     1.7650 C.ar  1 <1>  -0.1500 
 11 N       -5.0690    -0.5240     0.5140 N.pl3 1 <1>  -0.6000 
 12 C       -6.2170    -1.2970     0.3460 C.2   1 <1>   0.0690 
 13 N       -7.4660    -0.6920     0.5140 N.pl3 1 <1>   0.6010 
 14 C       -6.2680    -2.6290     0.0150 C.2   1 <1>  -0.1240 
 15 N       -7.7750     0.5730     0.8190 N.2   1 <1>  -0.7070 
 16 C       -8.6240    -1.4040     0.3750 C.2   1 <1>   0.3120 
 17 C       -7.5030    -3.2820    -0.1140 C.2   1 <1>   0.3750 
 18 C       -5.1360    -3.5970    -0.2720 C.3   1 <1>  -0.0220 
 19 C       -9.0700     0.5280     0.8430 C.2   1 <1>   0.3660 
 20 N       -8.6650    -2.7360     0.0550 N.2   1 <1>  -0.5760 
 21 N       -9.6520    -0.6430     0.5830 N.2   1 <1>  -0.5650 
 22 C       -7.3090    -4.7280    -0.4890 C.3   1 <1>  -0.0990 
 23 C       -5.8310    -4.8130    -0.9050 C.3   1 <1>  -0.1600 
 24 H        1.0530    -0.0860    -0.3640 H     1 <1>   0.0800 
 25 H        1.2770    -0.9510    -1.8720 H     1 <1>   0.0800 
 26 H       -3.1320    -0.1130    -1.2360 H     1 <1>   0.1500 
 27 H        1.9970    -2.3160     0.1510 H     1 <1>   0.0800 
 28 H        0.7100    -3.0870    -0.7540 H     1 <1>   0.0800 
 29 H       -1.6990    -2.6200     2.7560 H     1 <1>   0.1500 
 30 H       -4.0420    -1.8500     2.5450 H     1 <1>   0.1500 
 31 H       -5.2310     0.4840     0.6590 H     1 <1>   0.4000 
 32 H       -4.6600    -3.8800     0.6500 H     1 <1>   0.0800 
 33 H       -4.4060    -3.1730    -0.9390 H     1 <1>   0.0800 
 34 H       -9.6750     1.3940     1.0640 H     1 <1>   0.1500 
 35 H       -7.9660    -5.0110    -1.2920 H     1 <1>   0.0800 
 36 H       -7.5020    -5.3430     0.3720 H     1 <1>   0.0800 
 37 H       -5.3780    -5.7390    -0.5980 H     1 <1>   0.0800 
 38 H       -5.7650    -4.7320    -1.9770 H     1 <1>   0.0800 
@<TRIPOS>BOND
  1   1   2  1   
  2   1   3  1   
  3   2   4  ar  
  4   2   5  ar  
  5   3   6  1   
  6   3  24  1   
  7   3  25  1   
  8   4   7  1   
  9   4   8  ar  
 10   5   9  ar  
 11   5  26  1   
 12   6   7  1   
 13   6  27  1   
 14   6  28  1   
 15   8  10  ar  
 16   8  29  1   
 17   9  10  ar  
 18   9  11  1   
 19  10  30  1   
 20  11  12  1   
 21  11  31  1   
 22  12  13  1   
 23  12  14  2   
 24  13  15  1   
 25  13  16  1   
 26  14  17  1   
 27  14  18  1   
 28  15  19  2   
 29  16  20  1   
 30  16  21  2   
 31  17  20  2   
 32  17  22  1   
 33  18  23  1   
 34  18  32  1   
 35  18  33  1   
 36  19  21  1   
 37  19  34  1   
 38  22  23  1   
 39  22  35  1   
 40  22  36  1   
 41  23  37  1   
 42  23  38  1   
@<TRIPOS>SUBSTRUCTURE
  1 ****  11 GROUP 4 **** **** 0

# MOE 2024.06 (io_trps.svl 2023.06)
