@<TRIPOS>MOLECULE
2H-Chromene-3-carboxylic acid cyclopentylcarbamoyl-p-tolyl-methyl ester
54 57 1 0 0 
SMALL
USER_CHARGES


@<TRIPOS>ATOM
  1 O       -0.3650    -0.5800     2.1050 O.2   1 <1>  -0.5700 
  2 C       -0.1960    -1.4550     1.2810 C.2   1 <1>   0.7060 
  3 O        1.0420    -1.8430     0.9870 O.3   1 <1>  -0.4300 
  4 C       -1.2730    -2.1050     0.5900 C.2   1 <1>  -0.1240 
  5 C        2.1730    -1.2080     1.5670 C.3   1 <1>   0.4040 
  6 C       -2.6660    -1.5790     0.9150 C.3   1 <1>   0.1220 
  7 C       -1.1320    -3.1150    -0.2980 C.2   1 <1>  -0.0730 
  8 C        2.4910     0.0570     0.7610 C.ar  1 <1>  -0.1440 
  9 C        3.3620    -2.1850     1.6060 C.2   1 <1>   0.5690 
 10 C       -3.7530    -2.3040     0.1370 C.ar  1 <1>  -0.1440 
 11 O       -2.1430    -3.7120    -0.9420 O.3   1 <1>  -0.1590 
 12 C        2.8610     1.2210     1.4170 C.ar  1 <1>  -0.1500 
 13 C        2.4390     0.0560    -0.6280 C.ar  1 <1>  -0.1500 
 14 O        3.3600    -3.0840     2.4160 O.2   1 <1>  -0.5700 
 15 N        4.4070    -2.0160     0.7460 N.am  1 <1>  -0.7300 
 16 C       -3.4290    -3.3300    -0.7470 C.ar  1 <1>   0.0830 
 17 C       -5.0820    -1.9480     0.3020 C.ar  1 <1>  -0.1500 
 18 C        3.1800     2.3610     0.6990 C.ar  1 <1>  -0.1500 
 19 C        2.7580     1.1960    -1.3440 C.ar  1 <1>  -0.1500 
 20 C        5.6220    -2.8370     0.6700 C.3   1 <1>   0.2200 
 21 C       -4.4240    -3.9870    -1.4520 C.ar  1 <1>  -0.1500 
 22 C       -6.0760    -2.6050    -0.4030 C.ar  1 <1>  -0.1500 
 23 C        3.1310     2.3540    -0.6850 C.ar  1 <1>  -0.1430 
 24 C        6.8270    -1.9410     0.9250 C.3   1 <1>  -0.1600 
 25 C        5.8160    -3.2780    -0.7750 C.3   1 <1>  -0.1600 
 26 C       -5.7480    -3.6250    -1.2810 C.ar  1 <1>  -0.1500 
 27 C        3.4830     3.6050    -1.4700 C.3   1 <1>  -0.0970 
 28 C        7.0920    -1.2170    -0.4000 C.3   1 <1>  -0.1600 
 29 C        6.4510    -2.0820    -1.4940 C.3   1 <1>  -0.1600 
 30 H        1.9380    -0.9550     2.5860 H     1 <1>   0.0800 
 31 H       -2.7110    -0.5290     0.6820 H     1 <1>   0.0800 
 32 H       -2.8530    -1.6970     1.9680 H     1 <1>   0.0800 
 33 H       -0.1750    -3.5310    -0.5660 H     1 <1>   0.1500 
 34 H        2.9040     1.2500     2.4920 H     1 <1>   0.1500 
 35 H        2.1490    -0.8350    -1.1590 H     1 <1>   0.1500 
 36 H        4.4030    -1.2080     0.1170 H     1 <1>   0.3700 
 37 H       -5.3510    -1.1570     0.9810 H     1 <1>   0.1500 
 38 H        3.4660     3.2550     1.2250 H     1 <1>   0.1500 
 39 H        2.7130     1.1770    -2.4190 H     1 <1>   0.1500 
 40 H        5.5690    -3.6680     1.3550 H     1 <1>   0.0800 
 41 H       -4.1590    -4.7780    -2.1310 H     1 <1>   0.1500 
 42 H       -7.1060    -2.3230    -0.2700 H     1 <1>   0.1500 
 43 H        7.6720    -2.5650     1.1580 H     1 <1>   0.0800 
 44 H        6.6640    -1.2640     1.7450 H     1 <1>   0.0800 
 45 H        4.8950    -3.5980    -1.2300 H     1 <1>   0.0800 
 46 H        6.5090    -4.1020    -0.7880 H     1 <1>   0.0800 
 47 H       -6.5220    -4.1350    -1.8280 H     1 <1>   0.1500 
 48 H        4.5350     3.6140    -1.6870 H     1 <1>   0.0800 
 49 H        3.2370     4.4850    -0.9040 H     1 <1>   0.0800 
 50 H        2.9360     3.6340    -2.3950 H     1 <1>   0.0800 
 51 H        8.1490    -1.0900    -0.5650 H     1 <1>   0.0800 
 52 H        6.6250    -0.2460    -0.3860 H     1 <1>   0.0800 
 53 H        5.6920    -1.5140    -2.0050 H     1 <1>   0.0800 
 54 H        7.1810    -2.4100    -2.2140 H     1 <1>   0.0800 
@<TRIPOS>BOND
  1   1   2  2   
  2   2   3  1   
  3   2   4  1   
  4   3   5  1   
  5   4   6  1   
  6   4   7  2   
  7   5   8  1   
  8   5   9  1   
  9   5  30  1   
 10   6  10  1   
 11   6  31  1   
 12   6  32  1   
 13   7  11  1   
 14   7  33  1   
 15   8  12  ar  
 16   8  13  ar  
 17   9  14  2   
 18   9  15  am  
 19  10  16  ar  
 20  10  17  ar  
 21  11  16  1   
 22  12  18  ar  
 23  12  34  1   
 24  13  19  ar  
 25  13  35  1   
 26  15  20  1   
 27  15  36  1   
 28  16  21  ar  
 29  17  22  ar  
 30  17  37  1   
 31  18  23  ar  
 32  18  38  1   
 33  19  23  ar  
 34  19  39  1   
 35  20  24  1   
 36  20  25  1   
 37  20  40  1   
 38  21  26  ar  
 39  21  41  1   
 40  22  26  ar  
 41  22  42  1   
 42  23  27  1   
 43  24  28  1   
 44  24  43  1   
 45  24  44  1   
 46  25  29  1   
 47  25  45  1   
 48  25  46  1   
 49  26  47  1   
 50  27  48  1   
 51  27  49  1   
 52  27  50  1   
 53  28  29  1   
 54  28  51  1   
 55  28  52  1   
 56  29  53  1   
 57  29  54  1   
@<TRIPOS>SUBSTRUCTURE
  1 ****   3 GROUP 4 **** **** 0

# MOE 2024.06 (io_trps.svl 2023.06)
