@<TRIPOS>MOLECULE
9211
51 52 1 0 0 
SMALL
USER_CHARGES


@<TRIPOS>ATOM
  1 O        0.2110    -3.9330     2.6250 O.2   1 <1>  -0.5700 
  2 C       -0.2170    -3.9870     1.5000 C.2   1 <1>   0.5690 
  3 N        0.5520    -3.7360     0.4110 N.am  1 <1>  -0.7300 
  4 C       -1.6710    -4.3510     1.2840 C.3   1 <1>  -0.0990 
  5 C        1.9700    -3.3430     0.4430 C.3   1 <1>   0.2200 
  6 C       -2.4950    -3.1570     0.7720 C.3   1 <1>  -0.1600 
  7 C        2.0820    -1.9370    -0.1630 C.3   1 <1>  -0.1600 
  8 C        2.7690    -4.4280    -0.2880 C.3   1 <1>  -0.1600 
  9 C       -3.9660    -3.5310     0.5980 C.3   1 <1>   0.1200 
 10 C        3.4480    -1.2890     0.1100 C.3   1 <1>  -0.1600 
 11 C        4.2730    -4.1440    -0.4320 C.3   1 <1>  -0.1600 
 12 O       -4.6340    -2.4150     0.0610 O.3   1 <1>  -0.3630 
 13 C        4.5380    -1.6150    -0.9230 C.3   1 <1>  -0.1600 
 14 C        4.5670    -3.0510    -1.4690 C.3   1 <1>  -0.1600 
 15 C       -5.9620    -2.4480    -0.2310 C.ar  1 <1>   0.0820 
 16 C       -6.5250    -1.3060    -0.7940 C.ar  1 <1>  -0.1430 
 17 C       -6.7630    -3.5640     0.0080 C.ar  1 <1>  -0.1500 
 18 C       -7.8730    -1.2940    -1.1120 C.ar  1 <1>  -0.1500 
 19 C       -5.6730    -0.0740    -1.0620 C.3   1 <1>  -0.0970 
 20 C       -8.1110    -3.5450    -0.3100 C.ar  1 <1>  -0.1430 
 21 C       -8.6600    -2.4060    -0.8720 C.ar  1 <1>  -0.1500 
 22 C       -8.9810    -4.7620    -0.0500 C.3   1 <1>  -0.0970 
 23 H        0.1370    -3.7730    -0.5190 H     1 <1>   0.3700 
 24 H       -2.0760    -4.6930     2.2200 H     1 <1>   0.0800 
 25 H       -1.7210    -5.1640     0.5840 H     1 <1>   0.0800 
 26 H        2.2980    -3.3040     1.4690 H     1 <1>   0.0800 
 27 H       -2.1030    -2.8270    -0.1740 H     1 <1>   0.0800 
 28 H       -2.4190    -2.3470     1.4770 H     1 <1>   0.0800 
 29 H        1.3370    -1.3200     0.3100 H     1 <1>   0.0800 
 30 H        1.8770    -1.9550    -1.2180 H     1 <1>   0.0800 
 31 H        2.3480    -4.5910    -1.2640 H     1 <1>   0.0800 
 32 H        2.6580    -5.3410     0.2710 H     1 <1>   0.0800 
 33 H       -4.4150    -3.7720     1.5470 H     1 <1>   0.0800 
 34 H       -4.0750    -4.3510    -0.0890 H     1 <1>   0.0800 
 35 H        3.7880    -1.5750     1.0910 H     1 <1>   0.0800 
 36 H        3.3240    -0.2200     0.1290 H     1 <1>   0.0800 
 37 H        4.7430    -5.0520    -0.7680 H     1 <1>   0.0800 
 38 H        4.7090    -3.8950     0.5210 H     1 <1>   0.0800 
 39 H        5.4920    -1.3980    -0.4730 H     1 <1>   0.0800 
 40 H        4.4310    -0.9460    -1.7600 H     1 <1>   0.0800 
 41 H        3.8730    -3.1360    -2.2870 H     1 <1>   0.0800 
 42 H        5.5470    -3.2230    -1.8810 H     1 <1>   0.0800 
 43 H       -6.3530    -4.4540     0.4420 H     1 <1>   0.1500 
 44 H       -8.3190    -0.4190    -1.5480 H     1 <1>   0.1500 
 45 H       -5.2430     0.2770    -0.1410 H     1 <1>   0.0800 
 46 H       -6.2580     0.7180    -1.4930 H     1 <1>   0.0800 
 47 H       -4.8780    -0.3240    -1.7410 H     1 <1>   0.0800 
 48 H       -9.7050    -2.3790    -1.1270 H     1 <1>   0.1500 
 49 H       -8.5930    -5.3370     0.7700 H     1 <1>   0.0800 
 50 H       -9.0090    -5.3820    -0.9280 H     1 <1>   0.0800 
 51 H       -9.9830    -4.4590     0.1940 H     1 <1>   0.0800 
@<TRIPOS>BOND
  1   1   2  2   
  2   2   3  am  
  3   2   4  1   
  4   3   5  1   
  5   3  23  1   
  6   4   6  1   
  7   4  24  1   
  8   4  25  1   
  9   5   7  1   
 10   5   8  1   
 11   5  26  1   
 12   6   9  1   
 13   6  27  1   
 14   6  28  1   
 15   7  10  1   
 16   7  29  1   
 17   7  30  1   
 18   8  11  1   
 19   8  31  1   
 20   8  32  1   
 21   9  12  1   
 22   9  33  1   
 23   9  34  1   
 24  10  13  1   
 25  10  35  1   
 26  10  36  1   
 27  11  14  1   
 28  11  37  1   
 29  11  38  1   
 30  12  15  1   
 31  13  14  1   
 32  13  39  1   
 33  13  40  1   
 34  14  41  1   
 35  14  42  1   
 36  15  16  ar  
 37  15  17  ar  
 38  16  18  ar  
 39  16  19  1   
 40  17  20  ar  
 41  17  43  1   
 42  18  21  ar  
 43  18  44  1   
 44  19  45  1   
 45  19  46  1   
 46  19  47  1   
 47  20  21  ar  
 48  20  22  1   
 49  21  48  1   
 50  22  49  1   
 51  22  50  1   
 52  22  51  1   
@<TRIPOS>SUBSTRUCTURE
  1 ****   6 GROUP 4 **** **** 0

# MOE 2024.06 (io_trps.svl 2023.06)
