@<TRIPOS>MOLECULE
Pyrrolidine-1,2-dicarboxylic acid 2-(2-chloro-benzylamide) 1-[(3-methoxy-phenyl)-amide]
49 51 1 0 0 
SMALL
USER_CHARGES


@<TRIPOS>ATOM
  1 CL       1.5900     1.4180     1.5030 Cl    1 <1>  -0.1770 
  2 C        0.8090     2.8290     0.8240 C.ar  1 <1>   0.1770 
  3 C        1.5380     3.7530     0.0880 C.ar  1 <1>  -0.1440 
  4 C       -0.5470     2.9910     1.0420 C.ar  1 <1>  -0.1500 
  5 C        0.8780     4.8560    -0.4340 C.ar  1 <1>  -0.1500 
  6 C        3.0260     3.5680    -0.1480 C.3   1 <1>   0.2840 
  7 C       -1.1940     4.0960     0.5180 C.ar  1 <1>  -0.1500 
  8 C       -0.4810     5.0260    -0.2200 C.ar  1 <1>  -0.1500 
  9 N        3.2100     2.6660    -1.3030 N.am  1 <1>  -0.7300 
 10 C        3.9900     1.5620    -1.4290 C.2   1 <1>   0.5690 
 11 O        4.0490     1.0390    -2.5180 O.2   1 <1>  -0.5700 
 12 C        4.7880     0.9590    -0.2450 C.3   1 <1>   0.2810 
 13 N        6.2480     1.2800    -0.2780 N.am  1 <1>  -0.6600 
 14 C        4.7370    -0.5750    -0.1770 C.3   1 <1>  -0.1600 
 15 C        6.7120     2.5330    -0.0010 C.2   1 <1>   0.6900 
 16 C        7.0600     0.0500    -0.1680 C.3   1 <1>   0.1400 
 17 C        6.0950    -0.9940     0.3790 C.3   1 <1>  -0.1600 
 18 O        5.9720     3.3670     0.4870 O.2   1 <1>  -0.5700 
 19 N        8.0110     2.8160    -0.3040 N.am  1 <1>  -0.5470 
 20 C        8.7870     3.9590    -0.0670 C.ar  1 <1>   0.1170 
 21 C        8.5400     4.8260     0.9930 C.ar  1 <1>  -0.1500 
 22 C        9.8570     4.2300    -0.9130 C.ar  1 <1>  -0.1500 
 23 C        9.3380     5.9460     1.1980 C.ar  1 <1>   0.0830 
 24 C       10.6590     5.3390    -0.7120 C.ar  1 <1>  -0.1500 
 25 O        9.1440     6.8360     2.2040 O.3   1 <1>  -0.3630 
 26 C       10.3980     6.1960     0.3420 C.ar  1 <1>  -0.1500 
 27 C        8.0390     6.7200     3.0740 C.3   1 <1>   0.0400 
 28 H       -1.0860     2.2590     1.6160 H     1 <1>   0.1500 
 29 H        1.4170     5.5880    -1.0110 H     1 <1>   0.1500 
 30 H        3.4910     3.1790     0.7380 H     1 <1>   0.0800 
 31 H        3.4900     4.5150    -0.3670 H     1 <1>   0.0800 
 32 H       -2.2500     4.2320     0.6820 H     1 <1>   0.1500 
 33 H       -0.9850     5.8860    -0.6280 H     1 <1>   0.1500 
 34 H        2.7170     2.9490    -2.1510 H     1 <1>   0.3700 
 35 H        4.3910     1.3310     0.6790 H     1 <1>   0.0800 
 36 H        4.6170    -0.9860    -1.1640 H     1 <1>   0.0800 
 37 H        3.9200    -0.9130     0.4350 H     1 <1>   0.0800 
 38 H        7.9020     0.1880     0.4890 H     1 <1>   0.0800 
 39 H        7.3990    -0.2350    -1.1500 H     1 <1>   0.0800 
 40 H        6.3710    -1.9900     0.0810 H     1 <1>   0.0800 
 41 H        6.0870    -0.9360     1.4540 H     1 <1>   0.0800 
 42 H        8.4120     2.1340    -0.9380 H     1 <1>   0.3700 
 43 H        7.7240     4.6090     1.6510 H     1 <1>   0.1500 
 44 H       10.0640     3.5720    -1.7370 H     1 <1>   0.1500 
 45 H       11.4830     5.5390    -1.3740 H     1 <1>   0.1500 
 46 H       11.0120     7.0620     0.5080 H     1 <1>   0.1500 
 47 H        8.0610     7.5500     3.7550 H     1 <1>   0.0800 
 48 H        8.1200     5.7960     3.6190 H     1 <1>   0.0800 
 49 H        7.1340     6.7450     2.4930 H     1 <1>   0.0800 
@<TRIPOS>BOND
  1   1   2  1   
  2   2   3  ar  
  3   2   4  ar  
  4   3   5  ar  
  5   3   6  1   
  6   4   7  ar  
  7   4  28  1   
  8   5   8  ar  
  9   5  29  1   
 10   6   9  1   
 11   6  30  1   
 12   6  31  1   
 13   7   8  ar  
 14   7  32  1   
 15   8  33  1   
 16   9  10  am  
 17   9  34  1   
 18  10  11  2   
 19  10  12  1   
 20  12  13  1   
 21  12  14  1   
 22  12  35  1   
 23  13  15  am  
 24  13  16  1   
 25  14  17  1   
 26  14  36  1   
 27  14  37  1   
 28  15  18  2   
 29  15  19  am  
 30  16  17  1   
 31  16  38  1   
 32  16  39  1   
 33  17  40  1   
 34  17  41  1   
 35  19  20  1   
 36  19  42  1   
 37  20  21  ar  
 38  20  22  ar  
 39  21  23  ar  
 40  21  43  1   
 41  22  24  ar  
 42  22  44  1   
 43  23  25  1   
 44  23  26  ar  
 45  24  26  ar  
 46  24  45  1   
 47  25  27  1   
 48  26  46  1   
 49  27  47  1   
 50  27  48  1   
 51  27  49  1   
@<TRIPOS>SUBSTRUCTURE
  1 ****  18 GROUP 4 **** **** 0

# MOE 2024.06 (io_trps.svl 2023.06)
