@<TRIPOS>MOLECULE
NONAME
36 37 1 0 0 
SMALL
USER_CHARGES


@<TRIPOS>ATOM
  1 O       -0.4780    -1.8970    -2.2570 O.2   1 <1>  -0.5700 
  2 C       -0.2940    -2.6730    -1.3540 C.2   1 <1>   0.5690 
  3 N        0.9550    -3.1610    -1.1660 N.am  1 <1>  -0.7300 
  4 C       -1.4580    -3.0920    -0.4490 C.3   1 <1>  -0.0190 
  5 C        1.4700    -4.1150    -0.1770 C.3   1 <1>   0.2780 
  6 C       -1.9710    -4.4990    -0.8110 C.3   1 <1>  -0.1600 
  7 C       -2.6370    -2.0990    -0.4910 C.3   1 <1>  -0.1600 
  8 C        2.8440    -3.6380     0.2370 C.2   1 <1>  -0.2880 
  9 C       -3.1070    -4.9370     0.1150 C.3   1 <1>   0.2090 
 10 C       -3.7870    -2.5340     0.4200 C.3   1 <1>   0.2090 
 11 C        3.9850    -4.3090     0.0540 C.2   1 <1>  -0.3000 
 12 N       -4.1970    -3.9250     0.0820 N.pl3 1 <1>  -0.8380 
 13 C       -5.5160    -4.2700    -0.1400 C.ar  1 <1>   0.7200 
 14 N       -6.4480    -3.4320     0.3150 N.ar  1 <1>  -0.6200 
 15 N       -5.7470    -5.4130    -0.7850 N.ar  1 <1>  -0.6200 
 16 C       -7.6950    -3.7700     0.0960 C.ar  1 <1>   0.1600 
 17 C       -7.0030    -5.7250    -0.9910 C.ar  1 <1>   0.1600 
 18 C       -8.0330    -4.9250    -0.5640 C.ar  1 <1>  -0.1500 
 19 H        1.6580    -2.8200    -1.8250 H     1 <1>   0.3700 
 20 H       -1.0970    -3.1060     0.5630 H     1 <1>   0.0800 
 21 H        1.5350    -5.0920    -0.6250 H     1 <1>   0.0800 
 22 H        0.8270    -4.1690     0.6830 H     1 <1>   0.0800 
 23 H       -1.1730    -5.2150    -0.7450 H     1 <1>   0.0800 
 24 H       -2.3320    -4.5040    -1.8250 H     1 <1>   0.0800 
 25 H       -3.0120    -2.0210    -1.4970 H     1 <1>   0.0800 
 26 H       -2.2990    -1.1220    -0.1930 H     1 <1>   0.0800 
 27 H        2.8130    -2.6690     0.7080 H     1 <1>   0.1500 
 28 H       -2.7460    -5.0210     1.1250 H     1 <1>   0.0800 
 29 H       -3.4590    -5.9080    -0.1880 H     1 <1>   0.0800 
 30 H       -4.6040    -1.8450     0.2930 H     1 <1>   0.0800 
 31 H       -3.4790    -2.5000     1.4510 H     1 <1>   0.0800 
 32 H        4.9510    -3.9430     0.3580 H     1 <1>   0.1500 
 33 H        4.0560    -5.2770    -0.4140 H     1 <1>   0.1500 
 34 H       -8.4660    -3.1090     0.4530 H     1 <1>   0.1500 
 35 H       -7.2140    -6.6420    -1.5150 H     1 <1>   0.1500 
 36 H       -9.0580    -5.1910    -0.7380 H     1 <1>   0.1500 
@<TRIPOS>BOND
  1   1   2  2   
  2   2   3  am  
  3   2   4  1   
  4   3   5  1   
  5   3  19  1   
  6   4   6  1   
  7   4   7  1   
  8   4  20  1   
  9   5   8  1   
 10   5  21  1   
 11   5  22  1   
 12   6   9  1   
 13   6  23  1   
 14   6  24  1   
 15   7  10  1   
 16   7  25  1   
 17   7  26  1   
 18   8  11  2   
 19   8  27  1   
 20   9  12  1   
 21   9  28  1   
 22   9  29  1   
 23  10  12  1   
 24  10  30  1   
 25  10  31  1   
 26  11  32  1   
 27  11  33  1   
 28  12  13  1   
 29  13  14  ar  
 30  13  15  ar  
 31  14  16  ar  
 32  15  17  ar  
 33  16  18  ar  
 34  16  34  1   
 35  17  18  ar  
 36  17  35  1   
 37  18  36  1   
@<TRIPOS>SUBSTRUCTURE
  1 ****   6 GROUP 4 **** **** 0

# MOE 2024.06 (io_trps.svl 2023.06)
