@<TRIPOS>MOLECULE
764
31 33 1 0 0 
SMALL
USER_CHARGES


@<TRIPOS>ATOM
  1 O        0.3180    -0.4060     0.4680 O.co2 1 <1>  -0.9000 
  2 C        0.8400    -1.4620     0.1130 C.2   1 <1>   0.9060 
  3 O        1.9470    -1.5390    -0.4420 O.co2 1 <1>  -0.9000 
  4 C        0.1200    -2.8000     0.3180 C.3   1 <1>   0.3170 
  5 N        0.7510    -3.8790    -0.5460 N.4   1 <1>  -0.9060 
  6 C       -1.3900    -2.7140     0.0450 C.3   1 <1>   0.0210 
  7 C        0.3340    -5.2500    -0.2550 C.3   1 <1>   0.6030 
  8 C       -1.9480    -4.1240    -0.0380 C.2   1 <1>  -0.1810 
  9 C       -1.1790    -5.2320    -0.1640 C.2   1 <1>  -0.3320 
 10 C        0.9590    -5.7100     1.0550 C.3   1 <1>  -0.2400 
 11 C       -3.2990    -4.5260     0.0020 C.ar  1 <1>   0.0000 
 12 N       -1.9870    -6.3380    -0.1970 N.pl3 1 <1>   0.0330 
 13 C       -3.2890    -5.9140    -0.0980 C.ar  1 <1>  -0.1520 
 14 C       -4.5160    -3.8480     0.1130 C.ar  1 <1>  -0.1500 
 15 C       -4.4820    -6.6410    -0.0880 C.ar  1 <1>  -0.1500 
 16 C       -5.6900    -4.5650     0.1230 C.ar  1 <1>  -0.1500 
 17 C       -5.6740    -5.9610     0.0230 C.ar  1 <1>  -0.1500 
 18 H        0.2580    -3.0600     1.3510 H     1 <1>   0.0800 
 19 H        0.4940    -3.6400    -1.5050 H     1 <1>   0.4500 
 20 H        1.7650    -3.6900    -0.4940 H     1 <1>   0.4500 
 21 H       -1.8620    -2.1670     0.8420 H     1 <1>   0.0800 
 22 H       -1.5740    -2.1870    -0.8740 H     1 <1>   0.0800 
 23 H        0.6490    -5.8980    -1.0570 H     1 <1>   0.0800 
 24 H        0.5980    -5.1230     1.8810 H     1 <1>   0.0800 
 25 H        2.0300    -5.6440     1.0050 H     1 <1>   0.0800 
 26 H        0.6920    -6.7350     1.2380 H     1 <1>   0.0800 
 27 H       -1.7120    -7.3230    -0.2760 H     1 <1>   0.2700 
 28 H       -4.5170    -2.7760     0.1900 H     1 <1>   0.1500 
 29 H       -4.4650    -7.7130    -0.1650 H     1 <1>   0.1500 
 30 H       -6.6360    -4.0580     0.2090 H     1 <1>   0.1500 
 31 H       -6.6070    -6.4970     0.0330 H     1 <1>   0.1500 
@<TRIPOS>BOND
  1   1   2  ar  
  2   2   3  ar  
  3   2   4  1   
  4   4   5  1   
  5   4   6  1   
  6   4  18  1   
  7   5   7  1   
  8   5  19  1   
  9   5  20  1   
 10   6   8  1   
 11   6  21  1   
 12   6  22  1   
 13   7   9  1   
 14   7  10  1   
 15   7  23  1   
 16   8   9  2   
 17   8  11  1   
 18   9  12  1   
 19  10  24  1   
 20  10  25  1   
 21  10  26  1   
 22  11  13  ar  
 23  11  14  ar  
 24  12  13  1   
 25  12  27  1   
 26  13  15  ar  
 27  14  16  ar  
 28  14  28  1   
 29  15  17  ar  
 30  15  29  1   
 31  16  17  ar  
 32  16  30  1   
 33  17  31  1   
@<TRIPOS>SUBSTRUCTURE
  1 ****   8 GROUP 4 **** **** 0

# MOE 2024.06 (io_trps.svl 2023.06)
