@<TRIPOS>MOLECULE
NONAME
55 59 1 0 0 
SMALL
USER_CHARGES


@<TRIPOS>ATOM
  1 S       -0.1530    -0.9620     0.9060 S.o2  1 <1>   1.4470 
  2 O       -1.1350    -1.7630     1.6110 O.2   1 <1>  -0.6500 
  3 O        1.1250    -0.7480     1.5470 O.2   1 <1>  -0.6500 
  4 N        0.1590    -1.7020    -0.5930 N.am  1 <1>  -0.8490 
  5 C       -0.8500     0.6770     0.5330 C.ar  1 <1>  -0.0090 
  6 C       -0.9940    -2.3370    -1.2790 C.3   1 <1>   0.3370 
  7 C        1.1430    -2.7790    -0.4950 C.3   1 <1>   0.1960 
  8 C       -1.4350     1.4240     1.5550 C.ar  1 <1>  -0.1500 
  9 C       -0.7990     1.2380    -0.7440 C.ar  1 <1>  -0.1500 
 10 C       -2.3610    -1.6110    -1.3550 C.2   1 <1>   0.5690 
 11 C       -1.0570    -3.7690    -0.7340 C.3   1 <1>  -0.1600 
 12 C        0.3480    -4.0480    -0.2030 C.3   1 <1>  -0.1600 
 13 C       -1.9620     2.6840     1.3200 C.ar  1 <1>  -0.1500 
 14 C       -1.3250     2.4930    -1.0010 C.ar  1 <1>  -0.1500 
 15 O       -2.6860    -1.1410    -2.4200 O.2   1 <1>  -0.5700 
 16 N       -3.1640    -1.5380    -0.2560 N.am  1 <1>  -0.7300 
 17 C       -1.8980     3.1950     0.0400 C.ar  1 <1>   0.1900 
 18 C       -4.5180    -0.9800    -0.1260 C.3   1 <1>   0.3000 
 19 F       -2.3970     4.3780    -0.1930 F     1 <1>  -0.1900 
 20 C       -5.5140    -1.7810    -0.9840 C.3   1 <1>  -0.1600 
 21 C       -4.5600     0.5050    -0.5310 C.3   1 <1>  -0.1600 
 22 C       -4.9210    -1.1020     1.3550 C.3   1 <1>  -0.1600 
 23 C       -6.9400    -1.2290    -0.7890 C.3   1 <1>  -0.0800 
 24 C       -5.9810     1.0670    -0.3350 C.3   1 <1>  -0.0800 
 25 C       -6.3440    -0.5500     1.5690 C.3   1 <1>  -0.0800 
 26 C       -6.9660     0.2570    -1.2000 C.3   1 <1>  -0.1600 
 27 C       -7.3310    -1.3480     0.6960 C.3   1 <1>  -0.1600 
 28 C       -6.3770     0.9320     1.1470 C.3   1 <1>  -0.1600 
 29 H       -0.6890    -2.4350    -2.3080 H     1 <1>   0.0800 
 30 H        1.9000    -2.5950     0.2490 H     1 <1>   0.0800 
 31 H        1.6330    -2.8790    -1.4490 H     1 <1>   0.0800 
 32 H       -1.4760     1.0120     2.5490 H     1 <1>   0.1500 
 33 H       -0.3450     0.6910    -1.5530 H     1 <1>   0.1500 
 34 H       -1.3350    -4.4530    -1.5160 H     1 <1>   0.0800 
 35 H       -1.7760    -3.8500     0.0620 H     1 <1>   0.0800 
 36 H        0.3180    -4.2170     0.8600 H     1 <1>   0.0800 
 37 H        0.8010    -4.9010    -0.6780 H     1 <1>   0.0800 
 38 H       -2.4130     3.2590     2.1090 H     1 <1>   0.1500 
 39 H       -1.2930     2.9190    -1.9880 H     1 <1>   0.1500 
 40 H       -2.7810    -1.8790     0.6360 H     1 <1>   0.3700 
 41 H       -5.2440    -1.7040    -2.0230 H     1 <1>   0.0800 
 42 H       -5.4860    -2.8190    -0.7050 H     1 <1>   0.0800 
 43 H       -4.2800     0.6200    -1.5620 H     1 <1>   0.0800 
 44 H       -3.8700     1.0640     0.0690 H     1 <1>   0.0800 
 45 H       -4.2290    -0.5510     1.9670 H     1 <1>   0.0800 
 46 H       -4.8930    -2.1340     1.6580 H     1 <1>   0.0800 
 47 H       -7.6320    -1.7870    -1.3960 H     1 <1>   0.0800 
 48 H       -6.0050     2.1030    -0.6270 H     1 <1>   0.0800 
 49 H       -6.6190    -0.6400     2.6070 H     1 <1>   0.0800 
 50 H       -7.9610     0.6500    -1.0830 H     1 <1>   0.0800 
 51 H       -6.6990     0.3510    -2.2390 H     1 <1>   0.0800 
 52 H       -7.3260    -2.3830     0.9920 H     1 <1>   0.0800 
 53 H       -8.3290    -0.9730     0.8400 H     1 <1>   0.0800 
 54 H       -7.3650     1.3310     1.2970 H     1 <1>   0.0800 
 55 H       -5.7000     1.5020     1.7590 H     1 <1>   0.0800 
@<TRIPOS>BOND
  1   1   2  2   
  2   1   3  2   
  3   1   4  am  
  4   1   5  1   
  5   4   6  1   
  6   4   7  1   
  7   5   8  ar  
  8   5   9  ar  
  9   6  10  1   
 10   6  11  1   
 11   6  29  1   
 12   7  12  1   
 13   7  30  1   
 14   7  31  1   
 15   8  13  ar  
 16   8  32  1   
 17   9  14  ar  
 18   9  33  1   
 19  10  15  2   
 20  10  16  am  
 21  11  12  1   
 22  11  34  1   
 23  11  35  1   
 24  12  36  1   
 25  12  37  1   
 26  13  17  ar  
 27  13  38  1   
 28  14  17  ar  
 29  14  39  1   
 30  16  18  1   
 31  16  40  1   
 32  17  19  1   
 33  18  20  1   
 34  18  21  1   
 35  18  22  1   
 36  20  23  1   
 37  20  41  1   
 38  20  42  1   
 39  21  24  1   
 40  21  43  1   
 41  21  44  1   
 42  22  25  1   
 43  22  45  1   
 44  22  46  1   
 45  23  26  1   
 46  23  27  1   
 47  23  47  1   
 48  24  26  1   
 49  24  28  1   
 50  24  48  1   
 51  25  27  1   
 52  25  28  1   
 53  25  49  1   
 54  26  50  1   
 55  26  51  1   
 56  27  52  1   
 57  27  53  1   
 58  28  54  1   
 59  28  55  1   
@<TRIPOS>SUBSTRUCTURE
  1 ****  16 GROUP 4 **** **** 0

# MOE 2024.06 (io_trps.svl 2023.06)
