@<TRIPOS>MOLECULE
1-(1-Phenyl-1H-tetrazol-5-yl)-piperidine-4-carboxylic acid sec-butylamide
48 50 1 0 0 
SMALL
USER_CHARGES


@<TRIPOS>ATOM
  1 O        0.8640    -1.3920    -1.9380 O.2   1 <1>  -0.5700 
  2 C        0.0360    -1.7930    -1.1570 C.2   1 <1>   0.5690 
  3 N        0.3570    -2.1890     0.1020 N.am  1 <1>  -0.7300 
  4 C       -1.4220    -1.8540    -1.5980 C.3   1 <1>  -0.0190 
  5 C        1.7060    -2.1960     0.6780 C.3   1 <1>   0.2200 
  6 C       -2.2890    -0.8590    -0.8030 C.3   1 <1>  -0.1600 
  7 C       -1.9910    -3.2830    -1.4930 C.3   1 <1>  -0.1600 
  8 C        2.0960    -3.6540     0.9560 C.3   1 <1>  -0.1600 
  9 C        1.6690    -1.3350     1.9400 C.3   1 <1>  -0.2400 
 10 C       -3.7600    -0.9430    -1.2120 C.3   1 <1>   0.2090 
 11 C       -3.4780    -3.3360    -1.8550 C.3   1 <1>   0.2090 
 12 C        3.5400    -3.8130     1.4530 C.3   1 <1>  -0.2400 
 13 N       -4.2370    -2.3430    -1.0440 N.pl3 1 <1>  -0.8220 
 14 C       -4.7380    -2.7390     0.2140 C.2   1 <1>   0.2700 
 15 N       -4.2660    -3.7260     0.8930 N.2   1 <1>  -0.3380 
 16 N       -5.7450    -2.1670     0.9090 N.pl3 1 <1>   0.5930 
 17 N       -4.9600    -3.7610     2.0260 N.2   1 <1>   0.0000 
 18 N       -5.8410    -2.8360     2.0580 N.2   1 <1>  -0.4180 
 19 C       -6.5980    -1.0790     0.5600 C.ar  1 <1>  -0.0230 
 20 C       -7.1410    -0.9770    -0.7190 C.ar  1 <1>  -0.1500 
 21 C       -6.9040    -0.0910     1.4930 C.ar  1 <1>  -0.1500 
 22 C       -7.9580     0.0870    -1.0580 C.ar  1 <1>  -0.1500 
 23 C       -7.7200     0.9730     1.1550 C.ar  1 <1>  -0.1500 
 24 C       -8.2470     1.0640    -0.1220 C.ar  1 <1>  -0.1500 
 25 H       -0.3800    -2.5310     0.7180 H     1 <1>   0.3700 
 26 H       -1.4540    -1.5630    -2.6340 H     1 <1>   0.0800 
 27 H        2.4000    -1.7670    -0.0280 H     1 <1>   0.0800 
 28 H       -1.9310     0.1410    -0.9720 H     1 <1>   0.0800 
 29 H       -2.2130    -1.0600     0.2510 H     1 <1>   0.0800 
 30 H       -1.8730    -3.6590    -0.4940 H     1 <1>   0.0800 
 31 H       -1.4450    -3.9350    -2.1510 H     1 <1>   0.0800 
 32 H        1.9960    -4.2090     0.0400 H     1 <1>   0.0800 
 33 H        1.4250    -4.0790     1.6810 H     1 <1>   0.0800 
 34 H        1.0240    -1.7710     2.6810 H     1 <1>   0.0800 
 35 H        1.3200    -0.3480     1.6970 H     1 <1>   0.0800 
 36 H        2.6560    -1.2420     2.3540 H     1 <1>   0.0800 
 37 H       -3.8750    -0.6500    -2.2420 H     1 <1>   0.0800 
 38 H       -4.3400    -0.2670    -0.6080 H     1 <1>   0.0800 
 39 H       -3.8640    -4.3270    -1.6760 H     1 <1>   0.0800 
 40 H       -3.6110    -3.1120    -2.8990 H     1 <1>   0.0800 
 41 H        4.2280    -3.3630     0.7570 H     1 <1>   0.0800 
 42 H        3.7820    -4.8570     1.5430 H     1 <1>   0.0800 
 43 H        3.6700    -3.3550     2.4170 H     1 <1>   0.0800 
 44 H       -6.9230    -1.7320    -1.4560 H     1 <1>   0.1500 
 45 H       -6.5040    -0.1560     2.4910 H     1 <1>   0.1500 
 46 H       -8.3720     0.1550    -2.0490 H     1 <1>   0.1500 
 47 H       -7.9500     1.7300     1.8850 H     1 <1>   0.1500 
 48 H       -8.8830     1.8920    -0.3850 H     1 <1>   0.1500 
@<TRIPOS>BOND
  1   1   2  2   
  2   2   3  am  
  3   2   4  1   
  4   3   5  1   
  5   3  25  1   
  6   4   6  1   
  7   4   7  1   
  8   4  26  1   
  9   5   8  1   
 10   5   9  1   
 11   5  27  1   
 12   6  10  1   
 13   6  28  1   
 14   6  29  1   
 15   7  11  1   
 16   7  30  1   
 17   7  31  1   
 18   8  12  1   
 19   8  32  1   
 20   8  33  1   
 21   9  34  1   
 22   9  35  1   
 23   9  36  1   
 24  10  13  1   
 25  10  37  1   
 26  10  38  1   
 27  11  13  1   
 28  11  39  1   
 29  11  40  1   
 30  12  41  1   
 31  12  42  1   
 32  12  43  1   
 33  13  14  1   
 34  14  15  2   
 35  14  16  1   
 36  15  17  1   
 37  16  18  1   
 38  16  19  1   
 39  17  18  2   
 40  19  20  ar  
 41  19  21  ar  
 42  20  22  ar  
 43  20  44  1   
 44  21  23  ar  
 45  21  45  1   
 46  22  24  ar  
 47  22  46  1   
 48  23  24  ar  
 49  23  47  1   
 50  24  48  1   
@<TRIPOS>SUBSTRUCTURE
  1 ****  13 GROUP 4 **** **** 0

# MOE 2024.06 (io_trps.svl 2023.06)
