@<TRIPOS>MOLECULE
NONAME
54 57 1 0 0 
SMALL
USER_CHARGES


@<TRIPOS>ATOM
  1 O        1.3020     0.9600    -0.5520 O.3   1 <1>  -0.5600 
  2 C        1.7730     1.6210     0.5920 C.3   1 <1>   0.1200 
  3 C        1.1770    -0.4270    -0.3980 C.3   1 <1>   0.1200 
  4 C        3.1480     1.0560     1.0220 C.3   1 <1>   0.3430 
  5 C        2.5500    -1.0600    -0.0670 C.3   1 <1>   0.3430 
  6 N        3.6230     0.0010     0.0500 N.4   1 <1>  -0.9590 
  7 C        5.0100    -0.4830     0.3660 C.3   1 <1>   0.3430 
  8 C        5.6430    -1.3240    -0.7690 C.3   1 <1>   0.1860 
  9 N        7.0730    -1.6470    -0.4870 N.pl3 1 <1>  -0.1460 
 10 C        7.6550    -2.8240    -0.1780 C.cat 1 <1>   0.3950 
 11 N        9.0220    -2.7920     0.0100 N.pl3 1 <1>   0.5610 
 12 C        7.0230    -4.0710    -0.0270 C.2   1 <1>  -0.1360 
 13 N        9.8080    -1.6880    -0.0780 N.2   1 <1>  -0.7070 
 14 C        9.7490    -3.9030     0.3220 C.2   1 <1>  -0.0680 
 15 C        7.7460    -5.1990     0.2940 C.2   1 <1>  -0.0380 
 16 C       11.0270    -2.1230     0.1570 C.2   1 <1>   0.2350 
 17 N        9.0810    -5.1200     0.4670 N.pl3 1 <1>  -0.5840 
 18 C       11.0320    -3.5000     0.4180 C.2   1 <1>  -0.1500 
 19 C        7.1050    -6.5630     0.4670 C.3   1 <1>  -0.1020 
 20 C       12.2070    -1.2840     0.1460 C.ar  1 <1>   0.0540 
 21 C       12.1530     0.0420     0.5730 C.ar  1 <1>  -0.1500 
 22 C       13.4400    -1.7670    -0.2940 C.ar  1 <1>  -0.1500 
 23 C       13.2760     0.8470     0.5660 C.ar  1 <1>  -0.1500 
 24 C       14.5690    -0.9680    -0.3040 C.ar  1 <1>  -0.1500 
 25 C       14.4930     0.3520     0.1290 C.ar  1 <1>   0.0830 
 26 O       15.5460     1.2030     0.1530 O.3   1 <1>  -0.3630 
 27 C       16.8260     0.8040    -0.2850 C.3   1 <1>   0.0400 
 28 H        1.0470     1.5140     1.3800 H     1 <1>   0.0800 
 29 H        1.8570     2.6680     0.3540 H     1 <1>   0.0800 
 30 H        0.7910    -0.8270    -1.3200 H     1 <1>   0.0800 
 31 H        0.4590    -0.6270     0.3800 H     1 <1>   0.0800 
 32 H        3.0600     0.6390     2.0130 H     1 <1>   0.0800 
 33 H        3.8550     1.8680     1.0720 H     1 <1>   0.0800 
 34 H        2.7980    -1.7630    -0.8450 H     1 <1>   0.0800 
 35 H        2.4640    -1.6100     0.8560 H     1 <1>   0.0800 
 36 H        3.5830     0.5010    -0.8570 H     1 <1>   0.4500 
 37 H        4.9810    -1.0670     1.2730 H     1 <1>   0.0800 
 38 H        5.6360     0.3780     0.5440 H     1 <1>   0.0800 
 39 H        5.6010    -0.7700    -1.6920 H     1 <1>   0.0800 
 40 H        5.0880    -2.2350    -0.8970 H     1 <1>   0.0800 
 41 H        7.7430    -0.8610    -0.5910 H     1 <1>   0.4000 
 42 H        5.9630    -4.1640    -0.1630 H     1 <1>   0.1500 
 43 H        9.6350    -5.9580     0.7070 H     1 <1>   0.4000 
 44 H       11.8990    -4.0920     0.6530 H     1 <1>   0.1500 
 45 H        7.2880    -6.9340     1.4600 H     1 <1>   0.0800 
 46 H        7.5230    -7.2580    -0.2410 H     1 <1>   0.0800 
 47 H        6.0430    -6.5200     0.3110 H     1 <1>   0.0800 
 48 H       11.2190     0.4470     0.9180 H     1 <1>   0.1500 
 49 H       13.5200    -2.7820    -0.6410 H     1 <1>   0.1500 
 50 H       13.2220     1.8680     0.9000 H     1 <1>   0.1500 
 51 H       15.4950    -1.3850    -0.6520 H     1 <1>   0.1500 
 52 H       17.4910     1.6420    -0.1780 H     1 <1>   0.0800 
 53 H       16.7660     0.5140    -1.3190 H     1 <1>   0.0800 
 54 H       17.1650    -0.0130     0.3270 H     1 <1>   0.0800 
@<TRIPOS>BOND
  1   1   2  1   
  2   1   3  1   
  3   2   4  1   
  4   2  28  1   
  5   2  29  1   
  6   3   5  1   
  7   3  30  1   
  8   3  31  1   
  9   4   6  1   
 10   4  32  1   
 11   4  33  1   
 12   5   6  1   
 13   5  34  1   
 14   5  35  1   
 15   6   7  1   
 16   6  36  1   
 17   7   8  1   
 18   7  37  1   
 19   7  38  1   
 20   8   9  1   
 21   8  39  1   
 22   8  40  1   
 23   9  10  ar  
 24   9  41  1   
 25  10  11  ar  
 26  10  12  1   
 27  11  13  1   
 28  11  14  1   
 29  12  15  2   
 30  12  42  1   
 31  13  16  2   
 32  14  17  1   
 33  14  18  2   
 34  15  17  1   
 35  15  19  1   
 36  16  18  1   
 37  16  20  1   
 38  17  43  1   
 39  18  44  1   
 40  19  45  1   
 41  19  46  1   
 42  19  47  1   
 43  20  21  ar  
 44  20  22  ar  
 45  21  23  ar  
 46  21  48  1   
 47  22  24  ar  
 48  22  49  1   
 49  23  25  ar  
 50  23  50  1   
 51  24  25  ar  
 52  24  51  1   
 53  25  26  1   
 54  26  27  1   
 55  27  52  1   
 56  27  53  1   
 57  27  54  1   
@<TRIPOS>SUBSTRUCTURE
  1 ****  13 GROUP 4 **** **** 0

# MOE 2024.06 (io_trps.svl 2023.06)
