@<TRIPOS>MOLECULE
4-Benzoylamino-piperidine-1-carboxylic acid m-tolylamide
48 50 1 0 0 
SMALL
USER_CHARGES


@<TRIPOS>ATOM
  1 O        0.8620     0.2720     0.1920 O.2   1 <1>  -0.5700 
  2 C        0.9960     1.3280    -0.3990 C.2   1 <1>   0.6900 
  3 N        2.1050     1.5470    -1.1800 N.am  1 <1>  -0.6600 
  4 N        0.0450     2.3050    -0.3250 N.am  1 <1>  -0.5470 
  5 C        2.6700     2.8970    -1.4580 C.3   1 <1>   0.1400 
  6 C        2.9900     0.4160    -1.5770 C.3   1 <1>   0.1400 
  7 C       -1.1010     2.4400     0.4710 C.ar  1 <1>   0.1170 
  8 C        4.0130     3.0410    -0.7380 C.3   1 <1>  -0.1600 
  9 C        4.3320     0.5400    -0.8540 C.3   1 <1>  -0.1600 
 10 C       -2.1150     3.2900     0.0450 C.ar  1 <1>  -0.1500 
 11 C       -1.2620     1.7760     1.6830 C.ar  1 <1>  -0.1500 
 12 C        4.9620     1.9060    -1.1240 C.3   1 <1>   0.2200 
 13 C       -3.2620     3.4780     0.7980 C.ar  1 <1>  -0.1440 
 14 C       -2.4040     1.9550     2.4410 C.ar  1 <1>  -0.1500 
 15 N        6.2000     2.0290    -0.3390 N.am  1 <1>  -0.7300 
 16 C       -3.4030     2.8050     2.0000 C.ar  1 <1>  -0.1500 
 17 C       -4.3650     4.4060     0.3210 C.3   1 <1>  -0.0970 
 18 C        7.3690     2.5740    -0.7920 C.2   1 <1>   0.5440 
 19 O        7.3970     3.0260    -1.9200 O.2   1 <1>  -0.5700 
 20 C        8.5410     2.6310     0.0660 C.ar  1 <1>   0.0860 
 21 C        8.7570     1.7030     1.0880 C.ar  1 <1>  -0.1500 
 22 C        9.5030     3.6280    -0.1040 C.ar  1 <1>  -0.1500 
 23 C        9.8690     1.7760     1.9080 C.ar  1 <1>  -0.1500 
 24 C       10.6170     3.7070     0.7120 C.ar  1 <1>  -0.1500 
 25 C       10.8010     2.7810     1.7220 C.ar  1 <1>  -0.1500 
 26 H        0.1400     2.9890    -1.0650 H     1 <1>   0.3700 
 27 H        2.0080     3.6740    -1.1200 H     1 <1>   0.0800 
 28 H        2.8100     3.0080    -2.5200 H     1 <1>   0.0800 
 29 H        3.1420     0.4480    -2.6430 H     1 <1>   0.0800 
 30 H        2.5320    -0.5290    -1.3380 H     1 <1>   0.0800 
 31 H        3.8400     3.0340     0.3230 H     1 <1>   0.0800 
 32 H        4.4580     3.9820    -1.0070 H     1 <1>   0.0800 
 33 H        4.9900    -0.2360    -1.1990 H     1 <1>   0.0800 
 34 H        4.1630     0.4050     0.2000 H     1 <1>   0.0800 
 35 H       -2.0050     3.8070    -0.8900 H     1 <1>   0.1500 
 36 H       -0.4930     1.1170     2.0410 H     1 <1>   0.1500 
 37 H        5.1930     1.9820    -2.1750 H     1 <1>   0.0800 
 38 H       -2.5160     1.4320     3.3750 H     1 <1>   0.1500 
 39 H        6.1140     1.7820     0.6460 H     1 <1>   0.3700 
 40 H       -4.2900     2.9380     2.5950 H     1 <1>   0.1500 
 41 H       -4.0350     4.9990    -0.5130 H     1 <1>   0.0800 
 42 H       -4.6570     5.0680     1.1150 H     1 <1>   0.0800 
 43 H       -5.2190     3.8280     0.0170 H     1 <1>   0.0800 
 44 H        8.0520     0.9060     1.2400 H     1 <1>   0.1500 
 45 H        9.3690     4.3510    -0.8910 H     1 <1>   0.1500 
 46 H       10.0140     1.0510     2.6900 H     1 <1>   0.1500 
 47 H       11.3420     4.4880     0.5590 H     1 <1>   0.1500 
 48 H       11.6670     2.8400     2.3580 H     1 <1>   0.1500 
@<TRIPOS>BOND
  1   1   2  2   
  2   2   3  am  
  3   2   4  am  
  4   3   5  1   
  5   3   6  1   
  6   4   7  1   
  7   4  26  1   
  8   5   8  1   
  9   5  27  1   
 10   5  28  1   
 11   6   9  1   
 12   6  29  1   
 13   6  30  1   
 14   7  10  ar  
 15   7  11  ar  
 16   8  12  1   
 17   8  31  1   
 18   8  32  1   
 19   9  12  1   
 20   9  33  1   
 21   9  34  1   
 22  10  13  ar  
 23  10  35  1   
 24  11  14  ar  
 25  11  36  1   
 26  12  15  1   
 27  12  37  1   
 28  13  16  ar  
 29  13  17  1   
 30  14  16  ar  
 31  14  38  1   
 32  15  18  am  
 33  15  39  1   
 34  16  40  1   
 35  17  41  1   
 36  17  42  1   
 37  17  43  1   
 38  18  19  2   
 39  18  20  1   
 40  20  21  ar  
 41  20  22  ar  
 42  21  23  ar  
 43  21  44  1   
 44  22  24  ar  
 45  22  45  1   
 46  23  25  ar  
 47  23  46  1   
 48  24  25  ar  
 49  24  47  1   
 50  25  48  1   
@<TRIPOS>SUBSTRUCTURE
  1 ****   8 GROUP 4 **** **** 0

# MOE 2024.06 (io_trps.svl 2023.06)
