@<TRIPOS>MOLECULE
3-(2-Cyclobutanecarbonyl-6,7-dimethoxy-1,2,3,4-tetrahydro-isoquinolin-1-yl)-8-methyl-1H-quinolin-2-one
60 64 1 0 0 
SMALL
USER_CHARGES


@<TRIPOS>ATOM
  1 O        1.6430     1.0450    -2.2950 O.2   1 <1>  -0.5700 
  2 C        2.1370     1.2200    -1.1950 C.2   1 <1>   0.6160 
  3 N        3.1850     0.4250    -0.8490 N.am  1 <1>  -0.5470 
  4 C        1.6580     2.1660    -0.2330 C.2   1 <1>  -0.1240 
  5 C        3.7960     0.4440     0.4000 C.ar  1 <1>   0.1170 
  6 C        2.2280     2.2150     1.0010 C.2   1 <1>  -0.1780 
  7 C        0.5170     3.0760    -0.6920 C.3   1 <1>   0.5020 
  8 C        3.3110     1.3490     1.3590 C.ar  1 <1>   0.0280 
  9 C        4.8610    -0.4070     0.7130 C.ar  1 <1>  -0.1440 
 10 N        0.7820     4.4850    -0.2400 N.am  1 <1>  -0.6600 
 11 C       -0.8590     2.5460    -0.2380 C.ar  1 <1>  -0.1430 
 12 C        3.9040     1.3750     2.6210 C.ar  1 <1>  -0.1500 
 13 C        5.4290    -0.3560     1.9710 C.ar  1 <1>  -0.1500 
 14 C        5.4040    -1.3900    -0.3160 C.3   1 <1>  -0.0970 
 15 C        1.6540     5.2520    -0.9700 C.2   1 <1>   0.5770 
 16 C        0.0380     4.9550     0.9650 C.3   1 <1>   0.1400 
 17 C       -1.7800     3.3490     0.4250 C.ar  1 <1>  -0.1430 
 18 C       -1.2090     1.2290    -0.5120 C.ar  1 <1>  -0.1500 
 19 C        4.9510     0.5330     2.9250 C.ar  1 <1>  -0.1500 
 20 O        2.2480     4.7880    -1.9150 O.2   1 <1>  -0.5700 
 21 C        1.9070     6.7160    -0.6050 C.3   1 <1>   0.0530 
 22 C       -1.4580     4.7980     0.7300 C.3   1 <1>  -0.0170 
 23 C       -3.0060     2.8320     0.8070 C.ar  1 <1>  -0.1500 
 24 C       -2.4340     0.6920    -0.1250 C.ar  1 <1>   0.0830 
 25 C        0.7480     7.6790    -0.9830 C.3   1 <1>   0.0000 
 26 C        2.7930     7.5460    -1.5800 C.3   1 <1>   0.0000 
 27 C       -3.3520     1.5190     0.5410 C.ar  1 <1>   0.0830 
 28 O       -2.7420    -0.6160    -0.3710 O.3   1 <1>  -0.3620 
 29 C        1.8350     8.7340    -1.3110 C.3   1 <1>   0.0000 
 30 O       -4.5950     1.1590     0.9730 O.3   1 <1>  -0.3620 
 31 C       -1.8120    -1.5160    -0.9340 C.3   1 <1>   0.0400 
 32 C       -5.3390     0.1500     0.3290 C.3   1 <1>   0.0400 
 33 H        3.5130    -0.2050    -1.5770 H     1 <1>   0.3700 
 34 H        1.8990     2.9030     1.7540 H     1 <1>   0.1500 
 35 H        0.4950     3.0920    -1.7700 H     1 <1>   0.0800 
 36 H        3.5380     2.0620     3.3620 H     1 <1>   0.1500 
 37 H        6.2490    -1.0040     2.2300 H     1 <1>   0.1500 
 38 H        4.6310    -2.0750    -0.6150 H     1 <1>   0.0800 
 39 H        6.2220    -1.9580     0.0880 H     1 <1>   0.0800 
 40 H        5.7580    -0.8570    -1.1810 H     1 <1>   0.0800 
 41 H        0.2570     5.9800     1.1930 H     1 <1>   0.0800 
 42 H        0.3200     4.3620     1.8160 H     1 <1>   0.0800 
 43 H       -0.5060     0.6190    -1.0430 H     1 <1>   0.1500 
 44 H        5.4040     0.5590     3.9010 H     1 <1>   0.1500 
 45 H        2.2280     6.8460     0.4150 H     1 <1>   0.0000 
 46 H       -1.7660     5.4210    -0.0910 H     1 <1>   0.0800 
 47 H       -1.9860     5.1170     1.6110 H     1 <1>   0.0800 
 48 H       -3.7220     3.4500     1.3190 H     1 <1>   0.1500 
 49 H        0.1160     7.9530    -0.1570 H     1 <1>   0.0000 
 50 H        0.2020     7.3610    -1.8550 H     1 <1>   0.0000 
 51 H        2.7470     7.2190    -2.6050 H     1 <1>   0.0000 
 52 H        3.7960     7.7080    -1.2260 H     1 <1>   0.0000 
 53 H        2.1240     9.3160    -0.4530 H     1 <1>   0.0000 
 54 H        1.6190     9.3260    -2.1830 H     1 <1>   0.0000 
 55 H       -2.2710    -2.4870    -0.9800 H     1 <1>   0.0800 
 56 H       -0.9390    -1.5550    -0.3070 H     1 <1>   0.0800 
 57 H       -1.5600    -1.1840    -1.9260 H     1 <1>   0.0800 
 58 H       -6.3700     0.2620     0.6110 H     1 <1>   0.0800 
 59 H       -4.9760    -0.8080     0.6530 H     1 <1>   0.0800 
 60 H       -5.2330     0.2600    -0.7360 H     1 <1>   0.0800 
@<TRIPOS>BOND
  1   1   2  2   
  2   2   3  am  
  3   2   4  1   
  4   3   5  1   
  5   3  33  1   
  6   4   6  2   
  7   4   7  1   
  8   5   8  ar  
  9   5   9  ar  
 10   6   8  1   
 11   6  34  1   
 12   7  10  1   
 13   7  11  1   
 14   7  35  1   
 15   8  12  ar  
 16   9  13  ar  
 17   9  14  1   
 18  10  15  am  
 19  10  16  1   
 20  11  17  ar  
 21  11  18  ar  
 22  12  19  ar  
 23  12  36  1   
 24  13  19  ar  
 25  13  37  1   
 26  14  38  1   
 27  14  39  1   
 28  14  40  1   
 29  15  20  2   
 30  15  21  1   
 31  16  22  1   
 32  16  41  1   
 33  16  42  1   
 34  17  22  1   
 35  17  23  ar  
 36  18  24  ar  
 37  18  43  1   
 38  19  44  1   
 39  21  25  1   
 40  21  26  1   
 41  21  45  1   
 42  22  46  1   
 43  22  47  1   
 44  23  27  ar  
 45  23  48  1   
 46  24  27  ar  
 47  24  28  1   
 48  25  29  1   
 49  25  49  1   
 50  25  50  1   
 51  26  29  1   
 52  26  51  1   
 53  26  52  1   
 54  27  30  1   
 55  28  31  1   
 56  29  53  1   
 57  29  54  1   
 58  30  32  1   
 59  31  55  1   
 60  31  56  1   
 61  31  57  1   
 62  32  58  1   
 63  32  59  1   
 64  32  60  1   
@<TRIPOS>SUBSTRUCTURE
  1 ****   4 GROUP 4 **** **** 0

# MOE 2024.06 (io_trps.svl 2023.06)
