@<TRIPOS>MOLECULE
NONAME
44 46 1 0 0 
SMALL
USER_CHARGES


@<TRIPOS>ATOM
  1 O       -0.0990     0.7050     1.4890 O.2   1 <1>  -0.5700 
  2 C       -1.1190     1.0010     0.9010 C.2   1 <1>   0.5690 
  3 N       -1.3620     2.2850     0.4820 N.am  1 <1>  -0.4770 
  4 C       -2.1530    -0.0900     0.5610 C.3   1 <1>   0.2610 
  5 C       -2.4890     2.5610    -0.3210 C.ar  1 <1>   0.1170 
  6 C       -0.4490     3.3870     0.9330 C.3   1 <1>   0.2010 
  7 O       -3.4460     0.4510     0.3100 O.3   1 <1>  -0.3630 
  8 C       -2.3260    -1.1440     1.6620 C.3   1 <1>  -0.2400 
  9 C       -3.5300     1.6260    -0.3660 C.ar  1 <1>   0.0830 
 10 C       -2.6160     3.7220    -1.0810 C.ar  1 <1>  -0.1500 
 11 C        0.7800     3.5220     0.0430 C.2   1 <1>   0.5690 
 12 C       -4.6750     1.8700    -1.1040 C.ar  1 <1>  -0.1500 
 13 C       -3.7580     3.9600    -1.8270 C.ar  1 <1>  -0.1500 
 14 O        0.9340     4.5360    -0.5970 O.2   1 <1>  -0.5700 
 15 N        1.6630     2.4920     0.0020 N.am  1 <1>  -0.7300 
 16 C       -4.7920     3.0390    -1.8340 C.ar  1 <1>  -0.1500 
 17 C        2.8720     2.4180    -0.8280 C.3   1 <1>   0.2200 
 18 C        2.6970     1.2900    -1.8490 C.3   1 <1>  -0.1600 
 19 C        4.0810     2.1660     0.0790 C.3   1 <1>  -0.1600 
 20 C        3.9750     1.0890    -2.6780 C.3   1 <1>  -0.1600 
 21 C        5.3610     1.9670    -0.7460 C.3   1 <1>  -0.1600 
 22 C        5.1890     0.8400    -1.7740 C.3   1 <1>  -0.1600 
 23 H       -1.8370    -0.5720    -0.3460 H     1 <1>   0.0800 
 24 H       -0.1200     3.1890     1.9360 H     1 <1>   0.0800 
 25 H       -0.9800     4.3210     0.9520 H     1 <1>   0.0800 
 26 H       -2.6460    -0.6750     2.5750 H     1 <1>   0.0800 
 27 H       -1.3890    -1.6400     1.8450 H     1 <1>   0.0800 
 28 H       -3.0500    -1.8800     1.3610 H     1 <1>   0.0800 
 29 H       -1.8250     4.4500    -1.1080 H     1 <1>   0.1500 
 30 H       -5.4680     1.1430    -1.1070 H     1 <1>   0.1500 
 31 H       -3.8420     4.8650    -2.4040 H     1 <1>   0.1500 
 32 H        1.4370     1.6430     0.5380 H     1 <1>   0.3700 
 33 H       -5.6810     3.2290    -2.4100 H     1 <1>   0.1500 
 34 H        3.0100     3.3510    -1.3500 H     1 <1>   0.0800 
 35 H        1.8810     1.5320    -2.5070 H     1 <1>   0.0800 
 36 H        2.4650     0.3740    -1.3360 H     1 <1>   0.0800 
 37 H        3.9060     1.2860     0.6730 H     1 <1>   0.0800 
 38 H        4.2090     3.0050     0.7400 H     1 <1>   0.0800 
 39 H        4.1510     1.9670    -3.2770 H     1 <1>   0.0800 
 40 H        3.8440     0.2560    -3.3460 H     1 <1>   0.0800 
 41 H        6.1810     1.7340    -0.0880 H     1 <1>   0.0800 
 42 H        5.6000     2.8830    -1.2590 H     1 <1>   0.0800 
 43 H        6.0780     0.7640    -2.3770 H     1 <1>   0.0800 
 44 H        5.0620    -0.0960    -1.2570 H     1 <1>   0.0800 
@<TRIPOS>BOND
  1   1   2  2   
  2   2   3  am  
  3   2   4  1   
  4   3   5  1   
  5   3   6  1   
  6   4   7  1   
  7   4   8  1   
  8   4  23  1   
  9   5   9  ar  
 10   5  10  ar  
 11   6  11  1   
 12   6  24  1   
 13   6  25  1   
 14   7   9  1   
 15   8  26  1   
 16   8  27  1   
 17   8  28  1   
 18   9  12  ar  
 19  10  13  ar  
 20  10  29  1   
 21  11  14  2   
 22  11  15  am  
 23  12  16  ar  
 24  12  30  1   
 25  13  16  ar  
 26  13  31  1   
 27  15  17  1   
 28  15  32  1   
 29  16  33  1   
 30  17  18  1   
 31  17  19  1   
 32  17  34  1   
 33  18  20  1   
 34  18  35  1   
 35  18  36  1   
 36  19  21  1   
 37  19  37  1   
 38  19  38  1   
 39  20  22  1   
 40  20  39  1   
 41  20  40  1   
 42  21  22  1   
 43  21  41  1   
 44  21  42  1   
 45  22  43  1   
 46  22  44  1   
@<TRIPOS>SUBSTRUCTURE
  1 ****   3 GROUP 4 **** **** 0

# MOE 2024.06 (io_trps.svl 2023.06)
