@<TRIPOS>MOLECULE
N-[2-(4-Phenyl-piperazin-1-yl)-phenyl]-isobutyramide
49 51 1 0 0 
SMALL
USER_CHARGES


@<TRIPOS>ATOM
  1 O        0.2050    -0.2200    -0.0460 O.2   1 <1>  -0.5700 
  2 C       -0.8680     0.2790    -0.2930 C.2   1 <1>   0.5690 
  3 N       -2.0550    -0.3830    -0.1660 N.am  1 <1>  -0.5470 
  4 C       -0.9200     1.7330    -0.7750 C.3   1 <1>  -0.0190 
  5 C       -2.4130    -1.6810     0.2330 C.ar  1 <1>   0.1170 
  6 C       -0.1670     1.9140    -2.1030 C.3   1 <1>  -0.2400 
  7 C       -0.3600     2.6980     0.2840 C.3   1 <1>  -0.2400 
  8 C       -3.7840    -1.9800     0.2280 C.ar  1 <1>   0.1000 
  9 C       -1.5010    -2.6520     0.6220 C.ar  1 <1>  -0.1500 
 10 N       -4.7160    -0.9990    -0.1650 N.pl3 1 <1>  -0.8380 
 11 C       -4.1980    -3.2490     0.6140 C.ar  1 <1>  -0.1500 
 12 C       -1.9300    -3.9120     1.0030 C.ar  1 <1>  -0.1500 
 13 C       -5.5960    -0.4150     0.9030 C.3   1 <1>   0.2090 
 14 C       -5.4170    -1.1980    -1.4780 C.3   1 <1>   0.2090 
 15 C       -3.2800    -4.2100     0.9990 C.ar  1 <1>  -0.1500 
 16 C       -6.9770    -1.0940     1.0050 C.3   1 <1>   0.2090 
 17 C       -6.8010    -1.8660    -1.3450 C.3   1 <1>   0.2090 
 18 N       -7.6540    -1.1900    -0.3230 N.pl3 1 <1>  -0.8380 
 19 C       -8.9930    -1.5610    -0.3020 C.ar  1 <1>   0.1000 
 20 C       -9.9640    -0.6420    -0.6770 C.ar  1 <1>  -0.1500 
 21 C       -9.3940    -2.8350     0.0870 C.ar  1 <1>  -0.1500 
 22 C      -11.3040    -0.9830    -0.6660 C.ar  1 <1>  -0.1500 
 23 C      -10.7330    -3.1810     0.1000 C.ar  1 <1>  -0.1500 
 24 C      -11.6910    -2.2540    -0.2770 C.ar  1 <1>  -0.1500 
 25 H       -2.9050     0.1350    -0.4010 H     1 <1>   0.3700 
 26 H       -1.9500     1.9950    -0.9440 H     1 <1>   0.0800 
 27 H        0.8750     1.6780    -1.9750 H     1 <1>   0.0800 
 28 H       -0.2530     2.9280    -2.4520 H     1 <1>   0.0800 
 29 H       -0.5740     1.2570    -2.8510 H     1 <1>   0.0800 
 30 H        0.6770     2.4810     0.4720 H     1 <1>   0.0800 
 31 H       -0.9020     2.5890     1.2060 H     1 <1>   0.0800 
 32 H       -0.4470     3.7170    -0.0490 H     1 <1>   0.0800 
 33 H       -0.4490    -2.4350     0.6300 H     1 <1>   0.1500 
 34 H       -5.2420    -3.4890     0.6140 H     1 <1>   0.1500 
 35 H       -1.2110    -4.6550     1.3010 H     1 <1>   0.1500 
 36 H       -5.7460     0.6290     0.6920 H     1 <1>   0.0800 
 37 H       -5.0980    -0.4870     1.8540 H     1 <1>   0.0800 
 38 H       -4.7980    -1.7950    -2.1250 H     1 <1>   0.0800 
 39 H       -5.5470    -0.2380    -1.9470 H     1 <1>   0.0800 
 40 H       -3.6160    -5.1890     1.2950 H     1 <1>   0.1500 
 41 H       -7.6000    -0.5280     1.6760 H     1 <1>   0.0800 
 42 H       -6.8590    -2.0780     1.4210 H     1 <1>   0.0800 
 43 H       -6.6710    -2.8990    -1.0790 H     1 <1>   0.0800 
 44 H       -7.3000    -1.8330    -2.2970 H     1 <1>   0.0800 
 45 H       -9.6530     0.3410    -0.9770 H     1 <1>   0.1500 
 46 H       -8.6520    -3.5530     0.3790 H     1 <1>   0.1500 
 47 H      -12.0450    -0.2600    -0.9590 H     1 <1>   0.1500 
 48 H      -11.0320    -4.1690     0.4020 H     1 <1>   0.1500 
 49 H      -12.7330    -2.5210    -0.2680 H     1 <1>   0.1500 
@<TRIPOS>BOND
  1   1   2  2   
  2   2   3  am  
  3   2   4  1   
  4   3   5  1   
  5   3  25  1   
  6   4   6  1   
  7   4   7  1   
  8   4  26  1   
  9   5   8  ar  
 10   5   9  ar  
 11   6  27  1   
 12   6  28  1   
 13   6  29  1   
 14   7  30  1   
 15   7  31  1   
 16   7  32  1   
 17   8  10  1   
 18   8  11  ar  
 19   9  12  ar  
 20   9  33  1   
 21  10  13  1   
 22  10  14  1   
 23  11  15  ar  
 24  11  34  1   
 25  12  15  ar  
 26  12  35  1   
 27  13  16  1   
 28  13  36  1   
 29  13  37  1   
 30  14  17  1   
 31  14  38  1   
 32  14  39  1   
 33  15  40  1   
 34  16  18  1   
 35  16  41  1   
 36  16  42  1   
 37  17  18  1   
 38  17  43  1   
 39  17  44  1   
 40  18  19  1   
 41  19  20  ar  
 42  19  21  ar  
 43  20  22  ar  
 44  20  45  1   
 45  21  23  ar  
 46  21  46  1   
 47  22  24  ar  
 48  22  47  1   
 49  23  24  ar  
 50  23  48  1   
 51  24  49  1   
@<TRIPOS>SUBSTRUCTURE
  1 ****  10 GROUP 4 **** **** 0

# MOE 2024.06 (io_trps.svl 2023.06)
