@<TRIPOS>MOLECULE
ka-06492
20 21 1 0 0 
SMALL
USER_CHARGES


@<TRIPOS>ATOM
  1 O       -0.3450    -0.2670    -0.0150 O.3   1 <1>  -0.5600 
  2 C       -0.4220    -1.5520     0.5110 C.3   1 <1>   0.6240 
  3 C        0.9880     0.0440    -0.1970 C.3   1 <1>   0.1200 
  4 O        0.6680    -2.2180    -0.0340 O.3   1 <1>  -0.5600 
  5 C       -1.7340    -2.2270     0.1270 C.ar  1 <1>  -0.1440 
  6 C        1.6870    -1.3040    -0.2130 C.3   1 <1>   0.1200 
  7 C       -1.7820    -3.6000    -0.0690 C.ar  1 <1>   0.1600 
  8 C       -2.9030    -1.5020    -0.0180 C.ar  1 <1>  -0.1500 
  9 N       -2.8700    -4.2900    -0.3780 N.ar  1 <1>  -0.6200 
 10 C       -4.0440    -2.2010    -0.3470 C.ar  1 <1>  -0.1500 
 11 C       -3.9730    -3.5730    -0.5120 C.ar  1 <1>   0.1600 
 12 H       -0.3030    -1.5000     1.5800 H     1 <1>   0.0800 
 13 H        1.3240     0.6570     0.6210 H     1 <1>   0.0800 
 14 H        1.1010     0.5690    -1.1290 H     1 <1>   0.0800 
 15 H        2.3920    -1.3960     0.5950 H     1 <1>   0.0800 
 16 H        2.1710    -1.4980    -1.1540 H     1 <1>   0.0800 
 17 H       -0.8730    -4.1680     0.0370 H     1 <1>   0.1500 
 18 H       -2.9220    -0.4330     0.1170 H     1 <1>   0.1500 
 19 H       -4.9800    -1.6890    -0.4750 H     1 <1>   0.1500 
 20 H       -4.8710    -4.1090    -0.7690 H     1 <1>   0.1500 
@<TRIPOS>BOND
  1   1   2  1   
  2   1   3  1   
  3   2   4  1   
  4   2   5  1   
  5   2  12  1   
  6   3   6  1   
  7   3  13  1   
  8   3  14  1   
  9   4   6  1   
 10   5   7  ar  
 11   5   8  ar  
 12   6  15  1   
 13   6  16  1   
 14   7   9  ar  
 15   7  17  1   
 16   8  10  ar  
 17   8  18  1   
 18   9  11  ar  
 19  10  11  ar  
 20  10  19  1   
 21  11  20  1   
@<TRIPOS>SUBSTRUCTURE
  1 ****   5 GROUP 4 **** **** 0

# MOE 2024.06 (io_trps.svl 2023.06)
