@<TRIPOS>MOLECULE
3192
52 53 1 0 0 
SMALL
USER_CHARGES


@<TRIPOS>ATOM
  1 CL       3.5980    -1.6320     0.3540 Cl    1 <1>  -0.1770 
  2 C        4.0330     0.0370     0.6660 C.ar  1 <1>   0.1770 
  3 C        3.6140     1.0200    -0.2220 C.ar  1 <1>  -0.1440 
  4 C        4.7830     0.3440     1.7950 C.ar  1 <1>  -0.1440 
  5 C        3.9590     2.3380     0.0310 C.ar  1 <1>  -0.1500 
  6 C        2.7930     0.6690    -1.4540 C.3   1 <1>  -0.0960 
  7 C        5.1130     1.6690     2.0320 C.ar  1 <1>  -0.1500 
  8 C        5.2450    -0.7420     2.7550 C.3   1 <1>  -0.0960 
  9 C        4.7190     2.6620     1.1490 C.ar  1 <1>   0.0830 
 10 O        5.1130     3.9280     1.4250 O.3   1 <1>  -0.3630 
 11 C        5.4810     4.8080     0.3640 C.3   1 <1>   0.1810 
 12 C        6.8780     5.3770     0.5790 C.2   1 <1>   0.5690 
 13 O        7.0200     6.5790     0.6550 O.2   1 <1>  -0.5700 
 14 N        7.9580     4.5570     0.6500 N.am  1 <1>  -0.4300 
 15 N        7.9510     3.0850     0.5960 N.am  1 <1>  -0.4300 
 16 C        7.7250     2.3210    -0.5170 C.2   1 <1>   0.5440 
 17 O        7.4970     2.8780    -1.5800 O.2   1 <1>  -0.5700 
 18 C        7.7220     0.8730    -0.4200 C.ar  1 <1>   0.0860 
 19 C        8.5320     0.1900     0.4870 C.ar  1 <1>  -0.1500 
 20 C        6.9010     0.0980    -1.2350 C.ar  1 <1>  -0.1500 
 21 C        8.5160    -1.1900     0.5780 C.ar  1 <1>  -0.1500 
 22 C        6.8850    -1.2810    -1.1440 C.ar  1 <1>  -0.1500 
 23 C        7.6920    -1.9590    -0.2370 C.ar  1 <1>  -0.1430 
 24 C        7.6520    -3.5030    -0.1860 C.3   1 <1>   0.1430 
 25 C        8.1130    -4.0650    -1.5390 C.3   1 <1>  -0.2400 
 26 C        6.2230    -3.9860     0.1020 C.3   1 <1>  -0.2400 
 27 C        8.5660    -4.0960     0.9000 C.3   1 <1>  -0.2400 
 28 H        3.6290     3.1100    -0.6400 H     1 <1>   0.1500 
 29 H        3.3360    -0.0230    -2.0720 H     1 <1>   0.0800 
 30 H        2.5720     1.5450    -2.0360 H     1 <1>   0.0800 
 31 H        1.8640     0.2130    -1.1570 H     1 <1>   0.0800 
 32 H        5.6810     1.9460     2.9010 H     1 <1>   0.1500 
 33 H        4.4010    -1.3120     3.1010 H     1 <1>   0.0800 
 34 H        5.7420    -0.3190     3.6080 H     1 <1>   0.0800 
 35 H        5.9280    -1.4020     2.2520 H     1 <1>   0.0800 
 36 H        4.7620     5.6040     0.3320 H     1 <1>   0.0800 
 37 H        5.4780     4.2830    -0.5720 H     1 <1>   0.0800 
 38 H        8.8710     5.0230     0.6300 H     1 <1>   0.3700 
 39 H        7.8980     2.6110     1.5030 H     1 <1>   0.3700 
 40 H        9.1970     0.7400     1.1270 H     1 <1>   0.1500 
 41 H        6.2650     0.5910    -1.9490 H     1 <1>   0.1500 
 42 H        9.1700    -1.6480     1.2970 H     1 <1>   0.1500 
 43 H        6.2280    -1.8260    -1.7990 H     1 <1>   0.1500 
 44 H        7.4570    -3.7510    -2.3300 H     1 <1>   0.0800 
 45 H        8.1240    -5.1400    -1.5210 H     1 <1>   0.0800 
 46 H        9.1040    -3.7140    -1.7650 H     1 <1>   0.0800 
 47 H        6.1900    -5.0590     0.1700 H     1 <1>   0.0800 
 48 H        5.5460    -3.6840    -0.6750 H     1 <1>   0.0800 
 49 H        5.8740    -3.5760     1.0320 H     1 <1>   0.0800 
 50 H        8.4990    -5.1700     0.9060 H     1 <1>   0.0800 
 51 H        8.2760    -3.7390     1.8720 H     1 <1>   0.0800 
 52 H        9.5910    -3.8300     0.7190 H     1 <1>   0.0800 
@<TRIPOS>BOND
  1   1   2  1   
  2   2   3  ar  
  3   2   4  ar  
  4   3   5  ar  
  5   3   6  1   
  6   4   7  ar  
  7   4   8  1   
  8   5   9  ar  
  9   5  28  1   
 10   6  29  1   
 11   6  30  1   
 12   6  31  1   
 13   7   9  ar  
 14   7  32  1   
 15   8  33  1   
 16   8  34  1   
 17   8  35  1   
 18   9  10  1   
 19  10  11  1   
 20  11  12  1   
 21  11  36  1   
 22  11  37  1   
 23  12  13  2   
 24  12  14  am  
 25  14  15  1   
 26  14  38  1   
 27  15  16  am  
 28  15  39  1   
 29  16  17  2   
 30  16  18  1   
 31  18  19  ar  
 32  18  20  ar  
 33  19  21  ar  
 34  19  40  1   
 35  20  22  ar  
 36  20  41  1   
 37  21  23  ar  
 38  21  42  1   
 39  22  23  ar  
 40  22  43  1   
 41  23  24  1   
 42  24  25  1   
 43  24  26  1   
 44  24  27  1   
 45  25  44  1   
 46  25  45  1   
 47  25  46  1   
 48  26  47  1   
 49  26  48  1   
 50  26  49  1   
 51  27  50  1   
 52  27  51  1   
 53  27  52  1   
@<TRIPOS>SUBSTRUCTURE
  1 ****  18 GROUP 4 **** **** 0

# MOE 2024.06 (io_trps.svl 2023.06)
