@<TRIPOS>MOLECULE
6923
53 54 1 0 0 
SMALL
USER_CHARGES


@<TRIPOS>ATOM
  1 O       -0.5080    -0.9390     3.9200 O.2   1 <1>  -0.5700 
  2 C       -0.4320    -1.6780     2.9690 C.2   1 <1>   0.5690 
  3 N        0.7840    -1.9890     2.4460 N.am  1 <1>  -0.5470 
  4 C       -1.7060    -2.2730     2.3750 C.3   1 <1>   0.1810 
  5 C        1.0380    -2.7850     1.3180 C.ar  1 <1>   0.1170 
  6 O       -2.0270    -1.6290     1.1490 O.3   1 <1>  -0.3630 
  7 C        1.1330    -2.2300     0.0390 C.ar  1 <1>   0.0830 
  8 C        1.1620    -4.1590     1.4680 C.ar  1 <1>  -0.1500 
  9 C       -2.7430    -2.2860     0.2070 C.ar  1 <1>   0.0830 
 10 O        1.0320    -0.8810    -0.0920 O.3   1 <1>  -0.3630 
 11 C        1.3230    -3.0450    -1.0680 C.ar  1 <1>  -0.1500 
 12 C        1.3490    -4.9710     0.3640 C.ar  1 <1>  -0.1500 
 13 C       -3.9130    -1.7290    -0.3290 C.ar  1 <1>  -0.1430 
 14 C       -2.2610    -3.5090    -0.2460 C.ar  1 <1>  -0.1500 
 15 C        0.1820    -0.3690    -1.0960 C.3   1 <1>   0.0400 
 16 C        1.4200    -4.4240    -0.9070 C.ar  1 <1>   0.0830 
 17 C       -4.5770    -2.4810    -1.2990 C.ar  1 <1>  -0.1500 
 18 C       -4.4530    -0.3380     0.1150 C.3   1 <1>   0.1440 
 19 C       -2.9330    -4.2280    -1.2130 C.ar  1 <1>  -0.1430 
 20 O        1.5780    -5.2970    -1.9360 O.3   1 <1>  -0.3630 
 21 C       -4.1010    -3.7070    -1.7320 C.ar  1 <1>  -0.1500 
 22 C       -5.7510     0.0670    -0.6130 C.3   1 <1>  -0.2400 
 23 C       -4.7840    -0.3310     1.6170 C.3   1 <1>  -0.2400 
 24 C       -3.4240     0.7620    -0.1970 C.3   1 <1>  -0.2400 
 25 C       -2.3950    -5.5620    -1.6990 C.3   1 <1>  -0.0970 
 26 C        1.5700    -4.8490    -3.2740 C.3   1 <1>   0.0400 
 27 H        1.5350    -1.3700     2.7520 H     1 <1>   0.3700 
 28 H       -2.5270    -2.1220     3.0500 H     1 <1>   0.0800 
 29 H       -1.5750    -3.3250     2.2190 H     1 <1>   0.0800 
 30 H        1.1060    -4.5930     2.4500 H     1 <1>   0.1500 
 31 H        1.3990    -2.5970    -2.0370 H     1 <1>   0.1500 
 32 H        1.4390    -6.0370     0.4800 H     1 <1>   0.1500 
 33 H       -1.3450    -3.9020     0.1480 H     1 <1>   0.1500 
 34 H       -0.0260     0.6590    -0.8640 H     1 <1>   0.0800 
 35 H       -0.7350    -0.9320    -1.1030 H     1 <1>   0.0800 
 36 H        0.6780    -0.4380    -2.0460 H     1 <1>   0.0800 
 37 H       -5.4860    -2.1400    -1.7550 H     1 <1>   0.1500 
 38 H       -4.6470    -4.2520    -2.4810 H     1 <1>   0.1500 
 39 H       -6.5350    -0.6400    -0.4100 H     1 <1>   0.0800 
 40 H       -5.5880     0.1220    -1.6750 H     1 <1>   0.0800 
 41 H       -6.0870     1.0340    -0.2830 H     1 <1>   0.0800 
 42 H       -5.4260    -1.1600     1.8560 H     1 <1>   0.0800 
 43 H       -5.2820     0.5800     1.8940 H     1 <1>   0.0800 
 44 H       -3.8970    -0.4030     2.2140 H     1 <1>   0.0800 
 45 H       -3.1600     0.7310    -1.2390 H     1 <1>   0.0800 
 46 H       -2.5290     0.6400     0.3820 H     1 <1>   0.0800 
 47 H       -3.8250     1.7340     0.0280 H     1 <1>   0.0800 
 48 H       -1.3340    -5.6270    -1.5320 H     1 <1>   0.0800 
 49 H       -2.5800    -5.6780    -2.7510 H     1 <1>   0.0800 
 50 H       -2.8780    -6.3630    -1.1700 H     1 <1>   0.0800 
 51 H        1.6710    -5.7070    -3.9140 H     1 <1>   0.0800 
 52 H        2.4010    -4.1830    -3.4240 H     1 <1>   0.0800 
 53 H        0.6360    -4.3530    -3.4710 H     1 <1>   0.0800 
@<TRIPOS>BOND
  1   1   2  2   
  2   2   3  am  
  3   2   4  1   
  4   3   5  1   
  5   3  27  1   
  6   4   6  1   
  7   4  28  1   
  8   4  29  1   
  9   5   7  ar  
 10   5   8  ar  
 11   6   9  1   
 12   7  10  1   
 13   7  11  ar  
 14   8  12  ar  
 15   8  30  1   
 16   9  13  ar  
 17   9  14  ar  
 18  10  15  1   
 19  11  16  ar  
 20  11  31  1   
 21  12  16  ar  
 22  12  32  1   
 23  13  17  ar  
 24  13  18  1   
 25  14  19  ar  
 26  14  33  1   
 27  15  34  1   
 28  15  35  1   
 29  15  36  1   
 30  16  20  1   
 31  17  21  ar  
 32  17  37  1   
 33  18  22  1   
 34  18  23  1   
 35  18  24  1   
 36  19  21  ar  
 37  19  25  1   
 38  20  26  1   
 39  21  38  1   
 40  22  39  1   
 41  22  40  1   
 42  22  41  1   
 43  23  42  1   
 44  23  43  1   
 45  23  44  1   
 46  24  45  1   
 47  24  46  1   
 48  24  47  1   
 49  25  48  1   
 50  25  49  1   
 51  25  50  1   
 52  26  51  1   
 53  26  52  1   
 54  26  53  1   
@<TRIPOS>SUBSTRUCTURE
  1 ****  14 GROUP 4 **** **** 0

# MOE 2024.06 (io_trps.svl 2023.06)
