@<TRIPOS>MOLECULE
7725
32 32 1 0 0 
SMALL
USER_CHARGES


@<TRIPOS>ATOM
  1 CL       0.7930     0.3900    -0.9150 Cl    1 <1>  -0.1770 
  2 C        0.2860     2.0040    -0.4840 C.ar  1 <1>   0.1770 
  3 C       -1.0460     2.2480    -0.2270 C.ar  1 <1>  -0.1500 
  4 C        1.2280     3.0100    -0.4070 C.ar  1 <1>  -0.1500 
  5 C       -1.4650     3.5270     0.1160 C.ar  1 <1>   0.1170 
  6 C        0.8200     4.2860    -0.0600 C.ar  1 <1>  -0.1500 
  7 N       -2.8260     3.7260     0.3740 N.am  1 <1>  -0.5470 
  8 C       -0.5160     4.5520     0.2060 C.ar  1 <1>  -0.1430 
  9 C       -3.7140     4.5140    -0.2860 C.2   1 <1>   0.7800 
 10 C       -0.9040     5.9730     0.5980 C.3   1 <1>  -0.0960 
 11 O       -3.4270     5.2310    -1.2220 O.2   1 <1>  -0.5700 
 12 O       -4.9660     4.4500     0.1580 O.3   1 <1>  -0.4300 
 13 C       -5.9840     5.2130    -0.4510 C.3   1 <1>   0.1200 
 14 C       -7.2990     4.9290     0.2760 C.3   1 <1>  -0.1600 
 15 C       -8.4540     5.7300    -0.3380 C.3   1 <1>  -0.1600 
 16 C       -9.7700     5.4440     0.3910 C.3   1 <1>  -0.2400 
 17 H       -1.7550     1.4450    -0.3020 H     1 <1>   0.1500 
 18 H        2.2610     2.7960    -0.6150 H     1 <1>   0.1500 
 19 H        1.5520     5.0730     0.0000 H     1 <1>   0.1500 
 20 H       -3.2650     3.1080     1.0510 H     1 <1>   0.3700 
 21 H       -1.6400     5.9630     1.3820 H     1 <1>   0.0800 
 22 H       -1.3110     6.4870    -0.2540 H     1 <1>   0.0800 
 23 H       -0.0500     6.5210     0.9510 H     1 <1>   0.0800 
 24 H       -6.0470     4.9310    -1.4890 H     1 <1>   0.0800 
 25 H       -5.7190     6.2550    -0.3760 H     1 <1>   0.0800 
 26 H       -7.1910     5.1940     1.3130 H     1 <1>   0.0800 
 27 H       -7.5170     3.8770     0.2070 H     1 <1>   0.0800 
 28 H       -8.5620     5.4710    -1.3780 H     1 <1>   0.0800 
 29 H       -8.2380     6.7830    -0.2760 H     1 <1>   0.0800 
 30 H      -10.0190     4.3990     0.3230 H     1 <1>   0.0800 
 31 H      -10.5670     6.0140    -0.0520 H     1 <1>   0.0800 
 32 H       -9.6920     5.7150     1.4290 H     1 <1>   0.0800 
@<TRIPOS>BOND
  1   1   2  1   
  2   2   3  ar  
  3   2   4  ar  
  4   3   5  ar  
  5   3  17  1   
  6   4   6  ar  
  7   4  18  1   
  8   5   7  1   
  9   5   8  ar  
 10   6   8  ar  
 11   6  19  1   
 12   7   9  am  
 13   7  20  1   
 14   8  10  1   
 15   9  11  2   
 16   9  12  1   
 17  10  21  1   
 18  10  22  1   
 19  10  23  1   
 20  12  13  1   
 21  13  14  1   
 22  13  24  1   
 23  13  25  1   
 24  14  15  1   
 25  14  26  1   
 26  14  27  1   
 27  15  16  1   
 28  15  28  1   
 29  15  29  1   
 30  16  30  1   
 31  16  31  1   
 32  16  32  1   
@<TRIPOS>SUBSTRUCTURE
  1 ****   7 GROUP 4 **** **** 0

# MOE 2024.06 (io_trps.svl 2023.06)
