@<TRIPOS>MOLECULE
4-(3-Methoxy-propyl)-5-p-tolyloxymethyl-4H-[1,2,4]triazole-3-thiol
39 40 1 0 0 
SMALL
USER_CHARGES


@<TRIPOS>ATOM
  1 S       -0.7900    -0.0840     0.2380 S.3   1 <1>  -0.9360 
  2 C       -2.1420     0.3690    -0.5350 C.cat 1 <1>   0.7360 
  3 N       -2.2010     1.3090    -1.4510 N.pl3 1 <1>  -0.3930 
  4 N       -3.3540    -0.1220    -0.3610 N.pl3 1 <1>  -0.7640 
  5 N       -3.4810     1.4630    -1.9040 N.2   1 <1>  -0.2600 
  6 C       -4.1500     0.5930    -1.2320 C.2   1 <1>   0.4850 
  7 C       -3.7040    -1.1570     0.6320 C.3   1 <1>   0.3540 
  8 C       -5.6500     0.3640    -1.3970 C.3   1 <1>   0.2880 
  9 C       -3.9650    -2.4850    -0.0750 C.3   1 <1>  -0.1600 
 10 O       -6.3060     0.4440    -0.1450 O.3   1 <1>  -0.3620 
 11 C       -4.2590    -3.5860     0.9390 C.3   1 <1>   0.1200 
 12 C       -7.6230     0.1500    -0.0200 C.ar  1 <1>   0.0830 
 13 O       -4.6210    -4.7190     0.2260 O.3   1 <1>  -0.5600 
 14 C       -8.1600     0.2360     1.2530 C.ar  1 <1>  -0.1500 
 15 C       -8.4410    -0.2270    -1.0830 C.ar  1 <1>  -0.1500 
 16 C       -4.8800    -5.8300     1.0210 C.3   1 <1>   0.0400 
 17 C       -9.4950    -0.0540     1.4730 C.ar  1 <1>  -0.1500 
 18 C       -9.7750    -0.5180    -0.8580 C.ar  1 <1>  -0.1500 
 19 C      -10.3090    -0.4350     0.4190 C.ar  1 <1>  -0.1430 
 20 C      -11.7740    -0.7540     0.6590 C.3   1 <1>  -0.0970 
 21 H       -1.3640     1.8200    -1.7290 H     1 <1>   0.4500 
 22 H       -4.5750    -0.8480     1.1830 H     1 <1>   0.0800 
 23 H       -2.8970    -1.2760     1.3360 H     1 <1>   0.0800 
 24 H       -5.8160    -0.6130    -1.8110 H     1 <1>   0.0800 
 25 H       -6.0690     1.1130    -2.0440 H     1 <1>   0.0800 
 26 H       -3.0930    -2.7590    -0.6420 H     1 <1>   0.0800 
 27 H       -4.8080    -2.3880    -0.7310 H     1 <1>   0.0800 
 28 H       -5.0790    -3.3120     1.5810 H     1 <1>   0.0800 
 29 H       -3.3830    -3.8080     1.5270 H     1 <1>   0.0800 
 30 H       -7.5320     0.5340     2.0730 H     1 <1>   0.1500 
 31 H       -8.0710    -0.3020    -2.0870 H     1 <1>   0.1500 
 32 H       -5.1520    -6.6470     0.3750 H     1 <1>   0.0800 
 33 H       -5.6950    -5.6090     1.6880 H     1 <1>   0.0800 
 34 H       -3.9930    -6.0860     1.5740 H     1 <1>   0.0800 
 35 H       -9.8990     0.0200     2.4680 H     1 <1>   0.1500 
 36 H      -10.4030    -0.8080    -1.6820 H     1 <1>   0.1500 
 37 H      -12.3620     0.1410     0.5580 H     1 <1>   0.0800 
 38 H      -11.9150    -1.1520     1.6480 H     1 <1>   0.0800 
 39 H      -12.1230    -1.4810    -0.0510 H     1 <1>   0.0800 
@<TRIPOS>BOND
  1   1   2  1   
  2   2   3  ar  
  3   2   4  ar  
  4   3   5  1   
  5   3  21  1   
  6   4   6  1   
  7   4   7  1   
  8   5   6  2   
  9   6   8  1   
 10   7   9  1   
 11   7  22  1   
 12   7  23  1   
 13   8  10  1   
 14   8  24  1   
 15   8  25  1   
 16   9  11  1   
 17   9  26  1   
 18   9  27  1   
 19  10  12  1   
 20  11  13  1   
 21  11  28  1   
 22  11  29  1   
 23  12  14  ar  
 24  12  15  ar  
 25  13  16  1   
 26  14  17  ar  
 27  14  30  1   
 28  15  18  ar  
 29  15  31  1   
 30  16  32  1   
 31  16  33  1   
 32  16  34  1   
 33  17  19  ar  
 34  17  35  1   
 35  18  19  ar  
 36  18  36  1   
 37  19  20  1   
 38  20  37  1   
 39  20  38  1   
 40  20  39  1   
@<TRIPOS>SUBSTRUCTURE
  1 ****  10 GROUP 4 **** **** 0

# MOE 2024.06 (io_trps.svl 2023.06)
