@<TRIPOS>MOLECULE
7-Hydroxy-3-(4-methyl-benzyl)-3H-[1,2,3]triazolo[4,5-d]pyrimidine-5-carboxylic acid (2-methoxy-ethyl)-amide
42 44 1 0 0 
SMALL
USER_CHARGES


@<TRIPOS>ATOM
  1 O       -3.1400    -2.6890    -1.3820 O.2   1 <1>  -0.5700 
  2 C       -2.8550    -1.7680    -0.6250 C.2   1 <1>   0.5440 
  3 N       -1.5560    -1.7220    -0.1680 N.am  1 <1>  -0.7300 
  4 C       -3.8310    -0.7490    -0.1840 C.ar  1 <1>   0.7060 
  5 C       -0.4740    -2.6930    -0.4570 C.3   1 <1>   0.1400 
  6 N       -3.3700     0.1410     0.7160 N.ar  1 <1>  -0.6200 
  7 N       -5.0710    -0.7750    -0.6920 N.ar  1 <1>  -0.5670 
  8 C       -0.6180    -3.9170     0.4450 C.3   1 <1>   0.1200 
  9 C       -4.2040     1.0840     1.1630 C.ar  1 <1>   0.1390 
 10 C       -5.8850     0.1800    -0.2060 C.ar  1 <1>   0.1050 
 11 O        0.4910    -4.7430     0.2630 O.3   1 <1>  -0.5600 
 12 O       -3.7450     1.8950     1.9820 O.3   1 <1>  -0.8290 
 13 C       -5.5420     1.1280     0.6970 C.ar  1 <1>   0.2270 
 14 N       -7.1720     0.4370    -0.4950 N.pl3 1 <1>   0.3140 
 15 C        0.4300    -5.9260     0.9920 C.3   1 <1>   0.0400 
 16 N       -6.6160     1.9300     0.9220 N.2   1 <1>  -0.2270 
 17 N       -7.5940     1.5150     0.1950 N.2   1 <1>  -0.4180 
 18 C       -7.9730    -0.2290    -1.5330 C.3   1 <1>   0.2390 
 19 C       -8.6610    -1.4760    -0.9930 C.ar  1 <1>  -0.1430 
 20 C       -9.9560    -1.4070    -0.5050 C.ar  1 <1>  -0.1500 
 21 C       -7.9970    -2.6930    -0.9870 C.ar  1 <1>  -0.1500 
 22 C      -10.5840    -2.5450    -0.0290 C.ar  1 <1>  -0.1500 
 23 C       -8.6260    -3.8290    -0.5100 C.ar  1 <1>  -0.1500 
 24 C       -9.9240    -3.7630    -0.0320 C.ar  1 <1>  -0.1430 
 25 C      -10.6100    -5.0120     0.4910 C.3   1 <1>  -0.0970 
 26 H       -1.3580    -0.9620     0.4990 H     1 <1>   0.3700 
 27 H        0.4770    -2.2220    -0.2860 H     1 <1>   0.0800 
 28 H       -0.5370    -2.9990    -1.4880 H     1 <1>   0.0800 
 29 H       -1.5080    -4.4620     0.1790 H     1 <1>   0.0800 
 30 H       -0.6560    -3.6160     1.4770 H     1 <1>   0.0800 
 31 H        1.3240    -6.4880     0.7900 H     1 <1>   0.0800 
 32 H       -0.4320    -6.4900     0.6800 H     1 <1>   0.0800 
 33 H        0.3740    -5.6940     2.0410 H     1 <1>   0.0800 
 34 H       -7.3230    -0.4930    -2.3470 H     1 <1>   0.0800 
 35 H       -8.7040     0.4680    -1.8970 H     1 <1>   0.0800 
 36 H      -10.4810    -0.4680    -0.4880 H     1 <1>   0.1500 
 37 H       -6.9830    -2.7630    -1.3490 H     1 <1>   0.1500 
 38 H      -11.5900    -2.4770     0.3470 H     1 <1>   0.1500 
 39 H       -8.0950    -4.7640    -0.5100 H     1 <1>   0.1500 
 40 H      -11.6780    -4.9230     0.4000 H     1 <1>   0.0800 
 41 H      -10.3600    -5.1570     1.5260 H     1 <1>   0.0800 
 42 H      -10.2940    -5.8750    -0.0680 H     1 <1>   0.0800 
@<TRIPOS>BOND
  1   1   2  2   
  2   2   3  am  
  3   2   4  1   
  4   3   5  1   
  5   3  26  1   
  6   4   6  ar  
  7   4   7  ar  
  8   5   8  1   
  9   5  27  1   
 10   5  28  1   
 11   6   9  ar  
 12   7  10  ar  
 13   8  11  1   
 14   8  29  1   
 15   8  30  1   
 16   9  12  1   
 17   9  13  ar  
 18  10  13  ar  
 19  10  14  1   
 20  11  15  1   
 21  13  16  1   
 22  14  17  1   
 23  14  18  1   
 24  15  31  1   
 25  15  32  1   
 26  15  33  1   
 27  16  17  2   
 28  18  19  1   
 29  18  34  1   
 30  18  35  1   
 31  19  20  ar  
 32  19  21  ar  
 33  20  22  ar  
 34  20  36  1   
 35  21  23  ar  
 36  21  37  1   
 37  22  24  ar  
 38  22  38  1   
 39  23  24  ar  
 40  23  39  1   
 41  24  25  1   
 42  25  40  1   
 43  25  41  1   
 44  25  42  1   
@<TRIPOS>SUBSTRUCTURE
  1 ****   7 GROUP 4 **** **** 0

# MOE 2024.06 (io_trps.svl 2023.06)
