@<TRIPOS>MOLECULE
4-(2,3-Dihydro-benzo[1,4]dioxine-6-carbonyl)-piperidine-1-carboxylic acid (4-fluoro-phenyl)-amide
49 52 1 0 0 
SMALL
USER_CHARGES


@<TRIPOS>ATOM
  1 F       -0.8930     0.0850    -0.9920 F     1 <1>  -0.1900 
  2 C       -2.1480    -0.2530    -0.8500 C.ar  1 <1>   0.1900 
  3 C       -2.9160     0.4130     0.0870 C.ar  1 <1>  -0.1500 
  4 C       -2.6620    -1.2610    -1.6410 C.ar  1 <1>  -0.1500 
  5 C       -4.2440     0.0500     0.2310 C.ar  1 <1>  -0.1500 
  6 C       -3.9920    -1.6110    -1.4850 C.ar  1 <1>  -0.1500 
  7 C       -4.7980    -0.9640    -0.5480 C.ar  1 <1>   0.1170 
  8 N       -6.1520    -1.2830    -0.3750 N.am  1 <1>  -0.5470 
  9 C       -6.8390    -2.4400    -0.6020 C.2   1 <1>   0.6900 
 10 O       -6.2600    -3.4720    -0.8860 O.2   1 <1>  -0.5700 
 11 N       -8.2040    -2.4250    -0.4710 N.am  1 <1>  -0.6600 
 12 C       -8.9560    -3.6860    -0.2360 C.3   1 <1>   0.1400 
 13 C       -9.0490    -1.2390    -0.7720 C.3   1 <1>   0.1400 
 14 C       -9.9540    -3.4780     0.9070 C.3   1 <1>  -0.1600 
 15 C      -10.0420    -1.0150     0.3720 C.3   1 <1>  -0.1600 
 16 C      -10.8840    -2.2770     0.6390 C.3   1 <1>  -0.0190 
 17 C      -11.8720    -2.0380     1.7890 C.2   1 <1>   0.4230 
 18 O      -11.4520    -2.1360     2.9160 O.2   1 <1>  -0.5700 
 19 C      -13.2540    -1.7090     1.5080 C.ar  1 <1>   0.0860 
 20 C      -13.6780    -1.1530     0.2940 C.ar  1 <1>  -0.1500 
 21 C      -14.2380    -1.9380     2.4760 C.ar  1 <1>  -0.1500 
 22 C      -15.0060    -0.8630     0.0580 C.ar  1 <1>   0.0830 
 23 C      -15.5710    -1.6430     2.2540 C.ar  1 <1>  -0.1500 
 24 O      -15.3560    -0.3490    -1.1480 O.3   1 <1>  -0.3620 
 25 C      -15.9640    -1.0990     1.0450 C.ar  1 <1>   0.0830 
 26 C      -16.7330    -0.3720    -1.4790 C.3   1 <1>   0.1200 
 27 O      -17.2670    -0.8000     0.8450 O.3   1 <1>  -0.3630 
 28 C      -17.5830     0.0220    -0.2630 C.3   1 <1>   0.1200 
 29 H       -2.4790     1.1920     0.6840 H     1 <1>   0.1500 
 30 H       -2.0370    -1.7590    -2.3590 H     1 <1>   0.1500 
 31 H       -4.8530     0.5560     0.9580 H     1 <1>   0.1500 
 32 H       -4.4070    -2.3930    -2.0960 H     1 <1>   0.1500 
 33 H       -6.7040    -0.6100     0.1430 H     1 <1>   0.3700 
 34 H       -8.2790    -4.4840     0.0230 H     1 <1>   0.0800 
 35 H       -9.4710    -3.9640    -1.1390 H     1 <1>   0.0800 
 36 H       -9.5840    -1.4220    -1.6880 H     1 <1>   0.0800 
 37 H       -8.4470    -0.3590    -0.9150 H     1 <1>   0.0800 
 38 H       -9.4030    -3.3220     1.8180 H     1 <1>   0.0800 
 39 H      -10.5410    -4.3700     1.0320 H     1 <1>   0.0800 
 40 H      -10.6850    -0.1890     0.1240 H     1 <1>   0.0800 
 41 H       -9.4990    -0.7490     1.2630 H     1 <1>   0.0800 
 42 H      -11.4390    -2.5150    -0.2490 H     1 <1>   0.0800 
 43 H      -12.9790    -0.9310    -0.4890 H     1 <1>   0.1500 
 44 H      -13.9450    -2.3560     3.4250 H     1 <1>   0.1500 
 45 H      -16.3100    -1.8270     3.0140 H     1 <1>   0.1500 
 46 H      -16.9840    -1.3670    -1.8020 H     1 <1>   0.0800 
 47 H      -16.8910     0.3130    -2.2930 H     1 <1>   0.0800 
 48 H      -18.6310    -0.0940    -0.4730 H     1 <1>   0.0800 
 49 H      -17.3900     1.0440     0.0140 H     1 <1>   0.0800 
@<TRIPOS>BOND
  1   1   2  1   
  2   2   3  ar  
  3   2   4  ar  
  4   3   5  ar  
  5   3  29  1   
  6   4   6  ar  
  7   4  30  1   
  8   5   7  ar  
  9   5  31  1   
 10   6   7  ar  
 11   6  32  1   
 12   7   8  1   
 13   8   9  am  
 14   8  33  1   
 15   9  10  2   
 16   9  11  am  
 17  11  12  1   
 18  11  13  1   
 19  12  14  1   
 20  12  34  1   
 21  12  35  1   
 22  13  15  1   
 23  13  36  1   
 24  13  37  1   
 25  14  16  1   
 26  14  38  1   
 27  14  39  1   
 28  15  16  1   
 29  15  40  1   
 30  15  41  1   
 31  16  17  1   
 32  16  42  1   
 33  17  18  2   
 34  17  19  1   
 35  19  20  ar  
 36  19  21  ar  
 37  20  22  ar  
 38  20  43  1   
 39  21  23  ar  
 40  21  44  1   
 41  22  24  1   
 42  22  25  ar  
 43  23  25  ar  
 44  23  45  1   
 45  24  26  1   
 46  25  27  1   
 47  26  28  1   
 48  26  46  1   
 49  26  47  1   
 50  27  28  1   
 51  28  48  1   
 52  28  49  1   
@<TRIPOS>SUBSTRUCTURE
  1 ****  15 GROUP 4 **** **** 0

# MOE 2024.06 (io_trps.svl 2023.06)
