@<TRIPOS>MOLECULE
N-(3-Methoxy-propyl)-2-(6-oxo-3-p-tolyl-6H-pyridazin-1-yl)-acetamide
44 45 1 0 0 
SMALL
USER_CHARGES


@<TRIPOS>ATOM
  1 O        1.4320     1.8600     0.6740 O.2   1 <1>  -0.5700 
  2 C        0.5780     2.7400     0.6080 C.2   1 <1>   0.6160 
  3 N        0.3160     3.4160    -0.5800 N.am  1 <1>  -0.2980 
  4 C       -0.1800     3.1260     1.7360 C.2   1 <1>  -0.1360 
  5 N       -0.6390     4.3900    -0.7150 N.2   1 <1>  -0.5120 
  6 C        1.0970     3.0790    -1.8090 C.3   1 <1>   0.2010 
  7 C       -1.1130     4.1020     1.6030 C.2   1 <1>  -0.1360 
  8 C       -1.3360     4.7270     0.3400 C.2   1 <1>   0.3490 
  9 C        2.5120     3.6520    -1.8020 C.2   1 <1>   0.5690 
 10 C       -2.3440     5.7600     0.2340 C.ar  1 <1>   0.0860 
 11 O        2.8510     4.3970    -2.6920 O.2   1 <1>  -0.5700 
 12 N        3.3730     3.2890    -0.8120 N.am  1 <1>  -0.7300 
 13 C       -3.6040     5.6250     0.8200 C.ar  1 <1>  -0.1500 
 14 C       -2.0880     6.9410    -0.4640 C.ar  1 <1>  -0.1500 
 15 C        4.7280     3.8270    -0.6000 C.3   1 <1>   0.1400 
 16 C       -4.5540     6.6260     0.7270 C.ar  1 <1>  -0.1500 
 17 C       -3.0350     7.9430    -0.5600 C.ar  1 <1>  -0.1500 
 18 C        4.8070     4.4190     0.8050 C.3   1 <1>  -0.1600 
 19 C       -4.2750     7.7930     0.0360 C.ar  1 <1>  -0.1430 
 20 C        6.1790     5.0360     1.0570 C.3   1 <1>   0.1200 
 21 C       -5.3150     8.8940    -0.0670 C.3   1 <1>  -0.0970 
 22 O        6.1920     5.5230     2.3570 O.3   1 <1>  -0.5600 
 23 C        7.3830     6.1420     2.7180 C.3   1 <1>   0.0400 
 24 H        0.0250     2.6240     2.6620 H     1 <1>   0.1500 
 25 H        0.5790     3.4660    -2.6670 H     1 <1>   0.0800 
 26 H        1.1550     2.0110    -1.9110 H     1 <1>   0.0800 
 27 H       -1.6980     4.4310     2.4420 H     1 <1>   0.1500 
 28 H        3.0190     2.6510    -0.0840 H     1 <1>   0.3700 
 29 H       -3.8500     4.7230     1.3500 H     1 <1>   0.1500 
 30 H       -1.1290     7.0680    -0.9360 H     1 <1>   0.1500 
 31 H        4.9380     4.5870    -1.3340 H     1 <1>   0.0800 
 32 H        5.4460     3.0320    -0.7130 H     1 <1>   0.0800 
 33 H       -5.5160     6.4940     1.1920 H     1 <1>   0.1500 
 34 H       -2.8010     8.8420    -1.1040 H     1 <1>   0.1500 
 35 H        4.6310     3.6450     1.5310 H     1 <1>   0.0800 
 36 H        4.0570     5.1840     0.9090 H     1 <1>   0.0800 
 37 H        6.3580     5.8540     0.3790 H     1 <1>   0.0800 
 38 H        6.9560     4.2970     0.9590 H     1 <1>   0.0800 
 39 H       -6.3070     8.4790    -0.0420 H     1 <1>   0.0800 
 40 H       -5.1990     9.4350    -0.9890 H     1 <1>   0.0800 
 41 H       -5.2030     9.5780     0.7540 H     1 <1>   0.0800 
 42 H        7.2890     6.4780     3.7360 H     1 <1>   0.0800 
 43 H        7.5550     6.9860     2.0720 H     1 <1>   0.0800 
 44 H        8.1900     5.4340     2.6430 H     1 <1>   0.0800 
@<TRIPOS>BOND
  1   1   2  2   
  2   2   3  am  
  3   2   4  1   
  4   3   5  1   
  5   3   6  1   
  6   4   7  2   
  7   4  24  1   
  8   5   8  2   
  9   6   9  1   
 10   6  25  1   
 11   6  26  1   
 12   7   8  1   
 13   7  27  1   
 14   8  10  1   
 15   9  11  2   
 16   9  12  am  
 17  10  13  ar  
 18  10  14  ar  
 19  12  15  1   
 20  12  28  1   
 21  13  16  ar  
 22  13  29  1   
 23  14  17  ar  
 24  14  30  1   
 25  15  18  1   
 26  15  31  1   
 27  15  32  1   
 28  16  19  ar  
 29  16  33  1   
 30  17  19  ar  
 31  17  34  1   
 32  18  20  1   
 33  18  35  1   
 34  18  36  1   
 35  19  21  1   
 36  20  22  1   
 37  20  37  1   
 38  20  38  1   
 39  21  39  1   
 40  21  40  1   
 41  21  41  1   
 42  22  23  1   
 43  23  42  1   
 44  23  43  1   
 45  23  44  1   
@<TRIPOS>SUBSTRUCTURE
  1 ****   5 GROUP 4 **** **** 0

# MOE 2024.06 (io_trps.svl 2023.06)
