@<TRIPOS>MOLECULE
(S)-6-Cyclohexyl-5-nitro-piperidin-2-one
34 35 1 0 0 
SMALL
USER_CHARGES


@<TRIPOS>ATOM
  1 O        0.9900     0.9490    -1.5880 O.2   1 <1>  -0.5200 
  2 N        1.5490     0.8560    -0.4870 N.pl3 1 <1>   0.8000 
  3 O        1.2480     1.5780     0.4750 O.2   1 <1>  -0.5200 
  4 C        2.6310    -0.1410    -0.3340 C.3   1 <1>   0.1600 
  5 C        2.3930    -1.0360     0.9120 C.3   1 <1>   0.2200 
  6 C        4.0010     0.5720    -0.2740 C.3   1 <1>  -0.1600 
  7 N        3.6390    -1.7640     1.2780 N.am  1 <1>  -0.7300 
  8 C        1.2570    -2.0870     0.7980 C.3   1 <1>  -0.0800 
  9 C        5.1410    -0.4580    -0.2070 C.3   1 <1>  -0.0990 
 10 C        4.8940    -1.5320     0.8340 C.2   1 <1>   0.5690 
 11 C        1.4210    -3.0640    -0.3870 C.3   1 <1>  -0.1600 
 12 C       -0.1610    -1.4810     0.7810 C.3   1 <1>  -0.1600 
 13 O        5.8170    -2.1800     1.2490 O.2   1 <1>  -0.5700 
 14 C        0.3530    -4.1660    -0.3440 C.3   1 <1>  -0.1600 
 15 C       -1.2290    -2.5810     0.8420 C.3   1 <1>  -0.1600 
 16 C       -1.0610    -3.5730    -0.3170 C.3   1 <1>  -0.1600 
 17 H        2.6170    -0.7560    -1.2130 H     1 <1>   0.0800 
 18 H        2.1670    -0.3940     1.7480 H     1 <1>   0.0800 
 19 H        4.1350     1.1940    -1.1430 H     1 <1>   0.0800 
 20 H        4.0410     1.1950     0.6040 H     1 <1>   0.0800 
 21 H        3.5490    -2.4950     1.9870 H     1 <1>   0.3700 
 22 H        1.3090    -2.6740     1.7000 H     1 <1>   0.0800 
 23 H        6.0670     0.0380     0.0210 H     1 <1>   0.0800 
 24 H        5.2530    -0.9440    -1.1590 H     1 <1>   0.0800 
 25 H        1.3260    -2.5380    -1.3210 H     1 <1>   0.0800 
 26 H        2.3940    -3.5240    -0.3610 H     1 <1>   0.0800 
 27 H       -0.2900    -0.8170     1.6190 H     1 <1>   0.0800 
 28 H       -0.3260    -0.9180    -0.1200 H     1 <1>   0.0800 
 29 H        0.4580    -4.8040    -1.2060 H     1 <1>   0.0800 
 30 H        0.5010    -4.7740     0.5320 H     1 <1>   0.0800 
 31 H       -1.1530    -3.1070     1.7780 H     1 <1>   0.0800 
 32 H       -2.2080    -2.1360     0.7930 H     1 <1>   0.0800 
 33 H       -1.7830    -4.3650    -0.2200 H     1 <1>   0.0800 
 34 H       -1.2530    -3.0670    -1.2480 H     1 <1>   0.0800 
@<TRIPOS>BOND
  1   1   2  2   
  2   2   3  2   
  3   2   4  1   
  4   4   5  1   
  5   4   6  1   
  6   4  17  1   
  7   5   7  1   
  8   5   8  1   
  9   5  18  1   
 10   6   9  1   
 11   6  19  1   
 12   6  20  1   
 13   7  10  am  
 14   7  21  1   
 15   8  11  1   
 16   8  12  1   
 17   8  22  1   
 18   9  10  1   
 19   9  23  1   
 20   9  24  1   
 21  10  13  2   
 22  11  14  1   
 23  11  25  1   
 24  11  26  1   
 25  12  15  1   
 26  12  27  1   
 27  12  28  1   
 28  14  16  1   
 29  14  29  1   
 30  14  30  1   
 31  15  16  1   
 32  15  31  1   
 33  15  32  1   
 34  16  33  1   
 35  16  34  1   
@<TRIPOS>SUBSTRUCTURE
  1 ****   5 GROUP 4 **** **** 0

# MOE 2024.06 (io_trps.svl 2023.06)
