@<TRIPOS>MOLECULE
1028
35 35 1 0 0 
SMALL
USER_CHARGES


@<TRIPOS>ATOM
  1 O        1.2130    -0.3770    -1.0590 O.2   1 <1>  -0.5700 
  2 C        1.9170    -1.3010    -0.7280 C.2   1 <1>   0.7800 
  3 O        1.5030    -2.5410    -0.9910 O.3   1 <1>  -0.4300 
  4 N        3.0780    -1.0590    -0.0540 N.am  1 <1>  -0.5470 
  5 C        1.7610    -3.6310    -0.1340 C.3   1 <1>   0.1200 
  6 C        4.2750    -1.7690    -0.0130 C.ar  1 <1>   0.1170 
  7 C        0.7390    -4.7260    -0.4350 C.3   1 <1>  -0.1600 
  8 C        4.7390    -2.4870    -1.1090 C.ar  1 <1>  -0.1500 
  9 C        5.0490    -1.7560     1.1390 C.ar  1 <1>  -0.1500 
 10 C        0.9630    -5.9530     0.4580 C.3   1 <1>  -0.1600 
 11 C        5.9320    -3.1810    -1.0480 C.ar  1 <1>  -0.1500 
 12 C        6.2420    -2.4510     1.1970 C.ar  1 <1>  -0.1500 
 13 C       -0.0620    -7.0490     0.1530 C.3   1 <1>  -0.2400 
 14 C        6.7200    -3.1870     0.1080 C.ar  1 <1>   0.0860 
 15 C        7.9710    -3.9140     0.1890 C.2   1 <1>   0.6340 
 16 O        8.6630    -3.9380     1.1870 O.2   1 <1>  -0.5700 
 17 O        8.3790    -4.5910    -0.8900 O.3   1 <1>  -0.4300 
 18 C        9.5880    -5.3250    -0.8960 C.3   1 <1>   0.0400 
 19 H        3.1160    -0.0930     0.2650 H     1 <1>   0.3700 
 20 H        1.6720    -3.2980     0.8860 H     1 <1>   0.0800 
 21 H        2.7570    -3.9910    -0.3170 H     1 <1>   0.0800 
 22 H        0.8270    -5.0140    -1.4690 H     1 <1>   0.0800 
 23 H       -0.2510    -4.3370    -0.2690 H     1 <1>   0.0800 
 24 H        4.1610    -2.4990    -2.0170 H     1 <1>   0.1500 
 25 H        4.7130    -1.2010     1.9970 H     1 <1>   0.1500 
 26 H        0.8790    -5.6690     1.4930 H     1 <1>   0.0800 
 27 H        1.9540    -6.3430     0.2970 H     1 <1>   0.0800 
 28 H        6.2620    -3.7290    -1.9140 H     1 <1>   0.1500 
 29 H        6.8230    -2.4290     2.1040 H     1 <1>   0.1500 
 30 H       -1.0610    -6.6890     0.3270 H     1 <1>   0.0800 
 31 H        0.1090    -7.9010     0.7870 H     1 <1>   0.0800 
 32 H        0.0180    -7.3650    -0.8720 H     1 <1>   0.0800 
 33 H        9.5400    -6.0820    -0.1310 H     1 <1>   0.0800 
 34 H       10.4050    -4.6520    -0.7000 H     1 <1>   0.0800 
 35 H        9.7070    -5.7810    -1.8620 H     1 <1>   0.0800 
@<TRIPOS>BOND
  1   1   2  2   
  2   2   3  1   
  3   2   4  am  
  4   3   5  1   
  5   4   6  1   
  6   4  19  1   
  7   5   7  1   
  8   5  20  1   
  9   5  21  1   
 10   6   8  ar  
 11   6   9  ar  
 12   7  10  1   
 13   7  22  1   
 14   7  23  1   
 15   8  11  ar  
 16   8  24  1   
 17   9  12  ar  
 18   9  25  1   
 19  10  13  1   
 20  10  26  1   
 21  10  27  1   
 22  11  14  ar  
 23  11  28  1   
 24  12  14  ar  
 25  12  29  1   
 26  13  30  1   
 27  13  31  1   
 28  13  32  1   
 29  14  15  1   
 30  15  16  2   
 31  15  17  1   
 32  17  18  1   
 33  18  33  1   
 34  18  34  1   
 35  18  35  1   
@<TRIPOS>SUBSTRUCTURE
  1 ****   8 GROUP 4 **** **** 0

# MOE 2024.06 (io_trps.svl 2023.06)
