@<TRIPOS>MOLECULE
5696
40 41 1 0 0 
SMALL
USER_CHARGES


@<TRIPOS>ATOM
  1 BR       0.0130     0.0100    -0.4100 Br    1 <1>  -0.1110 
  2 C        1.6240    -1.0140    -0.1180 C.ar  1 <1>   0.1110 
  3 C        1.5330    -2.3770     0.1320 C.ar  1 <1>   0.0830 
  4 C        2.8280    -0.3440    -0.1670 C.ar  1 <1>  -0.1500 
  5 O        0.3070    -2.9570     0.1620 O.3   1 <1>  -0.3630 
  6 C        2.7220    -3.0710     0.3380 C.ar  1 <1>  -0.1500 
  7 C        4.0230    -1.0330     0.0340 C.ar  1 <1>   0.0280 
  8 C        0.1400    -4.3350     0.4150 C.3   1 <1>   0.0400 
  9 C        3.9370    -2.4050     0.2890 C.ar  1 <1>  -0.1500 
 10 C        5.2750    -0.3220    -0.0230 C.2   1 <1>  -0.1780 
 11 C        6.5380    -0.8090     0.0070 C.2   1 <1>  -0.1360 
 12 C        7.7580    -0.0480    -0.0450 C.2   1 <1>   0.6160 
 13 O        7.7200     1.1530     0.1460 O.2   1 <1>  -0.5700 
 14 N        8.9750    -0.6440    -0.2950 N.am  1 <1>  -0.6600 
 15 C       10.2530     0.0250     0.0750 C.3   1 <1>   0.1400 
 16 C        9.1580    -1.8990    -1.0720 C.3   1 <1>   0.1400 
 17 C       11.1160    -0.9430     0.8940 C.3   1 <1>  -0.1600 
 18 C        9.9900    -2.8880    -0.2510 C.3   1 <1>  -0.1600 
 19 C       11.3390    -2.2750     0.1590 C.3   1 <1>  -0.0800 
 20 C       12.1310    -3.2500     1.0370 C.3   1 <1>  -0.2400 
 21 H        2.8370     0.7120    -0.3650 H     1 <1>   0.1500 
 22 H        2.7190    -4.1260     0.5370 H     1 <1>   0.1500 
 23 H       -0.9120    -4.5520     0.3890 H     1 <1>   0.0800 
 24 H        0.5360    -4.5620     1.3890 H     1 <1>   0.0800 
 25 H        0.6480    -4.8950    -0.3510 H     1 <1>   0.0800 
 26 H        4.8340    -2.9700     0.4590 H     1 <1>   0.1500 
 27 H        5.1620     0.7470    -0.1020 H     1 <1>   0.1500 
 28 H        6.6980    -1.8620     0.0880 H     1 <1>   0.1500 
 29 H       10.7710     0.3160    -0.8220 H     1 <1>   0.0800 
 30 H       10.0630     0.9120     0.6560 H     1 <1>   0.0800 
 31 H        8.2140    -2.3360    -1.3400 H     1 <1>   0.0800 
 32 H        9.6780    -1.6650    -1.9860 H     1 <1>   0.0800 
 33 H       12.0630    -0.4770     1.0990 H     1 <1>   0.0800 
 34 H       10.6280    -1.1200     1.8360 H     1 <1>   0.0800 
 35 H        9.4310    -3.1710     0.6240 H     1 <1>   0.0800 
 36 H       10.1580    -3.7750    -0.8360 H     1 <1>   0.0800 
 37 H       11.9110    -2.0800    -0.7330 H     1 <1>   0.0800 
 38 H       11.5930    -3.4700     1.9420 H     1 <1>   0.0800 
 39 H       13.0840    -2.8250     1.3000 H     1 <1>   0.0800 
 40 H       12.3070    -4.1710     0.5090 H     1 <1>   0.0800 
@<TRIPOS>BOND
  1   1   2  1   
  2   2   3  ar  
  3   2   4  ar  
  4   3   5  1   
  5   3   6  ar  
  6   4   7  ar  
  7   4  21  1   
  8   5   8  1   
  9   6   9  ar  
 10   6  22  1   
 11   7   9  ar  
 12   7  10  1   
 13   8  23  1   
 14   8  24  1   
 15   8  25  1   
 16   9  26  1   
 17  10  11  2   
 18  10  27  1   
 19  11  12  1   
 20  11  28  1   
 21  12  13  2   
 22  12  14  am  
 23  14  15  1   
 24  14  16  1   
 25  15  17  1   
 26  15  29  1   
 27  15  30  1   
 28  16  18  1   
 29  16  31  1   
 30  16  32  1   
 31  17  19  1   
 32  17  33  1   
 33  17  34  1   
 34  18  19  1   
 35  18  35  1   
 36  18  36  1   
 37  19  20  1   
 38  19  37  1   
 39  20  38  1   
 40  20  39  1   
 41  20  40  1   
@<TRIPOS>SUBSTRUCTURE
  1 ****  11 GROUP 4 **** **** 0

# MOE 2024.06 (io_trps.svl 2023.06)
