@<TRIPOS>MOLECULE
3126
40 40 1 0 0 
SMALL
USER_CHARGES


@<TRIPOS>ATOM
  1 O       -0.4560     0.5490     0.7290 O.2   1 <1>  -0.5700 
  2 C       -0.6750     1.7060     0.4290 C.2   1 <1>   0.6340 
  3 O        0.2330     2.3630    -0.2990 O.3   1 <1>  -0.4300 
  4 C       -1.8780     2.4140     0.8210 C.ar  1 <1>   0.0860 
  5 C        1.4300     1.7460    -0.7210 C.3   1 <1>   0.1200 
  6 C       -2.8690     1.7850     1.5820 C.ar  1 <1>  -0.1500 
  7 C       -2.1090     3.7480     0.4670 C.ar  1 <1>  -0.1500 
  8 C        2.2380     2.7640    -1.5260 C.3   1 <1>  -0.1600 
  9 C       -4.0220     2.4450     1.9620 C.ar  1 <1>  -0.1500 
 10 C       -3.2610     4.4100     0.8460 C.ar  1 <1>  -0.1500 
 11 C        3.5580     2.1610    -2.0190 C.3   1 <1>  -0.2400 
 12 C       -4.2380     3.7640     1.5900 C.ar  1 <1>   0.1170 
 13 N       -5.3900     4.4330     1.9890 N.am  1 <1>  -0.5470 
 14 C       -6.6120     4.6230     1.4120 C.2   1 <1>   0.5690 
 15 O       -7.4110     5.2730     2.0410 O.2   1 <1>  -0.5700 
 16 C       -7.0110     4.0590     0.0130 C.3   1 <1>   0.0610 
 17 C       -6.1860     4.7160    -1.1100 C.3   1 <1>  -0.2400 
 18 C       -6.8340     2.5300    -0.0670 C.3   1 <1>  -0.2400 
 19 C       -8.4980     4.3510    -0.2920 C.3   1 <1>  -0.2400 
 20 H        1.1760     0.8890    -1.3230 H     1 <1>   0.0800 
 21 H        1.9720     1.4250     0.1530 H     1 <1>   0.0800 
 22 H       -2.7250     0.7590     1.8780 H     1 <1>   0.1500 
 23 H       -1.3710     4.2750    -0.1140 H     1 <1>   0.1500 
 24 H        2.4490     3.6180    -0.9060 H     1 <1>   0.0800 
 25 H        1.6580     3.0860    -2.3730 H     1 <1>   0.0800 
 26 H       -4.7660     1.9360     2.5500 H     1 <1>   0.1500 
 27 H       -3.4100     5.4380     0.5650 H     1 <1>   0.1500 
 28 H        4.1620     1.8460    -1.1870 H     1 <1>   0.0800 
 29 H        4.1090     2.8940    -2.5820 H     1 <1>   0.0800 
 30 H        3.3710     1.3130    -2.6540 H     1 <1>   0.0800 
 31 H       -5.3480     4.8780     2.9070 H     1 <1>   0.3700 
 32 H       -5.1510     4.4460    -1.0370 H     1 <1>   0.0800 
 33 H       -6.2660     5.7870    -1.0490 H     1 <1>   0.0800 
 34 H       -6.5400     4.4020    -2.0750 H     1 <1>   0.0800 
 35 H       -7.3350     2.0540     0.7570 H     1 <1>   0.0800 
 36 H       -5.7960     2.2570    -0.0420 H     1 <1>   0.0800 
 37 H       -7.2460     2.1470    -0.9830 H     1 <1>   0.0800 
 38 H       -8.6810     5.4110    -0.2850 H     1 <1>   0.0800 
 39 H       -9.1270     3.9000     0.4560 H     1 <1>   0.0800 
 40 H       -8.7840     3.9650    -1.2540 H     1 <1>   0.0800 
@<TRIPOS>BOND
  1   1   2  2   
  2   2   3  1   
  3   2   4  1   
  4   3   5  1   
  5   4   6  ar  
  6   4   7  ar  
  7   5   8  1   
  8   5  20  1   
  9   5  21  1   
 10   6   9  ar  
 11   6  22  1   
 12   7  10  ar  
 13   7  23  1   
 14   8  11  1   
 15   8  24  1   
 16   8  25  1   
 17   9  12  ar  
 18   9  26  1   
 19  10  12  ar  
 20  10  27  1   
 21  11  28  1   
 22  11  29  1   
 23  11  30  1   
 24  12  13  1   
 25  13  14  am  
 26  13  31  1   
 27  14  15  2   
 28  14  16  1   
 29  16  17  1   
 30  16  18  1   
 31  16  19  1   
 32  17  32  1   
 33  17  33  1   
 34  17  34  1   
 35  18  35  1   
 36  18  36  1   
 37  18  37  1   
 38  19  38  1   
 39  19  39  1   
 40  19  40  1   
@<TRIPOS>SUBSTRUCTURE
  1 ****   7 GROUP 4 **** **** 0

# MOE 2024.06 (io_trps.svl 2023.06)
