@<TRIPOS>MOLECULE
NONAME
49 51 1 0 0 
SMALL
USER_CHARGES


@<TRIPOS>ATOM
  1 S        1.1480     0.4420    -1.1220 S.3   1 <1>  -0.0800 
  2 C        1.7880     1.6710    -0.0390 C.2   1 <1>  -0.1400 
  3 C        1.0310     1.5980    -2.4360 C.2   1 <1>  -0.1100 
  4 C        1.8870     2.8530    -0.6750 C.2   1 <1>  -0.1500 
  5 C        2.1210     1.2490     1.3760 C.3   1 <1>   0.3200 
  6 C        1.4560     2.8120    -2.0400 C.2   1 <1>  -0.1500 
  7 N        3.1660     0.2060     1.2960 N.am  1 <1>  -0.7300 
  8 C        4.4390     0.3650     1.7390 C.2   1 <1>   0.5690 
  9 O        4.7850     1.3420     2.3610 O.2   1 <1>  -0.5700 
 10 C        5.5250    -0.6730     1.4090 C.3   1 <1>   0.4040 
 11 N        6.8770    -0.0370     1.1730 N.4   1 <1>  -0.9590 
 12 C        6.8650     0.8270    -0.0480 C.3   1 <1>   0.3430 
 13 C        7.9860    -1.0350     1.1820 C.3   1 <1>   0.3430 
 14 C        8.1990     1.5590    -0.1790 C.3   1 <1>  -0.1600 
 15 C        9.3240    -0.3150     1.0640 C.3   1 <1>  -0.1600 
 16 C        9.3480     0.5550    -0.1910 C.3   1 <1>   0.2200 
 17 N       10.6320     1.2650    -0.2620 N.am  1 <1>  -0.7300 
 18 C       11.7520     0.7460    -0.8530 C.2   1 <1>   0.5440 
 19 O       11.6830    -0.3810    -1.3040 O.2   1 <1>  -0.5700 
 20 C       12.9900     1.5050    -0.9090 C.ar  1 <1>   0.0860 
 21 C       13.0020     2.9020    -0.9350 C.ar  1 <1>  -0.1500 
 22 C       14.2240     0.8560    -0.9390 C.ar  1 <1>  -0.1500 
 23 C       14.1870     3.6140    -0.9720 C.ar  1 <1>  -0.1500 
 24 C       15.4140     1.5610    -0.9760 C.ar  1 <1>  -0.1500 
 25 C       15.3970     2.9430    -0.9900 C.ar  1 <1>  -0.1500 
 26 H        0.6490     1.2440    -3.3780 H     1 <1>   0.1500 
 27 H        2.2470     3.7720    -0.2430 H     1 <1>   0.1500 
 28 H        1.2450     0.8510     1.8590 H     1 <1>   0.0800 
 29 H        2.4690     2.0970     1.9420 H     1 <1>   0.0800 
 30 H        1.4830     3.6950    -2.6550 H     1 <1>   0.1500 
 31 H        2.8760    -0.5840     0.7140 H     1 <1>   0.3700 
 32 H        5.2250    -1.2310     0.5400 H     1 <1>   0.0800 
 33 H        5.5880    -1.3520     2.2420 H     1 <1>   0.0800 
 34 H        7.0020     0.6080     1.9730 H     1 <1>   0.4500 
 35 H        6.0680     1.5510     0.0180 H     1 <1>   0.0800 
 36 H        6.7020     0.2200    -0.9250 H     1 <1>   0.0800 
 37 H        7.8730    -1.7160     0.3530 H     1 <1>   0.0800 
 38 H        7.9660    -1.6060     2.0970 H     1 <1>   0.0800 
 39 H        8.3060     2.2530     0.6360 H     1 <1>   0.0800 
 40 H        8.2010     2.1140    -1.1010 H     1 <1>   0.0800 
 41 H       10.1070    -1.0500     0.9970 H     1 <1>   0.0800 
 42 H        9.4950     0.2810     1.9430 H     1 <1>   0.0800 
 43 H        9.2530    -0.0770    -1.0610 H     1 <1>   0.0800 
 44 H       10.7130     2.1410     0.2560 H     1 <1>   0.3700 
 45 H       12.0740     3.4440    -0.9370 H     1 <1>   0.1500 
 46 H       14.2470    -0.2210    -0.9320 H     1 <1>   0.1500 
 47 H       14.1740     4.6900    -0.9900 H     1 <1>   0.1500 
 48 H       16.3520     1.0330    -0.9960 H     1 <1>   0.1500 
 49 H       16.3210     3.4940    -1.0180 H     1 <1>   0.1500 
@<TRIPOS>BOND
  1   1   2  1   
  2   1   3  1   
  3   2   4  2   
  4   2   5  1   
  5   3   6  2   
  6   3  26  1   
  7   4   6  1   
  8   4  27  1   
  9   5   7  1   
 10   5  28  1   
 11   5  29  1   
 12   6  30  1   
 13   7   8  am  
 14   7  31  1   
 15   8   9  2   
 16   8  10  1   
 17  10  11  1   
 18  10  32  1   
 19  10  33  1   
 20  11  12  1   
 21  11  13  1   
 22  11  34  1   
 23  12  14  1   
 24  12  35  1   
 25  12  36  1   
 26  13  15  1   
 27  13  37  1   
 28  13  38  1   
 29  14  16  1   
 30  14  39  1   
 31  14  40  1   
 32  15  16  1   
 33  15  41  1   
 34  15  42  1   
 35  16  17  1   
 36  16  43  1   
 37  17  18  am  
 38  17  44  1   
 39  18  19  2   
 40  18  20  1   
 41  20  21  ar  
 42  20  22  ar  
 43  21  23  ar  
 44  21  45  1   
 45  22  24  ar  
 46  22  46  1   
 47  23  25  ar  
 48  23  47  1   
 49  24  25  ar  
 50  24  48  1   
 51  25  49  1   
@<TRIPOS>SUBSTRUCTURE
  1 ****  14 GROUP 4 **** **** 0

# MOE 2024.06 (io_trps.svl 2023.06)
