@<TRIPOS>MOLECULE
NONAME
36 36 1 0 0 
SMALL
USER_CHARGES


@<TRIPOS>ATOM
  1 O       -0.7250     2.3370    -2.5590 O.2   1 <1>  -0.5700 
  2 C       -0.9550     2.1440    -1.3790 C.2   1 <1>   0.5440 
  3 N        0.0700     2.2210    -0.4870 N.am  1 <1>  -0.7300 
  4 C       -2.3020     1.8440    -0.9200 C.ar  1 <1>   0.0860 
  5 C        1.5350     2.0790    -0.7680 C.3   1 <1>   0.1140 
  6 C       -3.4180     2.2400    -1.6590 C.ar  1 <1>  -0.1500 
  7 C       -2.5420     1.1520     0.2690 C.ar  1 <1>  -0.1500 
  8 C        2.1930     1.2020     0.3260 C.2   1 <1>   0.9060 
  9 C        2.1510     3.4940    -0.9200 C.3   1 <1>  -0.0800 
 10 C       -4.7060     1.9710    -1.2310 C.ar  1 <1>  -0.1500 
 11 C       -3.8280     0.8810     0.7010 C.ar  1 <1>  -0.1500 
 12 O        3.2790     0.6430     0.1170 O.co2 1 <1>  -0.9000 
 13 O        1.5740     1.0440     1.3960 O.co2 1 <1>  -0.9000 
 14 C        3.5940     3.4320    -1.4410 C.3   1 <1>  -0.2400 
 15 C        2.1070     4.3100     0.3830 C.3   1 <1>  -0.2400 
 16 C       -4.9210     1.2910    -0.0440 C.ar  1 <1>  -0.1430 
 17 C       -6.3350     0.9960     0.4290 C.3   1 <1>  -0.0170 
 18 C       -6.8270    -0.3350    -0.1430 C.3   1 <1>  -0.2400 
 19 H       -0.0780     1.9480     0.4960 H     1 <1>   0.3700 
 20 H        1.6510     1.5530    -1.6970 H     1 <1>   0.0800 
 21 H       -3.2620     2.7670    -2.5840 H     1 <1>   0.1500 
 22 H       -1.7090     0.8140     0.8630 H     1 <1>   0.1500 
 23 H        1.5670     4.0110    -1.6620 H     1 <1>   0.0800 
 24 H       -5.5410     2.2920    -1.8290 H     1 <1>   0.1500 
 25 H       -3.9720     0.3450     1.6230 H     1 <1>   0.1500 
 26 H        4.2360     2.9560    -0.7200 H     1 <1>   0.0800 
 27 H        3.9670     4.4220    -1.6330 H     1 <1>   0.0800 
 28 H        3.6330     2.8660    -2.3540 H     1 <1>   0.0800 
 29 H        2.6820     3.8220     1.1520 H     1 <1>   0.0800 
 30 H        1.0940     4.4060     0.7290 H     1 <1>   0.0800 
 31 H        2.5070     5.2940     0.2230 H     1 <1>   0.0800 
 32 H       -6.9930     1.7880     0.1180 H     1 <1>   0.0800 
 33 H       -6.3580     0.9570     1.5040 H     1 <1>   0.0800 
 34 H       -6.8220    -0.3010    -1.2180 H     1 <1>   0.0800 
 35 H       -7.8290    -0.5360     0.1930 H     1 <1>   0.0800 
 36 H       -6.1860    -1.1370     0.1790 H     1 <1>   0.0800 
@<TRIPOS>BOND
  1   1   2  2   
  2   2   3  am  
  3   2   4  1   
  4   3   5  1   
  5   3  19  1   
  6   4   6  ar  
  7   4   7  ar  
  8   5   8  1   
  9   5   9  1   
 10   5  20  1   
 11   6  10  ar  
 12   6  21  1   
 13   7  11  ar  
 14   7  22  1   
 15   8  12  ar  
 16   8  13  ar  
 17   9  14  1   
 18   9  15  1   
 19   9  23  1   
 20  10  16  ar  
 21  10  24  1   
 22  11  16  ar  
 23  11  25  1   
 24  14  26  1   
 25  14  27  1   
 26  14  28  1   
 27  15  29  1   
 28  15  30  1   
 29  15  31  1   
 30  16  17  1   
 31  17  18  1   
 32  17  32  1   
 33  17  33  1   
 34  18  34  1   
 35  18  35  1   
 36  18  36  1   
@<TRIPOS>SUBSTRUCTURE
  1 ****   2 GROUP 4 **** **** 0

# MOE 2024.06 (io_trps.svl 2023.06)
