@<TRIPOS>MOLECULE
N-Cyclopentyl-2-(3-furan-2-ylmethyl-2,4-dioxo-3,4-dihydro-2H-thieno[3,2-d]pyrimi
45 48 1 0 0 
SMALL
USER_CHARGES


@<TRIPOS>ATOM
  1 S        0.8860    -0.6190    -2.8390 S.3   1 <1>  -0.0800 
  2 C        2.1930    -0.9800    -1.7030 C.2   1 <1>  -0.0450 
  3 C       -0.1430    -1.8390    -2.1060 C.2   1 <1>  -0.1100 
  4 C        3.4740    -0.3720    -1.6820 C.2   1 <1>   0.7150 
  5 C        1.8070    -1.9490    -0.8400 C.2   1 <1>   0.0630 
  6 C        0.4850    -2.4450    -1.0800 C.2   1 <1>  -0.1500 
  7 O        3.8020     0.5100    -2.4570 O.2   1 <1>  -0.5700 
  8 N        4.3640    -0.8370    -0.7330 N.am  1 <1>  -0.4200 
  9 N        2.7140    -2.3530     0.1410 N.am  1 <1>  -0.4230 
 10 C        4.0110    -1.8550     0.1360 C.2   1 <1>   0.6900 
 11 C        5.6970    -0.1930    -0.6030 C.3   1 <1>   0.3200 
 12 C        2.3270    -3.3860     1.1560 C.3   1 <1>   0.2010 
 13 O        4.8450    -2.3350     0.8850 O.2   1 <1>  -0.5700 
 14 C        5.6600     0.9520     0.3960 C.2   1 <1>  -0.0400 
 15 C        2.6850    -4.7910     0.6940 C.2   1 <1>   0.5690 
 16 O        6.7930     1.5740     0.6630 O.3   1 <1>  -0.2800 
 17 C        4.6480     1.4990     1.1090 C.2   1 <1>  -0.1500 
 18 O        1.7980    -5.5800     0.4690 O.2   1 <1>  -0.5700 
 19 N        3.9960    -5.1030     0.5420 N.am  1 <1>  -0.7300 
 20 C        6.5350     2.5210     1.5420 C.2   1 <1>  -0.0100 
 21 C        5.2250     2.5290     1.8620 C.2   1 <1>  -0.1500 
 22 C        4.5380    -6.3610     0.0130 C.3   1 <1>   0.2200 
 23 C        5.7170    -6.7820     0.8800 C.3   1 <1>  -0.1600 
 24 C        5.1820    -6.0770    -1.3370 C.3   1 <1>  -0.1600 
 25 C        6.9060    -5.9410     0.3990 C.3   1 <1>  -0.1600 
 26 C        6.5560    -5.4750    -1.0200 C.3   1 <1>  -0.1600 
 27 H       -1.1220    -1.9790    -2.5310 H     1 <1>   0.1500 
 28 H        0.0580    -3.2360    -0.4900 H     1 <1>   0.1500 
 29 H        6.0240     0.1840    -1.5570 H     1 <1>   0.0800 
 30 H        6.4260    -0.9160    -0.2800 H     1 <1>   0.0800 
 31 H        1.2730    -3.3350     1.3520 H     1 <1>   0.0800 
 32 H        2.8350    -3.1910     2.0830 H     1 <1>   0.0800 
 33 H        3.6070     1.2330     1.1250 H     1 <1>   0.1500 
 34 H        4.7000    -4.3730     0.7070 H     1 <1>   0.3700 
 35 H        7.3430     3.1430     1.8870 H     1 <1>   0.1500 
 36 H        4.7010     3.1760     2.5440 H     1 <1>   0.1500 
 37 H        3.7700    -7.1160    -0.0430 H     1 <1>   0.0800 
 38 H        5.9250    -7.8210     0.6900 H     1 <1>   0.0800 
 39 H        5.5160    -6.6580     1.9290 H     1 <1>   0.0800 
 40 H        4.5750    -5.4330    -1.9490 H     1 <1>   0.0800 
 41 H        5.3190    -7.0110    -1.8530 H     1 <1>   0.0800 
 42 H        7.8150    -6.5190     0.4120 H     1 <1>   0.0800 
 43 H        7.0310    -5.0840     1.0400 H     1 <1>   0.0800 
 44 H        6.4970    -4.4000    -1.0420 H     1 <1>   0.0800 
 45 H        7.2920    -5.7980    -1.7360 H     1 <1>   0.0800 
@<TRIPOS>BOND
  1   1   2  1   
  2   1   3  1   
  3   2   4  1   
  4   2   5  2   
  5   3   6  2   
  6   3  27  1   
  7   4   7  2   
  8   4   8  am  
  9   5   6  1   
 10   5   9  1   
 11   6  28  1   
 12   8  10  am  
 13   8  11  1   
 14   9  10  am  
 15   9  12  1   
 16  10  13  2   
 17  11  14  1   
 18  11  29  1   
 19  11  30  1   
 20  12  15  1   
 21  12  31  1   
 22  12  32  1   
 23  14  16  1   
 24  14  17  2   
 25  15  18  2   
 26  15  19  am  
 27  16  20  1   
 28  17  21  1   
 29  17  33  1   
 30  19  22  1   
 31  19  34  1   
 32  20  21  2   
 33  20  35  1   
 34  21  36  1   
 35  22  23  1   
 36  22  24  1   
 37  22  37  1   
 38  23  25  1   
 39  23  38  1   
 40  23  39  1   
 41  24  26  1   
 42  24  40  1   
 43  24  41  1   
 44  25  26  1   
 45  25  42  1   
 46  25  43  1   
 47  26  44  1   
 48  26  45  1   
@<TRIPOS>SUBSTRUCTURE
  1 ****  10 GROUP 4 **** **** 0

# MOE 2024.06 (io_trps.svl 2023.06)
