@<TRIPOS>MOLECULE
NONAME
52 54 1 0 0 
SMALL
USER_CHARGES


@<TRIPOS>ATOM
  1 S        1.0590     0.5140     1.9550 S.3   1 <1>  -0.2860 
  2 C        0.8180     1.4640     0.4550 C.2   1 <1>   0.2420 
  3 C       -0.4520     0.8690     2.9760 C.3   1 <1>   0.1310 
  4 N       -0.0620     2.3960     0.3500 N.2   1 <1>  -0.5650 
  5 N        1.5550     1.2090    -0.6550 N.pl3 1 <1>   0.0480 
  6 C       -1.6550     0.1580     2.3790 C.2   1 <1>   0.5690 
  7 C        0.0740     2.7950    -0.9470 C.ar  1 <1>   0.2270 
  8 C        1.0690     2.0720    -1.5870 C.ar  1 <1>  -0.1520 
  9 C        2.6610     0.2460    -0.8170 C.3   1 <1>   0.1570 
 10 O       -2.0640    -0.8550     2.8940 O.2   1 <1>  -0.5700 
 11 N       -2.2290     0.6760     1.2710 N.am  1 <1>  -0.7300 
 12 C       -0.6350     3.7690    -1.6460 C.ar  1 <1>  -0.1500 
 13 C        1.3750     2.2980    -2.9320 C.ar  1 <1>  -0.1500 
 14 C        2.1680    -1.1220    -1.2470 C.2   1 <1>   0.5690 
 15 C       -3.2020    -0.0120     0.4100 C.3   1 <1>   0.3200 
 16 C       -0.3370     3.9990    -2.9710 C.ar  1 <1>  -0.1500 
 17 C        0.6670     3.2640    -3.6130 C.ar  1 <1>  -0.1500 
 18 O        2.7610    -1.6640    -2.1480 O.2   1 <1>  -0.5700 
 19 N        1.1220    -1.6980    -0.5920 N.am  1 <1>  -0.7300 
 20 C       -2.7970     0.2270    -1.0330 C.2   1 <1>  -0.0400 
 21 C        0.5980    -3.0620    -0.6940 C.3   1 <1>   0.3000 
 22 O       -1.6190    -0.2020    -1.4440 O.3   1 <1>  -0.2800 
 23 C       -3.4460     0.8540    -2.0380 C.2   1 <1>  -0.1500 
 24 C       -0.5370    -3.1630     0.3230 C.3   1 <1>  -0.2400 
 25 C        0.0580    -3.3170    -2.1000 C.3   1 <1>  -0.2400 
 26 C        1.7000    -4.0580    -0.3340 C.3   1 <1>  -0.2400 
 27 C       -1.4860     0.1430    -2.7080 C.2   1 <1>  -0.0100 
 28 C       -2.5830     0.7990    -3.1400 C.2   1 <1>  -0.1500 
 29 H       -0.5960     1.9330     2.9890 H     1 <1>   0.0800 
 30 H       -0.2570     0.5080     3.9690 H     1 <1>   0.0800 
 31 H        3.1890     0.1500     0.1120 H     1 <1>   0.0800 
 32 H        3.3430     0.6220    -1.5540 H     1 <1>   0.0800 
 33 H       -1.7270     1.4330     0.7830 H     1 <1>   0.3700 
 34 H       -1.4020     4.3190    -1.1330 H     1 <1>   0.1500 
 35 H        2.1440     1.7260    -3.4220 H     1 <1>   0.1500 
 36 H       -4.1840     0.3870     0.5910 H     1 <1>   0.0800 
 37 H       -3.2090    -1.0680     0.6220 H     1 <1>   0.0800 
 38 H       -0.8760     4.7480    -3.5250 H     1 <1>   0.1500 
 39 H        0.8800     3.4610    -4.6490 H     1 <1>   0.1500 
 40 H        0.5820    -1.1320     0.0670 H     1 <1>   0.3700 
 41 H       -4.4160     1.3180    -2.0320 H     1 <1>   0.1500 
 42 H       -0.1790    -2.9620     1.3170 H     1 <1>   0.0800 
 43 H       -0.9570    -4.1520     0.3120 H     1 <1>   0.0800 
 44 H       -1.3190    -2.4660     0.0860 H     1 <1>   0.0800 
 45 H       -0.7080    -2.6050    -2.3450 H     1 <1>   0.0800 
 46 H       -0.3670    -4.3020    -2.1580 H     1 <1>   0.0800 
 47 H        0.8450    -3.2510    -2.8290 H     1 <1>   0.0800 
 48 H        2.0970    -3.8430     0.6420 H     1 <1>   0.0800 
 49 H        2.4960    -4.0190    -1.0540 H     1 <1>   0.0800 
 50 H        1.3060    -5.0580    -0.3290 H     1 <1>   0.0800 
 51 H       -0.5760    -0.1150    -3.2230 H     1 <1>   0.1500 
 52 H       -2.7800     1.2090    -4.1140 H     1 <1>   0.1500 
@<TRIPOS>BOND
  1   1   2  1   
  2   1   3  1   
  3   2   4  2   
  4   2   5  1   
  5   3   6  1   
  6   3  29  1   
  7   3  30  1   
  8   4   7  1   
  9   5   8  1   
 10   5   9  1   
 11   6  10  2   
 12   6  11  am  
 13   7   8  ar  
 14   7  12  ar  
 15   8  13  ar  
 16   9  14  1   
 17   9  31  1   
 18   9  32  1   
 19  11  15  1   
 20  11  33  1   
 21  12  16  ar  
 22  12  34  1   
 23  13  17  ar  
 24  13  35  1   
 25  14  18  2   
 26  14  19  am  
 27  15  20  1   
 28  15  36  1   
 29  15  37  1   
 30  16  17  ar  
 31  16  38  1   
 32  17  39  1   
 33  19  21  1   
 34  19  40  1   
 35  20  22  1   
 36  20  23  2   
 37  21  24  1   
 38  21  25  1   
 39  21  26  1   
 40  22  27  1   
 41  23  28  1   
 42  23  41  1   
 43  24  42  1   
 44  24  43  1   
 45  24  44  1   
 46  25  45  1   
 47  25  46  1   
 48  25  47  1   
 49  26  48  1   
 50  26  49  1   
 51  26  50  1   
 52  27  28  2   
 53  27  51  1   
 54  28  52  1   
@<TRIPOS>SUBSTRUCTURE
  1 ****  22 GROUP 4 **** **** 0

# MOE 2024.06 (io_trps.svl 2023.06)
