@<TRIPOS>MOLECULE
18542
43 45 1 0 0 
SMALL
USER_CHARGES


@<TRIPOS>ATOM
  1 CL       1.5890     2.1170     0.7710 Cl    1 <1>  -0.1770 
  2 C        2.5440     0.6640     0.9180 C.ar  1 <1>   0.1770 
  3 C        3.7180     0.5480     0.2110 C.ar  1 <1>  -0.1500 
  4 C        2.0980    -0.3510     1.7500 C.ar  1 <1>  -0.1500 
  5 C        4.4940    -0.6110     0.3210 C.ar  1 <1>   0.0860 
  6 C        2.8490    -1.5010     1.8690 C.ar  1 <1>  -0.1500 
  7 C        5.7360    -0.7980    -0.3820 C.2   1 <1>   0.4690 
  8 C        4.0440    -1.6420     1.1620 C.ar  1 <1>   0.1000 
  9 O        6.2080     0.0850    -1.0890 O.2   1 <1>  -0.5700 
 10 C        6.4410    -2.0250    -0.2270 C.2   1 <1>  -0.1240 
 11 N        4.8000    -2.8010     1.2770 N.pl3 1 <1>  -0.6000 
 12 C        5.9670    -3.0040     0.5920 C.2   1 <1>  -0.0380 
 13 C        7.7130    -2.1520    -1.0420 C.3   1 <1>   0.4810 
 14 C        6.6130    -4.3580     0.8360 C.3   1 <1>  -0.1020 
 15 N        8.9000    -1.7910    -0.2120 N.4   1 <1>  -0.9590 
 16 C        8.9500    -0.3180     0.0420 C.3   1 <1>   0.3430 
 17 C       10.1590    -2.2770    -0.8410 C.3   1 <1>   0.3430 
 18 C       10.1120     0.0060     0.9810 C.3   1 <1>  -0.1600 
 19 C       11.3410    -1.9980     0.0870 C.3   1 <1>  -0.1600 
 20 C       11.4500    -0.5060     0.4290 C.3   1 <1>  -0.0800 
 21 C       12.5780    -0.2620     1.4370 C.3   1 <1>  -0.2400 
 22 H        4.0390     1.3520    -0.4280 H     1 <1>   0.1500 
 23 H        1.1750    -0.2270     2.2890 H     1 <1>   0.1500 
 24 H        2.5120    -2.2950     2.5110 H     1 <1>   0.1500 
 25 H        4.4330    -3.5430     1.8880 H     1 <1>   0.4000 
 26 H        7.6600    -1.5180    -1.9130 H     1 <1>   0.0800 
 27 H        7.8040    -3.1700    -1.3810 H     1 <1>   0.0800 
 28 H        6.8250    -4.4790     1.8840 H     1 <1>   0.0800 
 29 H        5.9370    -5.1400     0.5360 H     1 <1>   0.0800 
 30 H        7.5290    -4.4850     0.2910 H     1 <1>   0.0800 
 31 H        8.7930    -2.2490     0.7000 H     1 <1>   0.4500 
 32 H        8.0300     0.0160     0.4920 H     1 <1>   0.0800 
 33 H        9.0760     0.2120    -0.8900 H     1 <1>   0.0800 
 34 H       10.3160    -1.7720    -1.7810 H     1 <1>   0.0800 
 35 H       10.0960    -3.3370    -1.0310 H     1 <1>   0.0800 
 36 H        9.9160    -0.4240     1.9480 H     1 <1>   0.0800 
 37 H       10.1630     1.0740     1.1100 H     1 <1>   0.0800 
 38 H       12.2470    -2.3190    -0.3980 H     1 <1>   0.0800 
 39 H       11.2340    -2.5810     0.9860 H     1 <1>   0.0800 
 40 H       11.6820     0.0400    -0.4720 H     1 <1>   0.0800 
 41 H       12.3950    -0.7870     2.3580 H     1 <1>   0.0800 
 42 H       12.6660     0.7880     1.6550 H     1 <1>   0.0800 
 43 H       13.5190    -0.5980     1.0350 H     1 <1>   0.0800 
@<TRIPOS>BOND
  1   1   2  1   
  2   2   3  ar  
  3   2   4  ar  
  4   3   5  ar  
  5   3  22  1   
  6   4   6  ar  
  7   4  23  1   
  8   5   7  1   
  9   5   8  ar  
 10   6   8  ar  
 11   6  24  1   
 12   7   9  2   
 13   7  10  1   
 14   8  11  1   
 15  10  12  2   
 16  10  13  1   
 17  11  12  1   
 18  11  25  1   
 19  12  14  1   
 20  13  15  1   
 21  13  26  1   
 22  13  27  1   
 23  14  28  1   
 24  14  29  1   
 25  14  30  1   
 26  15  16  1   
 27  15  17  1   
 28  15  31  1   
 29  16  18  1   
 30  16  32  1   
 31  16  33  1   
 32  17  19  1   
 33  17  34  1   
 34  17  35  1   
 35  18  20  1   
 36  18  36  1   
 37  18  37  1   
 38  19  20  1   
 39  19  38  1   
 40  19  39  1   
 41  20  21  1   
 42  20  40  1   
 43  21  41  1   
 44  21  42  1   
 45  21  43  1   
@<TRIPOS>SUBSTRUCTURE
  1 ****  10 GROUP 4 **** **** 0

# MOE 2024.06 (io_trps.svl 2023.06)
