@<TRIPOS>MOLECULE
NONAME
57 60 1 0 0 
SMALL
USER_CHARGES


@<TRIPOS>ATOM
  1 CL      -3.2770    -2.1650    -2.8610 Cl    1 <1>  -0.1830 
  2 C       -2.1170    -2.7060    -1.6720 C.ar  1 <1>   0.1710 
  3 C       -2.1070    -2.1400    -0.4050 C.ar  1 <1>  -0.1500 
  4 C       -1.2490    -3.7240    -2.0140 C.ar  1 <1>  -0.1560 
  5 C       -1.1960    -2.6130     0.5300 C.ar  1 <1>  -0.1560 
  6 C       -3.0990    -1.0510    -0.0380 C.3   1 <1>   0.4930 
  7 C       -0.3500    -4.1930    -1.0720 C.ar  1 <1>  -0.1560 
  8 C       -0.3250    -3.6370     0.1960 C.ar  1 <1>  -0.1560 
  9 N       -4.4560    -1.6170     0.2150 N.pl3 1 <1>  -0.7670 
 10 C       -4.8840    -2.8680     0.4190 C.cat 1 <1>   1.0690 
 11 C       -5.6040    -0.7980     0.1930 C.2   1 <1>   0.2710 
 12 N       -6.2040    -2.8770     0.5200 N.pl3 1 <1>  -0.7030 
 13 N       -4.1310    -3.9650     0.5060 N.pl3 1 <1>  -0.7170 
 14 C       -5.8420     0.6050     0.0300 C.2   1 <1>   0.7000 
 15 C       -6.6630    -1.6120     0.3750 C.2   1 <1>   0.4210 
 16 C       -4.5770    -5.3520     0.8110 C.3   1 <1>   0.1610 
 17 O       -4.9110     1.3840    -0.0930 O.2   1 <1>  -0.5740 
 18 N       -7.1570     1.0530     0.0290 N.am  1 <1>  -0.4250 
 19 N       -7.9730    -1.1820     0.3980 N.am  1 <1>  -0.4410 
 20 C       -5.1550    -6.0430    -0.4380 C.3   1 <1>   0.1340 
 21 C       -8.2180     0.1730     0.2260 C.2   1 <1>   0.6870 
 22 C       -7.4520     2.5090    -0.1550 C.3   1 <1>   0.0530 
 23 C       -9.0810    -2.1690     0.5790 C.3   1 <1>   0.0530 
 24 N       -6.3430    -6.8620    -0.0890 N.am  1 <1>  -0.7330 
 25 O       -9.3570     0.5940     0.2510 O.2   1 <1>  -0.5740 
 26 C       -7.5490    -6.3690     0.3060 C.2   1 <1>   0.5730 
 27 O       -7.6870    -5.1870     0.5260 O.2   1 <1>  -0.5740 
 28 C       -8.7190    -7.3250     0.4990 C.3   1 <1>   0.0460 
 29 C       -8.9100    -8.3730    -0.6320 C.3   1 <1>  -0.0070 
 30 C      -10.1100    -6.7600     0.0950 C.3   1 <1>  -0.0070 
 31 C      -10.4370    -8.1750    -0.4480 C.3   1 <1>  -0.0070 
 32 H       -1.2740    -4.1440    -3.0050 H     1 <1>   0.1440 
 33 H       -1.1480    -2.1920     1.5220 H     1 <1>   0.1440 
 34 H       -3.1480    -0.3350    -0.8420 H     1 <1>   0.0730 
 35 H       -2.7640    -0.5260     0.8410 H     1 <1>   0.0730 
 36 H        0.3360    -4.9850    -1.3280 H     1 <1>   0.1440 
 37 H        0.3850    -3.9990     0.9220 H     1 <1>   0.1440 
 38 H       -6.7810    -3.7260     0.6170 H     1 <1>   0.4450 
 39 H       -3.1240    -3.8540     0.3460 H     1 <1>   0.4450 
 40 H       -5.3200    -5.3140     1.5910 H     1 <1>   0.0730 
 41 H       -3.7430    -5.9220     1.1830 H     1 <1>   0.0730 
 42 H       -4.4060    -6.6750    -0.8850 H     1 <1>   0.0730 
 43 H       -5.4570    -5.3090    -1.1660 H     1 <1>   0.0730 
 44 H       -6.6300     3.0150    -0.6310 H     1 <1>   0.0730 
 45 H       -7.6360     2.9620     0.8040 H     1 <1>   0.0730 
 46 H       -8.3260     2.6340    -0.7710 H     1 <1>   0.0730 
 47 H       -8.9240    -2.7360     1.4800 H     1 <1>   0.0730 
 48 H       -9.1090    -2.8430    -0.2600 H     1 <1>   0.0730 
 49 H      -10.0340    -1.6750     0.6520 H     1 <1>   0.0730 
 50 H       -6.2690    -7.8660    -0.2850 H     1 <1>   0.3650 
 51 H       -8.7360    -7.7780     1.4760 H     1 <1>  -0.0070 
 52 H       -8.5640    -9.3580    -0.3760 H     1 <1>  -0.0070 
 53 H       -8.5650    -8.0290    -1.5930 H     1 <1>  -0.0070 
 54 H      -10.0590    -6.0220    -0.6880 H     1 <1>  -0.0070 
 55 H      -10.7180    -6.4630     0.9300 H     1 <1>  -0.0070 
 56 H      -10.8530    -8.8240     0.3040 H     1 <1>  -0.0070 
 57 H      -10.9900    -8.1710    -1.3710 H     1 <1>  -0.0070 
@<TRIPOS>BOND
  1   1   2  1   
  2   2   3  ar  
  3   2   4  ar  
  4   3   5  ar  
  5   3   6  1   
  6   4   7  ar  
  7   4  32  1   
  8   5   8  ar  
  9   5  33  1   
 10   6   9  1   
 11   6  34  1   
 12   6  35  1   
 13   7   8  ar  
 14   7  36  1   
 15   8  37  1   
 16   9  10  ar  
 17   9  11  1   
 18  10  12  ar  
 19  10  13  ar  
 20  11  14  1   
 21  11  15  2   
 22  12  15  1   
 23  12  38  1   
 24  13  16  1   
 25  13  39  1   
 26  14  17  2   
 27  14  18  am  
 28  15  19  1   
 29  16  20  1   
 30  16  40  1   
 31  16  41  1   
 32  18  21  am  
 33  18  22  1   
 34  19  21  am  
 35  19  23  1   
 36  20  24  1   
 37  20  42  1   
 38  20  43  1   
 39  21  25  2   
 40  22  44  1   
 41  22  45  1   
 42  22  46  1   
 43  23  47  1   
 44  23  48  1   
 45  23  49  1   
 46  24  26  am  
 47  24  50  1   
 48  26  27  2   
 49  26  28  1   
 50  28  29  1   
 51  28  30  1   
 52  28  51  1   
 53  29  31  1   
 54  29  52  1   
 55  29  53  1   
 56  30  31  1   
 57  30  54  1   
 58  30  55  1   
 59  31  56  1   
 60  31  57  1   
@<TRIPOS>SUBSTRUCTURE
  1 ****  12 GROUP 4 **** **** 0

# MOE 2024.06 (io_trps.svl 2023.06)
