@<TRIPOS>MOLECULE
NONAME
55 58 1 0 0 
SMALL
USER_CHARGES


@<TRIPOS>ATOM
  1 S        0.0130    -0.4530    -2.5720 S.o2  1 <1>   1.4470 
  2 O       -0.7200     0.3550    -3.5220 O.2   1 <1>  -0.6500 
  3 O        0.8260    -1.5510    -3.0400 O.2   1 <1>  -0.6500 
  4 N       -1.1820    -1.1510    -1.5870 N.am  1 <1>  -0.8490 
  5 C        0.9460     0.5850    -1.4160 C.ar  1 <1>  -0.0090 
  6 C       -1.8240    -2.2860    -2.2700 C.3   1 <1>   0.1960 
  7 C       -2.1850    -0.1680    -1.1410 C.3   1 <1>   0.1960 
  8 C        1.4030     0.0640    -0.2100 C.ar  1 <1>  -0.1500 
  9 C        1.2200     1.9200    -1.7010 C.ar  1 <1>  -0.1500 
 10 C       -2.8890    -2.9640    -1.3820 C.3   1 <1>   0.3430 
 11 C       -3.2470    -0.8150    -0.2250 C.3   1 <1>   0.3430 
 12 C        2.0930     0.8530     0.6920 C.ar  1 <1>   0.0830 
 13 C        1.9120     2.7200    -0.8050 C.ar  1 <1>  -0.1500 
 14 N       -3.9350    -1.9980    -0.8700 N.4   1 <1>  -0.9590 
 15 O        2.5150     0.2980     1.8540 O.3   1 <1>  -0.3620 
 16 C        2.3430     2.1930     0.3980 C.ar  1 <1>   0.0830 
 17 C       -4.9290    -2.6540     0.0390 C.3   1 <1>   0.4230 
 18 C        3.4970     1.0130     2.5810 C.3   1 <1>   0.1200 
 19 O        3.0010     2.9940     1.2720 O.3   1 <1>  -0.3630 
 20 C       -5.6170    -3.8280    -0.6830 C.3   1 <1>  -0.1600 
 21 C       -5.9840    -1.6290     0.5020 C.3   1 <1>  -0.1600 
 22 C        3.1640     2.5120     2.5940 C.3   1 <1>   0.1200 
 23 C       -6.7200    -4.4690     0.1730 C.3   1 <1>  -0.1600 
 24 C       -7.0850    -2.2770     1.3550 C.3   1 <1>  -0.1600 
 25 C       -7.7630    -3.4350     0.6130 C.3   1 <1>  -0.0800 
 26 C       -8.8230    -4.0920     1.5040 C.3   1 <1>  -0.2400 
 27 H       -1.0780    -3.0230    -2.5190 H     1 <1>   0.0800 
 28 H       -2.2740    -1.9550    -3.1920 H     1 <1>   0.0800 
 29 H       -1.6960     0.6200    -0.5940 H     1 <1>   0.0800 
 30 H       -2.6770     0.2790    -1.9900 H     1 <1>   0.0800 
 31 H        1.2250    -0.9680     0.0340 H     1 <1>   0.1500 
 32 H        0.8890     2.3430    -2.6350 H     1 <1>   0.1500 
 33 H       -3.3570    -3.7450    -1.9570 H     1 <1>   0.0800 
 34 H       -2.3850    -3.4250    -0.5480 H     1 <1>   0.0800 
 35 H       -3.9720    -0.0620     0.0330 H     1 <1>   0.0800 
 36 H       -2.7610    -1.1310     0.6840 H     1 <1>   0.0800 
 37 H        2.1190     3.7510    -1.0330 H     1 <1>   0.1500 
 38 H       -4.4600    -1.6500    -1.6810 H     1 <1>   0.4500 
 39 H       -4.4220    -3.0390     0.9100 H     1 <1>   0.0800 
 40 H        4.4500     0.8460     2.1110 H     1 <1>   0.0800 
 41 H        3.5230     0.6190     3.5810 H     1 <1>   0.0800 
 42 H       -4.9090    -4.6030    -0.9110 H     1 <1>   0.0800 
 43 H       -6.0580    -3.4820    -1.6020 H     1 <1>   0.0800 
 44 H       -5.5320    -0.8640     1.1060 H     1 <1>   0.0800 
 45 H       -6.4440    -1.1680    -0.3540 H     1 <1>   0.0800 
 46 H        3.9540     3.0750     3.0560 H     1 <1>   0.0800 
 47 H        2.2470     2.6860     3.1280 H     1 <1>   0.0800 
 48 H       -7.2050    -5.2470    -0.3940 H     1 <1>   0.0800 
 49 H       -6.2800    -4.9290     1.0430 H     1 <1>   0.0800 
 50 H       -7.8230    -1.5340     1.6080 H     1 <1>   0.0800 
 51 H       -6.6620    -2.6390     2.2770 H     1 <1>   0.0800 
 52 H       -8.2590    -3.0460    -0.2620 H     1 <1>   0.0800 
 53 H       -8.3780    -4.4980     2.3960 H     1 <1>   0.0800 
 54 H       -9.3160    -4.8880     0.9740 H     1 <1>   0.0800 
 55 H       -9.5690    -3.3710     1.7920 H     1 <1>   0.0800 
@<TRIPOS>BOND
  1   1   2  2   
  2   1   3  2   
  3   1   4  am  
  4   1   5  1   
  5   4   6  1   
  6   4   7  1   
  7   5   8  ar  
  8   5   9  ar  
  9   6  10  1   
 10   6  27  1   
 11   6  28  1   
 12   7  11  1   
 13   7  29  1   
 14   7  30  1   
 15   8  12  ar  
 16   8  31  1   
 17   9  13  ar  
 18   9  32  1   
 19  10  14  1   
 20  10  33  1   
 21  10  34  1   
 22  11  14  1   
 23  11  35  1   
 24  11  36  1   
 25  12  15  1   
 26  12  16  ar  
 27  13  16  ar  
 28  13  37  1   
 29  14  17  1   
 30  14  38  1   
 31  15  18  1   
 32  16  19  1   
 33  17  20  1   
 34  17  21  1   
 35  17  39  1   
 36  18  22  1   
 37  18  40  1   
 38  18  41  1   
 39  19  22  1   
 40  20  23  1   
 41  20  42  1   
 42  20  43  1   
 43  21  24  1   
 44  21  44  1   
 45  21  45  1   
 46  22  46  1   
 47  22  47  1   
 48  23  25  1   
 49  23  48  1   
 50  23  49  1   
 51  24  25  1   
 52  24  50  1   
 53  24  51  1   
 54  25  26  1   
 55  25  52  1   
 56  26  53  1   
 57  26  54  1   
 58  26  55  1   
@<TRIPOS>SUBSTRUCTURE
  1 ****   7 GROUP 4 **** **** 0

# MOE 2024.06 (io_trps.svl 2023.06)
