@<TRIPOS>MOLECULE
[8-(4-Ethyl-phenyl)-1,6-dimethyl-2,4-dioxo-1,4,5,6,7,8-hexahydro-2H-1,3,4b,8,9-p
56 59 1 0 0 
SMALL
USER_CHARGES


@<TRIPOS>ATOM
  1 O        0.5500    -0.0790     0.2210 O.2   1 <1>  -0.5740 
  2 C        1.5650     0.5620     0.4020 C.2   1 <1>   0.6870 
  3 N        1.4780     1.9180     0.6860 N.am  1 <1>  -0.4250 
  4 N        2.8060    -0.0570     0.3200 N.am  1 <1>  -0.4410 
  5 C        2.6120     2.6790     0.9150 C.2   1 <1>   0.7000 
  6 C        0.2320     2.6440     0.2680 C.3   1 <1>   0.1950 
  7 C        3.9330     0.7310     0.4620 C.2   1 <1>   0.4210 
  8 C        2.9150    -1.5100    -0.0040 C.3   1 <1>   0.0530 
  9 O        2.5130     3.8490     1.2460 O.2   1 <1>  -0.5740 
 10 C        3.8860     2.0500     0.7530 C.2   1 <1>   0.2710 
 11 C        0.3160     3.0840    -1.1990 C.2   1 <1>   0.6550 
 12 N        5.2390     0.3580     0.3430 N.pl3 1 <1>  -0.7030 
 13 N        5.2180     2.4830     0.8130 N.pl3 1 <1>  -0.7670 
 14 O        1.3380     2.9400    -1.8230 O.2   1 <1>  -0.5740 
 15 O       -0.7460     3.6390    -1.7770 O.3   1 <1>  -0.4350 
 16 C        5.9900     1.4360     0.5570 C.cat 1 <1>   1.0690 
 17 C        5.7120     3.8530     1.0680 C.3   1 <1>   0.3490 
 18 C       -2.0080     3.8240    -1.1710 C.3   1 <1>   0.0330 
 19 N        7.3330     1.4990     0.5280 N.pl3 1 <1>  -0.5790 
 20 C        7.1380     3.9920     0.5040 C.3   1 <1>  -0.0870 
 21 C        8.1320     0.3920     0.2360 C.ar  1 <1>   0.3050 
 22 C        8.0160     2.7780     0.8690 C.3   1 <1>   0.1610 
 23 C        7.7940     5.2950     0.9860 C.3   1 <1>  -0.2460 
 24 C        8.3060    -0.0190    -1.0790 C.ar  1 <1>  -0.1570 
 25 C        8.7370    -0.3280     1.2570 C.ar  1 <1>  -0.1570 
 26 C        9.0590    -1.1420    -1.3660 C.ar  1 <1>  -0.1570 
 27 C        9.4900    -1.4510     0.9690 C.ar  1 <1>  -0.1570 
 28 C        9.6510    -1.8660    -0.3440 C.ar  1 <1>  -0.1500 
 29 C       10.4820    -3.1000    -0.6600 C.3   1 <1>  -0.0240 
 30 C       11.9460    -2.7190    -0.8830 C.3   1 <1>  -0.2460 
 31 H        0.0930     3.5120     0.8850 H     1 <1>   0.0730 
 32 H       -0.6240     2.0080     0.4000 H     1 <1>   0.0730 
 33 H        3.0610    -1.6340    -1.0630 H     1 <1>   0.0730 
 34 H        2.0150    -2.0290     0.2820 H     1 <1>   0.0730 
 35 H        3.7380    -1.9520     0.5270 H     1 <1>   0.0730 
 36 H        5.6120    -0.5610     0.1170 H     1 <1>   0.4450 
 37 H        5.7110     4.0340     2.1300 H     1 <1>   0.0730 
 38 H        5.0600     4.5730     0.6000 H     1 <1>   0.0730 
 39 H       -2.6520     4.3050    -1.8860 H     1 <1>   0.0730 
 40 H       -1.8980     4.4530    -0.3040 H     1 <1>   0.0730 
 41 H       -2.4180     2.8660    -0.9050 H     1 <1>   0.0730 
 42 H        7.0690     4.0450    -0.5700 H     1 <1>   0.0730 
 43 H        8.9520     2.8390     0.3370 H     1 <1>   0.0730 
 44 H        8.2320     2.7850     1.9250 H     1 <1>   0.0730 
 45 H        7.8990     5.3030     2.0580 H     1 <1>   0.0730 
 46 H        7.2000     6.1450     0.6950 H     1 <1>   0.0730 
 47 H        8.7710     5.4070     0.5480 H     1 <1>   0.0730 
 48 H        7.8590     0.5390    -1.8820 H     1 <1>   0.1430 
 49 H        8.6210    -0.0150     2.2790 H     1 <1>   0.1430 
 50 H        9.1940    -1.4540    -2.3890 H     1 <1>   0.1430 
 51 H        9.9600    -2.0040     1.7660 H     1 <1>   0.1430 
 52 H       10.0980    -3.5820    -1.5420 H     1 <1>   0.0730 
 53 H       10.4140    -3.8040     0.1510 H     1 <1>   0.0730 
 54 H       12.0310    -2.0300    -1.7050 H     1 <1>   0.0730 
 55 H       12.5270    -3.5960    -1.1060 H     1 <1>   0.0730 
 56 H       12.3480    -2.2530     0.0000 H     1 <1>   0.0730 
@<TRIPOS>BOND
  1   1   2  2   
  2   2   3  am  
  3   2   4  am  
  4   3   5  am  
  5   3   6  1   
  6   4   7  1   
  7   4   8  1   
  8   5   9  2   
  9   5  10  1   
 10   6  11  1   
 11   6  31  1   
 12   6  32  1   
 13   7  10  2   
 14   7  12  1   
 15   8  33  1   
 16   8  34  1   
 17   8  35  1   
 18  10  13  1   
 19  11  14  2   
 20  11  15  1   
 21  12  16  ar  
 22  12  36  1   
 23  13  16  ar  
 24  13  17  1   
 25  15  18  1   
 26  16  19  ar  
 27  17  20  1   
 28  17  37  1   
 29  17  38  1   
 30  18  39  1   
 31  18  40  1   
 32  18  41  1   
 33  19  21  1   
 34  19  22  1   
 35  20  22  1   
 36  20  23  1   
 37  20  42  1   
 38  21  24  ar  
 39  21  25  ar  
 40  22  43  1   
 41  22  44  1   
 42  23  45  1   
 43  23  46  1   
 44  23  47  1   
 45  24  26  ar  
 46  24  48  1   
 47  25  27  ar  
 48  25  49  1   
 49  26  28  ar  
 50  26  50  1   
 51  27  28  ar  
 52  27  51  1   
 53  28  29  1   
 54  29  30  1   
 55  29  52  1   
 56  29  53  1   
 57  30  54  1   
 58  30  55  1   
 59  30  56  1   
@<TRIPOS>SUBSTRUCTURE
  1 ****  12 GROUP 4 **** **** 0

# MOE 2024.06 (io_trps.svl 2023.06)
