@<TRIPOS>MOLECULE
8429
45 46 1 0 0 
SMALL
USER_CHARGES


@<TRIPOS>ATOM
  1 O       -1.1660    -0.8850     3.0750 O.2   1 <1>  -0.5700 
  2 C       -0.8420    -1.8580     2.4400 C.2   1 <1>   0.5690 
  3 N       -0.0240    -1.7050     1.3700 N.am  1 <1>  -0.7300 
  4 C       -1.3660    -3.2210     2.9030 C.3   1 <1>   0.1810 
  5 C        0.3960    -2.7160     0.3860 C.3   1 <1>   0.2840 
  6 O       -1.7920    -4.0630     1.8380 O.3   1 <1>  -0.3620 
  7 C        1.5260    -2.1330    -0.4410 C.ar  1 <1>  -0.1430 
  8 C       -2.8740    -3.7680     1.0720 C.ar  1 <1>   0.0830 
  9 C        2.8210    -2.1180     0.0550 C.ar  1 <1>  -0.1500 
 10 C        1.2740    -1.6050    -1.6990 C.ar  1 <1>  -0.1500 
 11 C       -3.7030    -2.6710     1.2740 C.ar  1 <1>  -0.1500 
 12 C       -3.1420    -4.6290     0.0250 C.ar  1 <1>  -0.1500 
 13 C        3.8530    -1.5870    -0.6990 C.ar  1 <1>  -0.1500 
 14 C        2.3050    -1.0740    -2.4540 C.ar  1 <1>  -0.1500 
 15 C       -4.7820    -2.4280     0.4360 C.ar  1 <1>  -0.1430 
 16 C       -4.2160    -4.3940    -0.8120 C.ar  1 <1>  -0.1500 
 17 C        3.5960    -1.0650    -1.9540 C.ar  1 <1>  -0.1500 
 18 C       -5.0490    -3.2970    -0.6240 C.ar  1 <1>  -0.1430 
 19 C       -5.6360    -1.1990     0.7210 C.3   1 <1>  -0.0970 
 20 C       -6.2240    -3.0930    -1.5910 C.3   1 <1>   0.0630 
 21 C       -7.2000    -4.2730    -1.5290 C.3   1 <1>  -0.2400 
 22 C       -5.7220    -2.8780    -3.0240 C.3   1 <1>  -0.2400 
 23 H        0.2620    -0.7510     1.1410 H     1 <1>   0.3700 
 24 H       -2.1900    -3.0910     3.5800 H     1 <1>   0.0800 
 25 H       -0.5790    -3.7360     3.4210 H     1 <1>   0.0800 
 26 H       -0.4380    -2.9660    -0.2480 H     1 <1>   0.0800 
 27 H        0.7250    -3.6080     0.8900 H     1 <1>   0.0800 
 28 H        3.0290    -2.5180     1.0320 H     1 <1>   0.1500 
 29 H        0.2730    -1.6050    -2.0960 H     1 <1>   0.1500 
 30 H       -3.5190    -1.9900     2.0840 H     1 <1>   0.1500 
 31 H       -2.5090    -5.4830    -0.1320 H     1 <1>   0.1500 
 32 H        4.8560    -1.5790    -0.3080 H     1 <1>   0.1500 
 33 H        2.1040    -0.6670    -3.4290 H     1 <1>   0.1500 
 34 H       -4.3990    -5.0810    -1.6180 H     1 <1>   0.1500 
 35 H        4.3980    -0.6520    -2.5410 H     1 <1>   0.1500 
 36 H       -5.2650    -0.6530     1.5700 H     1 <1>   0.0800 
 37 H       -6.6480    -1.4950     0.9300 H     1 <1>   0.0800 
 38 H       -5.6260    -0.5400    -0.1280 H     1 <1>   0.0800 
 39 H       -6.7800    -2.2160    -1.3210 H     1 <1>   0.0800 
 40 H       -6.7330    -5.1800    -1.8670 H     1 <1>   0.0800 
 41 H       -8.0580    -4.0790    -2.1460 H     1 <1>   0.0800 
 42 H       -7.5320    -4.4160    -0.5160 H     1 <1>   0.0800 
 43 H       -5.2210    -3.7540    -3.3930 H     1 <1>   0.0800 
 44 H       -5.0330    -2.0530    -3.0470 H     1 <1>   0.0800 
 45 H       -6.5470    -2.6540    -3.6770 H     1 <1>   0.0800 
@<TRIPOS>BOND
  1   1   2  2   
  2   2   3  am  
  3   2   4  1   
  4   3   5  1   
  5   3  23  1   
  6   4   6  1   
  7   4  24  1   
  8   4  25  1   
  9   5   7  1   
 10   5  26  1   
 11   5  27  1   
 12   6   8  1   
 13   7   9  ar  
 14   7  10  ar  
 15   8  11  ar  
 16   8  12  ar  
 17   9  13  ar  
 18   9  28  1   
 19  10  14  ar  
 20  10  29  1   
 21  11  15  ar  
 22  11  30  1   
 23  12  16  ar  
 24  12  31  1   
 25  13  17  ar  
 26  13  32  1   
 27  14  17  ar  
 28  14  33  1   
 29  15  18  ar  
 30  15  19  1   
 31  16  18  ar  
 32  16  34  1   
 33  17  35  1   
 34  18  20  1   
 35  19  36  1   
 36  19  37  1   
 37  19  38  1   
 38  20  21  1   
 39  20  22  1   
 40  20  39  1   
 41  21  40  1   
 42  21  41  1   
 43  21  42  1   
 44  22  43  1   
 45  22  44  1   
 46  22  45  1   
@<TRIPOS>SUBSTRUCTURE
  1 ****   8 GROUP 4 **** **** 0

# MOE 2024.06 (io_trps.svl 2023.06)
