@<TRIPOS>MOLECULE
4-(4-Methoxy-benzoylamino)-piperidine-1-carboxylic acid phenylamide
49 51 1 0 0 
SMALL
USER_CHARGES


@<TRIPOS>ATOM
  1 O        0.3890     0.0020    -0.0450 O.2   1 <1>  -0.5700 
  2 C        0.9550     1.0540    -0.2740 C.2   1 <1>   0.6900 
  3 N        2.1980     1.0570    -0.8590 N.am  1 <1>  -0.6600 
  4 N        0.3890     2.2480     0.0730 N.am  1 <1>  -0.5470 
  5 C        2.7900     2.2190    -1.5780 C.3   1 <1>   0.1400 
  6 C        2.9950    -0.1960    -0.9670 C.3   1 <1>   0.1400 
  7 C       -0.8880     2.5700     0.5530 C.ar  1 <1>   0.1170 
  8 C        4.1860     2.4960    -1.0200 C.3   1 <1>  -0.1600 
  9 C        4.4040     0.0510    -0.4210 C.3   1 <1>  -0.1600 
 10 C       -2.0020     1.7660     0.3350 C.ar  1 <1>  -0.1500 
 11 C       -1.0570     3.7550     1.2620 C.ar  1 <1>  -0.1500 
 12 C        5.0580     1.2440    -1.1200 C.3   1 <1>   0.2200 
 13 C       -3.2470     2.1320     0.8150 C.ar  1 <1>  -0.1500 
 14 C       -2.3010     4.1260     1.7430 C.ar  1 <1>  -0.1500 
 15 N        6.3620     1.5150    -0.4940 N.am  1 <1>  -0.7300 
 16 C       -3.3990     3.3140     1.5200 C.ar  1 <1>  -0.1500 
 17 C        7.4850     1.9120    -1.1640 C.2   1 <1>   0.5440 
 18 O        7.4040     2.1010    -2.3620 O.2   1 <1>  -0.5700 
 19 C        8.7360     2.1260    -0.4580 C.ar  1 <1>   0.0860 
 20 C        9.0320     1.4750     0.7430 C.ar  1 <1>  -0.1500 
 21 C        9.7010     3.0030    -0.9590 C.ar  1 <1>  -0.1500 
 22 C       10.2200     1.7010     1.4120 C.ar  1 <1>  -0.1500 
 23 C       10.8920     3.2340    -0.2970 C.ar  1 <1>  -0.1500 
 24 C       11.1590     2.5820     0.9030 C.ar  1 <1>   0.0820 
 25 O       12.2950     2.7500     1.6170 O.3   1 <1>  -0.3620 
 26 C       13.3230     3.6120     1.1830 C.3   1 <1>   0.0400 
 27 H        1.0600     3.0050     0.0800 H     1 <1>   0.3700 
 28 H        2.1740     3.0960    -1.4860 H     1 <1>   0.0800 
 29 H        2.8600     1.9780    -2.6260 H     1 <1>   0.0800 
 30 H        3.0430    -0.4950    -2.0010 H     1 <1>   0.0800 
 31 H        2.5320    -0.9940    -0.4110 H     1 <1>   0.0800 
 32 H        4.1000     2.8100     0.0050 H     1 <1>   0.0800 
 33 H        4.6410     3.2900    -1.5860 H     1 <1>   0.0800 
 34 H        5.0000    -0.8300    -0.5790 H     1 <1>   0.0800 
 35 H        4.3320     0.2320     0.6370 H     1 <1>   0.0800 
 36 H       -1.9010     0.8480    -0.2140 H     1 <1>   0.1500 
 37 H       -0.2120     4.3920     1.4440 H     1 <1>   0.1500 
 38 H        5.2050     1.0000    -2.1610 H     1 <1>   0.0800 
 39 H       -4.0970     1.4960     0.6380 H     1 <1>   0.1500 
 40 H       -2.4160     5.0440     2.2910 H     1 <1>   0.1500 
 41 H        6.3690     1.4980     0.5250 H     1 <1>   0.3700 
 42 H       -4.3670     3.5980     1.8930 H     1 <1>   0.1500 
 43 H        8.3300     0.7750     1.1570 H     1 <1>   0.1500 
 44 H        9.5050     3.5100    -1.8890 H     1 <1>   0.1500 
 45 H       10.4330     1.1940     2.3360 H     1 <1>   0.1500 
 46 H       11.5980     3.9200    -0.7270 H     1 <1>   0.1500 
 47 H       14.1170     3.5750     1.9080 H     1 <1>   0.0800 
 48 H       12.9360     4.6120     1.1150 H     1 <1>   0.0800 
 49 H       13.6840     3.2710     0.2290 H     1 <1>   0.0800 
@<TRIPOS>BOND
  1   1   2  2   
  2   2   3  am  
  3   2   4  am  
  4   3   5  1   
  5   3   6  1   
  6   4   7  1   
  7   4  27  1   
  8   5   8  1   
  9   5  28  1   
 10   5  29  1   
 11   6   9  1   
 12   6  30  1   
 13   6  31  1   
 14   7  10  ar  
 15   7  11  ar  
 16   8  12  1   
 17   8  32  1   
 18   8  33  1   
 19   9  12  1   
 20   9  34  1   
 21   9  35  1   
 22  10  13  ar  
 23  10  36  1   
 24  11  14  ar  
 25  11  37  1   
 26  12  15  1   
 27  12  38  1   
 28  13  16  ar  
 29  13  39  1   
 30  14  16  ar  
 31  14  40  1   
 32  15  17  am  
 33  15  41  1   
 34  16  42  1   
 35  17  18  2   
 36  17  19  1   
 37  19  20  ar  
 38  19  21  ar  
 39  20  22  ar  
 40  20  43  1   
 41  21  23  ar  
 42  21  44  1   
 43  22  24  ar  
 44  22  45  1   
 45  23  24  ar  
 46  23  46  1   
 47  24  25  1   
 48  25  26  1   
 49  26  47  1   
 50  26  48  1   
 51  26  49  1   
@<TRIPOS>SUBSTRUCTURE
  1 ****   8 GROUP 4 **** **** 0

# MOE 2024.06 (io_trps.svl 2023.06)
