@<TRIPOS>MOLECULE
N-[3-(3-Cyano-6,8-dimethyl-quinolin-2-ylamino)-propyl]-propionamide
45 46 1 0 0 
SMALL
USER_CHARGES


@<TRIPOS>ATOM
  1 O       -0.0370    -1.5670    -1.7230 O.2   1 <1>  -0.5700 
  2 C       -0.0360    -1.9090    -0.5670 C.2   1 <1>   0.5690 
  3 N        1.0750    -1.8400     0.2100 N.am  1 <1>  -0.7300 
  4 C       -1.3150    -2.4420     0.0500 C.3   1 <1>  -0.0990 
  5 C        2.3930    -1.3480    -0.2400 C.3   1 <1>   0.1400 
  6 C       -1.9380    -1.4690     1.0630 C.3   1 <1>  -0.2400 
  7 C        3.4150    -2.4740    -0.1110 C.3   1 <1>  -0.1600 
  8 C        4.7830    -2.0130    -0.6050 C.3   1 <1>   0.2090 
  9 N        5.7520    -3.1130    -0.4080 N.pl3 1 <1>  -0.8690 
 10 C        7.1130    -2.9390    -0.2550 C.ar  1 <1>   0.4100 
 11 N        7.5480    -1.7090    -0.2310 N.ar  1 <1>  -0.6200 
 12 C        7.9690    -4.0650    -0.1340 C.ar  1 <1>   0.0730 
 13 C        8.8790    -1.4880    -0.0830 C.ar  1 <1>   0.3100 
 14 C        7.4150    -5.3810    -0.1710 C.1   1 <1>   0.4840 
 15 C        9.3100    -3.8610     0.0160 C.ar  1 <1>  -0.1500 
 16 C        9.8030    -2.5480     0.0450 C.ar  1 <1>   0.0000 
 17 C        9.3710    -0.1630    -0.0550 C.ar  1 <1>  -0.1440 
 18 N        6.9600    -6.4270    -0.2100 N.1   1 <1>  -0.5570 
 19 C       11.1720    -2.2600     0.1960 C.ar  1 <1>  -0.1500 
 20 C       10.7130     0.0820     0.0940 C.ar  1 <1>  -0.1500 
 21 C        8.4030     1.0070    -0.1910 C.3   1 <1>  -0.0970 
 22 C       11.6260    -0.9690     0.2210 C.ar  1 <1>  -0.1440 
 23 C       13.1000    -0.6460     0.3840 C.3   1 <1>  -0.0970 
 24 H        1.0180    -2.1350     1.1850 H     1 <1>   0.3700 
 25 H       -1.1040    -3.3820     0.5270 H     1 <1>   0.0800 
 26 H       -2.0210    -2.6290    -0.7400 H     1 <1>   0.0800 
 27 H        2.6830    -0.5050     0.3660 H     1 <1>   0.0800 
 28 H        2.3310    -1.0230    -1.2660 H     1 <1>   0.0800 
 29 H       -1.2640    -1.2880     1.8810 H     1 <1>   0.0800 
 30 H       -2.8540    -1.8760     1.4530 H     1 <1>   0.0800 
 31 H       -2.1560    -0.5300     0.5830 H     1 <1>   0.0800 
 32 H        3.0900    -3.3120    -0.7010 H     1 <1>   0.0800 
 33 H        3.4960    -2.7660     0.9210 H     1 <1>   0.0800 
 34 H        5.0970    -1.1430    -0.0530 H     1 <1>   0.0800 
 35 H        4.7400    -1.7600    -1.6520 H     1 <1>   0.0800 
 36 H        5.3840    -4.0510    -0.5930 H     1 <1>   0.4000 
 37 H        9.9980    -4.6820     0.1110 H     1 <1>   0.1500 
 38 H       11.8590    -3.0810     0.2930 H     1 <1>   0.1500 
 39 H       11.0850     1.0910     0.1150 H     1 <1>   0.1500 
 40 H        7.8820     0.9410    -1.1300 H     1 <1>   0.0800 
 41 H        8.9190     1.9490    -0.1500 H     1 <1>   0.0800 
 42 H        7.6810     0.9760     0.6060 H     1 <1>   0.0800 
 43 H       13.6840    -1.5450     0.4700 H     1 <1>   0.0800 
 44 H       13.2500    -0.0550     1.2690 H     1 <1>   0.0800 
 45 H       13.4490    -0.0910    -0.4690 H     1 <1>   0.0800 
@<TRIPOS>BOND
  1   1   2  2   
  2   2   3  am  
  3   2   4  1   
  4   3   5  1   
  5   3  24  1   
  6   4   6  1   
  7   4  25  1   
  8   4  26  1   
  9   5   7  1   
 10   5  27  1   
 11   5  28  1   
 12   6  29  1   
 13   6  30  1   
 14   6  31  1   
 15   7   8  1   
 16   7  32  1   
 17   7  33  1   
 18   8   9  1   
 19   8  34  1   
 20   8  35  1   
 21   9  10  1   
 22   9  36  1   
 23  10  11  ar  
 24  10  12  ar  
 25  11  13  ar  
 26  12  14  1   
 27  12  15  ar  
 28  13  16  ar  
 29  13  17  ar  
 30  14  18  3   
 31  15  16  ar  
 32  15  37  1   
 33  16  19  ar  
 34  17  20  ar  
 35  17  21  1   
 36  19  22  ar  
 37  19  38  1   
 38  20  22  ar  
 39  20  39  1   
 40  21  40  1   
 41  21  41  1   
 42  21  42  1   
 43  22  23  1   
 44  23  43  1   
 45  23  44  1   
 46  23  45  1   
@<TRIPOS>SUBSTRUCTURE
  1 ****   9 GROUP 4 **** **** 0

# MOE 2024.06 (io_trps.svl 2023.06)
