@<TRIPOS>MOLECULE
1-(4-Ethoxy-6-methyl-pyrimidin-2-yl)-piperidine-4-carboxylic acid (tetrahydro-furan-2-ylmethyl)-amide
53 55 1 0 0 
SMALL
USER_CHARGES


@<TRIPOS>ATOM
  1 O       -0.2210     1.3530    -1.0040 O.2   1 <1>  -0.5700 
  2 C       -0.3520     1.6780     0.1520 C.2   1 <1>   0.5690 
  3 N        0.7240     1.9340     0.9390 N.am  1 <1>  -0.7300 
  4 C       -1.7430     1.8280     0.7680 C.3   1 <1>  -0.0190 
  5 C        2.1410     1.8610     0.4830 C.3   1 <1>   0.1400 
  6 C       -2.8350     1.0670    -0.0100 C.3   1 <1>  -0.1600 
  7 C       -2.1370     3.3110     0.8860 C.3   1 <1>  -0.1600 
  8 C        2.4790     2.9640    -0.5330 C.3   1 <1>   0.2000 
  9 C       -4.2170     1.2380     0.6250 C.3   1 <1>   0.2090 
 10 C       -3.5100     3.4760     1.5390 C.3   1 <1>   0.2090 
 11 O        3.8560     3.0150    -0.7130 O.3   1 <1>  -0.5600 
 12 C        2.1170     4.3800    -0.1010 C.3   1 <1>  -0.1600 
 13 N       -4.5210     2.6880     0.7850 N.pl3 1 <1>  -0.8380 
 14 C        4.2140     4.2390    -1.2680 C.3   1 <1>   0.1200 
 15 C        3.1430     5.2350    -0.8280 C.3   1 <1>  -0.1600 
 16 C       -5.7400     3.2220     0.4180 C.ar  1 <1>   0.7200 
 17 N       -6.7530     2.3740     0.2850 N.ar  1 <1>  -0.6200 
 18 N       -5.7900     4.5400     0.2360 N.ar  1 <1>  -0.6200 
 19 C       -7.8990     2.8950    -0.0670 C.ar  1 <1>   0.3930 
 20 C       -6.9450     5.0410    -0.1180 C.ar  1 <1>   0.1670 
 21 O       -8.9070     2.0120    -0.1980 O.3   1 <1>  -0.3620 
 22 C       -8.0520     4.2510    -0.2860 C.ar  1 <1>  -0.1500 
 23 C       -7.0020     6.5380    -0.3320 C.3   1 <1>  -0.0970 
 24 C      -10.2130     2.3910    -0.5620 C.3   1 <1>   0.1200 
 25 C      -11.0740     1.1320    -0.6030 C.3   1 <1>  -0.2400 
 26 H        0.5880     2.2290     1.9060 H     1 <1>   0.3700 
 27 H       -1.6990     1.4090     1.7570 H     1 <1>   0.0800 
 28 H        2.3130     0.9030     0.0220 H     1 <1>   0.0800 
 29 H        2.7900     1.9550     1.3360 H     1 <1>   0.0800 
 30 H       -2.5900     0.0210    -0.0520 H     1 <1>   0.0800 
 31 H       -2.8800     1.4310    -1.0230 H     1 <1>   0.0800 
 32 H       -2.1670     3.7580    -0.0930 H     1 <1>   0.0800 
 33 H       -1.4080     3.8430     1.4680 H     1 <1>   0.0800 
 34 H        2.0350     2.7350    -1.4880 H     1 <1>   0.0800 
 35 H       -4.2450     0.7650     1.5910 H     1 <1>   0.0800 
 36 H       -4.9460     0.7580    -0.0050 H     1 <1>   0.0800 
 37 H       -3.7680     4.5200     1.5700 H     1 <1>   0.0800 
 38 H       -3.4800     3.1160     2.5530 H     1 <1>   0.0800 
 39 H        2.2390     4.4790     0.9630 H     1 <1>   0.0800 
 40 H        1.1050     4.6250    -0.3700 H     1 <1>   0.0800 
 41 H        4.2300     4.1280    -2.3390 H     1 <1>   0.0800 
 42 H        5.1930     4.5050    -0.9090 H     1 <1>   0.0800 
 43 H        3.5570     5.9890    -0.1830 H     1 <1>   0.0800 
 44 H        2.7120     5.7080    -1.6930 H     1 <1>   0.0800 
 45 H       -8.9880     4.6800    -0.5750 H     1 <1>   0.1500 
 46 H       -6.7360     7.0410     0.5800 H     1 <1>   0.0800 
 47 H       -7.9850     6.8520    -0.6300 H     1 <1>   0.0800 
 48 H       -6.2990     6.8170    -1.0960 H     1 <1>   0.0800 
 49 H      -10.1760     2.8570    -1.5310 H     1 <1>   0.0800 
 50 H      -10.5860     3.0810     0.1750 H     1 <1>   0.0800 
 51 H      -10.6830     0.4410    -1.3290 H     1 <1>   0.0800 
 52 H      -12.0810     1.3860    -0.8780 H     1 <1>   0.0800 
 53 H      -11.0890     0.6630     0.3650 H     1 <1>   0.0800 
@<TRIPOS>BOND
  1   1   2  2   
  2   2   3  am  
  3   2   4  1   
  4   3   5  1   
  5   3  26  1   
  6   4   6  1   
  7   4   7  1   
  8   4  27  1   
  9   5   8  1   
 10   5  28  1   
 11   5  29  1   
 12   6   9  1   
 13   6  30  1   
 14   6  31  1   
 15   7  10  1   
 16   7  32  1   
 17   7  33  1   
 18   8  11  1   
 19   8  12  1   
 20   8  34  1   
 21   9  13  1   
 22   9  35  1   
 23   9  36  1   
 24  10  13  1   
 25  10  37  1   
 26  10  38  1   
 27  11  14  1   
 28  12  15  1   
 29  12  39  1   
 30  12  40  1   
 31  13  16  1   
 32  14  15  1   
 33  14  41  1   
 34  14  42  1   
 35  15  43  1   
 36  15  44  1   
 37  16  17  ar  
 38  16  18  ar  
 39  17  19  ar  
 40  18  20  ar  
 41  19  21  1   
 42  19  22  ar  
 43  20  22  ar  
 44  20  23  1   
 45  21  24  1   
 46  22  45  1   
 47  23  46  1   
 48  23  47  1   
 49  23  48  1   
 50  24  25  1   
 51  24  49  1   
 52  24  50  1   
 53  25  51  1   
 54  25  52  1   
 55  25  53  1   
@<TRIPOS>SUBSTRUCTURE
  1 ****   7 GROUP 4 **** **** 0

# MOE 2024.06 (io_trps.svl 2023.06)
