@<TRIPOS>MOLECULE
8-(4-Ethyl-phenyl)-1,3,6-trimethyl-5,6,7,8-tetrahydro-1H-1,3,4b,8,9-pentaaza-flu
50 53 1 0 0 
SMALL
USER_CHARGES


@<TRIPOS>ATOM
  1 O        0.6540     0.1550    -0.3330 O.2   1 <1>  -0.5740 
  2 C        1.6840     0.7870    -0.2200 C.2   1 <1>   0.6860 
  3 N        1.6390     2.1690    -0.0660 N.am  1 <1>  -0.4260 
  4 N        2.9070     0.1260    -0.2450 N.am  1 <1>  -0.4410 
  5 C        2.8030     2.9190     0.0520 C.2   1 <1>   0.6990 
  6 C        0.3060     2.8510    -0.0540 C.3   1 <1>   0.0520 
  7 C        4.0550     0.8780    -0.0970 C.2   1 <1>   0.4210 
  8 C        2.9750    -1.3580    -0.4070 C.3   1 <1>   0.0520 
  9 O        2.7630     4.1330     0.1590 O.2   1 <1>  -0.5740 
 10 C        4.0520     2.2220     0.0440 C.2   1 <1>   0.2710 
 11 N        5.3460     0.4400    -0.0650 N.pl3 1 <1>  -0.7040 
 12 N        5.3970     2.6030     0.1590 N.pl3 1 <1>  -0.7670 
 13 C        6.1320     1.5020     0.0930 C.cat 1 <1>   1.0690 
 14 C        5.9400     3.9680     0.3310 C.3   1 <1>   0.3480 
 15 N        7.4730     1.5030     0.1850 N.pl3 1 <1>  -0.5800 
 16 C        7.4160     3.9860    -0.1070 C.3   1 <1>  -0.0880 
 17 C        8.2320     0.3350     0.1030 C.ar  1 <1>   0.3050 
 18 C        8.1920     2.7790     0.4570 C.3   1 <1>   0.1600 
 19 C        8.0940     5.3010     0.3050 C.3   1 <1>  -0.2470 
 20 C        8.5370    -0.2170    -1.1330 C.ar  1 <1>  -0.1570 
 21 C        8.6640    -0.3060     1.2570 C.ar  1 <1>  -0.1570 
 22 C        9.2490    -1.4000    -1.2150 C.ar  1 <1>  -0.1570 
 23 C        9.3760    -1.4880     1.1750 C.ar  1 <1>  -0.1570 
 24 C        9.6670    -2.0430    -0.0610 C.ar  1 <1>  -0.1510 
 25 C       10.4520    -3.3430    -0.1510 C.3   1 <1>  -0.0250 
 26 C       11.9530    -3.0600    -0.2220 C.3   1 <1>  -0.2470 
 27 H       -0.4050     2.2650     0.5030 H     1 <1>   0.0720 
 28 H       -0.0500     2.9610    -1.0640 H     1 <1>   0.0720 
 29 H        0.3700     3.8230     0.4030 H     1 <1>   0.0720 
 30 H        2.0670    -1.7350    -0.8470 H     1 <1>   0.0720 
 31 H        3.1070    -1.8210     0.5550 H     1 <1>   0.0720 
 32 H        3.7930    -1.6270    -1.0510 H     1 <1>   0.0720 
 33 H        5.6880    -0.5160    -0.1330 H     1 <1>   0.4450 
 34 H        5.8540     4.2510     1.3680 H     1 <1>   0.0720 
 35 H        5.3730     4.6690    -0.2600 H     1 <1>   0.0720 
 36 H        7.4470     3.9320    -1.1830 H     1 <1>   0.0720 
 37 H        9.1720     2.7420     0.0090 H     1 <1>   0.0720 
 38 H        8.3160     2.8870     1.5220 H     1 <1>   0.0720 
 39 H        8.1010     5.4150     1.3760 H     1 <1>   0.0720 
 40 H        7.5760     6.1430    -0.1240 H     1 <1>   0.0720 
 41 H        9.1120     5.3250    -0.0450 H     1 <1>   0.0720 
 42 H        8.2260     0.2760    -2.0360 H     1 <1>   0.1430 
 43 H        8.4470     0.1160     2.2210 H     1 <1>   0.1430 
 44 H        9.4870    -1.8210    -2.1780 H     1 <1>   0.1430 
 45 H        9.7110    -1.9790     2.0740 H     1 <1>   0.1430 
 46 H       10.1490    -3.8940    -1.0240 H     1 <1>   0.0720 
 47 H       10.2430    -3.9560     0.7090 H     1 <1>   0.0720 
 48 H       12.1790    -2.4640    -1.0880 H     1 <1>   0.0720 
 49 H       12.5010    -3.9840    -0.2850 H     1 <1>   0.0720 
 50 H       12.2740    -2.5280     0.6560 H     1 <1>   0.0720 
@<TRIPOS>BOND
  1   1   2  2   
  2   2   3  am  
  3   2   4  am  
  4   3   5  am  
  5   3   6  1   
  6   4   7  1   
  7   4   8  1   
  8   5   9  2   
  9   5  10  1   
 10   6  27  1   
 11   6  28  1   
 12   6  29  1   
 13   7  10  2   
 14   7  11  1   
 15   8  30  1   
 16   8  31  1   
 17   8  32  1   
 18  10  12  1   
 19  11  13  ar  
 20  11  33  1   
 21  12  13  ar  
 22  12  14  1   
 23  13  15  ar  
 24  14  16  1   
 25  14  34  1   
 26  14  35  1   
 27  15  17  1   
 28  15  18  1   
 29  16  18  1   
 30  16  19  1   
 31  16  36  1   
 32  17  20  ar  
 33  17  21  ar  
 34  18  37  1   
 35  18  38  1   
 36  19  39  1   
 37  19  40  1   
 38  19  41  1   
 39  20  22  ar  
 40  20  42  1   
 41  21  23  ar  
 42  21  43  1   
 43  22  24  ar  
 44  22  44  1   
 45  23  24  ar  
 46  23  45  1   
 47  24  25  1   
 48  25  26  1   
 49  25  46  1   
 50  25  47  1   
 51  26  48  1   
 52  26  49  1   
 53  26  50  1   
@<TRIPOS>SUBSTRUCTURE
  1 ****  13 GROUP 4 **** **** 0

# MOE 2024.06 (io_trps.svl 2023.06)
