@<TRIPOS>MOLECULE
NONAME
51 54 1 0 0 
SMALL
USER_CHARGES


@<TRIPOS>ATOM
  1 S       -0.2290     0.9790    -0.4960 S.o2  1 <1>   1.4470 
  2 O       -1.1050     2.0230    -0.0110 O.2   1 <1>  -0.6500 
  3 O       -0.2720     0.6070    -1.8940 O.2   1 <1>  -0.6500 
  4 N       -0.5620    -0.4230     0.3970 N.am  1 <1>  -0.8490 
  5 C        1.4770     1.3710    -0.0090 C.ar  1 <1>  -0.0090 
  6 C        0.1340    -1.5990    -0.1390 C.3   1 <1>   0.1960 
  7 C       -2.0050    -0.6670     0.4880 C.3   1 <1>   0.1960 
  8 C        2.5520     1.0930    -0.8460 C.ar  1 <1>  -0.1500 
  9 C        1.7510     1.9340     1.2300 C.ar  1 <1>  -0.1500 
 10 C       -0.0630    -2.8010     0.7890 C.3   1 <1>  -0.1600 
 11 C       -2.2880    -1.8440     1.4280 C.3   1 <1>  -0.1600 
 12 C        3.8680     1.3550    -0.4830 C.ar  1 <1>  -0.0090 
 13 C        3.0480     2.2150     1.6160 C.ar  1 <1>  -0.1500 
 14 C       -1.5500    -3.1130     0.9850 C.3   1 <1>  -0.1600 
 15 S        5.2410     0.9740    -1.6080 S.o2  1 <1>   1.4470 
 16 C        4.0960     1.9270     0.7610 C.ar  1 <1>  -0.1500 
 17 O        4.8830    -0.1120    -2.4900 O.2   1 <1>  -0.6500 
 18 O        5.8140     2.1870    -2.1430 O.2   1 <1>  -0.6500 
 19 N        6.3970     0.2950    -0.6110 N.am  1 <1>  -0.9140 
 20 C        7.6990     0.3000    -1.2370 C.3   1 <1>   0.3390 
 21 C        8.5660    -0.7090    -0.5080 C.ar  1 <1>  -0.1430 
 22 C        9.1160    -0.3840     0.7280 C.ar  1 <1>  -0.1500 
 23 C        8.8080    -1.9630    -1.0710 C.ar  1 <1>  -0.1500 
 24 C        9.8980    -1.3280     1.3640 C.ar  1 <1>   0.0820 
 25 C        9.5970    -2.9000    -0.4160 C.ar  1 <1>  -0.1500 
 26 O       10.5200    -1.2310     2.5430 O.3   1 <1>  -0.3620 
 27 C       10.1320    -2.5510     0.8080 C.ar  1 <1>   0.0820 
 28 C       11.1940    -2.4710     2.7520 C.3   1 <1>   0.4000 
 29 O       10.9130    -3.2810     1.6120 O.3   1 <1>  -0.3620 
 30 H        1.1880    -1.3940    -0.2220 H     1 <1>   0.0800 
 31 H       -0.2420    -1.8340    -1.1230 H     1 <1>   0.0800 
 32 H       -2.4040    -0.8700    -0.4930 H     1 <1>   0.0800 
 33 H       -2.5010     0.2070     0.8780 H     1 <1>   0.0800 
 34 H        2.3570     0.6580    -1.8140 H     1 <1>   0.1500 
 35 H        0.9350     2.1540     1.8990 H     1 <1>   0.1500 
 36 H        0.3930    -2.5840     1.7400 H     1 <1>   0.0800 
 37 H        0.4350    -3.6590     0.3730 H     1 <1>   0.0800 
 38 H       -3.3470    -2.0320     1.4540 H     1 <1>   0.0800 
 39 H       -1.9800    -1.5720     2.4220 H     1 <1>   0.0800 
 40 H        3.2420     2.6570     2.5790 H     1 <1>   0.1500 
 41 H       -1.6720    -3.8870     1.7230 H     1 <1>   0.0800 
 42 H       -1.9690    -3.4640     0.0570 H     1 <1>   0.0800 
 43 H        5.1060     2.1490     1.0660 H     1 <1>   0.1500 
 44 H        6.1350    -0.6860    -0.5530 H     1 <1>   0.4200 
 45 H        8.1330     1.2850    -1.1740 H     1 <1>   0.0800 
 46 H        7.6220     0.0270    -2.2780 H     1 <1>   0.0800 
 47 H        8.9430     0.5710     1.1910 H     1 <1>   0.1500 
 48 H        8.3830    -2.2190    -2.0270 H     1 <1>   0.1500 
 49 H        9.7940    -3.8700    -0.8360 H     1 <1>   0.1500 
 50 H       10.8100    -2.9470     3.6360 H     1 <1>   0.0800 
 51 H       12.2540    -2.2990     2.8190 H     1 <1>   0.0800 
@<TRIPOS>BOND
  1   1   2  2   
  2   1   3  2   
  3   1   4  am  
  4   1   5  1   
  5   4   6  1   
  6   4   7  1   
  7   5   8  ar  
  8   5   9  ar  
  9   6  10  1   
 10   6  30  1   
 11   6  31  1   
 12   7  11  1   
 13   7  32  1   
 14   7  33  1   
 15   8  12  ar  
 16   8  34  1   
 17   9  13  ar  
 18   9  35  1   
 19  10  14  1   
 20  10  36  1   
 21  10  37  1   
 22  11  14  1   
 23  11  38  1   
 24  11  39  1   
 25  12  15  1   
 26  12  16  ar  
 27  13  16  ar  
 28  13  40  1   
 29  14  41  1   
 30  14  42  1   
 31  15  17  2   
 32  15  18  2   
 33  15  19  am  
 34  16  43  1   
 35  19  20  1   
 36  19  44  1   
 37  20  21  1   
 38  20  45  1   
 39  20  46  1   
 40  21  22  ar  
 41  21  23  ar  
 42  22  24  ar  
 43  22  47  1   
 44  23  25  ar  
 45  23  48  1   
 46  24  26  1   
 47  24  27  ar  
 48  25  27  ar  
 49  25  49  1   
 50  26  28  1   
 51  27  29  1   
 52  28  29  1   
 53  28  50  1   
 54  28  51  1   
@<TRIPOS>SUBSTRUCTURE
  1 ****  12 GROUP 4 **** **** 0

# MOE 2024.06 (io_trps.svl 2023.06)
