@<TRIPOS>MOLECULE
1-(6,7-Dihydro-5H-cyclopenta[d][1,2,4]triazolo[1,5-a]pyrimidin-8-yl)-piperidine-4-carboxylic acid cyclohexy
59 63 1 0 0 
SMALL
USER_CHARGES


@<TRIPOS>ATOM
  1 O        0.7420     3.4300    -1.6910 O.2   1 <1>  -0.5700 
  2 C        0.5650     3.0170    -0.5700 C.2   1 <1>   0.5690 
  3 N       -0.6670     2.6750    -0.1130 N.am  1 <1>  -0.7300 
  4 C        1.7600     2.8760     0.3690 C.3   1 <1>  -0.0190 
  5 C       -1.9230     2.7850    -0.8920 C.3   1 <1>   0.1400 
  6 C        2.4710     4.2300     0.5590 C.3   1 <1>  -0.1600 
  7 C        2.7450     1.8130    -0.1560 C.3   1 <1>  -0.1600 
  8 C       -2.9460     3.6600    -0.1510 C.3   1 <1>  -0.0800 
  9 C        3.7430     4.1050     1.4010 C.3   1 <1>   0.2090 
 10 C        3.9910     1.7060     0.7240 C.3   1 <1>   0.2090 
 11 C       -3.3400     3.0680     1.2180 C.3   1 <1>  -0.1600 
 12 C       -4.1950     3.8530    -1.0290 C.3   1 <1>  -0.1600 
 13 N        4.6200     3.0480     0.8310 N.pl3 1 <1>  -0.8380 
 14 C       -4.4050     3.9230     1.9180 C.3   1 <1>  -0.1600 
 15 C       -5.2550     4.7120    -0.3270 C.3   1 <1>  -0.1600 
 16 C        5.9130     3.2780     0.4530 C.2   1 <1>   0.4790 
 17 C       -5.6400     4.1120     1.0310 C.3   1 <1>  -0.1600 
 18 N        6.9250     2.5180     0.9800 N.pl3 1 <1>  -0.3220 
 19 C        6.3110     4.2430    -0.4460 C.2   1 <1>  -0.1240 
 20 N        6.9050     1.5000     1.9080 N.2   1 <1>  -0.2600 
 21 C        8.1980     2.7710     0.6270 C.cat 1 <1>   0.9620 
 22 C        7.6510     4.3930    -0.7380 C.2   1 <1>   0.3750 
 23 C        5.4680     5.2130    -1.2480 C.3   1 <1>  -0.0220 
 24 C        8.1380     1.1850     2.0650 C.2   1 <1>   0.5030 
 25 N        8.6280     3.6900    -0.2270 N.2   1 <1>  -0.6120 
 26 N        8.9680     1.9360     1.2960 N.pl3 1 <1>  -0.7000 
 27 C        7.8700     5.4890    -1.7500 C.3   1 <1>  -0.0990 
 28 C        6.4550     5.8120    -2.2640 C.3   1 <1>  -0.1600 
 29 H       -0.7840     2.3320     0.8390 H     1 <1>   0.3700 
 30 H        1.4010     2.5520     1.3290 H     1 <1>   0.0800 
 31 H       -2.3270     1.8000    -1.0510 H     1 <1>   0.0800 
 32 H       -1.7130     3.2170    -1.8560 H     1 <1>   0.0800 
 33 H        1.7990     4.9240     1.0330 H     1 <1>   0.0800 
 34 H        2.7250     4.6390    -0.4010 H     1 <1>   0.0800 
 35 H        3.0490     2.0650    -1.1570 H     1 <1>   0.0800 
 36 H        2.2550     0.8570    -0.1970 H     1 <1>   0.0800 
 37 H       -2.5000     4.6290     0.0040 H     1 <1>   0.0800 
 38 H        3.4820     3.8340     2.4110 H     1 <1>   0.0800 
 39 H        4.2610     5.0480     1.4350 H     1 <1>   0.0800 
 40 H        4.6800     1.0030     0.2860 H     1 <1>   0.0800 
 41 H        3.7260     1.3550     1.7070 H     1 <1>   0.0800 
 42 H       -2.4780     3.0060     1.8580 H     1 <1>   0.0800 
 43 H       -3.7240     2.0710     1.0810 H     1 <1>   0.0800 
 44 H       -4.6230     2.8930    -1.2660 H     1 <1>   0.0800 
 45 H       -3.9180     4.3270    -1.9550 H     1 <1>   0.0800 
 46 H       -3.9880     4.8870     2.1560 H     1 <1>   0.0800 
 47 H       -4.6960     3.4530     2.8420 H     1 <1>   0.0800 
 48 H       -6.1310     4.7850    -0.9490 H     1 <1>   0.0800 
 49 H       -4.8700     5.7070    -0.1810 H     1 <1>   0.0800 
 50 H       -6.3440     4.7610     1.5250 H     1 <1>   0.0800 
 51 H       -6.1200     3.1610     0.8780 H     1 <1>   0.0800 
 52 H        5.0760     5.9840    -0.6080 H     1 <1>   0.0800 
 53 H        4.6580     4.7100    -1.7480 H     1 <1>   0.0800 
 54 H        8.4950     0.4120     2.7300 H     1 <1>   0.1500 
 55 H        9.9810     1.9220     1.2110 H     1 <1>   0.4500 
 56 H        8.5120     5.1610    -2.5480 H     1 <1>   0.0800 
 57 H        8.3060     6.3440    -1.2640 H     1 <1>   0.0800 
 58 H        6.3070     6.8720    -2.3860 H     1 <1>   0.0800 
 59 H        6.3090     5.3340    -3.2190 H     1 <1>   0.0800 
@<TRIPOS>BOND
  1   1   2  2   
  2   2   3  am  
  3   2   4  1   
  4   3   5  1   
  5   3  29  1   
  6   4   6  1   
  7   4   7  1   
  8   4  30  1   
  9   5   8  1   
 10   5  31  1   
 11   5  32  1   
 12   6   9  1   
 13   6  33  1   
 14   6  34  1   
 15   7  10  1   
 16   7  35  1   
 17   7  36  1   
 18   8  11  1   
 19   8  12  1   
 20   8  37  1   
 21   9  13  1   
 22   9  38  1   
 23   9  39  1   
 24  10  13  1   
 25  10  40  1   
 26  10  41  1   
 27  11  14  1   
 28  11  42  1   
 29  11  43  1   
 30  12  15  1   
 31  12  44  1   
 32  12  45  1   
 33  13  16  1   
 34  14  17  1   
 35  14  46  1   
 36  14  47  1   
 37  15  17  1   
 38  15  48  1   
 39  15  49  1   
 40  16  18  1   
 41  16  19  2   
 42  17  50  1   
 43  17  51  1   
 44  18  20  1   
 45  18  21  ar  
 46  19  22  1   
 47  19  23  1   
 48  20  24  2   
 49  21  25  1   
 50  21  26  ar  
 51  22  25  2   
 52  22  27  1   
 53  23  28  1   
 54  23  52  1   
 55  23  53  1   
 56  24  26  1   
 57  24  54  1   
 58  26  55  1   
 59  27  28  1   
 60  27  56  1   
 61  27  57  1   
 62  28  58  1   
 63  28  59  1   
@<TRIPOS>SUBSTRUCTURE
  1 ****   6 GROUP 4 **** **** 0

# MOE 2024.06 (io_trps.svl 2023.06)
