@<TRIPOS>MOLECULE
NONAME
24 25 1 0 0 
SMALL
USER_CHARGES


@<TRIPOS>ATOM
  1 O       -0.1370    -0.3370    -0.1510 O.2   1 <1>  -0.5700 
  2 C       -0.1890    -1.5350    -0.0340 C.2   1 <1>   0.4230 
  3 C       -1.4180    -2.2730    -0.0210 C.ar  1 <1>   0.0860 
  4 C        1.1230    -2.2860     0.1210 C.3   1 <1>  -0.0990 
  5 C       -1.4590    -3.6560     0.1060 C.ar  1 <1>   0.1660 
  6 C       -2.6530    -1.6540    -0.1340 C.ar  1 <1>   0.1600 
  7 C        1.0240    -3.7290    -0.4030 C.3   1 <1>  -0.0800 
  8 N       -2.5800    -4.3330     0.1260 N.ar  1 <1>  -0.6200 
  9 C       -0.1700    -4.4550     0.2380 C.3   1 <1>  -0.0160 
 10 N       -3.7900    -2.3060    -0.1210 N.ar  1 <1>  -0.6200 
 11 C        2.3320    -4.4910    -0.1500 C.3   1 <1>  -0.2400 
 12 C       -3.6870    -3.6180     0.0070 C.ar  1 <1>   0.7200 
 13 N       -4.8290    -4.2970     0.0240 N.pl3 1 <1>  -0.9000 
 14 H        1.3900    -2.2860     1.1620 H     1 <1>   0.0800 
 15 H        1.8900    -1.7580    -0.4180 H     1 <1>   0.0800 
 16 H       -2.6870    -0.5820    -0.2370 H     1 <1>   0.1500 
 17 H        0.8580    -3.6890    -1.4680 H     1 <1>   0.0800 
 18 H       -0.2990    -5.4130    -0.2340 H     1 <1>   0.0800 
 19 H        0.0160    -4.6260     1.2840 H     1 <1>   0.0800 
 20 H        2.5410    -4.5550     0.9040 H     1 <1>   0.0800 
 21 H        3.1540    -3.9920    -0.6320 H     1 <1>   0.0800 
 22 H        2.2660    -5.4890    -0.5480 H     1 <1>   0.0800 
 23 H       -5.7120    -3.7940     0.0300 H     1 <1>   0.4000 
 24 H       -4.8220    -5.2940     0.2160 H     1 <1>   0.4000 
@<TRIPOS>BOND
  1   1   2  2   
  2   2   3  1   
  3   2   4  1   
  4   3   5  ar  
  5   3   6  ar  
  6   4   7  1   
  7   4  14  1   
  8   4  15  1   
  9   5   8  ar  
 10   5   9  1   
 11   6  10  ar  
 12   6  16  1   
 13   7   9  1   
 14   7  11  1   
 15   7  17  1   
 16   8  12  ar  
 17   9  18  1   
 18   9  19  1   
 19  10  12  ar  
 20  11  20  1   
 21  11  21  1   
 22  11  22  1   
 23  12  13  1   
 24  13  23  1   
 25  13  24  1   
@<TRIPOS>SUBSTRUCTURE
  1 ****   5 GROUP 4 **** **** 0

# MOE 2024.06 (io_trps.svl 2023.06)
