@<TRIPOS>MOLECULE
9384
46 47 1 0 0 
SMALL
USER_CHARGES


@<TRIPOS>ATOM
  1 O        0.4990    -0.3470     2.2490 O.2   1 <1>  -0.5700 
  2 C        0.1560    -0.7580     1.1680 C.2   1 <1>   0.5690 
  3 N        0.9970    -1.4340     0.3530 N.am  1 <1>  -0.7300 
  4 C       -1.2630    -0.5070     0.6980 C.3   1 <1>  -0.0990 
  5 C        2.4130    -1.6780     0.6310 C.3   1 <1>   0.3640 
  6 C       -2.0840    -1.8050     0.6070 C.3   1 <1>  -0.1600 
  7 C        3.1460    -1.7470    -0.7040 C.ar  1 <1>  -0.1440 
  8 C        2.5480    -2.9700     1.4320 C.3   1 <1>  -0.2400 
  9 C       -3.5220    -1.5250     0.1710 C.3   1 <1>   0.1200 
 10 C        4.0920    -0.7810    -1.0170 C.ar  1 <1>  -0.1500 
 11 C        2.8810    -2.7530    -1.6270 C.ar  1 <1>  -0.1500 
 12 O       -4.1860    -2.7610     0.0500 O.3   1 <1>  -0.3630 
 13 C        4.7640    -0.8200    -2.2270 C.ar  1 <1>  -0.1500 
 14 C        3.5530    -2.7920    -2.8370 C.ar  1 <1>  -0.1500 
 15 C       -5.4880    -2.8230    -0.3320 C.ar  1 <1>   0.0820 
 16 C        4.4950    -1.8250    -3.1380 C.ar  1 <1>  -0.1500 
 17 C       -6.0450    -4.0870    -0.4370 C.ar  1 <1>  -0.1500 
 18 C       -6.2700    -1.7050    -0.6150 C.ar  1 <1>  -0.1500 
 19 C       -7.3650    -4.2480    -0.8210 C.ar  1 <1>  -0.1500 
 20 C       -7.5900    -1.8670    -0.9990 C.ar  1 <1>  -0.1500 
 21 C       -8.1470    -3.1310    -1.1050 C.ar  1 <1>   0.0820 
 22 O       -9.4490    -3.1950    -1.4870 O.3   1 <1>  -0.3620 
 23 C      -10.1060    -4.4350    -1.6240 C.3   1 <1>   0.0400 
 24 H        0.7060    -1.7150    -0.5820 H     1 <1>   0.3700 
 25 H       -1.2240    -0.0240    -0.2620 H     1 <1>   0.0800 
 26 H       -1.7330     0.1690     1.3900 H     1 <1>   0.0800 
 27 H        2.8020    -0.8620     1.2180 H     1 <1>   0.0800 
 28 H       -2.0950    -2.2840     1.5710 H     1 <1>   0.0800 
 29 H       -1.6260    -2.4720    -0.1030 H     1 <1>   0.0800 
 30 H        2.0960    -3.7970     0.9180 H     1 <1>   0.0800 
 31 H        2.0770    -2.8500     2.3920 H     1 <1>   0.0800 
 32 H        3.5880    -3.1870     1.5900 H     1 <1>   0.0800 
 33 H       -3.5440    -1.0350    -0.7870 H     1 <1>   0.0800 
 34 H       -4.0360    -0.9330     0.9090 H     1 <1>   0.0800 
 35 H        4.3110     0.0090    -0.3210 H     1 <1>   0.1500 
 36 H        2.1530    -3.5130    -1.4100 H     1 <1>   0.1500 
 37 H        5.4960    -0.0660    -2.4600 H     1 <1>   0.1500 
 38 H        3.3430    -3.5760    -3.5440 H     1 <1>   0.1500 
 39 H        5.0170    -1.8550    -4.0780 H     1 <1>   0.1500 
 40 H       -5.4350    -4.9440    -0.2160 H     1 <1>   0.1500 
 41 H       -5.8750    -0.7100    -0.5430 H     1 <1>   0.1500 
 42 H       -7.7630    -5.2420    -0.8920 H     1 <1>   0.1500 
 43 H       -8.2020    -1.0110    -1.2190 H     1 <1>   0.1500 
 44 H      -11.1180    -4.2450    -1.9320 H     1 <1>   0.0800 
 45 H      -10.1020    -4.9390    -0.6730 H     1 <1>   0.0800 
 46 H       -9.5990    -5.0180    -2.3720 H     1 <1>   0.0800 
@<TRIPOS>BOND
  1   1   2  2   
  2   2   3  am  
  3   2   4  1   
  4   3   5  1   
  5   3  24  1   
  6   4   6  1   
  7   4  25  1   
  8   4  26  1   
  9   5   7  1   
 10   5   8  1   
 11   5  27  1   
 12   6   9  1   
 13   6  28  1   
 14   6  29  1   
 15   7  10  ar  
 16   7  11  ar  
 17   8  30  1   
 18   8  31  1   
 19   8  32  1   
 20   9  12  1   
 21   9  33  1   
 22   9  34  1   
 23  10  13  ar  
 24  10  35  1   
 25  11  14  ar  
 26  11  36  1   
 27  12  15  1   
 28  13  16  ar  
 29  13  37  1   
 30  14  16  ar  
 31  14  38  1   
 32  15  17  ar  
 33  15  18  ar  
 34  16  39  1   
 35  17  19  ar  
 36  17  40  1   
 37  18  20  ar  
 38  18  41  1   
 39  19  21  ar  
 40  19  42  1   
 41  20  21  ar  
 42  20  43  1   
 43  21  22  1   
 44  22  23  1   
 45  23  44  1   
 46  23  45  1   
 47  23  46  1   
@<TRIPOS>SUBSTRUCTURE
  1 ****   6 GROUP 4 **** **** 0

# MOE 2024.06 (io_trps.svl 2023.06)
