@<TRIPOS>MOLECULE
1-(4-Ethoxy-6-methyl-pyrimidin-2-yl)-piperidine-4-carboxylic acid allylamide
46 47 1 0 0 
SMALL
USER_CHARGES


@<TRIPOS>ATOM
  1 O       -1.7630    -2.0150    -1.7910 O.2   1 <1>  -0.5700 
  2 C       -1.6460    -2.1100    -0.5930 C.2   1 <1>   0.5690 
  3 N       -0.4250    -2.1860    -0.0080 N.am  1 <1>  -0.7300 
  4 C       -2.8830    -2.1350     0.3020 C.3   1 <1>  -0.0190 
  5 C        0.8470    -2.1750    -0.7380 C.3   1 <1>   0.2780 
  6 C       -4.0120    -3.0070    -0.2840 C.3   1 <1>  -0.1600 
  7 C       -3.4040    -0.7110     0.5640 C.3   1 <1>  -0.1600 
  8 C        1.8200    -3.0280     0.0440 C.2   1 <1>  -0.2880 
  9 C       -5.2570    -3.0020     0.6060 C.3   1 <1>   0.2090 
 10 C       -4.6430    -0.7250     1.4610 C.3   1 <1>   0.2090 
 11 C        2.9320    -2.5880     0.6420 C.2   1 <1>  -0.3000 
 12 N       -5.6820    -1.5970     0.8510 N.pl3 1 <1>  -0.8380 
 13 C       -6.8780    -1.0990     0.3690 C.ar  1 <1>   0.7200 
 14 N       -7.8600    -1.9740     0.1860 N.ar  1 <1>  -0.6200 
 15 N       -6.9370     0.2110     0.1350 N.ar  1 <1>  -0.6200 
 16 C       -8.9830    -1.4780    -0.2800 C.ar  1 <1>   0.3930 
 17 C       -8.0690     0.6770    -0.3310 C.ar  1 <1>   0.1670 
 18 O      -10.0330    -2.2920    -0.5000 O.3   1 <1>  -0.3620 
 19 C       -9.1410    -0.1430    -0.5590 C.ar  1 <1>  -0.1500 
 20 C       -8.1380     2.1630    -0.6060 C.3   1 <1>  -0.0970 
 21 C       -9.9450    -3.6740    -0.2270 C.3   1 <1>   0.1200 
 22 C      -11.2850    -4.3160    -0.5760 C.3   1 <1>  -0.2400 
 23 H       -0.3270    -2.2420     1.0050 H     1 <1>   0.3700 
 24 H       -2.5980    -2.5660     1.2450 H     1 <1>   0.0800 
 25 H        1.2050    -1.1620    -0.8140 H     1 <1>   0.0800 
 26 H        0.7120    -2.5700    -1.7320 H     1 <1>   0.0800 
 27 H       -3.6650    -4.0160    -0.4080 H     1 <1>   0.0800 
 28 H       -4.2900    -2.6360    -1.2570 H     1 <1>   0.0800 
 29 H       -3.6600    -0.2390    -0.3690 H     1 <1>   0.0800 
 30 H       -2.6360    -0.1200     1.0300 H     1 <1>   0.0800 
 31 H        1.5200    -4.0620     0.0690 H     1 <1>   0.1500 
 32 H       -5.0410    -3.4710     1.5500 H     1 <1>   0.0800 
 33 H       -6.0330    -3.5710     0.1240 H     1 <1>   0.0800 
 34 H       -5.0040     0.2790     1.6010 H     1 <1>   0.0800 
 35 H       -4.3900    -1.1160     2.4310 H     1 <1>   0.0800 
 36 H        3.6090    -3.2200     1.1910 H     1 <1>   0.1500 
 37 H        3.2620    -1.5620     0.6350 H     1 <1>   0.1500 
 38 H      -10.0750     0.2200    -0.9400 H     1 <1>   0.1500 
 39 H       -7.9530     2.7050     0.3030 H     1 <1>   0.0800 
 40 H       -9.1020     2.4410    -0.9890 H     1 <1>   0.0800 
 41 H       -7.3860     2.4290    -1.3270 H     1 <1>   0.0800 
 42 H       -9.7170    -3.8000     0.8180 H     1 <1>   0.0800 
 43 H       -9.1510    -4.0880    -0.8250 H     1 <1>   0.0800 
 44 H      -12.0680    -3.8830     0.0200 H     1 <1>   0.0800 
 45 H      -11.2450    -5.3710    -0.3770 H     1 <1>   0.0800 
 46 H      -11.5030    -4.1710    -1.6190 H     1 <1>   0.0800 
@<TRIPOS>BOND
  1   1   2  2   
  2   2   3  am  
  3   2   4  1   
  4   3   5  1   
  5   3  23  1   
  6   4   6  1   
  7   4   7  1   
  8   4  24  1   
  9   5   8  1   
 10   5  25  1   
 11   5  26  1   
 12   6   9  1   
 13   6  27  1   
 14   6  28  1   
 15   7  10  1   
 16   7  29  1   
 17   7  30  1   
 18   8  11  2   
 19   8  31  1   
 20   9  12  1   
 21   9  32  1   
 22   9  33  1   
 23  10  12  1   
 24  10  34  1   
 25  10  35  1   
 26  11  36  1   
 27  11  37  1   
 28  12  13  1   
 29  13  14  ar  
 30  13  15  ar  
 31  14  16  ar  
 32  15  17  ar  
 33  16  18  1   
 34  16  19  ar  
 35  17  19  ar  
 36  17  20  1   
 37  18  21  1   
 38  19  38  1   
 39  20  39  1   
 40  20  40  1   
 41  20  41  1   
 42  21  22  1   
 43  21  42  1   
 44  21  43  1   
 45  22  44  1   
 46  22  45  1   
 47  22  46  1   
@<TRIPOS>SUBSTRUCTURE
  1 ****  12 GROUP 4 **** **** 0

# MOE 2024.06 (io_trps.svl 2023.06)
