@<TRIPOS>MOLECULE
NONAME
42 43 1 0 0 
SMALL
USER_CHARGES


@<TRIPOS>ATOM
  1 S       -0.2100    -1.2980     1.3330 S.o2  1 <1>   1.4470 
  2 O        0.5390    -0.6840     2.4080 O.2   1 <1>  -0.6500 
  3 O       -0.7180    -2.6380     1.5520 O.2   1 <1>  -0.6500 
  4 N        0.7560    -1.3940    -0.0640 N.am  1 <1>  -0.8490 
  5 C       -1.6000    -0.2180     0.8760 C.ar  1 <1>  -0.0090 
  6 C        1.0980    -0.1250    -0.7330 C.3   1 <1>   0.1960 
  7 C        1.9290    -2.2640     0.0670 C.3   1 <1>   0.1960 
  8 C       -2.8090    -0.7420     0.4320 C.ar  1 <1>  -0.1500 
  9 C       -1.4810     1.1660     0.9320 C.ar  1 <1>  -0.1500 
 10 C        2.1900     0.6450     0.0020 C.3   1 <1>  -0.1860 
 11 C        3.1100    -1.5730     0.7720 C.3   1 <1>  -0.1600 
 12 C       -3.8660     0.0730     0.0560 C.ar  1 <1>  -0.1440 
 13 C       -2.5190     1.9960     0.5540 C.ar  1 <1>  -0.1500 
 14 C        2.3720     1.9500    -0.7430 C.2   1 <1>   0.9060 
 15 C        3.4580    -0.2230     0.1280 C.3   1 <1>  -0.1600 
 16 C       -3.7220     1.4560     0.1110 C.ar  1 <1>   0.0820 
 17 C       -5.1710    -0.5500    -0.4190 C.3   1 <1>  -0.0970 
 18 O        1.5760     2.8620    -0.4960 O.co2 1 <1>  -0.9000 
 19 O        3.2500     2.0480    -1.6060 O.co2 1 <1>  -0.9000 
 20 O       -4.7730     2.2220    -0.2820 O.3   1 <1>  -0.3630 
 21 C       -4.6420     3.6150    -0.4430 C.3   1 <1>   0.1200 
 22 C       -5.9580     4.1530    -0.9960 C.3   1 <1>  -0.2400 
 23 H        0.2270     0.4930    -0.8560 H     1 <1>   0.0800 
 24 H        1.4550    -0.3450    -1.7260 H     1 <1>   0.0800 
 25 H        2.2430    -2.5530    -0.9210 H     1 <1>   0.0800 
 26 H        1.6580    -3.1620     0.5980 H     1 <1>   0.0800 
 27 H       -2.9160    -1.8120     0.3810 H     1 <1>   0.1500 
 28 H       -0.5520     1.6070     1.2630 H     1 <1>   0.1500 
 29 H        1.8500     0.9140     0.9820 H     1 <1>   0.0800 
 30 H        3.9690    -2.2170     0.7290 H     1 <1>   0.0800 
 31 H        2.8750    -1.4260     1.8100 H     1 <1>   0.0800 
 32 H       -2.3580     3.0560     0.6080 H     1 <1>   0.1500 
 33 H        4.1950     0.2970     0.7150 H     1 <1>   0.0800 
 34 H        3.8720    -0.3870    -0.8530 H     1 <1>   0.0800 
 35 H       -5.1290    -1.6230    -0.3790 H     1 <1>   0.0800 
 36 H       -5.3670    -0.2490    -1.4320 H     1 <1>   0.0800 
 37 H       -5.9810    -0.2140     0.2030 H     1 <1>   0.0800 
 38 H       -3.8330     3.8050    -1.1290 H     1 <1>   0.0800 
 39 H       -4.4260     4.0500     0.5180 H     1 <1>   0.0800 
 40 H       -6.1710     3.7000    -1.9470 H     1 <1>   0.0800 
 41 H       -5.8890     5.2180    -1.1300 H     1 <1>   0.0800 
 42 H       -6.7590     3.9450    -0.3100 H     1 <1>   0.0800 
@<TRIPOS>BOND
  1   1   2  2   
  2   1   3  2   
  3   1   4  am  
  4   1   5  1   
  5   4   6  1   
  6   4   7  1   
  7   5   8  ar  
  8   5   9  ar  
  9   6  10  1   
 10   6  23  1   
 11   6  24  1   
 12   7  11  1   
 13   7  25  1   
 14   7  26  1   
 15   8  12  ar  
 16   8  27  1   
 17   9  13  ar  
 18   9  28  1   
 19  10  14  1   
 20  10  15  1   
 21  10  29  1   
 22  11  15  1   
 23  11  30  1   
 24  11  31  1   
 25  12  16  ar  
 26  12  17  1   
 27  13  16  ar  
 28  13  32  1   
 29  14  18  ar  
 30  14  19  ar  
 31  15  33  1   
 32  15  34  1   
 33  16  20  1   
 34  17  35  1   
 35  17  36  1   
 36  17  37  1   
 37  20  21  1   
 38  21  22  1   
 39  21  38  1   
 40  21  39  1   
 41  22  40  1   
 42  22  41  1   
 43  22  42  1   
@<TRIPOS>SUBSTRUCTURE
  1 ****   9 GROUP 4 **** **** 0

# MOE 2024.06 (io_trps.svl 2023.06)
