@<TRIPOS>MOLECULE
NONAME
40 41 1 0 0 
SMALL
USER_CHARGES


@<TRIPOS>ATOM
  1 O       -0.4380     0.1600     0.8500 O.2   1 <1>  -0.5700 
  2 C       -0.5130     1.1030     0.0790 C.2   1 <1>   0.6900 
  3 N       -1.7250     1.5070    -0.4040 N.am  1 <1>  -0.4210 
  4 N        0.6090     1.7760    -0.3330 N.am  1 <1>  -0.5470 
  5 N       -3.0340     0.9730     0.0450 N.3   1 <1>  -0.5490 
  6 C        1.9680     1.4650    -0.1630 C.ar  1 <1>   0.1170 
  7 C       -4.0420     2.0790     0.0770 C.3   1 <1>   0.1100 
  8 C       -3.4650    -0.0790    -0.9240 C.3   1 <1>   0.1100 
  9 C        2.9000     2.4970    -0.1970 C.ar  1 <1>  -0.1500 
 10 C        2.4300     0.1640     0.0160 C.ar  1 <1>  -0.1500 
 11 C       -5.4720     1.5370     0.3240 C.3   1 <1>   0.3430 
 12 C       -4.8020    -0.7170    -0.4840 C.3   1 <1>   0.3430 
 13 C        4.2510     2.2380    -0.0530 C.ar  1 <1>  -0.1500 
 14 C        3.7810    -0.1010     0.1620 C.ar  1 <1>  -0.1500 
 15 N       -5.4580     0.0640     0.6250 N.4   1 <1>  -0.9590 
 16 C        4.7030     0.9410     0.1270 C.ar  1 <1>   0.0830 
 17 C       -6.7930    -0.4780     1.0110 C.3   1 <1>   0.2630 
 18 O        6.0450     0.7740     0.2620 O.3   1 <1>  -0.3630 
 19 C        6.5940    -0.5050     0.4930 C.3   1 <1>   0.0400 
 20 H       -1.7240     2.1430    -1.2030 H     1 <1>   0.3700 
 21 H        0.4380     2.7140    -0.6780 H     1 <1>   0.3700 
 22 H       -3.7820     2.7550     0.8730 H     1 <1>   0.0800 
 23 H       -4.0200     2.6340    -0.8450 H     1 <1>   0.0800 
 24 H       -2.7080    -0.8440    -0.9740 H     1 <1>   0.0800 
 25 H       -3.5700     0.3450    -1.9070 H     1 <1>   0.0800 
 26 H        2.5740     3.5110    -0.3330 H     1 <1>   0.1500 
 27 H        1.7330    -0.6530     0.0410 H     1 <1>   0.1500 
 28 H       -6.0750     1.7230    -0.5490 H     1 <1>   0.0800 
 29 H       -5.9120     2.0780     1.1460 H     1 <1>   0.0800 
 30 H       -5.4590    -0.7780    -1.3360 H     1 <1>   0.0800 
 31 H       -4.6090    -1.7230    -0.1480 H     1 <1>   0.0800 
 32 H        4.9670     3.0390    -0.0790 H     1 <1>   0.1500 
 33 H        4.0910    -1.1180     0.3000 H     1 <1>   0.1500 
 34 H       -4.7950    -0.0290     1.4160 H     1 <1>   0.4500 
 35 H       -7.4860    -0.3890     0.1910 H     1 <1>   0.0800 
 36 H       -7.1850     0.0640     1.8570 H     1 <1>   0.0800 
 37 H       -6.7090    -1.5180     1.2820 H     1 <1>   0.0800 
 38 H        7.6600    -0.3990     0.5830 H     1 <1>   0.0800 
 39 H        6.3590    -1.1410    -0.3420 H     1 <1>   0.0800 
 40 H        6.1860    -0.8990     1.4070 H     1 <1>   0.0800 
@<TRIPOS>BOND
  1   1   2  2   
  2   2   3  am  
  3   2   4  am  
  4   3   5  1   
  5   3  20  1   
  6   4   6  1   
  7   4  21  1   
  8   5   7  1   
  9   5   8  1   
 10   6   9  ar  
 11   6  10  ar  
 12   7  11  1   
 13   7  22  1   
 14   7  23  1   
 15   8  12  1   
 16   8  24  1   
 17   8  25  1   
 18   9  13  ar  
 19   9  26  1   
 20  10  14  ar  
 21  10  27  1   
 22  11  15  1   
 23  11  28  1   
 24  11  29  1   
 25  12  15  1   
 26  12  30  1   
 27  12  31  1   
 28  13  16  ar  
 29  13  32  1   
 30  14  16  ar  
 31  14  33  1   
 32  15  17  1   
 33  15  34  1   
 34  16  18  1   
 35  17  35  1   
 36  17  36  1   
 37  17  37  1   
 38  18  19  1   
 39  19  38  1   
 40  19  39  1   
 41  19  40  1   
@<TRIPOS>SUBSTRUCTURE
  1 ****   2 GROUP 4 **** **** 0

# MOE 2024.06 (io_trps.svl 2023.06)
