@<TRIPOS>MOLECULE
4-(2,3-Dihydro-benzo[1,4]dioxine-6-carbonyl)-piperidine-1-carboxylic acid (3-fluoro-phenyl)-amide
49 52 1 0 0 
SMALL
USER_CHARGES


@<TRIPOS>ATOM
  1 F       -0.6070     0.6670    -1.8500 F     1 <1>  -0.1900 
  2 C       -1.4290     1.3220    -1.0730 C.ar  1 <1>   0.1900 
  3 C       -2.7450     0.9150    -0.9990 C.ar  1 <1>  -0.1500 
  4 C       -0.9420     2.4000    -0.3590 C.ar  1 <1>  -0.1500 
  5 C       -3.6260     1.6090    -0.1760 C.ar  1 <1>   0.1170 
  6 C       -1.8160     3.0950     0.4600 C.ar  1 <1>  -0.1500 
  7 N       -4.9800     1.2690    -0.0590 N.am  1 <1>  -0.5470 
  8 C       -3.1420     2.6990     0.5460 C.ar  1 <1>  -0.1500 
  9 C       -5.6290     0.0840    -0.2530 C.2   1 <1>   0.6900 
 10 O       -5.0130    -0.9490    -0.4350 O.2   1 <1>  -0.5700 
 11 N       -6.9990     0.0740    -0.2060 N.am  1 <1>  -0.6600 
 12 C       -7.7390    -1.1890     0.0580 C.3   1 <1>   0.1400 
 13 C       -7.8480     1.2190    -0.6310 C.3   1 <1>   0.1400 
 14 C       -8.8140    -0.9370     1.1200 C.3   1 <1>  -0.1600 
 15 C       -8.9180     1.4860     0.4310 C.3   1 <1>  -0.1600 
 16 C       -9.7490     0.2220     0.7210 C.3   1 <1>  -0.0190 
 17 C      -10.8140     0.5040     1.7890 C.2   1 <1>   0.4230 
 18 O      -10.4670     0.4820     2.9440 O.2   1 <1>  -0.5700 
 19 C      -12.1820     0.7830     1.4010 C.ar  1 <1>   0.0860 
 20 C      -12.5370     1.2550     0.1310 C.ar  1 <1>  -0.1500 
 21 C      -13.2220     0.5880     2.3170 C.ar  1 <1>  -0.1500 
 22 C      -13.8530     1.4990    -0.2060 C.ar  1 <1>   0.0830 
 23 C      -14.5430     0.8380     1.9930 C.ar  1 <1>  -0.1500 
 24 O      -14.1340     1.9320    -1.4610 O.3   1 <1>  -0.3620 
 25 C      -14.8670     1.2990     0.7310 C.ar  1 <1>   0.0830 
 26 C      -15.4860     1.8570    -1.8770 C.3   1 <1>   0.1200 
 27 O      -16.1600     1.5550     0.4300 O.3   1 <1>  -0.3630 
 28 C      -16.4200     2.3020    -0.7430 C.3   1 <1>   0.1200 
 29 H       -3.0740     0.0710    -1.5760 H     1 <1>   0.1500 
 30 H        0.0910     2.6840    -0.4460 H     1 <1>   0.1500 
 31 H       -1.4640     3.9390     1.0280 H     1 <1>   0.1500 
 32 H       -5.5770     1.9600     0.3800 H     1 <1>   0.3700 
 33 H       -3.8090     3.2450     1.1880 H     1 <1>   0.1500 
 34 H       -7.0640    -1.9530     0.4080 H     1 <1>   0.0800 
 35 H       -8.1880    -1.5320    -0.8580 H     1 <1>   0.0800 
 36 H       -8.3190     0.9690    -1.5660 H     1 <1>   0.0800 
 37 H       -7.2570     2.1040    -0.7890 H     1 <1>   0.0800 
 38 H       -8.3260    -0.7140     2.0530 H     1 <1>   0.0800 
 39 H       -9.3880    -1.8350     1.2620 H     1 <1>   0.0800 
 40 H       -9.5600     2.2790     0.0940 H     1 <1>   0.0800 
 41 H       -8.4390     1.8170     1.3370 H     1 <1>   0.0800 
 42 H      -10.2410    -0.0820    -0.1850 H     1 <1>   0.0800 
 43 H      -11.7930     1.4470    -0.6180 H     1 <1>   0.1500 
 44 H      -12.9820     0.2340     3.3060 H     1 <1>   0.1500 
 45 H      -15.3260     0.6820     2.7140 H     1 <1>   0.1500 
 46 H      -15.6940     0.8380    -2.1540 H     1 <1>   0.0800 
 47 H      -15.6030     2.4880    -2.7390 H     1 <1>   0.0800 
 48 H      -17.4500     2.1480    -1.0120 H     1 <1>   0.0800 
 49 H      -16.2660     3.3420    -0.5180 H     1 <1>   0.0800 
@<TRIPOS>BOND
  1   1   2  1   
  2   2   3  ar  
  3   2   4  ar  
  4   3   5  ar  
  5   3  29  1   
  6   4   6  ar  
  7   4  30  1   
  8   5   7  1   
  9   5   8  ar  
 10   6   8  ar  
 11   6  31  1   
 12   7   9  am  
 13   7  32  1   
 14   8  33  1   
 15   9  10  2   
 16   9  11  am  
 17  11  12  1   
 18  11  13  1   
 19  12  14  1   
 20  12  34  1   
 21  12  35  1   
 22  13  15  1   
 23  13  36  1   
 24  13  37  1   
 25  14  16  1   
 26  14  38  1   
 27  14  39  1   
 28  15  16  1   
 29  15  40  1   
 30  15  41  1   
 31  16  17  1   
 32  16  42  1   
 33  17  18  2   
 34  17  19  1   
 35  19  20  ar  
 36  19  21  ar  
 37  20  22  ar  
 38  20  43  1   
 39  21  23  ar  
 40  21  44  1   
 41  22  24  1   
 42  22  25  ar  
 43  23  25  ar  
 44  23  45  1   
 45  24  26  1   
 46  25  27  1   
 47  26  28  1   
 48  26  46  1   
 49  26  47  1   
 50  27  28  1   
 51  28  48  1   
 52  28  49  1   
@<TRIPOS>SUBSTRUCTURE
  1 ****  15 GROUP 4 **** **** 0

# MOE 2024.06 (io_trps.svl 2023.06)
