@<TRIPOS>MOLECULE
4-(4-Methyl-benzoylamino)-piperidine-1-carboxylic acid (2-chloro-phenyl)-amide
48 50 1 0 0 
SMALL
USER_CHARGES


@<TRIPOS>ATOM
  1 CL       2.0640    -0.0500     0.3030 Cl    1 <1>  -0.1770 
  2 C        0.8510    -1.2060     0.8190 C.ar  1 <1>   0.1770 
  3 C        1.1490    -2.5680     0.7830 C.ar  1 <1>   0.1170 
  4 C       -0.3730    -0.7300     1.2460 C.ar  1 <1>  -0.1500 
  5 N        2.4150    -2.9850     0.3320 N.am  1 <1>  -0.5470 
  6 C        0.1510    -3.4510     1.1880 C.ar  1 <1>  -0.1500 
  7 C       -1.3470    -1.6270     1.6500 C.ar  1 <1>  -0.1500 
  8 C        3.1090    -4.1520     0.4670 C.2   1 <1>   0.6900 
  9 C       -1.0800    -2.9860     1.6190 C.ar  1 <1>  -0.1500 
 10 O        2.6780    -5.0590     1.1520 O.2   1 <1>  -0.5700 
 11 N        4.3260    -4.2740    -0.1590 N.am  1 <1>  -0.6600 
 12 C        4.8000    -3.4060    -1.2740 C.3   1 <1>   0.1400 
 13 C        5.2610    -5.3800     0.1870 C.3   1 <1>   0.1400 
 14 C        6.1420    -2.7840    -0.8860 C.3   1 <1>  -0.1600 
 15 C        6.6180    -4.7890     0.5770 C.3   1 <1>  -0.1600 
 16 C        7.1520    -3.8750    -0.5280 C.3   1 <1>   0.2200 
 17 N        8.3970    -3.2410    -0.0660 N.am  1 <1>  -0.7300 
 18 C        9.5800    -3.2250    -0.7520 C.2   1 <1>   0.5440 
 19 O        9.6290    -3.7700    -1.8370 O.2   1 <1>  -0.5700 
 20 C       10.7540    -2.5810    -0.1870 C.ar  1 <1>   0.0860 
 21 C       10.6570    -1.5080     0.7020 C.ar  1 <1>  -0.1500 
 22 C       12.0370    -3.0180    -0.5160 C.ar  1 <1>  -0.1500 
 23 C       11.7820    -0.9150     1.2450 C.ar  1 <1>  -0.1500 
 24 C       13.1650    -2.4280     0.0230 C.ar  1 <1>  -0.1500 
 25 C       13.0450    -1.3740     0.9120 C.ar  1 <1>  -0.1430 
 26 C       14.2820    -0.7240     1.5050 C.3   1 <1>  -0.0970 
 27 H       -0.5620     0.3290     1.2620 H     1 <1>   0.1500 
 28 H        2.9880    -2.2360    -0.0450 H     1 <1>   0.3700 
 29 H        0.3300    -4.5110     1.1680 H     1 <1>   0.1500 
 30 H       -2.3060    -1.2720     1.9870 H     1 <1>   0.1500 
 31 H       -1.8350    -3.6890     1.9300 H     1 <1>   0.1500 
 32 H        4.0890    -2.6340    -1.5070 H     1 <1>   0.0800 
 33 H        4.9240    -4.0130    -2.1560 H     1 <1>   0.0800 
 34 H        5.3690    -6.0300    -0.6650 H     1 <1>   0.0800 
 35 H        4.8780    -5.9650     1.0060 H     1 <1>   0.0800 
 36 H        5.9940    -2.1230    -0.0510 H     1 <1>   0.0800 
 37 H        6.5190    -2.2120    -1.7160 H     1 <1>   0.0800 
 38 H        7.3140    -5.5910     0.7460 H     1 <1>   0.0800 
 39 H        6.5000    -4.2390     1.4930 H     1 <1>   0.0800 
 40 H        7.3500    -4.4700    -1.4060 H     1 <1>   0.0800 
 41 H        8.3660    -2.8580     0.8780 H     1 <1>   0.3700 
 42 H        9.6890    -1.1240     0.9670 H     1 <1>   0.1500 
 43 H       12.1450    -3.8360    -1.2090 H     1 <1>   0.1500 
 44 H       11.6730    -0.0900     1.9270 H     1 <1>   0.1500 
 45 H       14.1390    -2.7930    -0.2540 H     1 <1>   0.1500 
 46 H       14.0680    -0.3250     2.4800 H     1 <1>   0.0800 
 47 H       14.6130     0.0760     0.8670 H     1 <1>   0.0800 
 48 H       15.0750    -1.4430     1.6000 H     1 <1>   0.0800 
@<TRIPOS>BOND
  1   1   2  1   
  2   2   3  ar  
  3   2   4  ar  
  4   3   5  1   
  5   3   6  ar  
  6   4   7  ar  
  7   4  27  1   
  8   5   8  am  
  9   5  28  1   
 10   6   9  ar  
 11   6  29  1   
 12   7   9  ar  
 13   7  30  1   
 14   8  10  2   
 15   8  11  am  
 16   9  31  1   
 17  11  12  1   
 18  11  13  1   
 19  12  14  1   
 20  12  32  1   
 21  12  33  1   
 22  13  15  1   
 23  13  34  1   
 24  13  35  1   
 25  14  16  1   
 26  14  36  1   
 27  14  37  1   
 28  15  16  1   
 29  15  38  1   
 30  15  39  1   
 31  16  17  1   
 32  16  40  1   
 33  17  18  am  
 34  17  41  1   
 35  18  19  2   
 36  18  20  1   
 37  20  21  ar  
 38  20  22  ar  
 39  21  23  ar  
 40  21  42  1   
 41  22  24  ar  
 42  22  43  1   
 43  23  25  ar  
 44  23  44  1   
 45  24  25  ar  
 46  24  45  1   
 47  25  26  1   
 48  26  46  1   
 49  26  47  1   
 50  26  48  1   
@<TRIPOS>SUBSTRUCTURE
  1 ****  14 GROUP 4 **** **** 0

# MOE 2024.06 (io_trps.svl 2023.06)
