@<TRIPOS>MOLECULE
4-(3-Fluoro-benzoylamino)-piperidine-1-carboxylic acid (4-methoxy-phenyl)-amide
49 51 1 0 0 
SMALL
USER_CHARGES


@<TRIPOS>ATOM
  1 F       -1.8110     1.1280    -3.2520 F     1 <1>  -0.1900 
  2 C       -2.0030     1.8980    -2.2160 C.ar  1 <1>   0.1900 
  3 C       -3.1330     1.7030    -1.4480 C.ar  1 <1>  -0.1500 
  4 C       -1.0690     2.8730    -1.9310 C.ar  1 <1>  -0.1500 
  5 C       -3.3670     2.5150    -0.3370 C.ar  1 <1>   0.0860 
  6 C       -1.2820     3.6800    -0.8270 C.ar  1 <1>  -0.1500 
  7 C       -4.5490     2.3560     0.4940 C.2   1 <1>   0.5440 
  8 C       -2.4130     3.4970    -0.0480 C.ar  1 <1>  -0.1500 
  9 O       -4.5440     2.7110     1.6560 O.2   1 <1>  -0.5700 
 10 N       -5.6980     1.8220    -0.0180 N.am  1 <1>  -0.7300 
 11 C       -6.9310     1.5860     0.7500 C.3   1 <1>   0.2200 
 12 C       -7.5730     0.2800     0.2790 C.3   1 <1>  -0.1600 
 13 C       -7.8760     2.7730     0.5550 C.3   1 <1>  -0.1600 
 14 C       -8.9170     0.0510     0.9750 C.3   1 <1>   0.1400 
 15 C       -9.2050     2.5170     1.2650 C.3   1 <1>   0.1400 
 16 N       -9.7880     1.2410     0.7670 N.am  1 <1>  -0.6600 
 17 C      -11.0750     1.1000     0.3070 C.2   1 <1>   0.6900 
 18 O      -11.5980     0.0020     0.2770 O.2   1 <1>  -0.5700 
 19 N      -11.7370     2.2060    -0.1440 N.am  1 <1>  -0.5470 
 20 C      -13.0670     2.3930    -0.5500 C.ar  1 <1>   0.1170 
 21 C      -14.1100     1.5820    -0.1130 C.ar  1 <1>  -0.1500 
 22 C      -13.3640     3.4440    -1.4100 C.ar  1 <1>  -0.1500 
 23 C      -15.4110     1.8080    -0.5250 C.ar  1 <1>  -0.1500 
 24 C      -14.6630     3.6770    -1.8240 C.ar  1 <1>  -0.1500 
 25 C      -15.6950     2.8630    -1.3870 C.ar  1 <1>   0.0830 
 26 O      -16.9420     3.1580    -1.8420 O.3   1 <1>  -0.3620 
 27 C      -18.0480     2.3600    -1.4840 C.3   1 <1>   0.0400 
 28 H       -3.8160     0.9180    -1.7130 H     1 <1>   0.1500 
 29 H       -0.2000     2.9930    -2.5540 H     1 <1>   0.1500 
 30 H       -0.5700     4.4470    -0.5740 H     1 <1>   0.1500 
 31 H       -2.5670     4.1280     0.8120 H     1 <1>   0.1500 
 32 H       -5.7710     1.6520    -1.0200 H     1 <1>   0.3700 
 33 H       -6.6890     1.4980     1.7980 H     1 <1>   0.0800 
 34 H       -6.9180    -0.5440     0.5030 H     1 <1>   0.0800 
 35 H       -7.7390     0.3060    -0.7830 H     1 <1>   0.0800 
 36 H       -8.0610     2.9350    -0.4920 H     1 <1>   0.0800 
 37 H       -7.4210     3.6570     0.9650 H     1 <1>   0.0800 
 38 H       -8.7690    -0.0970     2.0310 H     1 <1>   0.0800 
 39 H       -9.3790    -0.8360     0.5750 H     1 <1>   0.0800 
 40 H       -9.8730     3.3450     1.1080 H     1 <1>   0.0800 
 41 H       -9.0380     2.4310     2.3260 H     1 <1>   0.0800 
 42 H      -11.1160     2.9870    -0.3150 H     1 <1>   0.3700 
 43 H      -13.9060     0.7670     0.5570 H     1 <1>   0.1500 
 44 H      -12.5780     4.0850    -1.7620 H     1 <1>   0.1500 
 45 H      -16.1820     1.1550    -0.1640 H     1 <1>   0.1500 
 46 H      -14.8880     4.4900    -2.4900 H     1 <1>   0.1500 
 47 H      -18.9210     2.7630    -1.9640 H     1 <1>   0.0800 
 48 H      -18.1710     2.3930    -0.4150 H     1 <1>   0.0800 
 49 H      -17.8760     1.3530    -1.8220 H     1 <1>   0.0800 
@<TRIPOS>BOND
  1   1   2  1   
  2   2   3  ar  
  3   2   4  ar  
  4   3   5  ar  
  5   3  28  1   
  6   4   6  ar  
  7   4  29  1   
  8   5   7  1   
  9   5   8  ar  
 10   6   8  ar  
 11   6  30  1   
 12   7   9  2   
 13   7  10  am  
 14   8  31  1   
 15  10  11  1   
 16  10  32  1   
 17  11  12  1   
 18  11  13  1   
 19  11  33  1   
 20  12  14  1   
 21  12  34  1   
 22  12  35  1   
 23  13  15  1   
 24  13  36  1   
 25  13  37  1   
 26  14  16  1   
 27  14  38  1   
 28  14  39  1   
 29  15  16  1   
 30  15  40  1   
 31  15  41  1   
 32  16  17  am  
 33  17  18  2   
 34  17  19  am  
 35  19  20  1   
 36  19  42  1   
 37  20  21  ar  
 38  20  22  ar  
 39  21  23  ar  
 40  21  43  1   
 41  22  24  ar  
 42  22  44  1   
 43  23  25  ar  
 44  23  45  1   
 45  24  25  ar  
 46  24  46  1   
 47  25  26  1   
 48  26  27  1   
 49  27  47  1   
 50  27  48  1   
 51  27  49  1   
@<TRIPOS>SUBSTRUCTURE
  1 ****  13 GROUP 4 **** **** 0

# MOE 2024.06 (io_trps.svl 2023.06)
