@<TRIPOS>MOLECULE
NONAME
60 63 1 0 0 
SMALL
USER_CHARGES


@<TRIPOS>ATOM
  1 O       -2.2890    -0.9790     0.8690 O.2   1 <1>  -0.5700 
  2 C       -1.6750    -0.5420    -0.0840 C.2   1 <1>   0.6900 
  3 N       -2.0270     0.6150    -0.6810 N.am  1 <1>  -0.7300 
  4 N       -0.6190    -1.2050    -0.5960 N.am  1 <1>  -0.7300 
  5 C       -3.0600     1.6170    -0.2620 C.3   1 <1>   0.3610 
  6 C       -0.1030    -2.4860    -0.0910 C.3   1 <1>   0.2200 
  7 C       -4.5110     1.0580    -0.4470 C.2   1 <1>   0.5690 
  8 C       -2.8080     2.8750    -1.1430 C.3   1 <1>  -0.1600 
  9 C       -2.8230     2.0380     1.2070 C.3   1 <1>  -0.1600 
 10 C        1.4180    -2.3790     0.0650 C.3   1 <1>  -0.1600 
 11 C       -0.4860    -3.5970    -1.0740 C.3   1 <1>  -0.1600 
 12 O       -5.3230     1.6770    -1.0990 O.2   1 <1>  -0.5700 
 13 N       -4.8260    -0.1360     0.1480 N.am  1 <1>  -0.5470 
 14 C       -1.6770     3.8220    -0.6760 C.3   1 <1>  -0.1600 
 15 C       -1.3910     2.5340     1.5060 C.3   1 <1>  -0.1600 
 16 C        2.0260    -3.7240     0.4900 C.3   1 <1>  -0.1600 
 17 C        0.1200    -4.9440    -0.6510 C.3   1 <1>  -0.1600 
 18 C       -6.0010    -0.9030     0.1950 C.ar  1 <1>   0.1170 
 19 C       -0.6850     3.1740     0.2970 C.3   1 <1>  -0.1600 
 20 C        1.6430    -4.8420    -0.4890 C.3   1 <1>  -0.1600 
 21 C       -5.8930    -2.2390     0.5630 C.ar  1 <1>  -0.1500 
 22 C       -7.2640    -0.3900    -0.0920 C.ar  1 <1>  -0.1500 
 23 C       -7.0130    -3.0450     0.6370 C.ar  1 <1>   0.0820 
 24 C       -8.3910    -1.1910    -0.0260 C.ar  1 <1>  -0.1500 
 25 O       -6.8660    -4.3420     1.0130 O.3   1 <1>  -0.3620 
 26 C       -8.2710    -2.5220     0.3320 C.ar  1 <1>   0.0820 
 27 C       -8.0410    -5.0380     1.3820 C.3   1 <1>   0.1200 
 28 O       -9.3890    -3.2960     0.3770 O.3   1 <1>  -0.3630 
 29 C       -9.1860    -4.6960     0.4180 C.3   1 <1>   0.1200 
 30 H       -1.3700     1.0000    -1.3510 H     1 <1>   0.3700 
 31 H       -0.2330    -0.9040    -1.4850 H     1 <1>   0.3700 
 32 H       -0.5380    -2.7030     0.8710 H     1 <1>   0.0800 
 33 H       -3.7000     3.4760    -1.1590 H     1 <1>   0.0800 
 34 H       -2.6410     2.5660    -2.1600 H     1 <1>   0.0800 
 35 H       -3.0700     1.2350     1.8770 H     1 <1>   0.0800 
 36 H       -3.5110     2.8350     1.4270 H     1 <1>   0.0800 
 37 H        1.6470    -1.6360     0.8080 H     1 <1>   0.0800 
 38 H        1.8570    -2.0780    -0.8690 H     1 <1>   0.0800 
 39 H       -0.1310    -3.3480    -2.0580 H     1 <1>   0.0800 
 40 H       -1.5580    -3.6860    -1.1080 H     1 <1>   0.0800 
 41 H       -4.0070    -0.5960     0.5720 H     1 <1>   0.3700 
 42 H       -2.1240     4.6640    -0.1740 H     1 <1>   0.0800 
 43 H       -1.1500     4.2070    -1.5320 H     1 <1>   0.0800 
 44 H       -0.7940     1.7050     1.8500 H     1 <1>   0.0800 
 45 H       -1.4390     3.2470     2.3120 H     1 <1>   0.0800 
 46 H        1.6740    -3.9780     1.4760 H     1 <1>   0.0800 
 47 H        3.0980    -3.6370     0.5370 H     1 <1>   0.0800 
 48 H       -0.1160    -5.6930    -1.3870 H     1 <1>   0.0800 
 49 H       -0.3180    -5.2520     0.2830 H     1 <1>   0.0800 
 50 H        0.0200     3.9110     0.6440 H     1 <1>   0.0800 
 51 H       -0.1200     2.4230    -0.2250 H     1 <1>   0.0800 
 52 H        2.0300    -5.7810    -0.1330 H     1 <1>   0.0800 
 53 H        2.0900    -4.6440    -1.4480 H     1 <1>   0.0800 
 54 H       -4.9310    -2.6570     0.7950 H     1 <1>   0.1500 
 55 H       -7.3750     0.6420    -0.3690 H     1 <1>   0.1500 
 56 H       -9.3620    -0.7900    -0.2540 H     1 <1>   0.1500 
 57 H       -8.2990    -4.7510     2.3860 H     1 <1>   0.0800 
 58 H       -7.8230    -6.0900     1.3590 H     1 <1>   0.0800 
 59 H      -10.1040    -5.1540     0.7370 H     1 <1>   0.0800 
 60 H       -8.9500    -5.0290    -0.5770 H     1 <1>   0.0800 
@<TRIPOS>BOND
  1   1   2  2   
  2   2   3  am  
  3   2   4  am  
  4   3   5  1   
  5   3  30  1   
  6   4   6  1   
  7   4  31  1   
  8   5   7  1   
  9   5   8  1   
 10   5   9  1   
 11   6  10  1   
 12   6  11  1   
 13   6  32  1   
 14   7  12  2   
 15   7  13  am  
 16   8  14  1   
 17   8  33  1   
 18   8  34  1   
 19   9  15  1   
 20   9  35  1   
 21   9  36  1   
 22  10  16  1   
 23  10  37  1   
 24  10  38  1   
 25  11  17  1   
 26  11  39  1   
 27  11  40  1   
 28  13  18  1   
 29  13  41  1   
 30  14  19  1   
 31  14  42  1   
 32  14  43  1   
 33  15  19  1   
 34  15  44  1   
 35  15  45  1   
 36  16  20  1   
 37  16  46  1   
 38  16  47  1   
 39  17  20  1   
 40  17  48  1   
 41  17  49  1   
 42  18  21  ar  
 43  18  22  ar  
 44  19  50  1   
 45  19  51  1   
 46  20  52  1   
 47  20  53  1   
 48  21  23  ar  
 49  21  54  1   
 50  22  24  ar  
 51  22  55  1   
 52  23  25  1   
 53  23  26  ar  
 54  24  26  ar  
 55  24  56  1   
 56  25  27  1   
 57  26  28  1   
 58  27  29  1   
 59  27  57  1   
 60  27  58  1   
 61  28  29  1   
 62  29  59  1   
 63  29  60  1   
@<TRIPOS>SUBSTRUCTURE
  1 ****  13 GROUP 4 **** **** 0

# MOE 2024.06 (io_trps.svl 2023.06)
