@<TRIPOS>MOLECULE
4-[(Furan-2-carbonyl)-amino]-piperidine-1-carboxylic acid (3-chloro-phenyl)-amide
42 44 1 0 0 
SMALL
USER_CHARGES


@<TRIPOS>ATOM
  1 CL       1.4280    -0.4380    -3.3380 Cl    1 <1>  -0.1770 
  2 C        1.8290    -1.6710    -2.1690 C.ar  1 <1>   0.1770 
  3 C        3.1370    -1.7990    -1.7460 C.ar  1 <1>  -0.1500 
  4 C        0.8290    -2.4950    -1.6880 C.ar  1 <1>  -0.1500 
  5 C        3.4740    -2.7750    -0.8160 C.ar  1 <1>   0.1170 
  6 C        1.1540    -3.4690    -0.7590 C.ar  1 <1>  -0.1500 
  7 N        4.8060    -2.8750    -0.3910 N.am  1 <1>  -0.5470 
  8 C        2.4640    -3.6020    -0.3300 C.ar  1 <1>  -0.1500 
  9 C        5.5100    -3.9300     0.1170 C.2   1 <1>   0.6900 
 10 O        5.0400    -5.0510     0.1190 O.2   1 <1>  -0.5700 
 11 N        6.7770    -3.7090     0.6000 N.am  1 <1>  -0.6600 
 12 C        7.6980    -4.8490     0.8660 C.3   1 <1>   0.1400 
 13 C        7.2600    -2.3970     1.1150 C.3   1 <1>   0.1400 
 14 C        9.0710    -4.5500     0.2580 C.3   1 <1>  -0.1600 
 15 C        8.6200    -2.0780     0.4930 C.3   1 <1>  -0.1600 
 16 C        9.6100    -3.2110     0.7640 C.3   1 <1>   0.2200 
 17 N       10.8780    -2.9140     0.0830 N.am  1 <1>  -0.7300 
 18 C       12.0240    -2.4680     0.6760 C.2   1 <1>   0.7150 
 19 O       12.0250    -2.2680     1.8770 O.2   1 <1>  -0.5700 
 20 C       13.2030    -2.2350    -0.1250 C.2   1 <1>   0.0550 
 21 O       13.1930    -2.4460    -1.4400 O.3   1 <1>  -0.2800 
 22 C       14.4430    -1.8000     0.2310 C.2   1 <1>  -0.1500 
 23 C       14.3810    -2.1600    -1.9230 C.2   1 <1>  -0.0100 
 24 C       15.2070    -1.7520    -0.9360 C.2   1 <1>  -0.1500 
 25 H        3.8840    -1.1410    -2.1460 H     1 <1>   0.1500 
 26 H       -0.1810    -2.3750    -2.0350 H     1 <1>   0.1500 
 27 H        0.3920    -4.1230    -0.3710 H     1 <1>   0.1500 
 28 H        5.4000    -2.0820    -0.6020 H     1 <1>   0.3700 
 29 H        2.7010    -4.3610     0.3950 H     1 <1>   0.1500 
 30 H        7.3110    -5.7590     0.4380 H     1 <1>   0.0800 
 31 H        7.7850    -4.9910     1.9300 H     1 <1>   0.0800 
 32 H        7.3590    -2.4620     2.1860 H     1 <1>   0.0800 
 33 H        6.5620    -1.6080     0.8990 H     1 <1>   0.0800 
 34 H        8.9740    -4.5320    -0.8130 H     1 <1>   0.0800 
 35 H        9.7520    -5.3370     0.5270 H     1 <1>   0.0800 
 36 H        8.9980    -1.1660     0.9210 H     1 <1>   0.0800 
 37 H        8.4980    -1.9360    -0.5660 H     1 <1>   0.0800 
 38 H        9.7800    -3.2830     1.8270 H     1 <1>   0.0800 
 39 H       10.9030    -3.0520    -0.9280 H     1 <1>   0.3700 
 40 H       14.7810    -1.5400     1.2190 H     1 <1>   0.1500 
 41 H       14.5590    -2.2720    -2.9790 H     1 <1>   0.1500 
 42 H       16.2360    -1.4480    -1.0020 H     1 <1>   0.1500 
@<TRIPOS>BOND
  1   1   2  1   
  2   2   3  ar  
  3   2   4  ar  
  4   3   5  ar  
  5   3  25  1   
  6   4   6  ar  
  7   4  26  1   
  8   5   7  1   
  9   5   8  ar  
 10   6   8  ar  
 11   6  27  1   
 12   7   9  am  
 13   7  28  1   
 14   8  29  1   
 15   9  10  2   
 16   9  11  am  
 17  11  12  1   
 18  11  13  1   
 19  12  14  1   
 20  12  30  1   
 21  12  31  1   
 22  13  15  1   
 23  13  32  1   
 24  13  33  1   
 25  14  16  1   
 26  14  34  1   
 27  14  35  1   
 28  15  16  1   
 29  15  36  1   
 30  15  37  1   
 31  16  17  1   
 32  16  38  1   
 33  17  18  am  
 34  17  39  1   
 35  18  19  2   
 36  18  20  1   
 37  20  21  1   
 38  20  22  2   
 39  21  23  1   
 40  22  24  1   
 41  22  40  1   
 42  23  24  2   
 43  23  41  1   
 44  24  42  1   
@<TRIPOS>SUBSTRUCTURE
  1 ****  15 GROUP 4 **** **** 0

# MOE 2024.06 (io_trps.svl 2023.06)
