@<TRIPOS>MOLECULE
N-Benzo[1,3]dioxol-5-yl-2-[3-(4-fluoro-phenyl)-3-hydroxy-8-aza-bicyclo[3.2.1]oct-8-yl]-acetamide
53 57 1 0 0 
SMALL
USER_CHARGES


@<TRIPOS>ATOM
  1 F       -1.0270    -2.1490     2.3160 F     1 <1>  -0.1900 
  2 C       -0.0990    -2.6700     1.5610 C.ar  1 <1>   0.1900 
  3 C        0.1130    -4.0310     1.6030 C.ar  1 <1>  -0.1500 
  4 C        0.6380    -1.8440     0.7390 C.ar  1 <1>  -0.1500 
  5 C        1.1020    -4.5710     0.8000 C.ar  1 <1>  -0.1500 
  6 C        1.6240    -2.4000    -0.0580 C.ar  1 <1>  -0.1500 
  7 C        1.8900    -3.7720    -0.0330 C.ar  1 <1>  -0.1430 
  8 C        2.9790    -4.4640    -0.8900 C.3   1 <1>   0.4240 
  9 O        2.2790    -5.3560    -1.6600 O.3   1 <1>  -0.6800 
 10 C        3.7440    -3.5820    -1.9130 C.3   1 <1>  -0.1600 
 11 C        3.9400    -5.3280    -0.0340 C.3   1 <1>  -0.1600 
 12 C        5.1200    -3.0960    -1.4370 C.3   1 <1>   0.4230 
 13 C        5.2720    -4.6500     0.2770 C.3   1 <1>   0.4230 
 14 N        5.8610    -4.2960    -1.0270 N.4   1 <1>  -0.9590 
 15 C        5.0840    -2.2680    -0.1510 C.3   1 <1>  -0.1600 
 16 C        5.0980    -3.3010     0.9820 C.3   1 <1>  -0.1600 
 17 C        7.3680    -4.1370    -0.9720 C.3   1 <1>   0.4040 
 18 C        8.1200    -5.4460    -0.6640 C.2   1 <1>   0.5690 
 19 O        7.4920    -6.4730    -0.7630 O.2   1 <1>  -0.5700 
 20 N        9.4360    -5.3990    -0.2760 N.am  1 <1>  -0.5470 
 21 C       10.3070    -6.4510     0.0580 C.ar  1 <1>   0.1170 
 22 C       10.1690    -7.7390    -0.4650 C.ar  1 <1>  -0.1500 
 23 C       11.3640    -6.1830     0.9340 C.ar  1 <1>  -0.1500 
 24 C       11.0800    -8.7050    -0.0900 C.ar  1 <1>   0.0830 
 25 C       12.2730    -7.1680     1.2990 C.ar  1 <1>  -0.1500 
 26 O       11.1300    -9.9870    -0.4680 O.3   1 <1>  -0.3620 
 27 C       12.1030    -8.4290     0.7670 C.ar  1 <1>   0.0830 
 28 C       12.2520   -10.5660     0.1960 C.3   1 <1>   0.4000 
 29 O       12.8450    -9.5250     0.9720 O.3   1 <1>  -0.3620 
 30 H       -0.4880    -4.6490     2.2470 H     1 <1>   0.1500 
 31 H        0.4340    -0.7880     0.7260 H     1 <1>   0.1500 
 32 H        1.2440    -5.6390     0.8300 H     1 <1>   0.1500 
 33 H        2.1550    -1.7210    -0.6940 H     1 <1>   0.1500 
 34 H        1.3560    -5.0390    -1.7380 H     1 <1>   0.4000 
 35 H        3.9250    -4.1580    -2.8040 H     1 <1>   0.0800 
 36 H        3.1520    -2.7480    -2.2320 H     1 <1>   0.0800 
 37 H        4.1620    -6.2500    -0.5450 H     1 <1>   0.0800 
 38 H        3.4880    -5.5990     0.9000 H     1 <1>   0.0800 
 39 H        5.6230    -2.5690    -2.2330 H     1 <1>   0.0800 
 40 H        5.9050    -5.3210     0.8370 H     1 <1>   0.0800 
 41 H        5.6680    -5.0890    -1.6610 H     1 <1>   0.4500 
 42 H        4.2390    -1.6100    -0.1020 H     1 <1>   0.0800 
 43 H        5.9670    -1.6560    -0.0990 H     1 <1>   0.0800 
 44 H        5.9260    -3.1250     1.6460 H     1 <1>   0.0800 
 45 H        4.1940    -3.2750     1.5670 H     1 <1>   0.0800 
 46 H        7.6250    -3.4100    -0.2220 H     1 <1>   0.0800 
 47 H        7.7190    -3.7760    -1.9230 H     1 <1>   0.0800 
 48 H        9.8710    -4.4820    -0.1740 H     1 <1>   0.3700 
 49 H        9.3830    -7.9990    -1.1480 H     1 <1>   0.1500 
 50 H       11.4850    -5.1970     1.3430 H     1 <1>   0.1500 
 51 H       13.0870    -6.9710     1.9740 H     1 <1>   0.1500 
 52 H       12.9590   -10.9210    -0.5320 H     1 <1>   0.0800 
 53 H       11.9180   -11.3550     0.8460 H     1 <1>   0.0800 
@<TRIPOS>BOND
  1   1   2  1   
  2   2   3  ar  
  3   2   4  ar  
  4   3   5  ar  
  5   3  30  1   
  6   4   6  ar  
  7   4  31  1   
  8   5   7  ar  
  9   5  32  1   
 10   6   7  ar  
 11   6  33  1   
 12   7   8  1   
 13   8   9  1   
 14   8  10  1   
 15   8  11  1   
 16   9  34  1   
 17  10  12  1   
 18  10  35  1   
 19  10  36  1   
 20  11  13  1   
 21  11  37  1   
 22  11  38  1   
 23  12  14  1   
 24  12  15  1   
 25  12  39  1   
 26  13  14  1   
 27  13  16  1   
 28  13  40  1   
 29  14  17  1   
 30  14  41  1   
 31  15  16  1   
 32  15  42  1   
 33  15  43  1   
 34  16  44  1   
 35  16  45  1   
 36  17  18  1   
 37  17  46  1   
 38  17  47  1   
 39  18  19  2   
 40  18  20  am  
 41  20  21  1   
 42  20  48  1   
 43  21  22  ar  
 44  21  23  ar  
 45  22  24  ar  
 46  22  49  1   
 47  23  25  ar  
 48  23  50  1   
 49  24  26  1   
 50  24  27  ar  
 51  25  27  ar  
 52  25  51  1   
 53  26  28  1   
 54  27  29  1   
 55  28  29  1   
 56  28  52  1   
 57  28  53  1   
@<TRIPOS>SUBSTRUCTURE
  1 ****  13 GROUP 4 **** **** 0

# MOE 2024.06 (io_trps.svl 2023.06)
