@<TRIPOS>MOLECULE
NONAME
30 31 1 0 0 
SMALL
USER_CHARGES


@<TRIPOS>ATOM
  1 N        0.1000     0.4310    -0.1020 N.pl3 1 <1>  -0.8690 
  2 C       -1.1480     1.0140    -0.3020 C.ar  1 <1>   0.1000 
  3 C        1.3040     1.2030     0.2040 C.3   1 <1>   0.3690 
  4 C       -1.3250     2.3990    -0.3660 C.ar  1 <1>  -0.1440 
  5 C       -2.2480     0.1790    -0.4500 C.ar  1 <1>  -0.1500 
  6 C        0.9280     2.6060     0.7050 C.3   1 <1>  -0.1600 
  7 C        2.1420     1.2500    -1.0730 C.3   1 <1>  -0.2400 
  8 C        2.0610     0.4420     1.2900 C.3   1 <1>  -0.2400 
  9 C       -2.5970     2.9080    -0.5960 C.ar  1 <1>  -0.1500 
 10 C       -0.1040     3.3080    -0.1910 C.3   1 <1>   0.0630 
 11 C       -3.5100     0.6950    -0.6670 C.ar  1 <1>  -0.1500 
 12 C       -3.6850     2.0640    -0.7430 C.ar  1 <1>  -0.1500 
 13 C       -0.4380     4.6800     0.4180 C.3   1 <1>  -0.2400 
 14 H        0.0960    -0.4910     0.3360 H     1 <1>   0.4000 
 15 H       -2.1070    -0.8840    -0.4000 H     1 <1>   0.1500 
 16 H        1.8170     3.2060     0.7800 H     1 <1>   0.0800 
 17 H        0.5130     2.5160     1.6930 H     1 <1>   0.0800 
 18 H        1.5810     1.6900    -1.8760 H     1 <1>   0.0800 
 19 H        2.4260     0.2560    -1.3660 H     1 <1>   0.0800 
 20 H        3.0330     1.8280    -0.9160 H     1 <1>   0.0800 
 21 H        1.4570     0.3540     2.1750 H     1 <1>   0.0800 
 22 H        2.9630     0.9670     1.5450 H     1 <1>   0.0800 
 23 H        2.3280    -0.5410     0.9460 H     1 <1>   0.0800 
 24 H       -2.7660     3.9650    -0.6670 H     1 <1>   0.1500 
 25 H        0.3280     3.4710    -1.1630 H     1 <1>   0.0800 
 26 H       -4.3530     0.0360    -0.7800 H     1 <1>   0.1500 
 27 H       -4.6640     2.4740    -0.9170 H     1 <1>   0.1500 
 28 H       -0.9880     4.5570     1.3340 H     1 <1>   0.0800 
 29 H       -1.0230     5.2660    -0.2670 H     1 <1>   0.0800 
 30 H        0.4640     5.2260     0.6270 H     1 <1>   0.0800 
@<TRIPOS>BOND
  1   1   2  1   
  2   1   3  1   
  3   1  14  1   
  4   2   4  ar  
  5   2   5  ar  
  6   3   6  1   
  7   3   7  1   
  8   3   8  1   
  9   4   9  ar  
 10   4  10  1   
 11   5  11  ar  
 12   5  15  1   
 13   6  10  1   
 14   6  16  1   
 15   6  17  1   
 16   7  18  1   
 17   7  19  1   
 18   7  20  1   
 19   8  21  1   
 20   8  22  1   
 21   8  23  1   
 22   9  12  ar  
 23   9  24  1   
 24  10  13  1   
 25  10  25  1   
 26  11  12  ar  
 27  11  26  1   
 28  12  27  1   
 29  13  28  1   
 30  13  29  1   
 31  13  30  1   
@<TRIPOS>SUBSTRUCTURE
  1 ****   2 GROUP 4 **** **** 0

# MOE 2024.06 (io_trps.svl 2023.06)
