@<TRIPOS>MOLECULE
4-(2-Cyclohex-1-enyl-ethyl)-5-pyridin-4-yl-4H-[1,2,4]triazole-3-thiol
38 40 1 0 0 
SMALL
USER_CHARGES


@<TRIPOS>ATOM
  1 S       -0.9940     0.2490    -1.6200 S.3   1 <1>  -0.9360 
  2 C       -1.3460    -1.2710    -1.1920 C.cat 1 <1>   0.7360 
  3 N       -2.5470    -1.7140    -0.8980 N.pl3 1 <1>  -0.3930 
  4 N       -0.4920    -2.2600    -1.0500 N.pl3 1 <1>  -0.7640 
  5 N       -2.5040    -3.0250    -0.5380 N.2   1 <1>  -0.2600 
  6 C       -1.2490    -3.3380    -0.6400 C.2   1 <1>   0.6120 
  7 C        0.9750    -2.1430    -1.1820 C.3   1 <1>   0.3540 
  8 C       -0.6660    -4.6260    -0.3540 C.ar  1 <1>   0.0410 
  9 C        1.6150    -1.9200     0.1920 C.3   1 <1>  -0.0220 
 10 C       -0.0450    -5.3970    -1.3270 C.ar  1 <1>  -0.1500 
 11 C       -0.6680    -5.1750     0.9210 C.ar  1 <1>  -0.1500 
 12 C        3.0690    -2.3710     0.2030 C.2   1 <1>  -0.2760 
 13 C        0.5310    -6.6070    -0.9930 C.ar  1 <1>   0.1600 
 14 C       -0.0620    -6.3950     1.1530 C.ar  1 <1>   0.1600 
 15 C        4.0890    -1.5150     0.0890 C.2   1 <1>  -0.2880 
 16 C        3.2720    -3.8760     0.3730 C.3   1 <1>  -0.0220 
 17 N        0.5440    -7.1180     0.2260 N.ar  1 <1>  -0.6200 
 18 C        5.5550    -1.9150     0.1270 C.3   1 <1>  -0.0220 
 19 C        4.7060    -4.2980     0.0230 C.3   1 <1>  -0.1600 
 20 C        5.7330    -3.3470     0.6510 C.3   1 <1>  -0.1600 
 21 H       -3.3550    -1.0920    -0.9430 H     1 <1>   0.4500 
 22 H        1.2290    -1.3220    -1.8320 H     1 <1>   0.0800 
 23 H        1.3630    -3.0400    -1.6300 H     1 <1>   0.0800 
 24 H        1.0790    -2.4520     0.9560 H     1 <1>   0.0800 
 25 H        1.5560    -0.8690     0.4180 H     1 <1>   0.0800 
 26 H       -0.0120    -5.0550    -2.3460 H     1 <1>   0.1500 
 27 H       -1.1370    -4.6500     1.7340 H     1 <1>   0.1500 
 28 H        1.0080    -7.1890    -1.7650 H     1 <1>   0.1500 
 29 H       -0.0720    -6.8000     2.1520 H     1 <1>   0.1500 
 30 H        3.9520    -0.4530    -0.0420 H     1 <1>   0.1500 
 31 H        2.5940    -4.4290    -0.2510 H     1 <1>   0.0800 
 32 H        3.0640    -4.1380     1.3960 H     1 <1>   0.0800 
 33 H        6.0980    -1.2380     0.7630 H     1 <1>   0.0800 
 34 H        5.9600    -1.8370    -0.8670 H     1 <1>   0.0800 
 35 H        4.8270    -4.2870    -1.0460 H     1 <1>   0.0800 
 36 H        4.8780    -5.3040     0.3660 H     1 <1>   0.0800 
 37 H        5.6010    -3.3470     1.7190 H     1 <1>   0.0800 
 38 H        6.7320    -3.6870     0.4390 H     1 <1>   0.0800 
@<TRIPOS>BOND
  1   1   2  1   
  2   2   3  ar  
  3   2   4  ar  
  4   3   5  1   
  5   3  21  1   
  6   4   6  1   
  7   4   7  1   
  8   5   6  2   
  9   6   8  1   
 10   7   9  1   
 11   7  22  1   
 12   7  23  1   
 13   8  10  ar  
 14   8  11  ar  
 15   9  12  1   
 16   9  24  1   
 17   9  25  1   
 18  10  13  ar  
 19  10  26  1   
 20  11  14  ar  
 21  11  27  1   
 22  12  15  2   
 23  12  16  1   
 24  13  17  ar  
 25  13  28  1   
 26  14  17  ar  
 27  14  29  1   
 28  15  18  1   
 29  15  30  1   
 30  16  19  1   
 31  16  31  1   
 32  16  32  1   
 33  18  20  1   
 34  18  33  1   
 35  18  34  1   
 36  19  20  1   
 37  19  35  1   
 38  19  36  1   
 39  20  37  1   
 40  20  38  1   
@<TRIPOS>SUBSTRUCTURE
  1 ****   7 GROUP 4 **** **** 0

# MOE 2024.06 (io_trps.svl 2023.06)
