@<TRIPOS>MOLECULE
NONAME
50 53 1 0 0 
SMALL
USER_CHARGES


@<TRIPOS>ATOM
  1 CL      -1.8020     1.9980    -2.6830 Cl    1 <1>  -0.1770 
  2 C       -2.4160     2.2800    -1.0730 C.ar  1 <1>   0.1770 
  3 C       -3.7760     2.4190    -0.8840 C.ar  1 <1>  -0.1500 
  4 C       -1.5270     2.3550    -0.0170 C.ar  1 <1>  -0.1500 
  5 C       -4.2790     2.6430     0.3930 C.ar  1 <1>   0.1000 
  6 C       -2.0180     2.5780     1.2590 C.ar  1 <1>  -0.1500 
  7 N       -5.6430     2.7870     0.6390 N.pl3 1 <1>  -0.8380 
  8 C       -3.3820     2.7200     1.4540 C.ar  1 <1>  -0.1500 
  9 C       -6.5240     3.5430    -0.2970 C.3   1 <1>   0.2090 
 10 C       -6.3490     1.7090     1.3870 C.3   1 <1>   0.2090 
 11 C       -7.3870     2.6050    -1.1640 C.3   1 <1>   0.1100 
 12 C       -7.1990     0.8270     0.4520 C.3   1 <1>   0.1100 
 13 N       -8.1600     1.6090    -0.3670 N.3   1 <1>  -0.8100 
 14 C       -9.0050     0.7800    -1.2730 C.3   1 <1>   0.3700 
 15 C      -10.0360     1.6750    -1.9560 C.2   1 <1>   0.0060 
 16 C       -9.7350    -0.3800    -0.5580 C.3   1 <1>  -0.1600 
 17 N      -10.1940     1.7540    -3.2240 N.2   1 <1>  -0.3380 
 18 N      -10.8730     2.5030    -1.3470 N.pl3 1 <1>   0.3140 
 19 C       -8.9950    -1.7280    -0.6260 C.3   1 <1>  -0.2400 
 20 N      -11.1450     2.6580    -3.4110 N.2   1 <1>   0.0000 
 21 N      -11.5550     3.1260    -2.2890 N.2   1 <1>  -0.4180 
 22 C      -11.0390     2.8210     0.0900 C.3   1 <1>   0.2760 
 23 C      -12.4380     2.4850     0.5810 C.2   1 <1>  -0.1400 
 24 S      -12.8630     0.7860     0.7310 S.3   1 <1>  -0.0800 
 25 C      -13.4750     3.2620     0.9480 C.2   1 <1>  -0.1500 
 26 C      -14.4720     1.1920     1.2990 C.2   1 <1>  -0.1100 
 27 C      -14.6320     2.5260     1.3570 C.2   1 <1>  -0.1500 
 28 H       -4.4350     2.3480    -1.7250 H     1 <1>   0.1500 
 29 H       -0.4720     2.2430    -0.1930 H     1 <1>   0.1500 
 30 H       -1.3430     2.6420     2.0950 H     1 <1>   0.1500 
 31 H       -3.7680     2.9010     2.4410 H     1 <1>   0.1500 
 32 H       -5.9250     4.1730    -0.9310 H     1 <1>   0.0800 
 33 H       -7.1710     4.1830     0.2770 H     1 <1>   0.0800 
 34 H       -6.9860     2.1570     2.1280 H     1 <1>   0.0800 
 35 H       -5.6300     1.0920     1.8980 H     1 <1>   0.0800 
 36 H       -6.7460     2.0910    -1.8580 H     1 <1>   0.0800 
 37 H       -8.0550     3.2220    -1.7400 H     1 <1>   0.0800 
 38 H       -7.7320     0.1340     1.0770 H     1 <1>   0.0800 
 39 H       -6.5390     0.2680    -0.1890 H     1 <1>   0.0800 
 40 H       -8.3820     0.3600    -2.0460 H     1 <1>   0.0800 
 41 H      -10.6820    -0.5330    -1.0460 H     1 <1>   0.0800 
 42 H       -9.9450    -0.1150     0.4620 H     1 <1>   0.0800 
 43 H       -8.8510    -2.0210    -1.6520 H     1 <1>   0.0800 
 44 H       -9.5830    -2.4880    -0.1410 H     1 <1>   0.0800 
 45 H       -8.0360    -1.6910    -0.1460 H     1 <1>   0.0800 
 46 H      -10.8580     3.8710     0.2160 H     1 <1>   0.0800 
 47 H      -10.3210     2.2830     0.6750 H     1 <1>   0.0800 
 48 H      -13.4850     4.3390     0.9470 H     1 <1>   0.1500 
 49 H      -15.1370     0.3780     1.5310 H     1 <1>   0.1500 
 50 H      -15.5280     3.0350     1.6710 H     1 <1>   0.1500 
@<TRIPOS>BOND
  1   1   2  1   
  2   2   3  ar  
  3   2   4  ar  
  4   3   5  ar  
  5   3  28  1   
  6   4   6  ar  
  7   4  29  1   
  8   5   7  1   
  9   5   8  ar  
 10   6   8  ar  
 11   6  30  1   
 12   7   9  1   
 13   7  10  1   
 14   8  31  1   
 15   9  11  1   
 16   9  32  1   
 17   9  33  1   
 18  10  12  1   
 19  10  34  1   
 20  10  35  1   
 21  11  13  1   
 22  11  36  1   
 23  11  37  1   
 24  12  13  1   
 25  12  38  1   
 26  12  39  1   
 27  13  14  1   
 28  14  15  1   
 29  14  16  1   
 30  14  40  1   
 31  15  17  2   
 32  15  18  1   
 33  16  19  1   
 34  16  41  1   
 35  16  42  1   
 36  17  20  1   
 37  18  21  1   
 38  18  22  1   
 39  19  43  1   
 40  19  44  1   
 41  19  45  1   
 42  20  21  2   
 43  22  23  1   
 44  22  46  1   
 45  22  47  1   
 46  23  24  1   
 47  23  25  2   
 48  24  26  1   
 49  25  27  1   
 50  25  48  1   
 51  26  27  2   
 52  26  49  1   
 53  27  50  1   
@<TRIPOS>SUBSTRUCTURE
  1 ****  13 GROUP 4 **** **** 0

# MOE 2024.06 (io_trps.svl 2023.06)
