@<TRIPOS>MOLECULE
NONAME
59 62 1 0 0 
SMALL
USER_CHARGES


@<TRIPOS>ATOM
  1 O       -0.1760     5.3920     1.8190 O.2   1 <1>  -0.5700 
  2 C       -0.4370     4.2140     1.7980 C.2   1 <1>   0.5690 
  3 N       -0.1060     3.4410     0.7330 N.am  1 <1>  -0.7300 
  4 C       -1.1100     3.6130     3.0080 C.3   1 <1>   0.1570 
  5 C        0.5650     3.9300    -0.4810 C.3   1 <1>   0.2840 
  6 N       -2.2290     2.7720     2.5840 N.pl3 1 <1>   0.5800 
  7 C        1.1750     2.7350    -1.1880 C.ar  1 <1>  -0.1440 
  8 N       -2.0690     1.5430     2.1250 N.2   1 <1>  -0.4180 
  9 N       -3.4860     3.1480     2.6430 N.2   1 <1>  -0.7070 
 10 C        2.5000     2.3920    -0.9700 C.ar  1 <1>  -0.1500 
 11 C        0.4070     1.9690    -2.0530 C.ar  1 <1>  -0.1500 
 12 N       -3.2370     1.1140     1.8710 N.2   1 <1>  -0.2270 
 13 C       -4.0890     2.0960     2.1920 C.2   1 <1>   0.4620 
 14 C        3.0540     1.2980    -1.6120 C.ar  1 <1>  -0.1500 
 15 C        0.9600     0.8750    -2.6950 C.ar  1 <1>  -0.1500 
 16 C       -5.5290     1.9720     2.0400 C.ar  1 <1>   0.0540 
 17 C        2.2840     0.5390    -2.4750 C.ar  1 <1>  -0.1500 
 18 C       -6.1250     0.8030     1.5620 C.ar  1 <1>  -0.1500 
 19 C       -6.3830     3.0250     2.3710 C.ar  1 <1>  -0.1500 
 20 C       -7.4950     0.6930     1.4150 C.ar  1 <1>  -0.1500 
 21 C       -7.7540     2.9240     2.2280 C.ar  1 <1>  -0.1500 
 22 C       -8.3220     1.7570     1.7410 C.ar  1 <1>  -0.1430 
 23 C       -9.8240     1.6500     1.5640 C.3   1 <1>   0.4860 
 24 N      -10.1390     1.7410     0.1130 N.4   1 <1>  -0.9590 
 25 C       -9.7610     3.0700    -0.4540 C.3   1 <1>   0.3430 
 26 C      -11.5620     1.3980    -0.1620 C.3   1 <1>   0.3430 
 27 C       -9.9690     3.0610    -1.9680 C.3   1 <1>  -0.1600 
 28 C      -11.7990     1.3590    -1.6720 C.3   1 <1>  -0.1600 
 29 C      -11.4100     2.6850    -2.3420 C.3   1 <1>  -0.0800 
 30 C      -11.5650     2.5870    -3.8630 C.3   1 <1>  -0.2400 
 31 H       -0.3510     2.4440     0.6980 H     1 <1>   0.3700 
 32 H       -1.4850     4.3940     3.6410 H     1 <1>   0.0800 
 33 H       -0.4100     3.0140     3.5540 H     1 <1>   0.0800 
 34 H        1.3250     4.6460    -0.2170 H     1 <1>   0.0800 
 35 H       -0.1550     4.4150    -1.1190 H     1 <1>   0.0800 
 36 H        3.1060     2.9750    -0.2970 H     1 <1>   0.1500 
 37 H       -0.6250     2.2200    -2.2300 H     1 <1>   0.1500 
 38 H        4.0840     1.0370    -1.4390 H     1 <1>   0.1500 
 39 H        0.3600     0.2840    -3.3650 H     1 <1>   0.1500 
 40 H        2.7150    -0.3120    -2.9740 H     1 <1>   0.1500 
 41 H       -5.5020    -0.0370     1.3030 H     1 <1>   0.1500 
 42 H       -5.9580     3.9400     2.7500 H     1 <1>   0.1500 
 43 H       -7.9020    -0.2350     1.0490 H     1 <1>   0.1500 
 44 H       -8.3650     3.7670     2.5040 H     1 <1>   0.1500 
 45 H      -10.3170     2.4420     2.1040 H     1 <1>   0.0800 
 46 H      -10.1590     0.7050     1.9590 H     1 <1>   0.0800 
 47 H       -9.5460     1.0480    -0.3600 H     1 <1>   0.4500 
 48 H       -8.7250     3.2850    -0.2410 H     1 <1>   0.0800 
 49 H      -10.3670     3.8440    -0.0120 H     1 <1>   0.0800 
 50 H      -12.2090     2.1370     0.2830 H     1 <1>   0.0800 
 51 H      -11.8020     0.4360     0.2620 H     1 <1>   0.0800 
 52 H       -9.2740     2.3720    -2.4170 H     1 <1>   0.0800 
 53 H       -9.7430     4.0400    -2.3540 H     1 <1>   0.0800 
 54 H      -12.8420     1.1610    -1.8540 H     1 <1>   0.0800 
 55 H      -11.2390     0.5460    -2.0990 H     1 <1>   0.0800 
 56 H      -12.0720     3.4590    -1.9870 H     1 <1>   0.0800 
 57 H      -10.9220     1.8250    -4.2700 H     1 <1>   0.0800 
 58 H      -11.3150     3.5260    -4.3270 H     1 <1>   0.0800 
 59 H      -12.5820     2.3480    -4.1230 H     1 <1>   0.0800 
@<TRIPOS>BOND
  1   1   2  2   
  2   2   3  am  
  3   2   4  1   
  4   3   5  1   
  5   3  31  1   
  6   4   6  1   
  7   4  32  1   
  8   4  33  1   
  9   5   7  1   
 10   5  34  1   
 11   5  35  1   
 12   6   8  1   
 13   6   9  1   
 14   7  10  ar  
 15   7  11  ar  
 16   8  12  2   
 17   9  13  2   
 18  10  14  ar  
 19  10  36  1   
 20  11  15  ar  
 21  11  37  1   
 22  12  13  1   
 23  13  16  1   
 24  14  17  ar  
 25  14  38  1   
 26  15  17  ar  
 27  15  39  1   
 28  16  18  ar  
 29  16  19  ar  
 30  17  40  1   
 31  18  20  ar  
 32  18  41  1   
 33  19  21  ar  
 34  19  42  1   
 35  20  22  ar  
 36  20  43  1   
 37  21  22  ar  
 38  21  44  1   
 39  22  23  1   
 40  23  24  1   
 41  23  45  1   
 42  23  46  1   
 43  24  25  1   
 44  24  26  1   
 45  24  47  1   
 46  25  27  1   
 47  25  48  1   
 48  25  49  1   
 49  26  28  1   
 50  26  50  1   
 51  26  51  1   
 52  27  29  1   
 53  27  52  1   
 54  27  53  1   
 55  28  29  1   
 56  28  54  1   
 57  28  55  1   
 58  29  30  1   
 59  29  56  1   
 60  30  57  1   
 61  30  58  1   
 62  30  59  1   
@<TRIPOS>SUBSTRUCTURE
  1 ****  13 GROUP 4 **** **** 0

# MOE 2024.06 (io_trps.svl 2023.06)
