@<TRIPOS>MOLECULE
2-[4-(2,3-Dihydro-benzo[1,4]dioxine-6-carbonyl)-piperidin-1-yl]-N-(2,3-dimethyl-phenyl)-acetamide
58 61 1 0 0 
SMALL
USER_CHARGES


@<TRIPOS>ATOM
  1 O       -1.5940     5.5210     1.2560 O.2   1 <1>  -0.5700 
  2 C       -1.1400     4.6260     0.5870 C.2   1 <1>   0.4230 
  3 C        0.1780     4.0760     0.8270 C.ar  1 <1>   0.0860 
  4 C       -2.0040     4.0810    -0.5560 C.3   1 <1>  -0.0190 
  5 C        1.1610     4.8660     1.4290 C.ar  1 <1>  -0.1500 
  6 C        0.5350     2.7640     0.4870 C.ar  1 <1>  -0.1500 
  7 C       -2.6520     5.2060    -1.3850 C.3   1 <1>  -0.1600 
  8 C       -3.1010     3.1450    -0.0210 C.3   1 <1>  -0.1600 
  9 C        2.4340     4.3860     1.6620 C.ar  1 <1>   0.0820 
 10 C        1.8060     2.2700     0.7230 C.ar  1 <1>  -0.1500 
 11 C       -3.5680     4.6400    -2.4720 C.3   1 <1>   0.1100 
 12 C       -4.0100     2.6480    -1.1480 C.3   1 <1>   0.1100 
 13 O        3.3550     5.2090     2.2250 O.3   1 <1>  -0.3630 
 14 C        2.7610     3.0750     1.3150 C.ar  1 <1>   0.0820 
 15 N       -4.6000     3.7970    -1.8560 N.3   1 <1>  -0.8100 
 16 C        4.7100     4.8080     2.1420 C.3   1 <1>   0.1200 
 17 O        3.9930     2.5710     1.5520 O.3   1 <1>  -0.3630 
 18 C       -5.6030     3.3440    -2.8690 C.3   1 <1>   0.1710 
 19 C        4.8390     3.3040     2.4180 C.3   1 <1>   0.1200 
 20 C       -6.9320     2.9000    -2.2540 C.2   1 <1>   0.5690 
 21 O       -7.6480     2.1530    -2.8770 O.2   1 <1>  -0.5700 
 22 N       -7.2040     3.3960    -1.0120 N.am  1 <1>  -0.5470 
 23 C       -8.2640     3.2640    -0.0990 C.ar  1 <1>   0.1170 
 24 C       -8.1340     3.8020     1.1870 C.ar  1 <1>  -0.1430 
 25 C       -9.4420     2.6130    -0.4450 C.ar  1 <1>  -0.1500 
 26 C       -9.1790     3.6720     2.1030 C.ar  1 <1>  -0.1430 
 27 C       -6.8320     4.5230     1.5550 C.3   1 <1>  -0.0970 
 28 C      -10.4750     2.4880     0.4600 C.ar  1 <1>  -0.1500 
 29 C      -10.3410     3.0150     1.7290 C.ar  1 <1>  -0.1500 
 30 C       -9.1050     4.2240     3.5210 C.3   1 <1>  -0.0970 
 31 H       -1.3800     3.5240    -1.2310 H     1 <1>   0.0800 
 32 H        0.9260     5.8760     1.7160 H     1 <1>   0.1500 
 33 H       -0.1870     2.1050     0.0410 H     1 <1>   0.1500 
 34 H       -1.8860     5.8090    -1.8390 H     1 <1>   0.0800 
 35 H       -3.2350     5.8460    -0.7450 H     1 <1>   0.0800 
 36 H       -3.6990     3.6710     0.7030 H     1 <1>   0.0800 
 37 H       -2.6570     2.3010     0.4750 H     1 <1>   0.0800 
 38 H        2.0650     1.2610     0.4580 H     1 <1>   0.1500 
 39 H       -2.9940     4.0640    -3.1800 H     1 <1>   0.0800 
 40 H       -4.0340     5.4580    -2.9950 H     1 <1>   0.0800 
 41 H       -4.7890     2.0350    -0.7240 H     1 <1>   0.0800 
 42 H       -3.4440     2.0430    -1.8380 H     1 <1>   0.0800 
 43 H        5.2690     5.3790     2.8610 H     1 <1>   0.0800 
 44 H        5.0670     5.0390     1.1540 H     1 <1>   0.0800 
 45 H       -5.2000     2.5370    -3.4560 H     1 <1>   0.0800 
 46 H       -5.8290     4.1560    -3.5360 H     1 <1>   0.0800 
 47 H        4.5510     3.0840     3.4310 H     1 <1>   0.0800 
 48 H        5.8480     2.9700     2.2570 H     1 <1>   0.0800 
 49 H       -6.4070     3.9410    -0.6700 H     1 <1>   0.3700 
 50 H       -9.5630     2.1980    -1.4280 H     1 <1>   0.1500 
 51 H       -6.0180     3.8220     1.5420 H     1 <1>   0.0800 
 52 H       -6.8600     4.9750     2.5270 H     1 <1>   0.0800 
 53 H       -6.6300     5.3050     0.8460 H     1 <1>   0.0800 
 54 H      -11.3800     1.9800     0.1770 H     1 <1>   0.1500 
 55 H      -11.1550     2.9080     2.4240 H     1 <1>   0.1500 
 56 H       -9.0030     5.2940     3.4930 H     1 <1>   0.0800 
 57 H       -8.2630     3.8000     4.0380 H     1 <1>   0.0800 
 58 H       -9.9920     3.9870     4.0780 H     1 <1>   0.0800 
@<TRIPOS>BOND
  1   1   2  2   
  2   2   3  1   
  3   2   4  1   
  4   3   5  ar  
  5   3   6  ar  
  6   4   7  1   
  7   4   8  1   
  8   4  31  1   
  9   5   9  ar  
 10   5  32  1   
 11   6  10  ar  
 12   6  33  1   
 13   7  11  1   
 14   7  34  1   
 15   7  35  1   
 16   8  12  1   
 17   8  36  1   
 18   8  37  1   
 19   9  13  1   
 20   9  14  ar  
 21  10  14  ar  
 22  10  38  1   
 23  11  15  1   
 24  11  39  1   
 25  11  40  1   
 26  12  15  1   
 27  12  41  1   
 28  12  42  1   
 29  13  16  1   
 30  14  17  1   
 31  15  18  1   
 32  16  19  1   
 33  16  43  1   
 34  16  44  1   
 35  17  19  1   
 36  18  20  1   
 37  18  45  1   
 38  18  46  1   
 39  19  47  1   
 40  19  48  1   
 41  20  21  2   
 42  20  22  am  
 43  22  23  1   
 44  22  49  1   
 45  23  24  ar  
 46  23  25  ar  
 47  24  26  ar  
 48  24  27  1   
 49  25  28  ar  
 50  25  50  1   
 51  26  29  ar  
 52  26  30  1   
 53  27  51  1   
 54  27  52  1   
 55  27  53  1   
 56  28  29  ar  
 57  28  54  1   
 58  29  55  1   
 59  30  56  1   
 60  30  57  1   
 61  30  58  1   
@<TRIPOS>SUBSTRUCTURE
  1 ****   8 GROUP 4 **** **** 0

# MOE 2024.06 (io_trps.svl 2023.06)
