@<TRIPOS>MOLECULE
1-[3-(3-Methoxy-phenyl)-ureido]-cyclohexanecarboxylic acid (thiophen-2-ylmethyl)-amide
52 54 1 0 0 
SMALL
USER_CHARGES


@<TRIPOS>ATOM
  1 S       -0.4260     0.4750    -1.0780 S.3   1 <1>  -0.0800 
  2 C        0.9020     1.5670    -0.7170 C.2   1 <1>  -0.1400 
  3 C       -1.5560     1.8100    -1.2050 C.2   1 <1>  -0.1100 
  4 C        0.4660     2.8440    -0.7080 C.2   1 <1>  -0.1500 
  5 C        2.2530     0.9130    -0.4880 C.3   1 <1>   0.3200 
  6 C       -0.9320     2.9810    -0.9850 C.2   1 <1>  -0.1500 
  7 N        3.2310     1.9270    -0.0600 N.am  1 <1>  -0.7300 
  8 C        4.5810     1.7830    -0.1280 C.2   1 <1>   0.5690 
  9 O        5.0460     0.7450    -0.5530 O.2   1 <1>  -0.5700 
 10 C        5.5570     2.9170     0.3340 C.3   1 <1>   0.3610 
 11 N        6.9390     2.3510     0.3000 N.am  1 <1>  -0.7300 
 12 C        5.4950     4.1130    -0.6470 C.3   1 <1>  -0.1600 
 13 C        5.2480     3.3690     1.7860 C.3   1 <1>  -0.1600 
 14 C        8.1420     2.9100     0.5760 C.2   1 <1>   0.6900 
 15 C        4.2370     4.9850    -0.5000 C.3   1 <1>  -0.1600 
 16 C        4.0170     4.2830     1.9390 C.3   1 <1>  -0.1600 
 17 O        8.2300     4.0560     0.9660 O.2   1 <1>  -0.5700 
 18 N        9.2420     2.1290     0.3800 N.am  1 <1>  -0.5470 
 19 C        4.0570     5.4540     0.9490 C.3   1 <1>  -0.1600 
 20 C       10.6050     2.3660     0.6160 C.ar  1 <1>   0.1170 
 21 C       11.5420     1.6170    -0.0840 C.ar  1 <1>  -0.1500 
 22 C       11.0660     3.3050     1.5340 C.ar  1 <1>  -0.1500 
 23 C       12.9000     1.7940     0.1120 C.ar  1 <1>   0.0820 
 24 C       12.4220     3.4930     1.7390 C.ar  1 <1>  -0.1500 
 25 O       13.7300     1.0120    -0.6240 O.3   1 <1>  -0.3620 
 26 C       13.3430     2.7420     1.0320 C.ar  1 <1>  -0.1500 
 27 C       15.1320     1.1340    -0.5190 C.3   1 <1>   0.0400 
 28 H       -2.5790     1.5720    -1.4360 H     1 <1>   0.1500 
 29 H        1.0620     3.7180    -0.5200 H     1 <1>   0.1500 
 30 H        2.5890     0.4400    -1.3950 H     1 <1>   0.0800 
 31 H        2.1660     0.1620     0.2780 H     1 <1>   0.0800 
 32 H       -1.3990     3.9500    -1.0060 H     1 <1>   0.1500 
 33 H        2.8280     2.7850     0.3130 H     1 <1>   0.3700 
 34 H        6.9040     1.3870    -0.0390 H     1 <1>   0.3700 
 35 H        5.5600     3.7470    -1.6570 H     1 <1>   0.0800 
 36 H        6.3400     4.7550    -0.4820 H     1 <1>   0.0800 
 37 H        6.0850     3.9220     2.1680 H     1 <1>   0.0800 
 38 H        5.1280     2.5010     2.4100 H     1 <1>   0.0800 
 39 H        3.3670     4.4500    -0.8300 H     1 <1>   0.0800 
 40 H        4.3360     5.8480    -1.1370 H     1 <1>   0.0800 
 41 H        4.0030     4.6780     2.9420 H     1 <1>   0.0800 
 42 H        3.1070     3.7270     1.8160 H     1 <1>   0.0800 
 43 H        9.0390     1.2510    -0.0850 H     1 <1>   0.3700 
 44 H        3.1530     6.0320     1.0340 H     1 <1>   0.0800 
 45 H        4.8800     6.0990     1.2090 H     1 <1>   0.0800 
 46 H       11.2200     0.8840    -0.7990 H     1 <1>   0.1500 
 47 H       10.3660     3.8940     2.0980 H     1 <1>   0.1500 
 48 H       12.7560     4.2270     2.4510 H     1 <1>   0.1500 
 49 H       14.3880     2.9070     1.2090 H     1 <1>   0.1500 
 50 H       15.5790     0.4290    -1.1970 H     1 <1>   0.0800 
 51 H       15.4270     0.9090     0.4900 H     1 <1>   0.0800 
 52 H       15.4160     2.1340    -0.7920 H     1 <1>   0.0800 
@<TRIPOS>BOND
  1   1   2  1   
  2   1   3  1   
  3   2   4  2   
  4   2   5  1   
  5   3   6  2   
  6   3  28  1   
  7   4   6  1   
  8   4  29  1   
  9   5   7  1   
 10   5  30  1   
 11   5  31  1   
 12   6  32  1   
 13   7   8  am  
 14   7  33  1   
 15   8   9  2   
 16   8  10  1   
 17  10  11  1   
 18  10  12  1   
 19  10  13  1   
 20  11  14  am  
 21  11  34  1   
 22  12  15  1   
 23  12  35  1   
 24  12  36  1   
 25  13  16  1   
 26  13  37  1   
 27  13  38  1   
 28  14  17  2   
 29  14  18  am  
 30  15  19  1   
 31  15  39  1   
 32  15  40  1   
 33  16  19  1   
 34  16  41  1   
 35  16  42  1   
 36  18  20  1   
 37  18  43  1   
 38  19  44  1   
 39  19  45  1   
 40  20  21  ar  
 41  20  22  ar  
 42  21  23  ar  
 43  21  46  1   
 44  22  24  ar  
 45  22  47  1   
 46  23  25  1   
 47  23  26  ar  
 48  24  26  ar  
 49  24  48  1   
 50  25  27  1   
 51  26  49  1   
 52  27  50  1   
 53  27  51  1   
 54  27  52  1   
@<TRIPOS>SUBSTRUCTURE
  1 ****  11 GROUP 4 **** **** 0

# MOE 2024.06 (io_trps.svl 2023.06)
