@<TRIPOS>MOLECULE
4943
48 49 1 0 0 
SMALL
USER_CHARGES


@<TRIPOS>ATOM
  1 O        0.5730    -0.4400     1.6390 O.2   1 <1>  -0.5700 
  2 C        0.2190    -1.4450     1.0660 C.2   1 <1>   0.5690 
  3 N        1.0630    -2.1210     0.2140 N.am  1 <1>  -0.6600 
  4 C       -1.1940    -1.9400     1.3680 C.3   1 <1>   0.1810 
  5 C        0.7060    -3.3920    -0.4860 C.3   1 <1>   0.2840 
  6 C        2.4150    -1.5820    -0.1210 C.3   1 <1>   0.0600 
  7 O       -1.9670    -2.0580     0.1820 O.3   1 <1>  -0.3630 
  8 C        1.7840    -4.4490    -0.2870 C.ar  1 <1>  -0.1440 
  9 C       -3.2070    -2.6040     0.2080 C.ar  1 <1>   0.0830 
 10 C        2.1190    -4.8770     0.9900 C.ar  1 <1>  -0.1500 
 11 C        2.4420    -4.9960    -1.3790 C.ar  1 <1>  -0.1500 
 12 C       -3.8310    -2.7960    -1.0110 C.ar  1 <1>  -0.1500 
 13 C       -3.8680    -2.9780     1.3720 C.ar  1 <1>  -0.1500 
 14 C        3.0960    -5.8400     1.1730 C.ar  1 <1>  -0.1500 
 15 C        3.4200    -5.9590    -1.1970 C.ar  1 <1>  -0.1500 
 16 C       -5.0920    -3.3600    -1.0720 C.ar  1 <1>  -0.1500 
 17 C       -5.1300    -3.5430     1.3030 C.ar  1 <1>  -0.1500 
 18 C        3.7470    -6.3810     0.0790 C.ar  1 <1>  -0.1500 
 19 C       -5.7680    -3.7470     0.0810 C.ar  1 <1>  -0.1430 
 20 C       -7.1740    -4.3750    -0.0400 C.3   1 <1>   0.1430 
 21 C       -7.0930    -5.6570    -0.8820 C.3   1 <1>  -0.2400 
 22 C       -8.1250    -3.3770    -0.7180 C.3   1 <1>  -0.2400 
 23 C       -7.7900    -4.7510     1.3190 C.3   1 <1>  -0.2400 
 24 H       -1.6870    -1.2390     2.0170 H     1 <1>   0.0800 
 25 H       -1.1400    -2.9010     1.8420 H     1 <1>   0.0800 
 26 H        0.5790    -3.1840    -1.5340 H     1 <1>   0.0800 
 27 H       -0.2220    -3.7910    -0.1200 H     1 <1>   0.0800 
 28 H        2.5170    -0.5640     0.2130 H     1 <1>   0.0800 
 29 H        2.5660    -1.6070    -1.1860 H     1 <1>   0.0800 
 30 H        3.1730    -2.1780     0.3570 H     1 <1>   0.0800 
 31 H        1.6210    -4.4560     1.8460 H     1 <1>   0.1500 
 32 H        2.1980    -4.6760    -2.3770 H     1 <1>   0.1500 
 33 H       -3.3250    -2.5010    -1.9120 H     1 <1>   0.1500 
 34 H       -3.4250    -2.8380     2.3380 H     1 <1>   0.1500 
 35 H        3.3500    -6.1660     2.1670 H     1 <1>   0.1500 
 36 H        3.9270    -6.3790    -2.0480 H     1 <1>   0.1500 
 37 H       -5.5440    -3.4940    -2.0370 H     1 <1>   0.1500 
 38 H       -5.5990    -3.8150     2.2290 H     1 <1>   0.1500 
 39 H        4.5070    -7.1300     0.2210 H     1 <1>   0.1500 
 40 H       -6.7580    -5.4460    -1.8800 H     1 <1>   0.0800 
 41 H       -8.0560    -6.1300    -0.9470 H     1 <1>   0.0800 
 42 H       -6.4020    -6.3480    -0.4330 H     1 <1>   0.0800 
 43 H       -9.1200    -3.7820    -0.7790 H     1 <1>   0.0800 
 44 H       -8.1610    -2.4620    -0.1540 H     1 <1>   0.0800 
 45 H       -7.7990    -3.1460    -1.7150 H     1 <1>   0.0800 
 46 H       -7.1740    -5.4720     1.8260 H     1 <1>   0.0800 
 47 H       -8.7650    -5.1840     1.1850 H     1 <1>   0.0800 
 48 H       -7.8970    -3.8800     1.9400 H     1 <1>   0.0800 
@<TRIPOS>BOND
  1   1   2  2   
  2   2   3  am  
  3   2   4  1   
  4   3   5  1   
  5   3   6  1   
  6   4   7  1   
  7   4  24  1   
  8   4  25  1   
  9   5   8  1   
 10   5  26  1   
 11   5  27  1   
 12   6  28  1   
 13   6  29  1   
 14   6  30  1   
 15   7   9  1   
 16   8  10  ar  
 17   8  11  ar  
 18   9  12  ar  
 19   9  13  ar  
 20  10  14  ar  
 21  10  31  1   
 22  11  15  ar  
 23  11  32  1   
 24  12  16  ar  
 25  12  33  1   
 26  13  17  ar  
 27  13  34  1   
 28  14  18  ar  
 29  14  35  1   
 30  15  18  ar  
 31  15  36  1   
 32  16  19  ar  
 33  16  37  1   
 34  17  19  ar  
 35  17  38  1   
 36  18  39  1   
 37  19  20  1   
 38  20  21  1   
 39  20  22  1   
 40  20  23  1   
 41  21  40  1   
 42  21  41  1   
 43  21  42  1   
 44  22  43  1   
 45  22  44  1   
 46  22  45  1   
 47  23  46  1   
 48  23  47  1   
 49  23  48  1   
@<TRIPOS>SUBSTRUCTURE
  1 ****   7 GROUP 4 **** **** 0

# MOE 2024.06 (io_trps.svl 2023.06)
