@<TRIPOS>MOLECULE
1-Benzothiazol-2-yl-piperidine-4-carboxylic acid sec-butylamide
45 47 1 0 0 
SMALL
USER_CHARGES


@<TRIPOS>ATOM
  1 S       -0.6190    -0.4950    -0.5640 S.3   1 <1>  -0.0800 
  2 C       -1.3040     0.8250     0.3990 C.2   1 <1>   0.4620 
  3 C        0.5710     0.6010    -1.2230 C.ar  1 <1>   0.0400 
  4 N       -0.7020     1.9470     0.2340 N.2   1 <1>  -0.5650 
  5 N       -2.3890     0.5830     1.2180 N.pl3 1 <1>  -0.8220 
  6 C        0.3470     1.8450    -0.6650 C.ar  1 <1>   0.2270 
  7 C        1.5740     0.3370    -2.1350 C.ar  1 <1>  -0.1500 
  8 C       -3.0030     1.6840     2.0030 C.3   1 <1>   0.2090 
  9 C       -3.1200    -0.7080     1.3060 C.3   1 <1>   0.2090 
 10 C        1.1820     2.8870    -1.0460 C.ar  1 <1>  -0.1500 
 11 C        2.3960     1.3890    -2.5030 C.ar  1 <1>  -0.1500 
 12 C       -4.4170     1.9310     1.4760 C.3   1 <1>  -0.1600 
 13 C       -4.5350    -0.5050     0.7630 C.3   1 <1>  -0.1600 
 14 C        2.1990     2.6570    -1.9600 C.ar  1 <1>  -0.1500 
 15 C       -5.2640     0.6410     1.4930 C.3   1 <1>  -0.0190 
 16 C       -6.6590     0.8710     0.9230 C.2   1 <1>   0.5690 
 17 O       -7.6100     0.6620     1.6360 O.2   1 <1>  -0.5700 
 18 N       -6.7740     1.2970    -0.3650 N.am  1 <1>  -0.7300 
 19 C       -8.0050     1.5850    -1.1270 C.3   1 <1>   0.2200 
 20 C       -8.7930     2.7170    -0.4490 C.3   1 <1>  -0.1600 
 21 C       -8.8090     0.2950    -1.2940 C.3   1 <1>  -0.2400 
 22 C       -9.9370     3.2610    -1.3170 C.3   1 <1>  -0.2400 
 23 H        1.7050    -0.6510    -2.5390 H     1 <1>   0.1500 
 24 H       -2.4220     2.5870     1.9230 H     1 <1>   0.0800 
 25 H       -3.0370     1.4020     3.0420 H     1 <1>   0.0800 
 26 H       -3.1630    -1.0160     2.3380 H     1 <1>   0.0800 
 27 H       -2.6270    -1.4870     0.7530 H     1 <1>   0.0800 
 28 H        1.0230     3.8610    -0.6210 H     1 <1>   0.1500 
 29 H        3.1910     1.2290    -3.2110 H     1 <1>   0.1500 
 30 H       -4.3380     2.3160     0.4750 H     1 <1>   0.0800 
 31 H       -4.8940     2.6830     2.0800 H     1 <1>   0.0800 
 32 H       -5.0940    -1.4170     0.8800 H     1 <1>   0.0800 
 33 H       -4.4670    -0.2940    -0.2890 H     1 <1>   0.0800 
 34 H        2.8450     3.4660    -2.2530 H     1 <1>   0.1500 
 35 H       -5.3860     0.3470     2.5210 H     1 <1>   0.0800 
 36 H       -5.9120     1.4480    -0.8890 H     1 <1>   0.3700 
 37 H       -7.7070     1.9230    -2.1060 H     1 <1>   0.0800 
 38 H       -8.1170     3.5260    -0.2340 H     1 <1>   0.0800 
 39 H       -9.1990     2.3660     0.4840 H     1 <1>   0.0800 
 40 H       -9.1960    -0.0340    -0.3470 H     1 <1>   0.0800 
 41 H       -8.1890    -0.4780    -1.7100 H     1 <1>   0.0800 
 42 H       -9.6370     0.4540    -1.9600 H     1 <1>   0.0800 
 43 H       -9.5640     3.5990    -2.2680 H     1 <1>   0.0800 
 44 H      -10.4060     4.0920    -0.8200 H     1 <1>   0.0800 
 45 H      -10.6840     2.5060    -1.4820 H     1 <1>   0.0800 
@<TRIPOS>BOND
  1   1   2  1   
  2   1   3  1   
  3   2   4  2   
  4   2   5  1   
  5   3   6  ar  
  6   3   7  ar  
  7   4   6  1   
  8   5   8  1   
  9   5   9  1   
 10   6  10  ar  
 11   7  11  ar  
 12   7  23  1   
 13   8  12  1   
 14   8  24  1   
 15   8  25  1   
 16   9  13  1   
 17   9  26  1   
 18   9  27  1   
 19  10  14  ar  
 20  10  28  1   
 21  11  14  ar  
 22  11  29  1   
 23  12  15  1   
 24  12  30  1   
 25  12  31  1   
 26  13  15  1   
 27  13  32  1   
 28  13  33  1   
 29  14  34  1   
 30  15  16  1   
 31  15  35  1   
 32  16  17  2   
 33  16  18  am  
 34  18  19  1   
 35  18  36  1   
 36  19  20  1   
 37  19  21  1   
 38  19  37  1   
 39  20  22  1   
 40  20  38  1   
 41  20  39  1   
 42  21  40  1   
 43  21  41  1   
 44  21  42  1   
 45  22  43  1   
 46  22  44  1   
 47  22  45  1   
@<TRIPOS>SUBSTRUCTURE
  1 ****   5 GROUP 4 **** **** 0

# MOE 2024.06 (io_trps.svl 2023.06)
