@<TRIPOS>MOLECULE
NONAME
47 50 1 0 0 
SMALL
USER_CHARGES


@<TRIPOS>ATOM
  1 O       -0.1970     0.0820     0.6830 O.2   1 <1>  -0.5700 
  2 C       -1.3690     0.3330     0.8260 C.2   1 <1>   0.6300 
  3 N       -2.3800    -0.5220     0.5170 N.am  1 <1>  -0.5470 
  4 C       -1.7600     1.6890     1.3940 C.3   1 <1>  -0.1000 
  5 C       -2.4410    -1.8120    -0.0310 C.ar  1 <1>   0.1170 
  6 C       -2.9770     2.4380     0.9240 C.3   1 <1>  -0.2000 
  7 C       -1.6110     2.9310     0.5640 C.3   1 <1>  -0.2000 
  8 C       -3.7230    -2.3240    -0.2850 C.ar  1 <1>   0.1000 
  9 C       -1.3230    -2.5820    -0.3210 C.ar  1 <1>  -0.1500 
 10 N       -4.8610    -1.5470     0.0060 N.pl3 1 <1>  -0.8380 
 11 C       -3.8430    -3.5980    -0.8260 C.ar  1 <1>  -0.1500 
 12 C       -1.4610    -3.8500    -0.8600 C.ar  1 <1>  -0.1500 
 13 C       -5.6270    -0.9970    -1.1610 C.3   1 <1>   0.2090 
 14 C       -5.7310    -2.0010     1.1410 C.3   1 <1>   0.2090 
 15 C       -2.7230    -4.3580    -1.1130 C.ar  1 <1>  -0.1500 
 16 C       -6.8160    -1.8780    -1.5980 C.3   1 <1>   0.2090 
 17 C       -6.9270    -2.8740     0.7060 C.3   1 <1>   0.2090 
 18 N       -7.6790    -2.3120    -0.4580 N.pl3 1 <1>  -0.8380 
 19 C       -8.8370    -1.5870    -0.2020 C.ar  1 <1>   0.1000 
 20 C       -8.7980    -0.3190     0.3680 C.ar  1 <1>  -0.1500 
 21 C      -10.0700    -2.1360    -0.5210 C.ar  1 <1>  -0.1500 
 22 C       -9.9650     0.3820     0.6120 C.ar  1 <1>  -0.1500 
 23 C      -11.2410    -1.4410    -0.2790 C.ar  1 <1>  -0.1500 
 24 C      -11.1900    -0.1780     0.2880 C.ar  1 <1>  -0.1500 
 25 H       -3.3280    -0.1720     0.6680 H     1 <1>   0.3700 
 26 H       -1.4900     1.7670     2.4320 H     1 <1>   0.1000 
 27 H       -3.5520     2.9930     1.6450 H     1 <1>   0.1000 
 28 H       -3.5870     2.0340     0.1340 H     1 <1>   0.1000 
 29 H       -1.2620     2.8230    -0.4500 H     1 <1>   0.1000 
 30 H       -1.2290     3.8190     1.0370 H     1 <1>   0.1000 
 31 H       -0.3380    -2.1990    -0.1280 H     1 <1>   0.1500 
 32 H       -4.8170    -4.0000    -1.0260 H     1 <1>   0.1500 
 33 H       -0.5860    -4.4370    -1.0800 H     1 <1>   0.1500 
 34 H       -4.9600    -0.8720    -1.9960 H     1 <1>   0.0800 
 35 H       -6.0010    -0.0230    -0.9000 H     1 <1>   0.0800 
 36 H       -6.1090    -1.1340     1.6530 H     1 <1>   0.0800 
 37 H       -5.1350    -2.5540     1.8460 H     1 <1>   0.0800 
 38 H       -2.8310    -5.3430    -1.5320 H     1 <1>   0.1500 
 39 H       -6.4400    -2.7510    -2.1000 H     1 <1>   0.0800 
 40 H       -7.4140    -1.3330    -2.3070 H     1 <1>   0.0800 
 41 H       -7.5990    -2.9890     1.5390 H     1 <1>   0.0800 
 42 H       -6.5700    -3.8540     0.4460 H     1 <1>   0.0800 
 43 H       -7.8500     0.1160     0.6180 H     1 <1>   0.1500 
 44 H      -10.0980    -3.1160    -0.9610 H     1 <1>   0.1500 
 45 H       -9.9250     1.3620     1.0530 H     1 <1>   0.1500 
 46 H      -12.1900    -1.8800    -0.5320 H     1 <1>   0.1500 
 47 H      -12.0990     0.3640     0.4770 H     1 <1>   0.1500 
@<TRIPOS>BOND
  1   1   2  2   
  2   2   3  am  
  3   2   4  1   
  4   3   5  1   
  5   3  25  1   
  6   4   6  1   
  7   4   7  1   
  8   4  26  1   
  9   5   8  ar  
 10   5   9  ar  
 11   6   7  1   
 12   6  27  1   
 13   6  28  1   
 14   7  29  1   
 15   7  30  1   
 16   8  10  1   
 17   8  11  ar  
 18   9  12  ar  
 19   9  31  1   
 20  10  13  1   
 21  10  14  1   
 22  11  15  ar  
 23  11  32  1   
 24  12  15  ar  
 25  12  33  1   
 26  13  16  1   
 27  13  34  1   
 28  13  35  1   
 29  14  17  1   
 30  14  36  1   
 31  14  37  1   
 32  15  38  1   
 33  16  18  1   
 34  16  39  1   
 35  16  40  1   
 36  17  18  1   
 37  17  41  1   
 38  17  42  1   
 39  18  19  1   
 40  19  20  ar  
 41  19  21  ar  
 42  20  22  ar  
 43  20  43  1   
 44  21  23  ar  
 45  21  44  1   
 46  22  24  ar  
 47  22  45  1   
 48  23  24  ar  
 49  23  46  1   
 50  24  47  1   
@<TRIPOS>SUBSTRUCTURE
  1 ****  10 GROUP 4 **** **** 0

# MOE 2024.06 (io_trps.svl 2023.06)
