@<TRIPOS>MOLECULE
5-Methyl-4-(2-morpholin-4-yl-ethyl)-4H-[1,2,4]triazole-3-thiol
32 33 1 0 0 
SMALL
USER_CHARGES


@<TRIPOS>ATOM
  1 S        1.7710    -1.3490    -2.1090 S.3   1 <1>  -0.9360 
  2 C        0.7030    -2.2170    -1.2460 C.cat 1 <1>   0.7360 
  3 N       -0.5920    -2.2960    -1.4450 N.pl3 1 <1>  -0.3930 
  4 N        1.0240    -2.9600    -0.2020 N.pl3 1 <1>  -0.7640 
  5 N       -1.1630    -3.1250    -0.5230 N.2   1 <1>  -0.2600 
  6 C       -0.1740    -3.5110     0.1990 C.2   1 <1>   0.4850 
  7 C        2.4200    -3.1790     0.2490 C.3   1 <1>   0.3540 
  8 C       -0.2830    -4.4680     1.3640 C.3   1 <1>  -0.0720 
  9 C        3.0760    -1.8560     0.7290 C.3   1 <1>   0.3430 
 10 N        4.5210    -1.6730     0.3330 N.4   1 <1>  -0.9590 
 11 C        5.1560    -0.5070     1.0340 C.3   1 <1>   0.3430 
 12 C        4.6850    -1.4730    -1.1550 C.3   1 <1>   0.3430 
 13 C        6.6020    -0.2620     0.5380 C.3   1 <1>   0.1200 
 14 C        6.1720    -1.2910    -1.5350 C.3   1 <1>   0.1200 
 15 O        6.9880    -1.2380    -0.3920 O.3   1 <1>  -0.5600 
 16 H       -1.0610    -1.8000    -2.2060 H     1 <1>   0.4500 
 17 H        2.9730    -3.5810    -0.5820 H     1 <1>   0.0800 
 18 H        2.4390    -3.9000     1.0460 H     1 <1>   0.0800 
 19 H        0.0640    -3.9950     2.2640 H     1 <1>   0.0800 
 20 H        0.2990    -5.3500     1.1710 H     1 <1>   0.0800 
 21 H       -1.3090    -4.7580     1.5020 H     1 <1>   0.0800 
 22 H        2.9910    -1.8110     1.8010 H     1 <1>   0.0800 
 23 H        2.5080    -1.0350     0.3240 H     1 <1>   0.0800 
 24 H        5.1060    -2.4880     0.5670 H     1 <1>   0.4500 
 25 H        5.1760    -0.6800     2.0980 H     1 <1>   0.0800 
 26 H        4.5760     0.3850     0.8610 H     1 <1>   0.0800 
 27 H        4.1380    -0.5970    -1.4680 H     1 <1>   0.0800 
 28 H        4.2760    -2.3050    -1.7030 H     1 <1>   0.0800 
 29 H        7.2910    -0.3030     1.3640 H     1 <1>   0.0800 
 30 H        6.6870     0.7070     0.0760 H     1 <1>   0.0800 
 31 H        6.3080    -0.3870    -2.1040 H     1 <1>   0.0800 
 32 H        6.5030    -2.1190    -2.1370 H     1 <1>   0.0800 
@<TRIPOS>BOND
  1   1   2  1   
  2   2   3  ar  
  3   2   4  ar  
  4   3   5  1   
  5   3  16  1   
  6   4   6  1   
  7   4   7  1   
  8   5   6  2   
  9   6   8  1   
 10   7   9  1   
 11   7  17  1   
 12   7  18  1   
 13   8  19  1   
 14   8  20  1   
 15   8  21  1   
 16   9  10  1   
 17   9  22  1   
 18   9  23  1   
 19  10  11  1   
 20  10  12  1   
 21  10  24  1   
 22  11  13  1   
 23  11  25  1   
 24  11  26  1   
 25  12  14  1   
 26  12  27  1   
 27  12  28  1   
 28  13  15  1   
 29  13  29  1   
 30  13  30  1   
 31  14  15  1   
 32  14  31  1   
 33  14  32  1   
@<TRIPOS>SUBSTRUCTURE
  1 ****   9 GROUP 4 **** **** 0

# MOE 2024.06 (io_trps.svl 2023.06)
