@<TRIPOS>MOLECULE
6698
53 54 1 0 0 
SMALL
USER_CHARGES


@<TRIPOS>ATOM
  1 O       -0.1480    -5.4320    -0.9720 O.2   1 <1>  -0.5700 
  2 C       -0.6510    -4.5010    -0.3910 C.2   1 <1>   0.5690 
  3 N        0.0580    -3.4600     0.1420 N.am  1 <1>  -0.5470 
  4 C       -2.1670    -4.4990    -0.2410 C.3   1 <1>   0.1810 
  5 C        1.4260    -3.1270     0.1740 C.ar  1 <1>   0.1170 
  6 O       -2.6330    -3.3050     0.3760 O.3   1 <1>  -0.3630 
  7 C        1.8260    -2.0380     0.9560 C.ar  1 <1>   0.0830 
  8 C        2.3920    -3.8250    -0.5420 C.ar  1 <1>  -0.1500 
  9 C       -3.9380    -2.9450     0.2720 C.ar  1 <1>   0.0830 
 10 O        0.8510    -1.3710     1.6490 O.3   1 <1>  -0.3630 
 11 C        3.1680    -1.6710     1.0100 C.ar  1 <1>  -0.1500 
 12 C        3.7270    -3.4630    -0.4890 C.ar  1 <1>   0.0830 
 13 C       -4.2870    -1.5870     0.2120 C.ar  1 <1>  -0.1430 
 14 C       -4.9190    -3.9350     0.2310 C.ar  1 <1>  -0.1500 
 15 C        1.1820    -0.3910     2.6080 C.3   1 <1>   0.0400 
 16 C        4.1150    -2.3800     0.2920 C.ar  1 <1>  -0.1500 
 17 O        4.5930    -4.2090    -1.2250 O.3   1 <1>  -0.3630 
 18 C       -5.6450    -1.2900     0.0900 C.ar  1 <1>  -0.1500 
 19 C       -3.2280    -0.4460     0.2760 C.3   1 <1>   0.1440 
 20 C       -6.2550    -3.6100     0.1080 C.ar  1 <1>  -0.1430 
 21 C        5.9760    -3.9340    -1.2300 C.3   1 <1>   0.0400 
 22 C       -6.6110    -2.2780     0.0370 C.ar  1 <1>  -0.1500 
 23 C       -3.8460     0.9640     0.1870 C.3   1 <1>  -0.2400 
 24 C       -2.4730    -0.4930     1.6150 C.3   1 <1>  -0.2400 
 25 C       -2.2380    -0.5480    -0.8970 C.3   1 <1>  -0.2400 
 26 C       -7.3190    -4.6910     0.0600 C.3   1 <1>  -0.0970 
 27 H       -0.5230    -2.7770     0.6400 H     1 <1>   0.3700 
 28 H       -2.4590    -5.3340     0.3680 H     1 <1>   0.0800 
 29 H       -2.6150    -4.5780    -1.2140 H     1 <1>   0.0800 
 30 H        2.1210    -4.6620    -1.1550 H     1 <1>   0.1500 
 31 H        3.4970    -0.8370     1.5990 H     1 <1>   0.1500 
 32 H       -4.6540    -4.9710     0.3050 H     1 <1>   0.1500 
 33 H        0.2740    -0.0730     3.0880 H     1 <1>   0.0800 
 34 H        1.6430     0.4430     2.1110 H     1 <1>   0.0800 
 35 H        1.8450    -0.8240     3.3360 H     1 <1>   0.0800 
 36 H        5.1420    -2.0750     0.3520 H     1 <1>   0.1500 
 37 H       -6.0020    -0.2810     0.0330 H     1 <1>   0.1500 
 38 H        6.4550    -4.6500    -1.8720 H     1 <1>   0.0800 
 39 H        6.3540    -4.0300    -0.2280 H     1 <1>   0.0800 
 40 H        6.1320    -2.9400    -1.6110 H     1 <1>   0.0800 
 41 H       -7.6460    -2.0020    -0.0570 H     1 <1>   0.1500 
 42 H       -4.5270     1.1330     1.0010 H     1 <1>   0.0800 
 43 H       -4.3700     1.0900    -0.7440 H     1 <1>   0.0800 
 44 H       -3.0810     1.7190     0.2370 H     1 <1>   0.0800 
 45 H       -3.1710    -0.4300     2.4310 H     1 <1>   0.0800 
 46 H       -1.7830     0.3270     1.6880 H     1 <1>   0.0800 
 47 H       -1.9150    -1.4010     1.7260 H     1 <1>   0.0800 
 48 H       -2.7750    -0.5530    -1.8290 H     1 <1>   0.0800 
 49 H       -1.6480    -1.4400    -0.8490 H     1 <1>   0.0800 
 50 H       -1.5590     0.2850    -0.8970 H     1 <1>   0.0800 
 51 H       -6.9060    -5.6160    -0.2980 H     1 <1>   0.0800 
 52 H       -8.1180    -4.4000    -0.5980 H     1 <1>   0.0800 
 53 H       -7.7210    -4.8480     1.0450 H     1 <1>   0.0800 
@<TRIPOS>BOND
  1   1   2  2   
  2   2   3  am  
  3   2   4  1   
  4   3   5  1   
  5   3  27  1   
  6   4   6  1   
  7   4  28  1   
  8   4  29  1   
  9   5   7  ar  
 10   5   8  ar  
 11   6   9  1   
 12   7  10  1   
 13   7  11  ar  
 14   8  12  ar  
 15   8  30  1   
 16   9  13  ar  
 17   9  14  ar  
 18  10  15  1   
 19  11  16  ar  
 20  11  31  1   
 21  12  16  ar  
 22  12  17  1   
 23  13  18  ar  
 24  13  19  1   
 25  14  20  ar  
 26  14  32  1   
 27  15  33  1   
 28  15  34  1   
 29  15  35  1   
 30  16  36  1   
 31  17  21  1   
 32  18  22  ar  
 33  18  37  1   
 34  19  23  1   
 35  19  24  1   
 36  19  25  1   
 37  20  22  ar  
 38  20  26  1   
 39  21  38  1   
 40  21  39  1   
 41  21  40  1   
 42  22  41  1   
 43  23  42  1   
 44  23  43  1   
 45  23  44  1   
 46  24  45  1   
 47  24  46  1   
 48  24  47  1   
 49  25  48  1   
 50  25  49  1   
 51  25  50  1   
 52  26  51  1   
 53  26  52  1   
 54  26  53  1   
@<TRIPOS>SUBSTRUCTURE
  1 ****   3 GROUP 4 **** **** 0

# MOE 2024.06 (io_trps.svl 2023.06)
