@<TRIPOS>MOLECULE
1-(4-Ethoxy-6-methyl-pyrimidin-2-yl)-piperidine-4-carboxylic acid prop-2-ynylamide
44 45 1 0 0 
SMALL
USER_CHARGES


@<TRIPOS>ATOM
  1 O       -1.1490    -0.4550     1.1130 O.2   1 <1>  -0.5700 
  2 C       -1.2700    -1.3410     0.3020 C.2   1 <1>   0.5690 
  3 N       -0.2870    -2.2540     0.1210 N.am  1 <1>  -0.7300 
  4 C       -2.5320    -1.4600    -0.5530 C.3   1 <1>  -0.0190 
  5 C        0.9440    -2.2940     0.9150 C.3   1 <1>   0.3400 
  6 C       -3.4250    -0.2040    -0.4900 C.3   1 <1>  -0.1600 
  7 C       -3.3550    -2.7010    -0.1580 C.3   1 <1>  -0.1600 
  8 C        1.6260    -3.5850     0.6250 C.1   1 <1>  -0.2000 
  9 C       -4.6810    -0.3610    -1.3480 C.3   1 <1>   0.2090 
 10 C       -4.6170    -2.8460    -1.0110 C.3   1 <1>   0.2090 
 11 C        2.1690    -4.6170     0.3920 C.1   1 <1>  -0.1770 
 12 N       -5.4100    -1.5900    -0.9300 N.pl3 1 <1>  -0.8380 
 13 C       -6.7090    -1.5660    -0.4560 C.ar  1 <1>   0.7200 
 14 N       -7.3640    -2.7200    -0.4360 N.ar  1 <1>  -0.6200 
 15 N       -7.1880    -0.3880    -0.0610 N.ar  1 <1>  -0.6200 
 16 C       -8.5870    -2.6840     0.0220 C.ar  1 <1>   0.3930 
 17 C       -8.4140    -0.3730     0.3950 C.ar  1 <1>   0.1670 
 18 O       -9.2240    -3.8710     0.0340 O.3   1 <1>  -0.3630 
 19 C       -9.1720    -1.5120     0.4590 C.ar  1 <1>  -0.1500 
 20 C       -8.9560     0.9660     0.8480 C.3   1 <1>  -0.0970 
 21 C      -10.5500    -4.0240     0.4800 C.3   1 <1>   0.1200 
 22 C      -10.9280    -5.4950     0.3390 C.3   1 <1>  -0.2400 
 23 H       -0.3840    -3.0190    -0.5450 H     1 <1>   0.3700 
 24 H       -2.2110    -1.5800    -1.5720 H     1 <1>   0.0800 
 25 H        0.7050    -2.2220     1.9630 H     1 <1>   0.0800 
 26 H        1.5770    -1.4670     0.6430 H     1 <1>   0.0800 
 27 H       -2.8710     0.6540    -0.8260 H     1 <1>   0.0800 
 28 H       -3.7280    -0.0190     0.5260 H     1 <1>   0.0800 
 29 H       -3.6480    -2.6250     0.8750 H     1 <1>   0.0800 
 30 H       -2.7610    -3.5910    -0.2640 H     1 <1>   0.0800 
 31 H       -4.4080    -0.4560    -2.3840 H     1 <1>   0.0800 
 32 H       -5.2950     0.5170    -1.2530 H     1 <1>   0.0800 
 33 H       -5.1780    -3.6950    -0.6600 H     1 <1>   0.0800 
 34 H       -4.3540    -3.0270    -2.0390 H     1 <1>   0.0800 
 35 H        2.6650    -5.5500     0.1840 H     1 <1>   0.1770 
 36 H      -10.1730    -1.4790     0.8350 H     1 <1>   0.1500 
 37 H       -8.3310     1.3580     1.6300 H     1 <1>   0.0800 
 38 H       -9.9600     0.8760     1.2160 H     1 <1>   0.0800 
 39 H       -8.9460     1.6550     0.0230 H     1 <1>   0.0800 
 40 H      -11.1890    -3.4080    -0.1300 H     1 <1>   0.0800 
 41 H      -10.6010    -3.7160     1.5100 H     1 <1>   0.0800 
 42 H      -10.8550    -5.7970    -0.6910 H     1 <1>   0.0800 
 43 H      -11.9380    -5.6470     0.6720 H     1 <1>   0.0800 
 44 H      -10.2730    -6.1030     0.9370 H     1 <1>   0.0800 
@<TRIPOS>BOND
  1   1   2  2   
  2   2   3  am  
  3   2   4  1   
  4   3   5  1   
  5   3  23  1   
  6   4   6  1   
  7   4   7  1   
  8   4  24  1   
  9   5   8  1   
 10   5  25  1   
 11   5  26  1   
 12   6   9  1   
 13   6  27  1   
 14   6  28  1   
 15   7  10  1   
 16   7  29  1   
 17   7  30  1   
 18   8  11  3   
 19   9  12  1   
 20   9  31  1   
 21   9  32  1   
 22  10  12  1   
 23  10  33  1   
 24  10  34  1   
 25  11  35  1   
 26  12  13  1   
 27  13  14  ar  
 28  13  15  ar  
 29  14  16  ar  
 30  15  17  ar  
 31  16  18  1   
 32  16  19  ar  
 33  17  19  ar  
 34  17  20  1   
 35  18  21  1   
 36  19  36  1   
 37  20  37  1   
 38  20  38  1   
 39  20  39  1   
 40  21  22  1   
 41  21  40  1   
 42  21  41  1   
 43  22  42  1   
 44  22  43  1   
 45  22  44  1   
@<TRIPOS>SUBSTRUCTURE
  1 ****  12 GROUP 4 **** **** 0

# MOE 2024.06 (io_trps.svl 2023.06)
