@<TRIPOS>MOLECULE
Morpholin-4-yl-[1,2,3]thiadiazol-4-yl-methanone
22 23 1 0 0 
SMALL
USER_CHARGES


@<TRIPOS>ATOM
  1 S       -0.8670     1.0510     0.4030 S.3   1 <1>   0.1810 
  2 N        0.4580     0.8650     1.4410 N.2   1 <1>  -0.2210 
  3 C       -0.0070     2.1220    -0.6290 C.2   1 <1>  -0.1100 
  4 N        1.4380     1.5450     1.0420 N.2   1 <1>  -0.2270 
  5 C        1.2340     2.2700    -0.1330 C.2   1 <1>   0.1410 
  6 C        2.2750     3.1130    -0.7010 C.2   1 <1>   0.7160 
  7 O        1.9380     4.1200    -1.2990 O.2   1 <1>  -0.5700 
  8 N        3.6260     2.8370    -0.6150 N.am  1 <1>  -0.6600 
  9 C        4.6600     3.9030    -0.7690 C.3   1 <1>   0.1400 
 10 C        4.2280     1.5040    -0.3130 C.3   1 <1>   0.1400 
 11 C        5.6150     3.8910     0.4380 C.3   1 <1>   0.1200 
 12 C        5.1810     1.6210     0.8870 C.3   1 <1>   0.1200 
 13 O        6.1450     2.6090     0.6450 O.3   1 <1>  -0.5600 
 14 H       -0.5000     2.5370    -1.4880 H     1 <1>   0.1500 
 15 H        4.1990     4.8720    -0.8440 H     1 <1>   0.0800 
 16 H        5.2200     3.7300    -1.6710 H     1 <1>   0.0800 
 17 H        4.7910     1.1720    -1.1680 H     1 <1>   0.0800 
 18 H        3.4780     0.7610    -0.1170 H     1 <1>   0.0800 
 19 H        5.0990     4.1970     1.3310 H     1 <1>   0.0800 
 20 H        6.4380     4.5620     0.2660 H     1 <1>   0.0800 
 21 H        5.6970     0.6910     1.0460 H     1 <1>   0.0800 
 22 H        4.6380     1.8740     1.7810 H     1 <1>   0.0800 
@<TRIPOS>BOND
  1   1   2  1   
  2   1   3  1   
  3   2   4  2   
  4   3   5  2   
  5   3  14  1   
  6   4   5  1   
  7   5   6  1   
  8   6   7  2   
  9   6   8  am  
 10   8   9  1   
 11   8  10  1   
 12   9  11  1   
 13   9  15  1   
 14   9  16  1   
 15  10  12  1   
 16  10  17  1   
 17  10  18  1   
 18  11  13  1   
 19  11  19  1   
 20  11  20  1   
 21  12  13  1   
 22  12  21  1   
 23  12  22  1   
@<TRIPOS>SUBSTRUCTURE
  1 ****   6 GROUP 4 **** **** 0

# MOE 2024.06 (io_trps.svl 2023.06)
