@<TRIPOS>MOLECULE
NONAME
45 47 1 0 0 
SMALL
USER_CHARGES


@<TRIPOS>ATOM
  1 S       -0.2020    -0.2600     1.1520 S.o2  1 <1>   1.4470 
  2 O       -1.1950    -1.2960     0.9890 O.2   1 <1>  -0.6500 
  3 O       -0.4460     0.7980     2.1080 O.2   1 <1>  -0.6500 
  4 N       -0.0960     0.4490    -0.3660 N.am  1 <1>  -0.7890 
  5 C        1.4300    -1.0150     1.4150 C.ar  1 <1>  -0.0090 
  6 C        0.5130     1.7590    -0.4030 C.3   1 <1>   0.1310 
  7 C        2.1420    -0.8080     2.5890 C.ar  1 <1>  -0.1500 
  8 C        2.0100    -1.8260     0.4480 C.ar  1 <1>  -0.1500 
  9 C        1.9680     1.8660    -0.0750 C.3   1 <1>  -0.2000 
 10 C        1.1720     3.1000    -0.3460 C.3   1 <1>  -0.2000 
 11 C        3.3870    -1.3840     2.7860 C.ar  1 <1>  -0.1500 
 12 C        3.2550    -2.4010     0.6440 C.ar  1 <1>  -0.1500 
 13 C        3.9680    -2.1910     1.8170 C.ar  1 <1>  -0.0090 
 14 S        5.6030    -2.9440     2.0590 S.o2  1 <1>   1.4470 
 15 O        6.1820    -2.5090     3.3080 O.2   1 <1>  -0.6500 
 16 O        5.5580    -4.3460     1.7160 O.2   1 <1>  -0.6500 
 17 N        6.5480    -2.1800     0.9040 N.am  1 <1>  -0.9140 
 18 C        7.7520    -2.9330     0.5750 C.3   1 <1>   0.1960 
 19 C        8.5810    -2.1570    -0.4480 C.3   1 <1>  -0.0170 
 20 C        9.8470    -2.9270    -0.7980 C.ar  1 <1>  -0.1430 
 21 C       10.9770    -2.8790     0.0070 C.ar  1 <1>   0.1900 
 22 C        9.9020    -3.7100    -1.9420 C.ar  1 <1>  -0.1500 
 23 F       10.9590    -2.1570     1.0960 F     1 <1>  -0.1900 
 24 C       12.1350    -3.5720    -0.2920 C.ar  1 <1>  -0.1500 
 25 C       11.0550    -4.4140    -2.2590 C.ar  1 <1>  -0.1500 
 26 C       12.1700    -4.3470    -1.4380 C.ar  1 <1>  -0.1500 
 27 H       -1.0750     0.5480    -0.6250 H     1 <1>   0.4200 
 28 H        0.1450     1.9400    -1.4000 H     1 <1>   0.1000 
 29 H        1.7170    -0.1870     3.3620 H     1 <1>   0.1500 
 30 H        1.4800    -2.0090    -0.4720 H     1 <1>   0.1500 
 31 H        2.6720     1.5120    -0.8070 H     1 <1>   0.1000 
 32 H        2.3040     1.7070     0.9340 H     1 <1>   0.1000 
 33 H        0.9140     3.7500     0.4720 H     1 <1>   0.1000 
 34 H        1.3690     3.6440    -1.2540 H     1 <1>   0.1000 
 35 H        3.9120    -1.2030     3.7110 H     1 <1>   0.1500 
 36 H        3.6810    -3.0250    -0.1240 H     1 <1>   0.1500 
 37 H        6.8570    -1.3360     1.3840 H     1 <1>   0.4200 
 38 H        7.4830    -3.8900     0.1560 H     1 <1>   0.0800 
 39 H        8.3350    -3.1050     1.4660 H     1 <1>   0.0800 
 40 H        8.8450    -1.1940    -0.0500 H     1 <1>   0.0800 
 41 H        7.9940    -2.0030    -1.3370 H     1 <1>   0.0800 
 42 H        9.0480    -3.7790    -2.5950 H     1 <1>   0.1500 
 43 H       12.9870    -3.5050     0.3610 H     1 <1>   0.1500 
 44 H       11.0840    -5.0170    -3.1500 H     1 <1>   0.1500 
 45 H       13.0610    -4.8960    -1.6920 H     1 <1>   0.1500 
@<TRIPOS>BOND
  1   1   2  2   
  2   1   3  2   
  3   1   4  am  
  4   1   5  1   
  5   4   6  1   
  6   4  27  1   
  7   5   7  ar  
  8   5   8  ar  
  9   6   9  1   
 10   6  10  1   
 11   6  28  1   
 12   7  11  ar  
 13   7  29  1   
 14   8  12  ar  
 15   8  30  1   
 16   9  10  1   
 17   9  31  1   
 18   9  32  1   
 19  10  33  1   
 20  10  34  1   
 21  11  13  ar  
 22  11  35  1   
 23  12  13  ar  
 24  12  36  1   
 25  13  14  1   
 26  14  15  2   
 27  14  16  2   
 28  14  17  am  
 29  17  18  1   
 30  17  37  1   
 31  18  19  1   
 32  18  38  1   
 33  18  39  1   
 34  19  20  1   
 35  19  40  1   
 36  19  41  1   
 37  20  21  ar  
 38  20  22  ar  
 39  21  23  1   
 40  21  24  ar  
 41  22  25  ar  
 42  22  42  1   
 43  24  26  ar  
 44  24  43  1   
 45  25  26  ar  
 46  25  44  1   
 47  26  45  1   
@<TRIPOS>SUBSTRUCTURE
  1 ****  17 GROUP 4 **** **** 0

# MOE 2024.06 (io_trps.svl 2023.06)
