@<TRIPOS>MOLECULE
NONAME
56 58 1 0 0 
SMALL
USER_CHARGES


@<TRIPOS>ATOM
  1 S        0.0970    -0.2290    -0.3130 S.3   1 <1>   0.1810 
  2 N        0.8250    -0.9030     1.0600 N.2   1 <1>  -0.2210 
  3 C        1.2370    -0.9590    -1.3700 C.2   1 <1>  -0.1100 
  4 N        1.8200    -1.6020     0.7390 N.2   1 <1>  -0.2270 
  5 C        2.1080    -1.6600    -0.6240 C.2   1 <1>   0.1410 
  6 C        3.2250    -2.4310    -1.1500 C.2   1 <1>   0.7160 
  7 O        3.0440    -3.0340    -2.1920 O.2   1 <1>  -0.5700 
  8 N        4.4780    -2.4920    -0.5630 N.am  1 <1>  -0.6600 
  9 C        5.5610    -3.3570    -1.1770 C.3   1 <1>   0.4250 
 10 C        4.8940    -1.6470     0.5980 C.3   1 <1>   0.1400 
 11 C        5.8900    -4.5820    -0.2950 C.ar  1 <1>  -0.1440 
 12 C        6.8290    -2.5400    -1.5300 C.2   1 <1>   0.5690 
 13 C        5.0650    -0.1820     0.1730 C.3   1 <1>  -0.1600 
 14 C        6.9330    -5.4190    -0.6780 C.ar  1 <1>  -0.1500 
 15 C        5.1850    -4.9020     0.8620 C.ar  1 <1>  -0.1500 
 16 O        6.8940    -1.9800    -2.6000 O.2   1 <1>  -0.5700 
 17 N        7.8560    -2.4550    -0.6350 N.am  1 <1>  -0.7300 
 18 C        5.4910     0.7260     1.3400 C.3   1 <1>  -0.0800 
 19 C        7.2800    -6.5230     0.0810 C.ar  1 <1>  -0.1500 
 20 C        5.5300    -6.0050     1.6230 C.ar  1 <1>  -0.1500 
 21 C        9.1200    -1.7310    -0.8290 C.3   1 <1>   0.2200 
 22 C        4.3790     0.8610     2.3910 C.3   1 <1>  -0.2400 
 23 C        5.8570     2.1150     0.8060 C.3   1 <1>  -0.2400 
 24 C        6.5810    -6.8150     1.2360 C.ar  1 <1>  -0.1500 
 25 C       10.2680    -2.6700    -0.4820 C.3   1 <1>  -0.1600 
 26 C        9.2280    -0.6450     0.2330 C.3   1 <1>  -0.1600 
 27 C       10.3710    -2.6540     1.0480 C.3   1 <1>  -0.1600 
 28 C        9.6870    -1.3590     1.5090 C.3   1 <1>  -0.1600 
 29 H        1.1500    -0.8020    -2.4290 H     1 <1>   0.1500 
 30 H        5.2180    -3.7540    -2.1150 H     1 <1>   0.0800 
 31 H        5.8230    -2.0090     1.0020 H     1 <1>   0.0800 
 32 H        4.1710    -1.7320     1.3860 H     1 <1>   0.0800 
 33 H        4.1460     0.1920    -0.2400 H     1 <1>   0.0800 
 34 H        5.8160    -0.1340    -0.5960 H     1 <1>   0.0800 
 35 H        7.4900    -5.2200    -1.5790 H     1 <1>   0.1500 
 36 H        4.3500    -4.3080     1.1890 H     1 <1>   0.1500 
 37 H        7.8110    -2.9970     0.2300 H     1 <1>   0.3700 
 38 H        6.3640     0.3070     1.8130 H     1 <1>   0.0800 
 39 H        8.0930    -7.1560    -0.2300 H     1 <1>   0.1500 
 40 H        4.9760    -6.2350     2.5160 H     1 <1>   0.1500 
 41 H        9.1910    -1.3380    -1.8310 H     1 <1>   0.0800 
 42 H        3.4710     1.2210     1.9390 H     1 <1>   0.0800 
 43 H        4.6750     1.5540     3.1580 H     1 <1>   0.0800 
 44 H        4.1740    -0.0820     2.8640 H     1 <1>   0.0800 
 45 H        5.0090     2.5740     0.3290 H     1 <1>   0.0800 
 46 H        6.6560     2.0430     0.0880 H     1 <1>   0.0800 
 47 H        6.1850     2.7510     1.6090 H     1 <1>   0.0800 
 48 H        6.8490    -7.6730     1.8280 H     1 <1>   0.1500 
 49 H       11.1740    -2.2650    -0.8970 H     1 <1>   0.0800 
 50 H       10.1220    -3.6590    -0.8810 H     1 <1>   0.0800 
 51 H        8.3060    -0.1080     0.3600 H     1 <1>   0.0800 
 52 H        9.9890     0.0520    -0.0710 H     1 <1>   0.0800 
 53 H       11.4000    -2.6880     1.3620 H     1 <1>   0.0800 
 54 H        9.8550    -3.5040     1.4610 H     1 <1>   0.0800 
 55 H        8.8350    -1.5980     2.1220 H     1 <1>   0.0800 
 56 H       10.3590    -0.7380     2.0770 H     1 <1>   0.0800 
@<TRIPOS>BOND
  1   1   2  1   
  2   1   3  1   
  3   2   4  2   
  4   3   5  2   
  5   3  29  1   
  6   4   5  1   
  7   5   6  1   
  8   6   7  2   
  9   6   8  am  
 10   8   9  1   
 11   8  10  1   
 12   9  11  1   
 13   9  12  1   
 14   9  30  1   
 15  10  13  1   
 16  10  31  1   
 17  10  32  1   
 18  11  14  ar  
 19  11  15  ar  
 20  12  16  2   
 21  12  17  am  
 22  13  18  1   
 23  13  33  1   
 24  13  34  1   
 25  14  19  ar  
 26  14  35  1   
 27  15  20  ar  
 28  15  36  1   
 29  17  21  1   
 30  17  37  1   
 31  18  22  1   
 32  18  23  1   
 33  18  38  1   
 34  19  24  ar  
 35  19  39  1   
 36  20  24  ar  
 37  20  40  1   
 38  21  25  1   
 39  21  26  1   
 40  21  41  1   
 41  22  42  1   
 42  22  43  1   
 43  22  44  1   
 44  23  45  1   
 45  23  46  1   
 46  23  47  1   
 47  24  48  1   
 48  25  27  1   
 49  25  49  1   
 50  25  50  1   
 51  26  28  1   
 52  26  51  1   
 53  26  52  1   
 54  27  28  1   
 55  27  53  1   
 56  27  54  1   
 57  28  55  1   
 58  28  56  1   
@<TRIPOS>SUBSTRUCTURE
  1 ****  10 GROUP 4 **** **** 0

# MOE 2024.06 (io_trps.svl 2023.06)
