@<TRIPOS>MOLECULE
3055
35 35 1 0 0 
SMALL
USER_CHARGES


@<TRIPOS>ATOM
  1 O        0.0060    -2.5980    -1.8590 O.2   1 <1>  -0.5700 
  2 C       -0.0760    -2.2350    -0.6980 C.2   1 <1>   0.5440 
  3 N        0.9840    -1.6090    -0.1050 N.am  1 <1>  -0.4300 
  4 C       -1.2880    -2.4440     0.0660 C.ar  1 <1>   0.0860 
  5 N        2.2720    -1.2770    -0.7400 N.am  1 <1>  -0.4300 
  6 C       -1.6980    -3.7090     0.5060 C.ar  1 <1>  -0.1430 
  7 C       -2.0800    -1.3450     0.4020 C.ar  1 <1>  -0.1500 
  8 C        3.4490    -1.9600    -0.7910 C.2   1 <1>   0.5690 
  9 C       -2.8530    -3.8450     1.2590 C.ar  1 <1>  -0.1500 
 10 C       -0.8870    -4.9530     0.1670 C.3   1 <1>  -0.0960 
 11 C       -3.2310    -1.4860     1.1530 C.ar  1 <1>  -0.1500 
 12 O        4.3620    -1.4470    -1.4040 O.2   1 <1>  -0.5700 
 13 C        3.6770    -3.3440    -0.1120 C.3   1 <1>   0.0610 
 14 C       -3.6180    -2.7400     1.5850 C.ar  1 <1>  -0.1500 
 15 C        3.2190    -3.3660     1.3620 C.3   1 <1>  -0.2400 
 16 C        2.9340    -4.4470    -0.8880 C.3   1 <1>  -0.2400 
 17 C        5.1760    -3.7210    -0.1120 C.3   1 <1>  -0.2400 
 18 H        0.8750    -1.3090     0.8690 H     1 <1>   0.3700 
 19 H        2.2680    -0.4380    -1.3280 H     1 <1>   0.3700 
 20 H       -1.7900    -0.3660     0.0620 H     1 <1>   0.1500 
 21 H       -3.1700    -4.8170     1.5980 H     1 <1>   0.1500 
 22 H        0.0740    -4.9100     0.6460 H     1 <1>   0.0800 
 23 H       -0.7440    -5.0240    -0.8970 H     1 <1>   0.0800 
 24 H       -1.3900    -5.8450     0.4950 H     1 <1>   0.0800 
 25 H       -3.8280    -0.6250     1.4000 H     1 <1>   0.1500 
 26 H       -4.5150    -2.8580     2.1690 H     1 <1>   0.1500 
 27 H        2.1520    -3.2990     1.4440 H     1 <1>   0.0800 
 28 H        3.6610    -2.5450     1.8980 H     1 <1>   0.0800 
 29 H        3.5200    -4.2830     1.8380 H     1 <1>   0.0800 
 30 H        3.2760    -4.4740    -1.9080 H     1 <1>   0.0800 
 31 H        1.8790    -4.2570    -0.9020 H     1 <1>   0.0800 
 32 H        3.1020    -5.4110    -0.4430 H     1 <1>   0.0800 
 33 H        5.7460    -2.9810     0.4220 H     1 <1>   0.0800 
 34 H        5.5520    -3.7650    -1.1200 H     1 <1>   0.0800 
 35 H        5.3390    -4.6780     0.3490 H     1 <1>   0.0800 
@<TRIPOS>BOND
  1   1   2  2   
  2   2   3  am  
  3   2   4  1   
  4   3   5  1   
  5   3  18  1   
  6   4   6  ar  
  7   4   7  ar  
  8   5   8  am  
  9   5  19  1   
 10   6   9  ar  
 11   6  10  1   
 12   7  11  ar  
 13   7  20  1   
 14   8  12  2   
 15   8  13  1   
 16   9  14  ar  
 17   9  21  1   
 18  10  22  1   
 19  10  23  1   
 20  10  24  1   
 21  11  14  ar  
 22  11  25  1   
 23  13  15  1   
 24  13  16  1   
 25  13  17  1   
 26  14  26  1   
 27  15  27  1   
 28  15  28  1   
 29  15  29  1   
 30  16  30  1   
 31  16  31  1   
 32  16  32  1   
 33  17  33  1   
 34  17  34  1   
 35  17  35  1   
@<TRIPOS>SUBSTRUCTURE
  1 ****   2 GROUP 4 **** **** 0

# MOE 2024.06 (io_trps.svl 2023.06)
