@<TRIPOS>MOLECULE
N-{4-[4-(4-Chloro-benzoyl)-piperidine-1-sulfonyl]-phenyl}-acetamide
49 51 1 0 0 
SMALL
USER_CHARGES


@<TRIPOS>ATOM
  1 CL      -3.5020     3.2410    -0.9700 Cl    1 <1>  -0.1770 
  2 C       -1.9880     3.7380    -0.2680 C.ar  1 <1>   0.1770 
  3 C       -0.8540     3.7810    -1.0540 C.ar  1 <1>  -0.1500 
  4 C       -1.9350     4.0800     1.0690 C.ar  1 <1>  -0.1500 
  5 C        0.3480     4.1770    -0.4940 C.ar  1 <1>  -0.1500 
  6 C       -0.7280     4.4760     1.6170 C.ar  1 <1>  -0.1500 
  7 C        0.4440     4.5440     0.8560 C.ar  1 <1>   0.0860 
  8 C        1.6820     4.9720     1.4800 C.2   1 <1>   0.4230 
  9 O        1.8570     4.8900     2.6700 O.2   1 <1>  -0.5700 
 10 C        2.8170     5.5580     0.6310 C.3   1 <1>  -0.0190 
 11 C        3.9040     4.5060     0.3560 C.3   1 <1>  -0.1600 
 12 C        3.4700     6.7870     1.2910 C.3   1 <1>  -0.1600 
 13 C        5.0590     5.1020    -0.4500 C.3   1 <1>   0.1960 
 14 C        4.6460     7.3110     0.4630 C.3   1 <1>   0.1960 
 15 N        5.6340     6.2480     0.2590 N.am  1 <1>  -0.8490 
 16 S        7.0290     6.8360    -0.5080 S.o2  1 <1>   1.4470 
 17 O        6.7420     6.8540    -1.9270 O.2   1 <1>  -0.6500 
 18 O        7.4030     8.0660     0.1550 O.2   1 <1>  -0.6500 
 19 C        8.2700     5.5650    -0.1390 C.ar  1 <1>  -0.0090 
 20 C        8.4330     5.0760     1.1530 C.ar  1 <1>  -0.1500 
 21 C        9.0990     5.0530    -1.1310 C.ar  1 <1>  -0.1500 
 22 C        9.3780     4.1080     1.4420 C.ar  1 <1>  -0.1500 
 23 C       10.0480     4.0860    -0.8470 C.ar  1 <1>  -0.1500 
 24 C       10.1940     3.5950     0.4440 C.ar  1 <1>   0.1170 
 25 N       11.1470     2.6240     0.7590 N.am  1 <1>  -0.5470 
 26 C       11.4250     1.4250     0.1840 C.2   1 <1>   0.5690 
 27 O       12.3300     0.7550     0.6040 O.2   1 <1>  -0.5700 
 28 C       10.6000     0.8980    -0.9670 C.3   1 <1>  -0.1790 
 29 H       -0.9190     3.5030    -2.0920 H     1 <1>   0.1500 
 30 H       -2.8270     4.0360     1.6680 H     1 <1>   0.1500 
 31 H        1.2190     4.1880    -1.1240 H     1 <1>   0.1500 
 32 H       -0.6870     4.7390     2.6620 H     1 <1>   0.1500 
 33 H        2.4140     5.8920    -0.3070 H     1 <1>   0.0800 
 34 H        3.4850     3.6760    -0.1840 H     1 <1>   0.0800 
 35 H        4.2880     4.1290     1.2890 H     1 <1>   0.0800 
 36 H        3.8330     6.5300     2.2730 H     1 <1>   0.0800 
 37 H        2.7400     7.5670     1.4090 H     1 <1>   0.0800 
 38 H        4.7080     5.4090    -1.4230 H     1 <1>   0.0800 
 39 H        5.8140     4.3450    -0.5890 H     1 <1>   0.0800 
 40 H        5.0970     8.1320     0.9970 H     1 <1>   0.0800 
 41 H        4.3010     7.6790    -0.4900 H     1 <1>   0.0800 
 42 H        7.8060     5.4630     1.9410 H     1 <1>   0.1500 
 43 H        9.0030     5.4210    -2.1390 H     1 <1>   0.1500 
 44 H        9.4800     3.7460     2.4500 H     1 <1>   0.1500 
 45 H       10.6850     3.7200    -1.6310 H     1 <1>   0.1500 
 46 H       11.7210     2.7960     1.5860 H     1 <1>   0.3700 
 47 H       10.9600     1.3130    -1.8890 H     1 <1>   0.0800 
 48 H        9.5650     1.1520    -0.8340 H     1 <1>   0.0800 
 49 H       10.6900    -0.1710    -1.0110 H     1 <1>   0.0800 
@<TRIPOS>BOND
  1   1   2  1   
  2   2   3  ar  
  3   2   4  ar  
  4   3   5  ar  
  5   3  29  1   
  6   4   6  ar  
  7   4  30  1   
  8   5   7  ar  
  9   5  31  1   
 10   6   7  ar  
 11   6  32  1   
 12   7   8  1   
 13   8   9  2   
 14   8  10  1   
 15  10  11  1   
 16  10  12  1   
 17  10  33  1   
 18  11  13  1   
 19  11  34  1   
 20  11  35  1   
 21  12  14  1   
 22  12  36  1   
 23  12  37  1   
 24  13  15  1   
 25  13  38  1   
 26  13  39  1   
 27  14  15  1   
 28  14  40  1   
 29  14  41  1   
 30  15  16  am  
 31  16  17  2   
 32  16  18  2   
 33  16  19  1   
 34  19  20  ar  
 35  19  21  ar  
 36  20  22  ar  
 37  20  42  1   
 38  21  23  ar  
 39  21  43  1   
 40  22  24  ar  
 41  22  44  1   
 42  23  24  ar  
 43  23  45  1   
 44  24  25  1   
 45  25  26  am  
 46  25  46  1   
 47  26  27  2   
 48  26  28  1   
 49  28  47  1   
 50  28  48  1   
 51  28  49  1   
@<TRIPOS>SUBSTRUCTURE
  1 ****  13 GROUP 4 **** **** 0

# MOE 2024.06 (io_trps.svl 2023.06)
