@<TRIPOS>MOLECULE
NONAME
42 44 1 0 0 
SMALL
USER_CHARGES


@<TRIPOS>ATOM
  1 CL      -2.6630    -0.3790     1.7680 Cl    1 <1>  -0.1770 
  2 C       -1.8030    -1.3850     0.6260 C.ar  1 <1>   0.1770 
  3 C       -1.5860    -2.7290     0.9000 C.ar  1 <1>  -0.1440 
  4 C       -1.3810    -0.8060    -0.5560 C.ar  1 <1>  -0.1500 
  5 C       -0.9260    -3.4940    -0.0530 C.ar  1 <1>  -0.1500 
  6 C       -2.0370    -3.3810     2.2010 C.3   1 <1>   0.2140 
  7 C       -0.7290    -1.5820    -1.4970 C.ar  1 <1>  -0.1500 
  8 C       -0.5040    -2.9250    -1.2430 C.ar  1 <1>  -0.1500 
  9 S       -3.2600    -4.7130     1.8100 S.3   1 <1>  -0.3220 
 10 C       -4.6230    -3.9260     1.0090 C.cat 1 <1>   0.8920 
 11 N       -4.7450    -2.6210     0.8360 N.pl3 1 <1>  -0.7000 
 12 N       -5.6540    -4.5890     0.5140 N.pl3 1 <1>  -0.7640 
 13 C       -5.9170    -2.4210     0.1800 C.2   1 <1>   0.4260 
 14 C       -6.5070    -3.6240    -0.0350 C.2   1 <1>   0.2770 
 15 C       -5.9030    -6.0510     0.5110 C.3   1 <1>   0.3540 
 16 N       -6.4570    -1.2170    -0.2280 N.am  1 <1>  -0.4360 
 17 C       -7.7640    -3.6560    -0.7250 C.2   1 <1>   0.7030 
 18 C       -6.8190    -6.3990     1.6780 C.3   1 <1>  -0.2400 
 19 C       -7.6720    -1.2410    -0.9010 C.2   1 <1>   0.6900 
 20 C       -5.7390     0.0670     0.0350 C.3   1 <1>   0.0600 
 21 O       -8.3270    -4.7110    -0.9640 O.2   1 <1>  -0.5700 
 22 N       -8.3250    -2.4490    -1.1220 N.am  1 <1>  -0.4200 
 23 O       -8.1640    -0.2060    -1.3000 O.2   1 <1>  -0.5700 
 24 C       -9.6380    -2.4380    -1.8420 C.3   1 <1>   0.0600 
 25 H       -1.5550     0.2400    -0.7400 H     1 <1>   0.1500 
 26 H       -0.7300    -4.5390     0.1240 H     1 <1>   0.1500 
 27 H       -2.5060    -2.7010     2.8880 H     1 <1>   0.0800 
 28 H       -1.2060    -3.8570     2.6920 H     1 <1>   0.0800 
 29 H       -0.3920    -1.1450    -2.4220 H     1 <1>   0.1500 
 30 H        0.0080    -3.5280    -1.9750 H     1 <1>   0.1500 
 31 H       -4.0770    -1.9060     1.1220 H     1 <1>   0.4500 
 32 H       -4.9730    -6.5890     0.6040 H     1 <1>   0.0800 
 33 H       -6.3630    -6.3430    -0.4190 H     1 <1>   0.0800 
 34 H       -6.3650    -6.1240     2.6130 H     1 <1>   0.0800 
 35 H       -6.9970    -7.4600     1.6890 H     1 <1>   0.0800 
 36 H       -7.7680    -5.9040     1.5760 H     1 <1>   0.0800 
 37 H       -4.7890     0.0650    -0.4700 H     1 <1>   0.0800 
 38 H       -5.5820     0.1890     1.0930 H     1 <1>   0.0800 
 39 H       -6.3070     0.9120    -0.3180 H     1 <1>   0.0800 
 40 H      -10.2070    -3.3260    -1.6260 H     1 <1>   0.0800 
 41 H       -9.4670    -2.3820    -2.9030 H     1 <1>   0.0800 
 42 H      -10.2220    -1.5850    -1.5390 H     1 <1>   0.0800 
@<TRIPOS>BOND
  1   1   2  1   
  2   2   3  ar  
  3   2   4  ar  
  4   3   5  ar  
  5   3   6  1   
  6   4   7  ar  
  7   4  25  1   
  8   5   8  ar  
  9   5  26  1   
 10   6   9  1   
 11   6  27  1   
 12   6  28  1   
 13   7   8  ar  
 14   7  29  1   
 15   8  30  1   
 16   9  10  1   
 17  10  11  ar  
 18  10  12  ar  
 19  11  13  1   
 20  11  31  1   
 21  12  14  1   
 22  12  15  1   
 23  13  14  2   
 24  13  16  1   
 25  14  17  1   
 26  15  18  1   
 27  15  32  1   
 28  15  33  1   
 29  16  19  am  
 30  16  20  1   
 31  17  21  2   
 32  17  22  am  
 33  18  34  1   
 34  18  35  1   
 35  18  36  1   
 36  19  22  am  
 37  19  23  2   
 38  20  37  1   
 39  20  38  1   
 40  20  39  1   
 41  22  24  1   
 42  24  40  1   
 43  24  41  1   
 44  24  42  1   
@<TRIPOS>SUBSTRUCTURE
  1 ****  11 GROUP 4 **** **** 0

# MOE 2024.06 (io_trps.svl 2023.06)
