@<TRIPOS>MOLECULE
8660
48 49 1 0 0 
SMALL
USER_CHARGES


@<TRIPOS>ATOM
  1 O        0.0170    -0.9310     1.0620 O.2   1 <1>  -0.5700 
  2 C       -0.0620    -2.1160     0.8040 C.2   1 <1>   0.6340 
  3 O       -1.2530    -2.7120     0.9580 O.3   1 <1>  -0.4300 
  4 C        1.0840    -2.8970     0.3790 C.ar  1 <1>   0.0860 
  5 C       -2.3710    -1.9920     1.4400 C.3   1 <1>   0.1200 
  6 C        1.0000    -4.1160    -0.3280 C.ar  1 <1>   0.1170 
  7 C        2.3610    -2.4110     0.6870 C.ar  1 <1>  -0.1500 
  8 C       -3.5900    -2.9070     1.4320 C.3   1 <1>  -0.2400 
  9 N       -0.2420    -4.6660    -0.6880 N.am  1 <1>  -0.5470 
 10 C        2.1760    -4.7890    -0.6600 C.ar  1 <1>  -0.1500 
 11 C        3.5120    -3.0850     0.3390 C.ar  1 <1>  -0.1500 
 12 C       -0.6170    -5.5700    -1.6510 C.2   1 <1>   0.5690 
 13 C        3.4180    -4.2850    -0.3370 C.ar  1 <1>  -0.1500 
 14 O        0.1380    -6.0150    -2.4810 O.2   1 <1>  -0.5700 
 15 C       -2.0640    -6.0390    -1.6760 C.3   1 <1>   0.1810 
 16 O       -2.8320    -5.3560    -0.6960 O.3   1 <1>  -0.3630 
 17 C       -3.8020    -6.0780    -0.0960 C.ar  1 <1>   0.0830 
 18 C       -5.0900    -6.0990    -0.6310 C.ar  1 <1>  -0.1430 
 19 C       -3.4870    -6.7840     1.0610 C.ar  1 <1>  -0.1430 
 20 C       -6.0640    -6.8770    -0.0130 C.ar  1 <1>  -0.1430 
 21 C       -5.4240    -5.2790    -1.8770 C.3   1 <1>  -0.0970 
 22 C       -4.4710    -7.5440     1.6670 C.ar  1 <1>  -0.1500 
 23 C       -2.0920    -6.7350     1.6720 C.3   1 <1>  -0.0970 
 24 C       -5.7440    -7.5920     1.1320 C.ar  1 <1>  -0.1500 
 25 C       -7.4850    -6.9740    -0.5520 C.3   1 <1>  -0.0970 
 26 H       -2.5310    -1.1380     0.8020 H     1 <1>   0.0800 
 27 H       -2.1490    -1.6560     2.4390 H     1 <1>   0.0800 
 28 H        2.4520    -1.4760     1.2150 H     1 <1>   0.1500 
 29 H       -3.8400    -3.1840     0.4250 H     1 <1>   0.0800 
 30 H       -4.4320    -2.3910     1.8560 H     1 <1>   0.0800 
 31 H       -3.4040    -3.7900     2.0160 H     1 <1>   0.0800 
 32 H       -1.0480    -4.3010    -0.1600 H     1 <1>   0.3700 
 33 H        2.1310    -5.7270    -1.1810 H     1 <1>   0.1500 
 34 H        4.4780    -2.6820     0.5910 H     1 <1>   0.1500 
 35 H        4.3090    -4.8240    -0.6120 H     1 <1>   0.1500 
 36 H       -2.0970    -7.0950    -1.4770 H     1 <1>   0.0800 
 37 H       -2.4980    -5.8440    -2.6380 H     1 <1>   0.0800 
 38 H       -6.3980    -4.8340    -1.7890 H     1 <1>   0.0800 
 39 H       -5.4060    -5.9120    -2.7440 H     1 <1>   0.0800 
 40 H       -4.7240    -4.4760    -2.0210 H     1 <1>   0.0800 
 41 H       -4.2540    -8.1040     2.5600 H     1 <1>   0.1500 
 42 H       -1.7630    -5.7160     1.7600 H     1 <1>   0.0800 
 43 H       -1.3990    -7.2730     1.0510 H     1 <1>   0.0800 
 44 H       -2.0860    -7.1760     2.6520 H     1 <1>   0.0800 
 45 H       -6.4910    -8.1940     1.6190 H     1 <1>   0.1500 
 46 H       -7.4700    -7.1990    -1.6030 H     1 <1>   0.0800 
 47 H       -7.9990    -6.0420    -0.3970 H     1 <1>   0.0800 
 48 H       -8.0340    -7.7510    -0.0530 H     1 <1>   0.0800 
@<TRIPOS>BOND
  1   1   2  2   
  2   2   3  1   
  3   2   4  1   
  4   3   5  1   
  5   4   6  ar  
  6   4   7  ar  
  7   5   8  1   
  8   5  26  1   
  9   5  27  1   
 10   6   9  1   
 11   6  10  ar  
 12   7  11  ar  
 13   7  28  1   
 14   8  29  1   
 15   8  30  1   
 16   8  31  1   
 17   9  12  am  
 18   9  32  1   
 19  10  13  ar  
 20  10  33  1   
 21  11  13  ar  
 22  11  34  1   
 23  12  14  2   
 24  12  15  1   
 25  13  35  1   
 26  15  16  1   
 27  15  36  1   
 28  15  37  1   
 29  16  17  1   
 30  17  18  ar  
 31  17  19  ar  
 32  18  20  ar  
 33  18  21  1   
 34  19  22  ar  
 35  19  23  1   
 36  20  24  ar  
 37  20  25  1   
 38  21  38  1   
 39  21  39  1   
 40  21  40  1   
 41  22  24  ar  
 42  22  41  1   
 43  23  42  1   
 44  23  43  1   
 45  23  44  1   
 46  24  45  1   
 47  25  46  1   
 48  25  47  1   
 49  25  48  1   
@<TRIPOS>SUBSTRUCTURE
  1 ****  16 GROUP 4 **** **** 0

# MOE 2024.06 (io_trps.svl 2023.06)
