@<TRIPOS>MOLECULE
ka-05108
40 42 1 0 0 
SMALL
USER_CHARGES


@<TRIPOS>ATOM
  1 O        0.3510     0.3090     0.2670 O.2   1 <1>  -0.5700 
  2 C        1.3890     0.9410     0.3480 C.2   1 <1>   0.6900 
  3 N        2.5580     0.4240    -0.1760 N.am  1 <1>  -0.4690 
  4 N        1.4130     2.1800     0.9400 N.am  1 <1>  -0.4200 
  5 C        3.7730     1.0480     0.0550 C.2   1 <1>   0.2180 
  6 C        2.4130    -0.6180    -1.2390 C.3   1 <1>   0.0600 
  7 C        2.5630     2.9550     0.9080 C.2   1 <1>   0.6160 
  8 C        0.1670     2.7260     1.5620 C.3   1 <1>   0.0600 
  9 N        4.9510     0.3320    -0.0590 N.am  1 <1>  -0.4690 
 10 C        3.7890     2.3950     0.4000 C.2   1 <1>   0.0140 
 11 O        2.4660     4.0920     1.3480 O.2   1 <1>  -0.5700 
 12 C        6.1570     1.0040    -0.1730 C.2   1 <1>   0.6160 
 13 C        5.0230    -1.1380     0.2090 C.3   1 <1>   0.0600 
 14 C        5.0300     3.1080     0.2580 C.2   1 <1>   0.1000 
 15 O        7.1920     0.3800    -0.4000 O.2   1 <1>  -0.5700 
 16 C        6.1620     2.3940    -0.0240 C.2   1 <1>  -0.1360 
 17 N        5.1380     4.4860     0.3500 N.pl3 1 <1>  -0.8380 
 18 C        6.1860     5.1840     1.1510 C.3   1 <1>   0.2090 
 19 C        4.3430     5.4180    -0.5040 C.3   1 <1>   0.2090 
 20 C        7.0210     6.1170     0.2530 C.3   1 <1>   0.1200 
 21 C        5.2780     6.3400    -1.3100 C.3   1 <1>   0.1200 
 22 O        6.1990     6.9900    -0.4750 O.3   1 <1>  -0.5600 
 23 H        1.5480    -0.4070    -1.8450 H     1 <1>   0.0800 
 24 H        2.2850    -1.5840    -0.7830 H     1 <1>   0.0800 
 25 H        3.2760    -0.6290    -1.8800 H     1 <1>   0.0800 
 26 H       -0.5040     1.9310     1.8380 H     1 <1>   0.0800 
 27 H       -0.3250     3.3770     0.8630 H     1 <1>   0.0800 
 28 H        0.4110     3.2830     2.4510 H     1 <1>   0.0800 
 29 H        4.1420    -1.4730     0.7270 H     1 <1>   0.0800 
 30 H        5.8750    -1.3570     0.8290 H     1 <1>   0.0800 
 31 H        5.1260    -1.6700    -0.7190 H     1 <1>   0.0800 
 32 H        7.1060     2.8810    -0.1560 H     1 <1>   0.1500 
 33 H        5.7080     5.7680     1.9190 H     1 <1>   0.0800 
 34 H        6.8270     4.4670     1.6340 H     1 <1>   0.0800 
 35 H        3.7060     6.0190     0.1220 H     1 <1>   0.0800 
 36 H        3.7180     4.8580    -1.1770 H     1 <1>   0.0800 
 37 H        7.6080     5.5420    -0.4400 H     1 <1>   0.0800 
 38 H        7.6820     6.7140     0.8550 H     1 <1>   0.0800 
 39 H        5.8220     5.7690    -2.0420 H     1 <1>   0.0800 
 40 H        4.7040     7.0950    -1.8160 H     1 <1>   0.0800 
@<TRIPOS>BOND
  1   1   2  2   
  2   2   3  am  
  3   2   4  am  
  4   3   5  1   
  5   3   6  1   
  6   4   7  am  
  7   4   8  1   
  8   5   9  1   
  9   5  10  2   
 10   6  23  1   
 11   6  24  1   
 12   6  25  1   
 13   7  10  1   
 14   7  11  2   
 15   8  26  1   
 16   8  27  1   
 17   8  28  1   
 18   9  12  am  
 19   9  13  1   
 20  10  14  1   
 21  12  15  2   
 22  12  16  1   
 23  13  29  1   
 24  13  30  1   
 25  13  31  1   
 26  14  16  2   
 27  14  17  1   
 28  16  32  1   
 29  17  18  1   
 30  17  19  1   
 31  18  20  1   
 32  18  33  1   
 33  18  34  1   
 34  19  21  1   
 35  19  35  1   
 36  19  36  1   
 37  20  22  1   
 38  20  37  1   
 39  20  38  1   
 40  21  22  1   
 41  21  39  1   
 42  21  40  1   
@<TRIPOS>SUBSTRUCTURE
  1 ****  10 GROUP 4 **** **** 0

# MOE 2024.06 (io_trps.svl 2023.06)
