@<TRIPOS>MOLECULE
Furan-2-carboxylic acid cyclohexylcarbamoyl-pyridin-4-yl-methyl ester
44 46 1 0 0 
SMALL
USER_CHARGES


@<TRIPOS>ATOM
  1 O        2.2290     2.3400    -1.3150 O.2   1 <1>  -0.5700 
  2 C        1.6740     2.1680    -0.2450 C.2   1 <1>   0.8050 
  3 O        1.8610     1.0100     0.3880 O.3   1 <1>  -0.4300 
  4 C        0.8200     3.1350     0.3990 C.2   1 <1>   0.0550 
  5 C        2.7050    -0.0050    -0.1390 C.3   1 <1>   0.4040 
  6 O        0.5870     4.3270    -0.1460 O.3   1 <1>  -0.2800 
  7 C        0.1340     3.0650     1.5760 C.2   1 <1>  -0.1500 
  8 C        2.2280    -1.3330     0.4520 C.ar  1 <1>  -0.1440 
  9 C        4.1950     0.3370     0.1020 C.2   1 <1>   0.5690 
 10 C       -0.2170     5.0070     0.6390 C.2   1 <1>  -0.0100 
 11 C       -0.5370     4.2790     1.7290 C.2   1 <1>  -0.1500 
 12 C        1.7170    -2.3410    -0.3450 C.ar  1 <1>  -0.1500 
 13 C        2.2660    -1.5980     1.8080 C.ar  1 <1>  -0.1500 
 14 O        4.8090    -0.2120     0.9890 O.2   1 <1>  -0.5700 
 15 N        4.7830     1.2760    -0.6990 N.am  1 <1>  -0.7300 
 16 C        1.2830    -3.5220     0.2350 C.ar  1 <1>   0.1600 
 17 C        1.8090    -2.8140     2.2860 C.ar  1 <1>   0.1600 
 18 C        6.1680     1.7910    -0.6610 C.3   1 <1>   0.2200 
 19 N        1.3140    -3.7820     1.5310 N.ar  1 <1>  -0.6200 
 20 C        7.1830     0.6690    -0.9160 C.3   1 <1>  -0.1600 
 21 C        6.4440     2.5180     0.6600 C.3   1 <1>  -0.1600 
 22 C        8.6200     1.2120    -0.8790 C.3   1 <1>  -0.1600 
 23 C        7.8810     3.0600     0.6990 C.3   1 <1>  -0.1600 
 24 C        8.9010     1.9410     0.4430 C.3   1 <1>  -0.1600 
 25 H        2.5470    -0.0460    -1.2020 H     1 <1>   0.0800 
 26 H        0.1000     2.2430     2.2700 H     1 <1>   0.1500 
 27 H       -0.5130     6.0010     0.3500 H     1 <1>   0.1500 
 28 H       -1.1720     4.5510     2.5550 H     1 <1>   0.1500 
 29 H        1.6490    -2.2260    -1.4110 H     1 <1>   0.1500 
 30 H        2.6550    -0.8680     2.4960 H     1 <1>   0.1500 
 31 H        4.1650     1.8090    -1.3270 H     1 <1>   0.3700 
 32 H        0.8890    -4.2950    -0.4020 H     1 <1>   0.1500 
 33 H        1.8540    -3.0000     3.3450 H     1 <1>   0.1500 
 34 H        6.2690     2.5080    -1.4580 H     1 <1>   0.0800 
 35 H        6.9930     0.2210    -1.8750 H     1 <1>   0.0800 
 36 H        7.0850    -0.0900    -0.1600 H     1 <1>   0.0800 
 37 H        6.3110     1.8370     1.4830 H     1 <1>   0.0800 
 38 H        5.7510     3.3320     0.7760 H     1 <1>   0.0800 
 39 H        8.7670     1.8930    -1.7000 H     1 <1>   0.0800 
 40 H        9.3150     0.3990    -0.9960 H     1 <1>   0.0800 
 41 H        8.0700     3.5070     1.6590 H     1 <1>   0.0800 
 42 H        7.9950     3.8250    -0.0500 H     1 <1>   0.0800 
 43 H        9.8940     2.3560     0.4220 H     1 <1>   0.0800 
 44 H        8.8580     1.2320     1.2530 H     1 <1>   0.0800 
@<TRIPOS>BOND
  1   1   2  2   
  2   2   3  1   
  3   2   4  1   
  4   3   5  1   
  5   4   6  1   
  6   4   7  2   
  7   5   8  1   
  8   5   9  1   
  9   5  25  1   
 10   6  10  1   
 11   7  11  1   
 12   7  26  1   
 13   8  12  ar  
 14   8  13  ar  
 15   9  14  2   
 16   9  15  am  
 17  10  11  2   
 18  10  27  1   
 19  11  28  1   
 20  12  16  ar  
 21  12  29  1   
 22  13  17  ar  
 23  13  30  1   
 24  15  18  1   
 25  15  31  1   
 26  16  19  ar  
 27  16  32  1   
 28  17  19  ar  
 29  17  33  1   
 30  18  20  1   
 31  18  21  1   
 32  18  34  1   
 33  20  22  1   
 34  20  35  1   
 35  20  36  1   
 36  21  23  1   
 37  21  37  1   
 38  21  38  1   
 39  22  24  1   
 40  22  39  1   
 41  22  40  1   
 42  23  24  1   
 43  23  41  1   
 44  23  42  1   
 45  24  43  1   
 46  24  44  1   
@<TRIPOS>SUBSTRUCTURE
  1 ****   9 GROUP 4 **** **** 0

# MOE 2024.06 (io_trps.svl 2023.06)
