@<TRIPOS>MOLECULE
14924
35 35 1 0 0 
SMALL
USER_CHARGES


@<TRIPOS>ATOM
  1 S        0.6650    -0.9480    -0.9180 S.3   1 <1>  -0.3310 
  2 C       -1.0870    -1.4090    -0.7250 C.2   1 <1>   0.2720 
  3 C        1.1120     0.1790     0.4930 C.3   1 <1>   0.2110 
  4 N       -1.4460    -2.4260    -1.4910 N.2   1 <1>  -0.1710 
  5 C       -1.9660    -0.7350     0.1520 C.2   1 <1>  -0.0410 
  6 C        2.4530     0.8470     0.1850 C.2   1 <1>   0.6590 
  7 C        1.1520    -0.6680     1.7770 C.3   1 <1>  -0.2400 
  8 N       -2.6970    -2.8600    -1.4460 N.2   1 <1>  -0.2110 
  9 O       -1.7740     0.2220     0.8990 O.3   1 <1>  -0.8500 
 10 N       -3.2300    -1.2110     0.1740 N.am  1 <1>  -0.5390 
 11 O        2.5740     2.0460     0.0970 O.2   1 <1>  -0.5700 
 12 O        3.5020     0.0410     0.0390 O.3   1 <1>  -0.4300 
 13 C       -3.5930    -2.2580    -0.6180 C.2   1 <1>   0.8410 
 14 C        4.7840     0.5430    -0.2560 C.3   1 <1>   0.1200 
 15 O       -4.7610    -2.6450    -0.5610 O.2   1 <1>  -0.5700 
 16 C        5.7470    -0.6410    -0.3620 C.3   1 <1>  -0.1600 
 17 C        7.1640    -0.2260    -0.7960 C.3   1 <1>  -0.0800 
 18 C        8.0280    -1.4750    -1.0060 C.3   1 <1>  -0.2400 
 19 C        7.8360     0.6930     0.2340 C.3   1 <1>  -0.2400 
 20 H        0.3640     0.9450     0.5430 H     1 <1>   0.0800 
 21 H        1.8760    -1.4560     1.6860 H     1 <1>   0.0800 
 22 H        0.1840    -1.0990     1.9590 H     1 <1>   0.0800 
 23 H        1.4050    -0.0440     2.6140 H     1 <1>   0.0800 
 24 H       -3.9000    -0.7530     0.7770 H     1 <1>   0.3700 
 25 H        5.0680     1.2150     0.5350 H     1 <1>   0.0800 
 26 H        4.7270     1.0810    -1.1870 H     1 <1>   0.0800 
 27 H        5.3490    -1.3300    -1.0870 H     1 <1>   0.0800 
 28 H        5.7920    -1.1420     0.5890 H     1 <1>   0.0800 
 29 H        7.1000     0.2990    -1.7350 H     1 <1>   0.0800 
 30 H        8.1220    -2.0310    -0.0900 H     1 <1>   0.0800 
 31 H        9.0110    -1.1970    -1.3420 H     1 <1>   0.0800 
 32 H        7.5870    -2.1130    -1.7520 H     1 <1>   0.0800 
 33 H        7.8710     0.2180     1.1990 H     1 <1>   0.0800 
 34 H        7.3060     1.6230     0.3250 H     1 <1>   0.0800 
 35 H        8.8430     0.9180    -0.0710 H     1 <1>   0.0800 
@<TRIPOS>BOND
  1   1   2  1   
  2   1   3  1   
  3   2   4  1   
  4   2   5  2   
  5   3   6  1   
  6   3   7  1   
  7   3  20  1   
  8   4   8  2   
  9   5   9  1   
 10   5  10  1   
 11   6  11  2   
 12   6  12  1   
 13   7  21  1   
 14   7  22  1   
 15   7  23  1   
 16   8  13  1   
 17  10  13  am  
 18  10  24  1   
 19  12  14  1   
 20  13  15  2   
 21  14  16  1   
 22  14  25  1   
 23  14  26  1   
 24  16  17  1   
 25  16  27  1   
 26  16  28  1   
 27  17  18  1   
 28  17  19  1   
 29  17  29  1   
 30  18  30  1   
 31  18  31  1   
 32  18  32  1   
 33  19  33  1   
 34  19  34  1   
 35  19  35  1   
@<TRIPOS>SUBSTRUCTURE
  1 ****   1 GROUP 4 **** **** 0

# MOE 2024.06 (io_trps.svl 2023.06)
