@<TRIPOS>MOLECULE
NONAME
62 64 1 0 0 
SMALL
USER_CHARGES


@<TRIPOS>ATOM
  1 O        0.2570    -0.2690     0.1260 O.2   1 <1>  -0.5740 
  2 C        1.3720    -0.7490     0.1430 C.2   1 <1>   0.6870 
  3 N        2.4630     0.0430     0.4900 N.am  1 <1>  -0.4250 
  4 N        1.5590    -2.0850    -0.1860 N.am  1 <1>  -0.4400 
  5 C        3.7540    -0.4710     0.4880 C.2   1 <1>   0.7000 
  6 C        2.2270     1.4790     0.8410 C.3   1 <1>   0.0540 
  7 C        2.8460    -2.5810    -0.1740 C.2   1 <1>   0.4220 
  8 C        0.4160    -2.9820    -0.5350 C.3   1 <1>   0.0540 
  9 O        4.7130     0.2290     0.7660 O.2   1 <1>  -0.5740 
 10 C        3.9320    -1.8500     0.1460 C.2   1 <1>   0.2720 
 11 N        3.2520    -3.8400    -0.4630 N.pl3 1 <1>  -0.7030 
 12 N        5.0420    -2.7130     0.0520 N.pl3 1 <1>  -0.7670 
 13 C        4.5680    -3.9080    -0.3260 C.cat 1 <1>   1.0690 
 14 C        6.4250    -2.2360     0.3580 C.3   1 <1>   0.4930 
 15 N        5.2660    -5.0240    -0.5360 N.pl3 1 <1>  -0.7170 
 16 C        7.4170    -3.3790     0.2220 C.ar  1 <1>  -0.1490 
 17 C        4.7900    -6.3200    -1.0830 C.3   1 <1>   0.1620 
 18 C        8.0270    -3.6840    -0.9920 C.ar  1 <1>  -0.1490 
 19 C        7.6570    -4.1760     1.3330 C.ar  1 <1>  -0.1560 
 20 C        4.1470    -7.1870     0.0130 C.3   1 <1>   0.1340 
 21 C        8.8500    -4.7950    -1.0730 C.ar  1 <1>  -0.1560 
 22 C        7.8170    -2.8410    -2.2440 C.3   1 <1>  -0.1030 
 23 C        8.4750    -5.2870     1.2430 C.ar  1 <1>  -0.1490 
 24 N        2.9340    -7.8730    -0.4970 N.am  1 <1>  -0.7330 
 25 C        9.0700    -5.5930     0.0330 C.ar  1 <1>  -0.1560 
 26 C        8.7330    -6.1570     2.4610 C.3   1 <1>  -0.1030 
 27 C        1.7690    -7.2610    -0.8300 C.2   1 <1>   0.5650 
 28 O        1.6710    -6.0560    -0.8380 O.2   1 <1>  -0.5740 
 29 C        0.5770    -8.1170    -1.2070 C.3   1 <1>  -0.1050 
 30 C       -0.1000    -8.7370     0.0250 C.3   1 <1>  -0.1660 
 31 C       -1.3020    -9.5970    -0.3770 C.3   1 <1>  -0.2450 
 32 H        1.3480     1.5680     1.4570 H     1 <1>   0.0740 
 33 H        2.0790     2.0490    -0.0590 H     1 <1>   0.0740 
 34 H        3.0600     1.8900     1.3840 H     1 <1>   0.0740 
 35 H       -0.5130    -2.4390    -0.5540 H     1 <1>   0.0740 
 36 H        0.3360    -3.7700     0.1940 H     1 <1>   0.0740 
 37 H        0.5740    -3.4170    -1.5060 H     1 <1>   0.0740 
 38 H        2.6470    -4.6430    -0.6890 H     1 <1>   0.4460 
 39 H        6.4550    -1.8520     1.3640 H     1 <1>   0.0740 
 40 H        6.6860    -1.4270    -0.3030 H     1 <1>   0.0740 
 41 H        6.2840    -4.9620    -0.3730 H     1 <1>   0.4460 
 42 H        5.6230    -6.8490    -1.5160 H     1 <1>   0.0740 
 43 H        4.0800    -6.1270    -1.8690 H     1 <1>   0.0740 
 44 H        7.2020    -3.9410     2.2810 H     1 <1>   0.1440 
 45 H        3.8580    -6.5760     0.8510 H     1 <1>   0.0740 
 46 H        4.8540    -7.9220     0.3590 H     1 <1>   0.0740 
 47 H        9.3370    -5.0480    -2.0000 H     1 <1>   0.1440 
 48 H        6.7710    -2.7570    -2.4790 H     1 <1>   0.0740 
 49 H        8.3120    -3.2820    -3.0920 H     1 <1>   0.0740 
 50 H        8.2280    -1.8570    -2.1000 H     1 <1>   0.0740 
 51 H        2.9540    -8.8970    -0.4730 H     1 <1>   0.3650 
 52 H        9.7180    -6.4500    -0.0500 H     1 <1>   0.1440 
 53 H        7.9040    -6.1150     3.1440 H     1 <1>   0.0740 
 54 H        9.6170    -5.8140     2.9700 H     1 <1>   0.0740 
 55 H        8.8820    -7.1810     2.1690 H     1 <1>   0.0740 
 56 H        0.9030    -8.8940    -1.8750 H     1 <1>   0.0740 
 57 H       -0.1330    -7.5070    -1.7360 H     1 <1>   0.0740 
 58 H       -0.4320    -7.9520     0.6830 H     1 <1>   0.0740 
 59 H        0.6050    -9.3470     0.5630 H     1 <1>   0.0740 
 60 H       -2.0350    -9.0040    -0.8950 H     1 <1>   0.0740 
 61 H       -1.7620   -10.0170     0.5000 H     1 <1>   0.0740 
 62 H       -0.9930   -10.4040    -1.0190 H     1 <1>   0.0740 
@<TRIPOS>BOND
  1   1   2  2   
  2   2   3  am  
  3   2   4  am  
  4   3   5  am  
  5   3   6  1   
  6   4   7  1   
  7   4   8  1   
  8   5   9  2   
  9   5  10  1   
 10   6  32  1   
 11   6  33  1   
 12   6  34  1   
 13   7  10  2   
 14   7  11  1   
 15   8  35  1   
 16   8  36  1   
 17   8  37  1   
 18  10  12  1   
 19  11  13  ar  
 20  11  38  1   
 21  12  13  ar  
 22  12  14  1   
 23  13  15  ar  
 24  14  16  1   
 25  14  39  1   
 26  14  40  1   
 27  15  17  1   
 28  15  41  1   
 29  16  18  ar  
 30  16  19  ar  
 31  17  20  1   
 32  17  42  1   
 33  17  43  1   
 34  18  21  ar  
 35  18  22  1   
 36  19  23  ar  
 37  19  44  1   
 38  20  24  1   
 39  20  45  1   
 40  20  46  1   
 41  21  25  ar  
 42  21  47  1   
 43  22  48  1   
 44  22  49  1   
 45  22  50  1   
 46  23  25  ar  
 47  23  26  1   
 48  24  27  am  
 49  24  51  1   
 50  25  52  1   
 51  26  53  1   
 52  26  54  1   
 53  26  55  1   
 54  27  28  2   
 55  27  29  1   
 56  29  30  1   
 57  29  56  1   
 58  29  57  1   
 59  30  31  1   
 60  30  58  1   
 61  30  59  1   
 62  31  60  1   
 63  31  61  1   
 64  31  62  1   
@<TRIPOS>SUBSTRUCTURE
  1 ****  13 GROUP 4 **** **** 0

# MOE 2024.06 (io_trps.svl 2023.06)
