@<TRIPOS>MOLECULE
NONAME
50 52 1 0 0 
SMALL
USER_CHARGES


@<TRIPOS>ATOM
  1 CL      -0.9650    -0.6740    -0.2630 Cl    1 <1>  -0.1840 
  2 C       -2.0050     0.7230    -0.2070 C.ar  1 <1>   0.1700 
  3 C       -2.2400     1.3460     1.0030 C.ar  1 <1>  -0.1580 
  4 C       -2.5860     1.1830    -1.3730 C.ar  1 <1>  -0.1580 
  5 C       -3.0790     2.4460     1.0490 C.ar  1 <1>  -0.1580 
  6 C       -3.4250     2.2830    -1.3250 C.ar  1 <1>  -0.1580 
  7 C       -3.6830     2.9130    -0.1130 C.ar  1 <1>  -0.1510 
  8 C       -4.6540     4.0800    -0.0530 C.3   1 <1>   0.4920 
  9 N       -6.0590     3.6010     0.1130 N.pl3 1 <1>  -0.7680 
 10 C       -6.5870     2.3840     0.2920 C.cat 1 <1>   1.0690 
 11 C       -7.1380     4.5090     0.1030 C.2   1 <1>   0.2700 
 12 N       -7.9060     2.4760     0.3840 N.pl3 1 <1>  -0.7040 
 13 N       -5.9270     1.2290     0.3620 N.pl3 1 <1>  -0.7180 
 14 C       -7.2580     5.9280    -0.0400 C.2   1 <1>   0.6990 
 15 C       -8.2590     3.7790     0.2680 C.2   1 <1>   0.4200 
 16 C       -6.4660    -0.1160     0.6980 C.3   1 <1>   0.1600 
 17 O       -6.2660     6.6220    -0.1960 O.2   1 <1>  -0.5750 
 18 N       -8.5290     6.4870     0.0010 N.am  1 <1>  -0.4260 
 19 N       -9.5290     4.3160     0.2970 N.am  1 <1>  -0.4420 
 20 C       -7.1120    -0.7840    -0.5280 C.3   1 <1>   0.1320 
 21 C       -9.6610     5.6900     0.1440 C.2   1 <1>   0.6860 
 22 C       -8.7020     7.9660    -0.1460 C.3   1 <1>   0.0520 
 23 C      -10.7170     3.4250     0.4610 C.3   1 <1>   0.0520 
 24 N       -8.3550    -1.4950    -0.1430 N.am  1 <1>  -0.7340 
 25 O      -10.7640     6.1960     0.1300 O.2   1 <1>  -0.5750 
 26 C       -9.5260    -0.9160     0.2380 C.2   1 <1>   0.5640 
 27 O       -9.5990     0.2840     0.3900 O.2   1 <1>  -0.5750 
 28 C      -10.7600    -1.7770     0.4880 C.3   1 <1>   0.1840 
 29 CL     -10.3640    -3.4960     0.4010 Cl    1 <1>  -0.2970 
 30 H       -1.7650     0.9730     1.8940 H     1 <1>   0.1420 
 31 H       -2.3760     0.6860    -2.3040 H     1 <1>   0.1420 
 32 H       -3.2550     2.9290     1.9980 H     1 <1>   0.1420 
 33 H       -3.8720     2.6400    -2.2400 H     1 <1>   0.1420 
 34 H       -4.5770     4.6570    -0.9600 H     1 <1>   0.0720 
 35 H       -4.3970     4.7280     0.7690 H     1 <1>   0.0720 
 36 H       -8.5470     1.6740     0.4680 H     1 <1>   0.4440 
 37 H       -4.9090     1.2770     0.2340 H     1 <1>   0.4440 
 38 H       -7.1910    -0.0120     1.4880 H     1 <1>   0.0720 
 39 H       -5.6670    -0.7380     1.0660 H     1 <1>   0.0720 
 40 H       -6.4230    -1.4840    -0.9700 H     1 <1>   0.0720 
 41 H       -7.3650    -0.0440    -1.2680 H     1 <1>   0.0720 
 42 H       -7.7930     8.4900     0.0930 H     1 <1>   0.0720 
 43 H       -9.4750     8.3150     0.5170 H     1 <1>   0.0720 
 44 H       -8.9850     8.1960    -1.1580 H     1 <1>   0.0720 
 45 H      -10.8290     2.8040    -0.4110 H     1 <1>   0.0720 
 46 H      -11.6180     4.0000     0.5910 H     1 <1>   0.0720 
 47 H      -10.5890     2.7980     1.3270 H     1 <1>   0.0720 
 48 H       -8.3450    -2.5200    -0.2480 H     1 <1>   0.3640 
 49 H      -11.5100    -1.5800    -0.2550 H     1 <1>   0.0720 
 50 H      -11.1580    -1.5860     1.4680 H     1 <1>   0.0720 
@<TRIPOS>BOND
  1   1   2  1   
  2   2   3  ar  
  3   2   4  ar  
  4   3   5  ar  
  5   3  30  1   
  6   4   6  ar  
  7   4  31  1   
  8   5   7  ar  
  9   5  32  1   
 10   6   7  ar  
 11   6  33  1   
 12   7   8  1   
 13   8   9  1   
 14   8  34  1   
 15   8  35  1   
 16   9  10  ar  
 17   9  11  1   
 18  10  12  ar  
 19  10  13  ar  
 20  11  14  1   
 21  11  15  2   
 22  12  15  1   
 23  12  36  1   
 24  13  16  1   
 25  13  37  1   
 26  14  17  2   
 27  14  18  am  
 28  15  19  1   
 29  16  20  1   
 30  16  38  1   
 31  16  39  1   
 32  18  21  am  
 33  18  22  1   
 34  19  21  am  
 35  19  23  1   
 36  20  24  1   
 37  20  40  1   
 38  20  41  1   
 39  21  25  2   
 40  22  42  1   
 41  22  43  1   
 42  22  44  1   
 43  23  45  1   
 44  23  46  1   
 45  23  47  1   
 46  24  26  am  
 47  24  48  1   
 48  26  27  2   
 49  26  28  1   
 50  28  29  1   
 51  28  49  1   
 52  28  50  1   
@<TRIPOS>SUBSTRUCTURE
  1 ****  10 GROUP 4 **** **** 0

# MOE 2024.06 (io_trps.svl 2023.06)
