@<TRIPOS>MOLECULE
N-(3,5-Dimethyl-phenyl)-2-[3-(3-methoxy-propyl)-2,4-dioxo-3,4-dihydro-2H-thieno[
51 53 1 0 0 
SMALL
USER_CHARGES


@<TRIPOS>ATOM
  1 S        0.5990    -1.3910    -2.4850 S.3   1 <1>  -0.0800 
  2 C        2.0310    -1.5330    -1.4570 C.2   1 <1>  -0.0450 
  3 C       -0.1460    -2.7790    -1.7100 C.2   1 <1>  -0.1100 
  4 C        3.1860    -0.7100    -1.5150 C.2   1 <1>   0.7150 
  5 C        1.8850    -2.5650    -0.5930 C.2   1 <1>   0.0630 
  6 C        0.6530    -3.2800    -0.7480 C.2   1 <1>  -0.1500 
  7 O        3.2870     0.2340    -2.2800 O.2   1 <1>  -0.5700 
  8 N        4.2230    -1.0300    -0.6520 N.am  1 <1>  -0.4200 
  9 N        2.9180    -2.8140     0.3110 N.am  1 <1>  -0.4230 
 10 C        4.1080    -2.1020     0.2200 C.2   1 <1>   0.6900 
 11 C        5.4640    -0.2050    -0.6490 C.3   1 <1>   0.1400 
 12 C        2.7730    -3.8720     1.3620 C.3   1 <1>   0.2010 
 13 O        5.0600    -2.4460     0.9020 O.2   1 <1>  -0.5700 
 14 C        5.3650     0.8790     0.4280 C.3   1 <1>  -0.1600 
 15 C        3.3440    -5.2080     0.9090 C.2   1 <1>   0.5690 
 16 C        6.6240     1.7400     0.4500 C.3   1 <1>   0.1200 
 17 O        2.5790    -6.1330     0.7770 O.2   1 <1>  -0.5700 
 18 N        4.6920    -5.2740     0.6810 N.am  1 <1>  -0.5470 
 19 O        6.4840     2.6550     1.4830 O.3   1 <1>  -0.5600 
 20 C        5.5410    -6.2960     0.2310 C.ar  1 <1>   0.1170 
 21 C        7.5570     3.5300     1.6160 C.3   1 <1>   0.0400 
 22 C        6.8850    -5.9900     0.0480 C.ar  1 <1>  -0.1500 
 23 C        5.1160    -7.5920    -0.0440 C.ar  1 <1>  -0.1500 
 24 C        7.7840    -6.9420    -0.3990 C.ar  1 <1>  -0.1430 
 25 C        6.0040    -8.5550    -0.4920 C.ar  1 <1>  -0.1430 
 26 C        7.3380    -8.2250    -0.6670 C.ar  1 <1>  -0.1500 
 27 C        9.2490    -6.5940    -0.5930 C.3   1 <1>  -0.0970 
 28 C        5.5280    -9.9650    -0.7890 C.3   1 <1>  -0.0970 
 29 H       -1.1150    -3.0820    -2.0670 H     1 <1>   0.1500 
 30 H        0.4150    -4.1410    -0.1490 H     1 <1>   0.1500 
 31 H        5.6080     0.2500    -1.6140 H     1 <1>   0.0800 
 32 H        6.3170    -0.8340    -0.4580 H     1 <1>   0.0800 
 33 H        1.7380    -3.9970     1.6170 H     1 <1>   0.0800 
 34 H        3.2850    -3.5640     2.2560 H     1 <1>   0.0800 
 35 H        5.2470     0.4170     1.3920 H     1 <1>   0.0800 
 36 H        4.5180     1.5110     0.2260 H     1 <1>   0.0800 
 37 H        6.7370     2.2780    -0.4770 H     1 <1>   0.0800 
 38 H        7.4980     1.1390     0.6400 H     1 <1>   0.0800 
 39 H        5.1710    -4.3760     0.8220 H     1 <1>   0.3700 
 40 H        7.3490     4.1900     2.4400 H     1 <1>   0.0800 
 41 H        7.6640     4.1020     0.7110 H     1 <1>   0.0800 
 42 H        8.4520     2.9670     1.8200 H     1 <1>   0.0800 
 43 H        7.2270    -4.9940     0.2600 H     1 <1>   0.1500 
 44 H        4.0850    -7.8560     0.0920 H     1 <1>   0.1500 
 45 H        8.0310    -8.9710    -1.0120 H     1 <1>   0.1500 
 46 H        9.3860    -5.5290    -0.6460 H     1 <1>   0.0800 
 47 H        9.6150    -7.0290    -1.5060 H     1 <1>   0.0800 
 48 H        9.8250    -6.9760     0.2300 H     1 <1>   0.0800 
 49 H        4.4570    -9.9950    -0.8770 H     1 <1>   0.0800 
 50 H        5.8280   -10.6240     0.0060 H     1 <1>   0.0800 
 51 H        5.9550   -10.3130    -1.7120 H     1 <1>   0.0800 
@<TRIPOS>BOND
  1   1   2  1   
  2   1   3  1   
  3   2   4  1   
  4   2   5  2   
  5   3   6  2   
  6   3  29  1   
  7   4   7  2   
  8   4   8  am  
  9   5   6  1   
 10   5   9  1   
 11   6  30  1   
 12   8  10  am  
 13   8  11  1   
 14   9  10  am  
 15   9  12  1   
 16  10  13  2   
 17  11  14  1   
 18  11  31  1   
 19  11  32  1   
 20  12  15  1   
 21  12  33  1   
 22  12  34  1   
 23  14  16  1   
 24  14  35  1   
 25  14  36  1   
 26  15  17  2   
 27  15  18  am  
 28  16  19  1   
 29  16  37  1   
 30  16  38  1   
 31  18  20  1   
 32  18  39  1   
 33  19  21  1   
 34  20  22  ar  
 35  20  23  ar  
 36  21  40  1   
 37  21  41  1   
 38  21  42  1   
 39  22  24  ar  
 40  22  43  1   
 41  23  25  ar  
 42  23  44  1   
 43  24  26  ar  
 44  24  27  1   
 45  25  26  ar  
 46  25  28  1   
 47  26  45  1   
 48  27  46  1   
 49  27  47  1   
 50  27  48  1   
 51  28  49  1   
 52  28  50  1   
 53  28  51  1   
@<TRIPOS>SUBSTRUCTURE
  1 ****  10 GROUP 4 **** **** 0

# MOE 2024.06 (io_trps.svl 2023.06)
