@<TRIPOS>MOLECULE
3-(3-Chloro-benzyl)-7-hydroxy-3H-[1,2,3]triazolo[4,5-d]pyrimidine-5-carboxylic acid (tetrahydro-furan-2-ylmet
43 46 1 0 0 
SMALL
USER_CHARGES


@<TRIPOS>ATOM
  1 CL       0.2700     0.9940     2.0760 Cl    1 <1>  -0.1770 
  2 C        1.7900     0.2610     1.6300 C.ar  1 <1>   0.1770 
  3 C        2.2770     0.4420     0.3490 C.ar  1 <1>  -0.1500 
  4 C        2.4800    -0.4870     2.5650 C.ar  1 <1>  -0.1500 
  5 C        3.4830    -0.1420    -0.0120 C.ar  1 <1>  -0.1440 
  6 C        3.6870    -1.0630     2.2080 C.ar  1 <1>  -0.1500 
  7 C        4.1840    -0.8890     0.9260 C.ar  1 <1>  -0.1500 
  8 C        4.0360     0.0420    -1.4190 C.3   1 <1>   0.2390 
  9 N        4.8470     1.2660    -1.5090 N.pl3 1 <1>   0.3140 
 10 N        4.4280     2.4000    -2.1020 N.2   1 <1>  -0.4180 
 11 C        6.1180     1.4010    -1.0990 C.ar  1 <1>   0.1050 
 12 N        5.3950     3.2490    -2.0630 N.2   1 <1>  -0.2270 
 13 N        6.9190     0.5110    -0.4860 N.ar  1 <1>  -0.5670 
 14 C        6.4570     2.6630    -1.4490 C.ar  1 <1>   0.2270 
 15 C        8.1390     0.9810    -0.1960 C.ar  1 <1>   0.7060 
 16 C        7.7770     3.0620    -1.1180 C.ar  1 <1>   0.1390 
 17 N        8.5950     2.2150    -0.4900 N.ar  1 <1>  -0.6200 
 18 C        9.0980     0.0990     0.5000 C.2   1 <1>   0.5440 
 19 O        8.2320     4.1840    -1.3890 O.3   1 <1>  -0.8290 
 20 O        8.8980    -1.0950     0.6890 O.2   1 <1>  -0.5700 
 21 N       10.2950     0.6070     0.9500 N.am  1 <1>  -0.7300 
 22 C       11.4540    -0.1740     1.4500 C.3   1 <1>   0.1400 
 23 C       12.2600    -0.7640     0.2840 C.3   1 <1>   0.2000 
 24 O       13.4380    -1.3260     0.7650 O.3   1 <1>  -0.5600 
 25 C       12.7340     0.2510    -0.7490 C.3   1 <1>  -0.1600 
 26 C       14.3520    -1.4630    -0.2740 C.3   1 <1>   0.1200 
 27 C       14.0090    -0.3750    -1.2900 C.3   1 <1>  -0.1600 
 28 H        1.7160     1.0390    -0.3480 H     1 <1>   0.1500 
 29 H        2.0800    -0.6100     3.5550 H     1 <1>   0.1500 
 30 H        4.2440    -1.6430     2.9240 H     1 <1>   0.1500 
 31 H        5.1320    -1.3360     0.6670 H     1 <1>   0.1500 
 32 H        3.2330     0.1140    -2.1280 H     1 <1>   0.0800 
 33 H        4.6550    -0.7940    -1.6870 H     1 <1>   0.0800 
 34 H       10.4630     1.5920     0.6960 H     1 <1>   0.3700 
 35 H       11.0980    -0.9770     2.0730 H     1 <1>   0.0800 
 36 H       12.0840     0.4700     2.0360 H     1 <1>   0.0800 
 37 H       11.6960    -1.5500    -0.1890 H     1 <1>   0.0800 
 38 H       12.9550     1.1870    -0.2660 H     1 <1>   0.0800 
 39 H       11.9920     0.4150    -1.5110 H     1 <1>   0.0800 
 40 H       14.2310    -2.4450    -0.6970 H     1 <1>   0.0800 
 41 H       15.3450    -1.3510     0.1260 H     1 <1>   0.0800 
 42 H       14.8010     0.3490    -1.3660 H     1 <1>   0.0800 
 43 H       13.8450    -0.8190    -2.2560 H     1 <1>   0.0800 
@<TRIPOS>BOND
  1   1   2  1   
  2   2   3  ar  
  3   2   4  ar  
  4   3   5  ar  
  5   3  28  1   
  6   4   6  ar  
  7   4  29  1   
  8   5   7  ar  
  9   5   8  1   
 10   6   7  ar  
 11   6  30  1   
 12   7  31  1   
 13   8   9  1   
 14   8  32  1   
 15   8  33  1   
 16   9  10  1   
 17   9  11  1   
 18  10  12  2   
 19  11  13  ar  
 20  11  14  ar  
 21  12  14  1   
 22  13  15  ar  
 23  14  16  ar  
 24  15  17  ar  
 25  15  18  1   
 26  16  17  ar  
 27  16  19  1   
 28  18  20  2   
 29  18  21  am  
 30  21  22  1   
 31  21  34  1   
 32  22  23  1   
 33  22  35  1   
 34  22  36  1   
 35  23  24  1   
 36  23  25  1   
 37  23  37  1   
 38  24  26  1   
 39  25  27  1   
 40  25  38  1   
 41  25  39  1   
 42  26  27  1   
 43  26  40  1   
 44  26  41  1   
 45  27  42  1   
 46  27  43  1   
@<TRIPOS>SUBSTRUCTURE
  1 ****  13 GROUP 4 **** **** 0

# MOE 2024.06 (io_trps.svl 2023.06)
