@<TRIPOS>MOLECULE
NONAME
55 57 1 0 0 
SMALL
USER_CHARGES


@<TRIPOS>ATOM
  1 S        0.4410    -0.5610    -2.4930 S.3   1 <1>  -0.3220 
  2 C       -0.8430    -0.5180    -1.2680 C.cat 1 <1>   0.8920 
  3 C        1.1040    -2.3010    -2.5700 C.3   1 <1>   0.1310 
  4 N       -1.1600    -1.5120    -0.4600 N.pl3 1 <1>  -0.7000 
  5 N       -1.5920     0.5490    -1.0490 N.pl3 1 <1>  -0.7640 
  6 C        1.5170    -2.7620    -1.1870 C.2   1 <1>   0.5690 
  7 C       -2.1590    -1.0710     0.3420 C.2   1 <1>   0.4260 
  8 C       -2.4590     0.2050    -0.0030 C.2   1 <1>   0.2770 
  9 C       -1.5480     1.8720    -1.7200 C.3   1 <1>   0.3540 
 10 O        0.7350    -3.4590    -0.5850 O.2   1 <1>  -0.5700 
 11 N        2.6830    -2.2880    -0.6570 N.am  1 <1>  -0.5470 
 12 N       -2.7880    -1.7630     1.3580 N.am  1 <1>  -0.4360 
 13 C       -3.5050     0.8760     0.7140 C.2   1 <1>   0.7030 
 14 C       -0.6920     2.8320    -0.8900 C.3   1 <1>  -0.1600 
 15 C        3.1950    -2.4070     0.6450 C.ar  1 <1>   0.1170 
 16 C       -3.8200    -1.1310     2.0360 C.2   1 <1>   0.6900 
 17 C       -2.3640    -3.1520     1.7100 C.3   1 <1>   0.0600 
 18 O       -3.8270     2.0190     0.4370 O.2   1 <1>  -0.5700 
 19 N       -4.1520     0.1860     1.7310 N.am  1 <1>  -0.4200 
 20 C       -0.6020     4.2150    -1.5480 C.3   1 <1>  -0.1600 
 21 C        3.9830    -1.3810     1.1720 C.ar  1 <1>  -0.1430 
 22 C        2.9470    -3.5320     1.4270 C.ar  1 <1>  -0.1500 
 23 O       -4.4400    -1.7310     2.8900 O.2   1 <1>  -0.5700 
 24 C       -5.2560     0.8470     2.4970 C.3   1 <1>   0.0600 
 25 C        0.2560     5.1650    -0.7090 C.3   1 <1>  -0.2400 
 26 C        4.4860    -1.4910     2.4590 C.ar  1 <1>  -0.1500 
 27 C        4.3080    -0.1280     0.3670 C.3   1 <1>  -0.0970 
 28 C        3.4510    -3.6330     2.7100 C.ar  1 <1>  -0.1500 
 29 C        4.2210    -2.6090     3.2280 C.ar  1 <1>  -0.1500 
 30 H        1.9410    -2.2990    -3.2430 H     1 <1>   0.0800 
 31 H        0.3240    -2.9280    -2.9650 H     1 <1>   0.0800 
 32 H       -0.6840    -2.4240    -0.3950 H     1 <1>   0.4500 
 33 H       -2.5480     2.2640    -1.8200 H     1 <1>   0.0800 
 34 H       -1.1320     1.7740    -2.7090 H     1 <1>   0.0800 
 35 H        3.2380    -1.6710    -1.2490 H     1 <1>   0.3700 
 36 H        0.2990     2.4270    -0.7860 H     1 <1>   0.0800 
 37 H       -1.1260     2.9410     0.0890 H     1 <1>   0.0800 
 38 H       -1.2910    -3.2350     1.6860 H     1 <1>   0.0800 
 39 H       -2.7920    -3.8510     1.0110 H     1 <1>   0.0800 
 40 H       -2.6960    -3.4120     2.7010 H     1 <1>   0.0800 
 41 H       -1.5890     4.6360    -1.6510 H     1 <1>   0.0800 
 42 H       -0.1710     4.1300    -2.5320 H     1 <1>   0.0800 
 43 H        2.3630    -4.3450     1.0360 H     1 <1>   0.1500 
 44 H       -5.1660     1.9190     2.4590 H     1 <1>   0.0800 
 45 H       -5.2250     0.5440     3.5300 H     1 <1>   0.0800 
 46 H       -6.2060     0.5600     2.0800 H     1 <1>   0.0800 
 47 H       -0.1680     5.2920     0.2720 H     1 <1>   0.0800 
 48 H        0.3060     6.1310    -1.1820 H     1 <1>   0.0800 
 49 H        1.2580     4.7860    -0.6080 H     1 <1>   0.0800 
 50 H        5.0940    -0.7060     2.8770 H     1 <1>   0.1500 
 51 H        4.9150    -0.3820    -0.4830 H     1 <1>   0.0800 
 52 H        4.8520     0.5820     0.9640 H     1 <1>   0.0800 
 53 H        3.4030     0.3460     0.0310 H     1 <1>   0.0800 
 54 H        3.2480    -4.5070     3.3030 H     1 <1>   0.1500 
 55 H        4.6160    -2.6840     4.2270 H     1 <1>   0.1500 
@<TRIPOS>BOND
  1   1   2  1   
  2   1   3  1   
  3   2   4  ar  
  4   2   5  ar  
  5   3   6  1   
  6   3  30  1   
  7   3  31  1   
  8   4   7  1   
  9   4  32  1   
 10   5   8  1   
 11   5   9  1   
 12   6  10  2   
 13   6  11  am  
 14   7   8  2   
 15   7  12  1   
 16   8  13  1   
 17   9  14  1   
 18   9  33  1   
 19   9  34  1   
 20  11  15  1   
 21  11  35  1   
 22  12  16  am  
 23  12  17  1   
 24  13  18  2   
 25  13  19  am  
 26  14  20  1   
 27  14  36  1   
 28  14  37  1   
 29  15  21  ar  
 30  15  22  ar  
 31  16  19  am  
 32  16  23  2   
 33  17  38  1   
 34  17  39  1   
 35  17  40  1   
 36  19  24  1   
 37  20  25  1   
 38  20  41  1   
 39  20  42  1   
 40  21  26  ar  
 41  21  27  1   
 42  22  28  ar  
 43  22  43  1   
 44  24  44  1   
 45  24  45  1   
 46  24  46  1   
 47  25  47  1   
 48  25  48  1   
 49  25  49  1   
 50  26  29  ar  
 51  26  50  1   
 52  27  51  1   
 53  27  52  1   
 54  27  53  1   
 55  28  29  ar  
 56  28  54  1   
 57  29  55  1   
@<TRIPOS>SUBSTRUCTURE
  1 ****   4 GROUP 4 **** **** 0

# MOE 2024.06 (io_trps.svl 2023.06)
