@<TRIPOS>MOLECULE
4-[(Furan-2-carbonyl)-amino]-piperidine-1-carboxylic acid (3-acetyl-phenyl)-amide
47 49 1 0 0 
SMALL
USER_CHARGES


@<TRIPOS>ATOM
  1 O        0.2490    -0.2580    -0.3580 O.2   1 <1>  -0.5700 
  2 C        0.3960    -1.3340     0.1890 C.2   1 <1>   0.6900 
  3 N        1.5140    -1.5810     0.9480 N.am  1 <1>  -0.6600 
  4 N       -0.5590    -2.3070     0.0850 N.am  1 <1>  -0.5470 
  5 C        2.0710    -2.9410     1.1930 C.3   1 <1>   0.1400 
  6 C        2.4090    -0.4660     1.3680 C.3   1 <1>   0.1400 
  7 C       -1.7040    -2.3810    -0.7190 C.ar  1 <1>   0.1170 
  8 C        3.4130    -3.0780     0.4710 C.3   1 <1>  -0.1600 
  9 C        3.7500    -0.5840     0.6420 C.3   1 <1>  -0.1600 
 10 C       -2.7960    -3.1160    -0.2780 C.ar  1 <1>  -0.1500 
 11 C       -1.7790    -1.7600    -1.9600 C.ar  1 <1>  -0.1500 
 12 C        4.3710    -1.9600     0.8840 C.3   1 <1>   0.2200 
 13 C       -3.9660    -3.2480    -1.0310 C.ar  1 <1>   0.0860 
 14 C       -2.9180    -1.8720    -2.7320 C.ar  1 <1>  -0.1500 
 15 N        5.6070    -2.0740     0.0990 N.am  1 <1>  -0.7300 
 16 C       -5.1190    -4.0060    -0.5810 C.2   1 <1>   0.4230 
 17 C       -3.9940    -2.6070    -2.2720 C.ar  1 <1>  -0.1500 
 18 C        6.8210    -2.4920     0.5610 C.2   1 <1>   0.7150 
 19 O       -6.0820    -4.2150    -1.2730 O.2   1 <1>  -0.5700 
 20 C       -5.1610    -4.5810     0.8220 C.3   1 <1>  -0.1790 
 21 O        6.9250    -2.8210     1.7290 O.2   1 <1>  -0.5700 
 22 C        7.9520    -2.5440    -0.3350 C.2   1 <1>   0.0550 
 23 O        7.8320    -2.1930    -1.6150 O.3   1 <1>  -0.2800 
 24 C        9.2430    -2.9170    -0.1120 C.2   1 <1>  -0.1500 
 25 C        8.9990    -2.3310    -2.2030 C.2   1 <1>  -0.0100 
 26 C        9.9210    -2.7790    -1.3240 C.2   1 <1>  -0.1500 
 27 H       -0.4620    -3.0190     0.7980 H     1 <1>   0.3700 
 28 H        1.4030    -3.7060     0.8370 H     1 <1>   0.0800 
 29 H        2.2090    -3.0790     2.2520 H     1 <1>   0.0800 
 30 H        2.5610    -0.5190     2.4320 H     1 <1>   0.0800 
 31 H        1.9600     0.4890     1.1480 H     1 <1>   0.0800 
 32 H        3.2410    -3.0440    -0.5900 H     1 <1>   0.0800 
 33 H        3.8500    -4.0300     0.7160 H     1 <1>   0.0800 
 34 H        4.4140     0.1800     1.0030 H     1 <1>   0.0800 
 35 H        3.5840    -0.4270    -0.4090 H     1 <1>   0.0800 
 36 H       -2.7240    -3.5910     0.6810 H     1 <1>   0.1500 
 37 H       -0.9460    -1.1860    -2.3250 H     1 <1>   0.1500 
 38 H        4.5980    -2.0610     1.9340 H     1 <1>   0.0800 
 39 H       -2.9670    -1.3850    -3.6910 H     1 <1>   0.1500 
 40 H        5.5470    -1.8240    -0.8890 H     1 <1>   0.3700 
 41 H       -4.8770    -2.6870    -2.8830 H     1 <1>   0.1500 
 42 H       -4.9940    -3.8040     1.5450 H     1 <1>   0.0800 
 43 H       -4.4150    -5.3470     0.9280 H     1 <1>   0.0800 
 44 H       -6.1260    -5.0170     1.0080 H     1 <1>   0.0800 
 45 H        9.6690    -3.2560     0.8160 H     1 <1>   0.1500 
 46 H        9.0920    -2.0910    -3.2480 H     1 <1>   0.1500 
 47 H       10.9620    -2.9920    -1.4910 H     1 <1>   0.1500 
@<TRIPOS>BOND
  1   1   2  2   
  2   2   3  am  
  3   2   4  am  
  4   3   5  1   
  5   3   6  1   
  6   4   7  1   
  7   4  27  1   
  8   5   8  1   
  9   5  28  1   
 10   5  29  1   
 11   6   9  1   
 12   6  30  1   
 13   6  31  1   
 14   7  10  ar  
 15   7  11  ar  
 16   8  12  1   
 17   8  32  1   
 18   8  33  1   
 19   9  12  1   
 20   9  34  1   
 21   9  35  1   
 22  10  13  ar  
 23  10  36  1   
 24  11  14  ar  
 25  11  37  1   
 26  12  15  1   
 27  12  38  1   
 28  13  16  1   
 29  13  17  ar  
 30  14  17  ar  
 31  14  39  1   
 32  15  18  am  
 33  15  40  1   
 34  16  19  2   
 35  16  20  1   
 36  17  41  1   
 37  18  21  2   
 38  18  22  1   
 39  20  42  1   
 40  20  43  1   
 41  20  44  1   
 42  22  23  1   
 43  22  24  2   
 44  23  25  1   
 45  24  26  1   
 46  24  45  1   
 47  25  26  2   
 48  25  46  1   
 49  26  47  1   
@<TRIPOS>SUBSTRUCTURE
  1 ****   3 GROUP 4 **** **** 0

# MOE 2024.06 (io_trps.svl 2023.06)
