@<TRIPOS>MOLECULE
NONAME
71 74 1 0 0 
SMALL
USER_CHARGES


@<TRIPOS>ATOM
  1 O        1.3580    -0.4170     1.7920 O.3   1 <1>  -0.3630 
  2 C        1.9260     0.3680     0.8370 C.ar  1 <1>   0.0830 
  3 C        2.1440    -1.3800     2.4640 C.3   1 <1>   0.0400 
  4 C        1.4690     1.6800     0.6880 C.ar  1 <1>  -0.1440 
  5 C        2.9420    -0.1220     0.0210 C.ar  1 <1>  -0.1500 
  6 C        2.0950     2.4820    -0.2550 C.ar  1 <1>  -0.1500 
  7 C        0.3300     2.2100     1.5790 C.3   1 <1>   0.5140 
  8 C        3.5280     0.6880    -0.9330 C.ar  1 <1>  -0.1500 
  9 C        3.1040     2.0040    -1.0710 C.ar  1 <1>   0.0830 
 10 N       -1.0420     1.9930     1.0210 N.3   1 <1>  -0.8100 
 11 C        0.5400     3.6510     2.0580 C.2   1 <1>   0.0060 
 12 O        3.6210     2.8790    -1.9710 O.3   1 <1>  -0.3630 
 13 C       -1.2340     0.6240     0.4680 C.3   1 <1>   0.1100 
 14 C       -2.0760     2.2510     2.0630 C.3   1 <1>   0.1100 
 15 N        1.0260     3.8220     3.2320 N.2   1 <1>  -0.3380 
 16 N        0.2830     4.8490     1.4980 N.pl3 1 <1>   0.3140 
 17 C        4.7120     2.5200    -2.7900 C.3   1 <1>   0.0400 
 18 C       -2.6630     0.3810    -0.0720 C.3   1 <1>   0.3430 
 19 C       -3.5180     2.0270     1.5460 C.3   1 <1>   0.3430 
 20 N        1.0940     5.1210     3.4260 N.2   1 <1>   0.0000 
 21 N        0.6530     5.7460     2.4050 N.2   1 <1>  -0.4180 
 22 C       -0.3070     5.4130     0.2020 C.3   1 <1>   0.2560 
 23 N       -3.5190     1.5980     0.1060 N.4   1 <1>  -0.9590 
 24 C       -1.4520     6.3910     0.5520 C.3   1 <1>  -0.2400 
 25 C       -0.9130     4.3900    -0.7750 C.3   1 <1>  -0.2400 
 26 C        0.7750     6.2160    -0.5510 C.3   1 <1>  -0.2400 
 27 C       -4.8440     1.4880    -0.5560 C.3   1 <1>   0.4230 
 28 C       -5.4700     2.8810    -0.7030 C.3   1 <1>  -0.1600 
 29 C       -5.7880     0.5320     0.1910 C.3   1 <1>  -0.1600 
 30 C       -6.8240     2.7950    -1.4230 C.3   1 <1>  -0.1600 
 31 C       -7.1430     0.4400    -0.5260 C.3   1 <1>  -0.1600 
 32 C       -7.7740     1.8280    -0.7030 C.3   1 <1>  -0.1600 
 33 H        1.6040    -1.7050     3.3360 H     1 <1>   0.0800 
 34 H        3.0750    -0.9290     2.7600 H     1 <1>   0.0800 
 35 H        2.3140    -2.2170     1.8110 H     1 <1>   0.0800 
 36 H        3.2840    -1.1350     0.1130 H     1 <1>   0.1500 
 37 H        1.8270     3.5060    -0.3740 H     1 <1>   0.1500 
 38 H        0.3790     1.6230     2.4800 H     1 <1>   0.0800 
 39 H        4.3060     0.2830    -1.5520 H     1 <1>   0.1500 
 40 H       -1.0300    -0.1110     1.2280 H     1 <1>   0.0800 
 41 H       -0.5420     0.4550    -0.3400 H     1 <1>   0.0800 
 42 H       -2.0000     3.2660     2.4160 H     1 <1>   0.0800 
 43 H       -1.9080     1.6080     2.9120 H     1 <1>   0.0800 
 44 H        4.9720     3.3710    -3.3920 H     1 <1>   0.0800 
 45 H        4.4200     1.7010    -3.4220 H     1 <1>   0.0800 
 46 H        5.5440     2.2480    -2.1640 H     1 <1>   0.0800 
 47 H       -3.0980    -0.4570     0.4460 H     1 <1>   0.0800 
 48 H       -2.6000     0.1240    -1.1160 H     1 <1>   0.0800 
 49 H       -4.0720     2.9440     1.6600 H     1 <1>   0.0800 
 50 H       -3.9970     1.2780     2.1540 H     1 <1>   0.0800 
 51 H       -2.9790     2.3330    -0.3710 H     1 <1>   0.4500 
 52 H       -2.2090     5.8950     1.1310 H     1 <1>   0.0800 
 53 H       -1.9060     6.7810    -0.3410 H     1 <1>   0.0800 
 54 H       -1.0830     7.2290     1.1170 H     1 <1>   0.0800 
 55 H       -0.2290     3.6030    -1.0210 H     1 <1>   0.0800 
 56 H       -1.1800     4.8770    -1.6960 H     1 <1>   0.0800 
 57 H       -1.8140     3.9770    -0.3690 H     1 <1>   0.0800 
 58 H        1.5900     5.5900    -0.8600 H     1 <1>   0.0800 
 59 H        1.1690     7.0000     0.0720 H     1 <1>   0.0800 
 60 H        0.3620     6.6770    -1.4300 H     1 <1>   0.0800 
 61 H       -4.6990     1.0960    -1.5500 H     1 <1>   0.0800 
 62 H       -4.8160     3.5180    -1.2720 H     1 <1>   0.0800 
 63 H       -5.6320     3.3250     0.2630 H     1 <1>   0.0800 
 64 H       -5.9640     0.8830     1.1920 H     1 <1>   0.0800 
 65 H       -5.3600    -0.4530     0.2400 H     1 <1>   0.0800 
 66 H       -6.6770     2.4600    -2.4360 H     1 <1>   0.0800 
 67 H       -7.2750     3.7720    -1.4670 H     1 <1>   0.0800 
 68 H       -7.8120    -0.1860     0.0410 H     1 <1>   0.0800 
 69 H       -7.0130    -0.0160    -1.4930 H     1 <1>   0.0800 
 70 H       -8.6870     1.7370    -1.2680 H     1 <1>   0.0800 
 71 H       -8.0320     2.2310     0.2620 H     1 <1>   0.0800 
@<TRIPOS>BOND
  1   1   2  1   
  2   1   3  1   
  3   2   4  ar  
  4   2   5  ar  
  5   3  33  1   
  6   3  34  1   
  7   3  35  1   
  8   4   6  ar  
  9   4   7  1   
 10   5   8  ar  
 11   5  36  1   
 12   6   9  ar  
 13   6  37  1   
 14   7  10  1   
 15   7  11  1   
 16   7  38  1   
 17   8   9  ar  
 18   8  39  1   
 19   9  12  1   
 20  10  13  1   
 21  10  14  1   
 22  11  15  2   
 23  11  16  1   
 24  12  17  1   
 25  13  18  1   
 26  13  40  1   
 27  13  41  1   
 28  14  19  1   
 29  14  42  1   
 30  14  43  1   
 31  15  20  1   
 32  16  21  1   
 33  16  22  1   
 34  17  44  1   
 35  17  45  1   
 36  17  46  1   
 37  18  23  1   
 38  18  47  1   
 39  18  48  1   
 40  19  23  1   
 41  19  49  1   
 42  19  50  1   
 43  20  21  2   
 44  22  24  1   
 45  22  25  1   
 46  22  26  1   
 47  23  27  1   
 48  23  51  1   
 49  24  52  1   
 50  24  53  1   
 51  24  54  1   
 52  25  55  1   
 53  25  56  1   
 54  25  57  1   
 55  26  58  1   
 56  26  59  1   
 57  26  60  1   
 58  27  28  1   
 59  27  29  1   
 60  27  61  1   
 61  28  30  1   
 62  28  62  1   
 63  28  63  1   
 64  29  31  1   
 65  29  64  1   
 66  29  65  1   
 67  30  32  1   
 68  30  66  1   
 69  30  67  1   
 70  31  32  1   
 71  31  68  1   
 72  31  69  1   
 73  32  70  1   
 74  32  71  1   
@<TRIPOS>SUBSTRUCTURE
  1 ****  10 GROUP 4 **** **** 0

# MOE 2024.06 (io_trps.svl 2023.06)
