@<TRIPOS>MOLECULE
8-(2-Amino-ethylamino)-7-(4-chloro-benzyl)-1,3-dimethyl-3,7-dihydro-purine-2,6-d
46 48 1 0 0 
SMALL
USER_CHARGES


@<TRIPOS>ATOM
  1 CL      -0.1460    -0.8460     0.0290 Cl    1 <1>  -0.1850 
  2 C       -1.8860    -0.7980     0.0220 C.ar  1 <1>   0.1690 
  3 C       -2.5610    -0.9190    -1.1770 C.ar  1 <1>  -0.1580 
  4 C       -2.5670    -0.6800     1.2190 C.ar  1 <1>  -0.1580 
  5 C       -3.9450    -0.9610    -1.1740 C.ar  1 <1>  -0.1580 
  6 C       -3.9500    -0.7200     1.2190 C.ar  1 <1>  -0.1580 
  7 C       -4.6430    -0.8860     0.0260 C.ar  1 <1>  -0.1520 
  8 C       -6.1530    -1.0680     0.0360 C.3   1 <1>   0.4920 
  9 N       -6.4940    -2.5280     0.1070 N.pl3 1 <1>  -0.7680 
 10 C       -5.7540    -3.6340     0.2340 C.cat 1 <1>   1.0680 
 11 C       -7.8370    -2.9510     0.0280 C.2   1 <1>   0.2700 
 12 N       -6.5330    -4.7110     0.2310 N.pl3 1 <1>  -0.7040 
 13 N       -4.4220    -3.6680     0.3550 N.pl3 1 <1>  -0.7190 
 14 C       -9.0920    -2.2750    -0.1010 C.2   1 <1>   0.6990 
 15 C       -7.8250    -4.2970     0.1040 C.2   1 <1>   0.4200 
 16 C       -3.4530    -4.7980     0.4720 C.3   1 <1>   0.1590 
 17 O       -9.1340    -1.0600    -0.1900 O.2   1 <1>  -0.5750 
 18 N      -10.2490    -3.0420    -0.1180 N.am  1 <1>  -0.4270 
 19 N       -8.9650    -5.0750     0.0580 N.am  1 <1>  -0.4420 
 20 C       -2.0350    -4.3640     0.0180 C.3   1 <1>   0.3360 
 21 C      -10.1930    -4.4300    -0.0440 C.2   1 <1>   0.6860 
 22 C      -11.5860    -2.3820    -0.2420 C.3   1 <1>   0.0510 
 23 C       -8.8960    -6.5650     0.1360 C.3   1 <1>   0.0510 
 24 N       -1.0030    -5.4280     0.2030 N.4   1 <1>  -0.8560 
 25 O      -11.2170    -5.0800    -0.0650 O.2   1 <1>  -0.5750 
 26 H       -2.0090    -0.9730    -2.1000 H     1 <1>   0.1420 
 27 H       -2.0170    -0.5520     2.1370 H     1 <1>   0.1420 
 28 H       -4.4680    -1.0570    -2.1130 H     1 <1>   0.1420 
 29 H       -4.4770    -0.6250     2.1570 H     1 <1>   0.1420 
 30 H       -6.5750    -0.6400    -0.8580 H     1 <1>   0.0710 
 31 H       -6.5820    -0.5540     0.8810 H     1 <1>   0.0710 
 32 H       -6.2370    -5.6760     0.3370 H     1 <1>   0.4440 
 33 H       -4.0080    -2.7250     0.3900 H     1 <1>   0.4440 
 34 H       -3.7920    -5.6220    -0.1330 H     1 <1>   0.0710 
 35 H       -3.4170    -5.1090     1.5040 H     1 <1>   0.0710 
 36 H       -1.7380    -3.4970     0.5870 H     1 <1>   0.0710 
 37 H       -2.0700    -4.0850    -1.0230 H     1 <1>   0.0710 
 38 H      -11.5310    -1.3350     0.0010 H     1 <1>   0.0710 
 39 H      -12.2890    -2.8460     0.4290 H     1 <1>   0.0710 
 40 H      -11.9480    -2.4890    -1.2500 H     1 <1>   0.0710 
 41 H       -8.0390    -6.9320    -0.3990 H     1 <1>   0.0710 
 42 H       -9.7750    -7.0080    -0.3030 H     1 <1>   0.0710 
 43 H       -8.8390    -6.8720     1.1660 H     1 <1>   0.0710 
 44 H       -0.9010    -5.7170     1.1850 H     1 <1>   0.4440 
 45 H       -0.0800    -5.0750    -0.0900 H     1 <1>   0.4440 
 46 H       -1.1840    -6.2670    -0.3640 H     1 <1>   0.4440 
@<TRIPOS>BOND
  1   1   2  1   
  2   2   3  ar  
  3   2   4  ar  
  4   3   5  ar  
  5   3  26  1   
  6   4   6  ar  
  7   4  27  1   
  8   5   7  ar  
  9   5  28  1   
 10   6   7  ar  
 11   6  29  1   
 12   7   8  1   
 13   8   9  1   
 14   8  30  1   
 15   8  31  1   
 16   9  10  ar  
 17   9  11  1   
 18  10  12  ar  
 19  10  13  ar  
 20  11  14  1   
 21  11  15  2   
 22  12  15  1   
 23  12  32  1   
 24  13  16  1   
 25  13  33  1   
 26  14  17  2   
 27  14  18  am  
 28  15  19  1   
 29  16  20  1   
 30  16  34  1   
 31  16  35  1   
 32  18  21  am  
 33  18  22  1   
 34  19  21  am  
 35  19  23  1   
 36  20  24  1   
 37  20  36  1   
 38  20  37  1   
 39  21  25  2   
 40  22  38  1   
 41  22  39  1   
 42  22  40  1   
 43  23  41  1   
 44  23  42  1   
 45  23  43  1   
 46  24  44  1   
 47  24  45  1   
 48  24  46  1   
@<TRIPOS>SUBSTRUCTURE
  1 ****   9 GROUP 4 **** **** 0

# MOE 2024.06 (io_trps.svl 2023.06)
