@<TRIPOS>MOLECULE
3-(6,7-Dimethoxy-2-propionyl-1,2,3,4-tetrahydro-isoquinolin-1-yl)-7-methoxy-1H-quinolin-2-one
57 60 1 0 0 
SMALL
USER_CHARGES


@<TRIPOS>ATOM
  1 O        0.7620    -1.6700    -2.1560 O.2   1 <1>  -0.5700 
  2 C        1.6880    -1.6490    -1.3660 C.2   1 <1>   0.6160 
  3 N        2.8050    -0.9730    -1.7560 N.am  1 <1>  -0.5470 
  4 C        1.7020    -2.2800    -0.0780 C.2   1 <1>  -0.1240 
  5 C        3.9630    -0.8880    -0.9930 C.ar  1 <1>   0.1170 
  6 C        2.8210    -2.2180     0.6940 C.2   1 <1>  -0.1780 
  7 C        0.4630    -3.0160     0.4260 C.3   1 <1>   0.5020 
  8 C        3.9920    -1.5230     0.2590 C.ar  1 <1>   0.0280 
  9 C        5.0810    -0.1960    -1.4450 C.ar  1 <1>  -0.1500 
 10 N        0.3780    -4.3750    -0.1920 N.am  1 <1>  -0.6600 
 11 C       -0.8300    -2.2000     0.3090 C.ar  1 <1>  -0.1430 
 12 C        5.1580    -1.4480     1.0210 C.ar  1 <1>  -0.1500 
 13 C        6.2270    -0.1260    -0.6810 C.ar  1 <1>   0.0830 
 14 C        1.1100    -5.3970     0.3520 C.2   1 <1>   0.5690 
 15 C       -0.5310    -4.4920    -1.3680 C.3   1 <1>   0.1400 
 16 C       -1.9580    -2.6820    -0.3430 C.ar  1 <1>  -0.1440 
 17 C       -0.8770    -0.9370     0.8820 C.ar  1 <1>  -0.1500 
 18 C        6.2630    -0.7610     0.5640 C.ar  1 <1>  -0.1500 
 19 O        7.2690     0.5680    -1.1970 O.3   1 <1>  -0.3620 
 20 O        1.7760    -5.2310     1.3480 O.2   1 <1>  -0.5700 
 21 C        1.0980    -6.7810    -0.2940 C.3   1 <1>  -0.0990 
 22 C       -1.9450    -4.0640    -0.9770 C.3   1 <1>  -0.0170 
 23 C       -3.1060    -1.9090    -0.4120 C.ar  1 <1>  -0.1500 
 24 C       -2.0130    -0.1510     0.8090 C.ar  1 <1>   0.0830 
 25 C        8.4950     0.6890    -0.5100 C.3   1 <1>   0.0400 
 26 C        2.0390    -7.8110     0.3570 C.3   1 <1>  -0.2400 
 27 C       -3.1570    -0.6420     0.1640 C.ar  1 <1>   0.0830 
 28 O       -1.9180     1.0730     1.3970 O.3   1 <1>  -0.3620 
 29 O       -4.2910     0.1190     0.1320 O.3   1 <1>  -0.3620 
 30 C       -2.4360     2.2050     0.7340 C.3   1 <1>   0.0400 
 31 C       -5.5030    -0.3670    -0.4020 C.3   1 <1>   0.0400 
 32 H        2.7430    -0.5310    -2.6710 H     1 <1>   0.3700 
 33 H        2.8660    -2.6980     1.6570 H     1 <1>   0.1500 
 34 H        0.5960    -3.1600     1.4850 H     1 <1>   0.0800 
 35 H        5.0590     0.2910    -2.4010 H     1 <1>   0.1500 
 36 H        5.1880    -1.9370     1.9790 H     1 <1>   0.1500 
 37 H       -0.5630    -5.4980    -1.7420 H     1 <1>   0.0800 
 38 H       -0.1710    -3.8650    -2.1630 H     1 <1>   0.0800 
 39 H       -0.0190    -0.5390     1.3940 H     1 <1>   0.1500 
 40 H        7.1420    -0.7240     1.1780 H     1 <1>   0.1500 
 41 H        1.3790    -6.6730    -1.3250 H     1 <1>   0.0800 
 42 H        0.0940    -7.1620    -0.2530 H     1 <1>   0.0800 
 43 H       -2.3530    -4.7760    -0.2830 H     1 <1>   0.0800 
 44 H       -2.5600    -4.0660    -1.8590 H     1 <1>   0.0800 
 45 H       -3.9590    -2.3140    -0.9200 H     1 <1>   0.1500 
 46 H        9.1620     1.2720    -1.1190 H     1 <1>   0.0800 
 47 H        8.9060    -0.2930    -0.3550 H     1 <1>   0.0800 
 48 H        8.3230     1.1890     0.4260 H     1 <1>   0.0800 
 49 H        3.0560    -7.4610     0.3190 H     1 <1>   0.0800 
 50 H        1.9770    -8.7530    -0.1570 H     1 <1>   0.0800 
 51 H        1.7690    -7.9610     1.3880 H     1 <1>   0.0800 
 52 H       -1.9160     3.0730     1.0960 H     1 <1>   0.0800 
 53 H       -3.4840     2.2890     0.9590 H     1 <1>   0.0800 
 54 H       -2.2820     2.0950    -0.3250 H     1 <1>   0.0800 
 55 H       -6.2530     0.3910    -0.2700 H     1 <1>   0.0800 
 56 H       -5.7860    -1.2580     0.1310 H     1 <1>   0.0800 
 57 H       -5.3670    -0.5680    -1.4490 H     1 <1>   0.0800 
@<TRIPOS>BOND
  1   1   2  2   
  2   2   3  am  
  3   2   4  1   
  4   3   5  1   
  5   3  32  1   
  6   4   6  2   
  7   4   7  1   
  8   5   8  ar  
  9   5   9  ar  
 10   6   8  1   
 11   6  33  1   
 12   7  10  1   
 13   7  11  1   
 14   7  34  1   
 15   8  12  ar  
 16   9  13  ar  
 17   9  35  1   
 18  10  14  am  
 19  10  15  1   
 20  11  16  ar  
 21  11  17  ar  
 22  12  18  ar  
 23  12  36  1   
 24  13  18  ar  
 25  13  19  1   
 26  14  20  2   
 27  14  21  1   
 28  15  22  1   
 29  15  37  1   
 30  15  38  1   
 31  16  22  1   
 32  16  23  ar  
 33  17  24  ar  
 34  17  39  1   
 35  18  40  1   
 36  19  25  1   
 37  21  26  1   
 38  21  41  1   
 39  21  42  1   
 40  22  43  1   
 41  22  44  1   
 42  23  27  ar  
 43  23  45  1   
 44  24  27  ar  
 45  24  28  1   
 46  25  46  1   
 47  25  47  1   
 48  25  48  1   
 49  26  49  1   
 50  26  50  1   
 51  26  51  1   
 52  27  29  1   
 53  28  30  1   
 54  29  31  1   
 55  30  52  1   
 56  30  53  1   
 57  30  54  1   
 58  31  55  1   
 59  31  56  1   
 60  31  57  1   
@<TRIPOS>SUBSTRUCTURE
  1 ****   4 GROUP 4 **** **** 0

# MOE 2024.06 (io_trps.svl 2023.06)
