@<TRIPOS>MOLECULE
NONAME
48 50 1 0 0 
SMALL
USER_CHARGES


@<TRIPOS>ATOM
  1 S       -0.6740    -1.3430    -1.9720 S.3   1 <1>  -0.3320 
  2 C       -1.9880    -2.1250    -1.0150 C.ar  1 <1>   0.1020 
  3 C        0.9250    -1.9060    -1.2390 C.3   1 <1>  -0.0100 
  4 C       -3.2900    -1.8550    -1.3920 C.ar  1 <1>  -0.1500 
  5 C       -1.7250    -2.9630     0.0570 C.ar  1 <1>  -0.1500 
  6 C       -4.3400    -2.4260    -0.6930 C.ar  1 <1>  -0.1500 
  7 C       -2.7820    -3.5300     0.7480 C.ar  1 <1>  -0.1500 
  8 C       -4.1020    -3.2760     0.3860 C.ar  1 <1>   0.1170 
  9 N       -5.1240    -3.8800     1.1340 N.am  1 <1>  -0.5470 
 10 C       -6.4530    -4.0480     0.9050 C.2   1 <1>   0.6900 
 11 O       -7.0250    -3.6540    -0.0930 O.2   1 <1>  -0.5700 
 12 N       -7.1770    -4.7200     1.8400 N.am  1 <1>  -0.6600 
 13 C       -8.2930    -3.9650     2.4780 C.3   1 <1>   0.1400 
 14 C       -7.5610    -6.1150     1.4850 C.3   1 <1>   0.1400 
 15 C       -9.5430    -3.9650     1.5720 C.3   1 <1>   0.3430 
 16 C       -8.8040    -6.1170     0.5700 C.3   1 <1>   0.3430 
 17 N       -9.9650    -5.3570     1.1690 N.4   1 <1>  -0.9590 
 18 C      -11.1760    -5.2910     0.2940 C.3   1 <1>   0.4230 
 19 C      -11.7940    -6.6750     0.1070 C.3   1 <1>  -0.1600 
 20 C      -10.8720    -4.8160    -1.1300 C.3   1 <1>  -0.1600 
 21 C      -11.2540    -7.2470    -1.2090 C.3   1 <1>  -0.1600 
 22 C      -10.6900    -6.0650    -2.0030 C.3   1 <1>  -0.1600 
 23 H        1.7180    -1.4500    -1.8040 H     1 <1>   0.0800 
 24 H        0.9670    -2.9770    -1.3180 H     1 <1>   0.0800 
 25 H        0.9520    -1.5830    -0.2140 H     1 <1>   0.0800 
 26 H       -3.4780    -1.2020    -2.2250 H     1 <1>   0.1500 
 27 H       -0.7190    -3.1790     0.3590 H     1 <1>   0.1500 
 28 H       -5.3430    -2.1980    -0.9980 H     1 <1>   0.1500 
 29 H       -2.5740    -4.1800     1.5780 H     1 <1>   0.1500 
 30 H       -4.8270    -4.2960     2.0120 H     1 <1>   0.3700 
 31 H       -8.5250    -4.4000     3.4350 H     1 <1>   0.0800 
 32 H       -7.9820    -2.9470     2.6470 H     1 <1>   0.0800 
 33 H       -7.7570    -6.6780     2.3800 H     1 <1>   0.0800 
 34 H       -6.7440    -6.5900     0.9680 H     1 <1>   0.0800 
 35 H       -9.3130    -3.3900     0.6900 H     1 <1>   0.0800 
 36 H      -10.3510    -3.4700     2.0850 H     1 <1>   0.0800 
 37 H       -8.5250    -5.6650    -0.3680 H     1 <1>   0.0800 
 38 H       -9.0940    -7.1350     0.3730 H     1 <1>   0.0800 
 39 H      -10.2440    -5.8520     2.0220 H     1 <1>   0.4500 
 40 H      -11.9020    -4.6350     0.7500 H     1 <1>   0.0800 
 41 H      -12.8580    -6.5460    -0.0030 H     1 <1>   0.0800 
 42 H      -11.6250    -7.3320     0.9420 H     1 <1>   0.0800 
 43 H      -11.7370    -4.2860    -1.4910 H     1 <1>   0.0800 
 44 H      -10.0290    -4.1510    -1.1940 H     1 <1>   0.0800 
 45 H      -12.0400    -7.7380    -1.7600 H     1 <1>   0.0800 
 46 H      -10.4790    -7.9710    -1.0220 H     1 <1>   0.0800 
 47 H       -9.6470    -6.2270    -2.2220 H     1 <1>   0.0800 
 48 H      -11.2110    -5.9490    -2.9400 H     1 <1>   0.0800 
@<TRIPOS>BOND
  1   1   2  1   
  2   1   3  1   
  3   2   4  ar  
  4   2   5  ar  
  5   3  23  1   
  6   3  24  1   
  7   3  25  1   
  8   4   6  ar  
  9   4  26  1   
 10   5   7  ar  
 11   5  27  1   
 12   6   8  ar  
 13   6  28  1   
 14   7   8  ar  
 15   7  29  1   
 16   8   9  1   
 17   9  10  am  
 18   9  30  1   
 19  10  11  2   
 20  10  12  am  
 21  12  13  1   
 22  12  14  1   
 23  13  15  1   
 24  13  31  1   
 25  13  32  1   
 26  14  16  1   
 27  14  33  1   
 28  14  34  1   
 29  15  17  1   
 30  15  35  1   
 31  15  36  1   
 32  16  17  1   
 33  16  37  1   
 34  16  38  1   
 35  17  18  1   
 36  17  39  1   
 37  18  19  1   
 38  18  20  1   
 39  18  40  1   
 40  19  21  1   
 41  19  41  1   
 42  19  42  1   
 43  20  22  1   
 44  20  43  1   
 45  20  44  1   
 46  21  22  1   
 47  21  45  1   
 48  21  46  1   
 49  22  47  1   
 50  22  48  1   
@<TRIPOS>SUBSTRUCTURE
  1 ****  11 GROUP 4 **** **** 0

# MOE 2024.06 (io_trps.svl 2023.06)
