@<TRIPOS>MOLECULE
7714
35 35 1 0 0 
SMALL
USER_CHARGES


@<TRIPOS>ATOM
  1 O        0.5150    -1.5220     1.1040 O.2   1 <1>  -0.5700 
  2 C        0.1880    -2.2390     0.1810 C.2   1 <1>   0.7800 
  3 O       -1.0770    -2.2760    -0.2270 O.3   1 <1>  -0.4300 
  4 N        1.0360    -3.0530    -0.4990 N.am  1 <1>  -0.5470 
  5 C       -2.0590    -1.4830     0.4040 C.3   1 <1>   0.1200 
  6 C        2.3970    -3.2960    -0.2840 C.ar  1 <1>   0.1170 
  7 C       -3.4000    -1.7400    -0.2840 C.3   1 <1>  -0.1600 
  8 C        3.3740    -2.3020    -0.3820 C.ar  1 <1>  -0.1430 
  9 C        2.7890    -4.5950     0.0160 C.ar  1 <1>  -0.1500 
 10 C       -4.5180    -0.9060     0.3540 C.3   1 <1>  -0.1600 
 11 C        4.7040    -2.6260    -0.1640 C.ar  1 <1>  -0.1500 
 12 C        3.0270    -0.8600    -0.7310 C.3   1 <1>  -0.0970 
 13 C        4.1180    -4.9080     0.2280 C.ar  1 <1>  -0.1500 
 14 C       -5.8600    -1.1650    -0.3350 C.3   1 <1>  -0.2400 
 15 C        5.0850    -3.9220     0.1420 C.ar  1 <1>  -0.1430 
 16 C        6.5470    -4.2540     0.3760 C.3   1 <1>  -0.0970 
 17 H        0.5630    -3.6640    -1.1580 H     1 <1>   0.3700 
 18 H       -1.7700    -0.4500     0.3130 H     1 <1>   0.0800 
 19 H       -2.0990    -1.7570     1.4450 H     1 <1>   0.0800 
 20 H       -3.6430    -2.7860    -0.2000 H     1 <1>   0.0800 
 21 H       -3.3150    -1.4860    -1.3260 H     1 <1>   0.0800 
 22 H        2.0460    -5.3670     0.0920 H     1 <1>   0.1500 
 23 H       -4.2770     0.1410     0.2780 H     1 <1>   0.0800 
 24 H       -4.6030    -1.1530     1.3990 H     1 <1>   0.0800 
 25 H        5.4560    -1.8610    -0.2320 H     1 <1>   0.1500 
 26 H        2.2590    -0.8260    -1.4820 H     1 <1>   0.0800 
 27 H        3.8880    -0.3400    -1.1100 H     1 <1>   0.0800 
 28 H        2.6790    -0.3480     0.1480 H     1 <1>   0.0800 
 29 H        4.3960    -5.9210     0.4610 H     1 <1>   0.1500 
 30 H       -5.8050    -0.9030    -1.3770 H     1 <1>   0.0800 
 31 H       -6.6300    -0.5710     0.1250 H     1 <1>   0.0800 
 32 H       -6.1330    -2.2020    -0.2520 H     1 <1>   0.0800 
 33 H        7.0380    -3.4390     0.8770 H     1 <1>   0.0800 
 34 H        7.0350    -4.4290    -0.5650 H     1 <1>   0.0800 
 35 H        6.6430    -5.1330     0.9870 H     1 <1>   0.0800 
@<TRIPOS>BOND
  1   1   2  2   
  2   2   3  1   
  3   2   4  am  
  4   3   5  1   
  5   4   6  1   
  6   4  17  1   
  7   5   7  1   
  8   5  18  1   
  9   5  19  1   
 10   6   8  ar  
 11   6   9  ar  
 12   7  10  1   
 13   7  20  1   
 14   7  21  1   
 15   8  11  ar  
 16   8  12  1   
 17   9  13  ar  
 18   9  22  1   
 19  10  14  1   
 20  10  23  1   
 21  10  24  1   
 22  11  15  ar  
 23  11  25  1   
 24  12  26  1   
 25  12  27  1   
 26  12  28  1   
 27  13  15  ar  
 28  13  29  1   
 29  14  30  1   
 30  14  31  1   
 31  14  32  1   
 32  15  16  1   
 33  16  33  1   
 34  16  34  1   
 35  16  35  1   
@<TRIPOS>SUBSTRUCTURE
  1 ****   4 GROUP 4 **** **** 0

# MOE 2024.06 (io_trps.svl 2023.06)
