@<TRIPOS>MOLECULE
NONAME
54 57 1 0 0 
SMALL
USER_CHARGES


@<TRIPOS>ATOM
  1 S       -0.1840     0.1250     0.3340 S.o2  1 <1>   1.4470 
  2 O        0.4120    -0.8410    -0.5580 O.2   1 <1>  -0.6500 
  3 O       -0.0040    -0.0010     1.7630 O.2   1 <1>  -0.6500 
  4 N        0.5240     1.6200    -0.0620 N.am  1 <1>  -0.8490 
  5 C       -1.9360     0.3670    -0.0790 C.ar  1 <1>  -0.0090 
  6 C        1.9910     1.4860    -0.1590 C.3   1 <1>   0.1960 
  7 C        0.1470     2.6860     0.8860 C.3   1 <1>   0.1960 
  8 C       -2.3260     0.7270    -1.3620 C.ar  1 <1>  -0.1500 
  9 C       -2.9350     0.2000     0.8730 C.ar  1 <1>  -0.1500 
 10 C        2.6740     2.8190    -0.5360 C.3   1 <1>   0.3430 
 11 C        0.7880     4.0400     0.5080 C.3   1 <1>   0.3430 
 12 C       -3.6580     0.9280    -1.6780 C.ar  1 <1>  -0.1500 
 13 C       -4.2670     0.3980     0.5580 C.ar  1 <1>  -0.1500 
 14 N        2.2860     3.9440     0.3900 N.4   1 <1>  -0.9590 
 15 C       -4.6620     0.7800    -0.7230 C.ar  1 <1>   0.0860 
 16 C        2.8780     5.2410    -0.0600 C.3   1 <1>   0.2630 
 17 C       -6.0540     0.9990    -1.0690 C.2   1 <1>   0.5440 
 18 O       -6.4890     0.4990    -2.0870 O.2   1 <1>  -0.5700 
 19 N       -6.8770     1.7810    -0.2740 N.am  1 <1>  -0.4770 
 20 C       -8.2720     1.7190    -0.1540 C.ar  1 <1>   0.1170 
 21 C       -6.3750     2.9200     0.5490 C.3   1 <1>   0.2200 
 22 C       -8.7480     2.6620     0.7300 C.ar  1 <1>  -0.1430 
 23 C       -9.1700     0.8580    -0.7740 C.ar  1 <1>  -0.1500 
 24 C       -7.6100     3.4760     1.2880 C.3   1 <1>  -0.0170 
 25 C       -5.7350     3.9810    -0.3530 C.3   1 <1>  -0.2400 
 26 C      -10.0950     2.7800     1.0140 C.ar  1 <1>  -0.1500 
 27 C      -10.5240     0.9640    -0.5000 C.ar  1 <1>  -0.1500 
 28 C      -10.9870     1.9210     0.3910 C.ar  1 <1>  -0.1500 
 29 H        2.2370     0.7600    -0.9170 H     1 <1>   0.0800 
 30 H        2.3910     1.1250     0.7750 H     1 <1>   0.0800 
 31 H        0.4510     2.4230     1.8870 H     1 <1>   0.0800 
 32 H       -0.9240     2.8010     0.8890 H     1 <1>   0.0800 
 33 H       -1.5770     0.8440    -2.1290 H     1 <1>   0.1500 
 34 H       -2.6680    -0.0980     1.8750 H     1 <1>   0.1500 
 35 H        2.3880     3.0670    -1.5450 H     1 <1>   0.0800 
 36 H        3.7430     2.6820    -0.5220 H     1 <1>   0.0800 
 37 H        0.5260     4.7750     1.2530 H     1 <1>   0.0800 
 38 H        0.3700     4.3590    -0.4330 H     1 <1>   0.0800 
 39 H       -3.9390     1.1960    -2.6830 H     1 <1>   0.1500 
 40 H       -5.0220     0.2430     1.3110 H     1 <1>   0.1500 
 41 H        2.6610     3.7190     1.3240 H     1 <1>   0.4500 
 42 H        2.5070     5.5040    -1.0380 H     1 <1>   0.0800 
 43 H        3.9530     5.1660    -0.1090 H     1 <1>   0.0800 
 44 H        2.6220     6.0300     0.6280 H     1 <1>   0.0800 
 45 H       -5.6610     2.5650     1.2700 H     1 <1>   0.0800 
 46 H       -8.8190     0.1150    -1.4650 H     1 <1>   0.1500 
 47 H       -7.7620     4.5230     1.0990 H     1 <1>   0.0800 
 48 H       -7.5190     3.3140     2.3470 H     1 <1>   0.0800 
 49 H       -6.4370     4.3010    -1.1030 H     1 <1>   0.0800 
 50 H       -4.8580     3.5940    -0.8370 H     1 <1>   0.0800 
 51 H       -5.4450     4.8350     0.2310 H     1 <1>   0.0800 
 52 H      -10.4480     3.5240     1.7060 H     1 <1>   0.1500 
 53 H      -11.2180     0.2990    -0.9830 H     1 <1>   0.1500 
 54 H      -12.0400     1.9970     0.5970 H     1 <1>   0.1500 
@<TRIPOS>BOND
  1   1   2  2   
  2   1   3  2   
  3   1   4  am  
  4   1   5  1   
  5   4   6  1   
  6   4   7  1   
  7   5   8  ar  
  8   5   9  ar  
  9   6  10  1   
 10   6  29  1   
 11   6  30  1   
 12   7  11  1   
 13   7  31  1   
 14   7  32  1   
 15   8  12  ar  
 16   8  33  1   
 17   9  13  ar  
 18   9  34  1   
 19  10  14  1   
 20  10  35  1   
 21  10  36  1   
 22  11  14  1   
 23  11  37  1   
 24  11  38  1   
 25  12  15  ar  
 26  12  39  1   
 27  13  15  ar  
 28  13  40  1   
 29  14  16  1   
 30  14  41  1   
 31  15  17  1   
 32  16  42  1   
 33  16  43  1   
 34  16  44  1   
 35  17  18  2   
 36  17  19  am  
 37  19  20  1   
 38  19  21  1   
 39  20  22  ar  
 40  20  23  ar  
 41  21  24  1   
 42  21  25  1   
 43  21  45  1   
 44  22  24  1   
 45  22  26  ar  
 46  23  27  ar  
 47  23  46  1   
 48  24  47  1   
 49  24  48  1   
 50  25  49  1   
 51  25  50  1   
 52  25  51  1   
 53  26  28  ar  
 54  26  52  1   
 55  27  28  ar  
 56  27  53  1   
 57  28  54  1   
@<TRIPOS>SUBSTRUCTURE
  1 ****  15 GROUP 4 **** **** 0

# MOE 2024.06 (io_trps.svl 2023.06)
