@<TRIPOS>MOLECULE
N-(2,4-Dimethoxy-phenyl)-2-[4-(4-methyl-benzoyl)-piperidin-1-yl]-acetamide
57 59 1 0 0 
SMALL
USER_CHARGES


@<TRIPOS>ATOM
  1 O        3.2770    -2.9320     2.4210 O.2   1 <1>  -0.5700 
  2 C        2.7880    -2.6660     1.3510 C.2   1 <1>   0.4230 
  3 C        1.5780    -3.3080     0.8760 C.ar  1 <1>   0.0860 
  4 C        3.4830    -1.6050     0.4870 C.3   1 <1>  -0.0190 
  5 C        1.2680    -3.4620    -0.4790 C.ar  1 <1>  -0.1500 
  6 C        0.6550    -3.8160     1.7920 C.ar  1 <1>  -0.1500 
  7 C        4.7280    -2.1890    -0.2020 C.3   1 <1>  -0.1600 
  8 C        3.8780    -0.3570     1.3010 C.3   1 <1>  -0.1600 
  9 C        0.0970    -4.0720    -0.8910 C.ar  1 <1>  -0.1500 
 10 C       -0.5160    -4.4270     1.3860 C.ar  1 <1>  -0.1500 
 11 C        5.4750    -1.1220    -1.0040 C.3   1 <1>   0.1100 
 12 C        4.6570     0.6490     0.4480 C.3   1 <1>   0.1100 
 13 C       -0.8050    -4.5580     0.0400 C.ar  1 <1>  -0.1430 
 14 N        5.8400    -0.0130    -0.1090 N.3   1 <1>  -0.8100 
 15 C       -2.0920    -5.2270    -0.4090 C.3   1 <1>  -0.0970 
 16 C        6.7820     0.9460    -0.7630 C.3   1 <1>   0.1710 
 17 C        8.2110     0.4020    -0.8740 C.2   1 <1>   0.5690 
 18 O        8.9790     0.9030    -1.6620 O.2   1 <1>  -0.5700 
 19 N        8.5140    -0.6470    -0.0600 N.am  1 <1>  -0.5470 
 20 C        9.6200    -1.4990     0.0920 C.ar  1 <1>   0.1170 
 21 C        9.4520    -2.6760     0.8290 C.ar  1 <1>   0.0830 
 22 C       10.8660    -1.2180    -0.4550 C.ar  1 <1>  -0.1500 
 23 O        8.2080    -2.9130     1.3460 O.3   1 <1>  -0.3620 
 24 C       10.5220    -3.5450     1.0060 C.ar  1 <1>  -0.1500 
 25 C       11.9300    -2.0860    -0.2780 C.ar  1 <1>  -0.1500 
 26 C        7.9500    -4.0310     2.1660 C.3   1 <1>   0.0400 
 27 C       11.7600    -3.2560     0.4560 C.ar  1 <1>   0.0830 
 28 O       12.7500    -4.1610     0.6770 O.3   1 <1>  -0.3620 
 29 C       14.0440    -3.9620     0.1520 C.3   1 <1>   0.0400 
 30 H        2.8000    -1.2700    -0.2720 H     1 <1>   0.0800 
 31 H        1.9490    -3.1130    -1.2330 H     1 <1>   0.1500 
 32 H        0.8660    -3.7270     2.8450 H     1 <1>   0.1500 
 33 H        4.4460    -2.9940    -0.8560 H     1 <1>   0.0800 
 34 H        5.3970    -2.5910     0.5400 H     1 <1>   0.0800 
 35 H        4.4970    -0.6440     2.1340 H     1 <1>   0.0800 
 36 H        2.9960     0.1130     1.6970 H     1 <1>   0.0800 
 37 H       -0.1120    -4.1700    -1.9420 H     1 <1>   0.1500 
 38 H       -1.2030    -4.8020     2.1250 H     1 <1>   0.1500 
 39 H        4.8580    -0.7580    -1.8080 H     1 <1>   0.0800 
 40 H        6.3600    -1.5640    -1.4300 H     1 <1>   0.0800 
 41 H        4.9610     1.4730     1.0710 H     1 <1>   0.0800 
 42 H        4.0360     1.0300    -0.3470 H     1 <1>   0.0800 
 43 H       -2.8740    -4.4940    -0.4890 H     1 <1>   0.0800 
 44 H       -2.3910    -5.9790     0.2990 H     1 <1>   0.0800 
 45 H       -1.9590    -5.6980    -1.3660 H     1 <1>   0.0800 
 46 H        6.8370     1.8470    -0.1800 H     1 <1>   0.0800 
 47 H        6.4260     1.2050    -1.7440 H     1 <1>   0.0800 
 48 H        7.6910    -0.9540     0.4770 H     1 <1>   0.3700 
 49 H       11.0090    -0.3160    -1.0210 H     1 <1>   0.1500 
 50 H       10.4250    -4.4550     1.5640 H     1 <1>   0.1500 
 51 H       12.8750    -1.8310    -0.7180 H     1 <1>   0.1500 
 52 H        6.9210    -3.9870     2.4750 H     1 <1>   0.0800 
 53 H        8.5930    -3.9880     3.0270 H     1 <1>   0.0800 
 54 H        8.1230    -4.9280     1.5990 H     1 <1>   0.0800 
 55 H       14.6550    -4.7960     0.4460 H     1 <1>   0.0800 
 56 H       14.4490    -3.0520     0.5560 H     1 <1>   0.0800 
 57 H       13.9820    -3.9150    -0.9210 H     1 <1>   0.0800 
@<TRIPOS>BOND
  1   1   2  2   
  2   2   3  1   
  3   2   4  1   
  4   3   5  ar  
  5   3   6  ar  
  6   4   7  1   
  7   4   8  1   
  8   4  30  1   
  9   5   9  ar  
 10   5  31  1   
 11   6  10  ar  
 12   6  32  1   
 13   7  11  1   
 14   7  33  1   
 15   7  34  1   
 16   8  12  1   
 17   8  35  1   
 18   8  36  1   
 19   9  13  ar  
 20   9  37  1   
 21  10  13  ar  
 22  10  38  1   
 23  11  14  1   
 24  11  39  1   
 25  11  40  1   
 26  12  14  1   
 27  12  41  1   
 28  12  42  1   
 29  13  15  1   
 30  14  16  1   
 31  15  43  1   
 32  15  44  1   
 33  15  45  1   
 34  16  17  1   
 35  16  46  1   
 36  16  47  1   
 37  17  18  2   
 38  17  19  am  
 39  19  20  1   
 40  19  48  1   
 41  20  21  ar  
 42  20  22  ar  
 43  21  23  1   
 44  21  24  ar  
 45  22  25  ar  
 46  22  49  1   
 47  23  26  1   
 48  24  27  ar  
 49  24  50  1   
 50  25  27  ar  
 51  25  51  1   
 52  26  52  1   
 53  26  53  1   
 54  26  54  1   
 55  27  28  1   
 56  28  29  1   
 57  29  55  1   
 58  29  56  1   
 59  29  57  1   
@<TRIPOS>SUBSTRUCTURE
  1 ****   7 GROUP 4 **** **** 0

# MOE 2024.06 (io_trps.svl 2023.06)
