@<TRIPOS>MOLECULE
10653
31 31 1 0 0 
SMALL
USER_CHARGES


@<TRIPOS>ATOM
  1 CL       1.2320    -1.0390    -1.2260 Cl    1 <1>  -0.1770 
  2 C        2.2380     0.3760    -1.0400 C.ar  1 <1>   0.1770 
  3 C        3.5310     0.2340    -0.5740 C.ar  1 <1>  -0.1500 
  4 C        1.7270     1.6170    -1.3630 C.ar  1 <1>  -0.1500 
  5 C        4.3400     1.3500    -0.4250 C.ar  1 <1>  -0.1440 
  6 C        2.5310     2.7330    -1.2130 C.ar  1 <1>  -0.1500 
  7 C        3.8350     2.6160    -0.7430 C.ar  1 <1>   0.1170 
  8 C        5.7640     1.1560     0.0820 C.3   1 <1>  -0.0960 
  9 N        4.6010     3.7830    -0.6270 N.am  1 <1>  -0.5470 
 10 C        5.1140     4.3460     0.5060 C.2   1 <1>   0.5690 
 11 O        4.9500     3.8860     1.6080 O.2   1 <1>  -0.5700 
 12 C        5.9270     5.6170     0.3570 C.3   1 <1>  -0.0990 
 13 C        7.3150     5.3490    -0.2470 C.3   1 <1>  -0.1600 
 14 C        8.1250     6.6440    -0.3800 C.3   1 <1>  -0.1600 
 15 C        9.5060     6.3690    -0.9810 C.3   1 <1>  -0.2400 
 16 H        3.8920    -0.7490    -0.3310 H     1 <1>   0.1500 
 17 H        0.7180     1.7030    -1.7230 H     1 <1>   0.1500 
 18 H        2.1400     3.7050    -1.4540 H     1 <1>   0.1500 
 19 H        6.0720     0.1310    -0.0160 H     1 <1>   0.0800 
 20 H        5.8190     1.4300     1.1210 H     1 <1>   0.0800 
 21 H        6.4500     1.7680    -0.4740 H     1 <1>   0.0800 
 22 H        4.7400     4.3040    -1.4890 H     1 <1>   0.3700 
 23 H        6.0400     6.0620     1.3310 H     1 <1>   0.0800 
 24 H        5.3820     6.3100    -0.2570 H     1 <1>   0.0800 
 25 H        7.2080     4.8930    -1.2160 H     1 <1>   0.0800 
 26 H        7.8450     4.6590     0.3890 H     1 <1>   0.0800 
 27 H        8.2460     7.0970     0.5900 H     1 <1>   0.0800 
 28 H        7.5980     7.3420    -1.0100 H     1 <1>   0.0800 
 29 H       10.0600     5.6920    -0.3550 H     1 <1>   0.0800 
 30 H       10.0600     7.2880    -1.0640 H     1 <1>   0.0800 
 31 H        9.4120     5.9380    -1.9620 H     1 <1>   0.0800 
@<TRIPOS>BOND
  1   1   2  1   
  2   2   3  ar  
  3   2   4  ar  
  4   3   5  ar  
  5   3  16  1   
  6   4   6  ar  
  7   4  17  1   
  8   5   7  ar  
  9   5   8  1   
 10   6   7  ar  
 11   6  18  1   
 12   7   9  1   
 13   8  19  1   
 14   8  20  1   
 15   8  21  1   
 16   9  10  am  
 17   9  22  1   
 18  10  11  2   
 19  10  12  1   
 20  12  13  1   
 21  12  23  1   
 22  12  24  1   
 23  13  14  1   
 24  13  25  1   
 25  13  26  1   
 26  14  15  1   
 27  14  27  1   
 28  14  28  1   
 29  15  29  1   
 30  15  30  1   
 31  15  31  1   
@<TRIPOS>SUBSTRUCTURE
  1 ****   9 GROUP 4 **** **** 0

# MOE 2024.06 (io_trps.svl 2023.06)
