@<TRIPOS>MOLECULE
5776
47 49 1 0 0 
SMALL
USER_CHARGES


@<TRIPOS>ATOM
  1 S       -0.5980     0.3720    -0.7600 S.3   1 <1>  -0.0800 
  2 C       -1.5960    -1.0120    -0.2910 C.2   1 <1>   0.1040 
  3 C        0.8060    -0.3710    -0.0380 C.2   1 <1>  -0.1400 
  4 N       -2.9470    -1.0270    -0.6050 N.am  1 <1>  -0.4940 
  5 C       -0.8530    -1.9610     0.3720 C.2   1 <1>  -0.0860 
  6 C        0.5210    -1.5460     0.4940 C.2   1 <1>  -0.1810 
  7 C        2.2190     0.1000     0.0660 C.3   1 <1>   0.0200 
  8 C       -3.7880    -0.1530    -1.2500 C.2   1 <1>   0.5690 
  9 C       -1.3350    -3.2140     0.8870 C.2   1 <1>   0.8060 
 10 C        1.7580    -2.1540     1.1070 C.3   1 <1>   0.0210 
 11 C        2.8590    -1.0880     0.8300 C.3   1 <1>  -0.1600 
 12 O       -3.4480     0.9170    -1.6930 O.2   1 <1>  -0.5700 
 13 C       -5.2510    -0.5810    -1.4190 C.3   1 <1>   0.2610 
 14 O       -0.6430    -4.0090     1.4960 O.2   1 <1>  -0.5700 
 15 O       -2.6240    -3.5270     0.6800 O.3   1 <1>  -0.4300 
 16 O       -5.5640    -1.5980    -0.4710 O.3   1 <1>  -0.3620 
 17 C       -5.5180    -1.1410    -2.8240 C.3   1 <1>  -0.2400 
 18 C       -3.1780    -4.7470     1.1360 C.3   1 <1>   0.0400 
 19 C       -6.8180    -1.7960     0.0140 C.ar  1 <1>   0.0830 
 20 C       -6.9400    -2.7110     1.0470 C.ar  1 <1>  -0.1500 
 21 C       -7.9560    -1.1440    -0.4580 C.ar  1 <1>  -0.1500 
 22 C       -8.1770    -2.9800     1.6040 C.ar  1 <1>  -0.1500 
 23 C       -9.1940    -1.4140     0.1000 C.ar  1 <1>  -0.1500 
 24 C       -9.3110    -2.3370     1.1360 C.ar  1 <1>   0.0830 
 25 O      -10.4860    -2.6590     1.7370 O.3   1 <1>  -0.3630 
 26 C      -11.6990    -2.0640     1.3350 C.3   1 <1>   0.0400 
 27 H       -3.4470    -1.8580    -0.2710 H     1 <1>   0.3700 
 28 H        2.2750     1.0150     0.6270 H     1 <1>   0.0800 
 29 H        2.6500     0.2270    -0.9120 H     1 <1>   0.0800 
 30 H        1.9910    -3.0900     0.6310 H     1 <1>   0.0800 
 31 H        1.6180    -2.3070     2.1630 H     1 <1>   0.0800 
 32 H        3.2750    -0.7440     1.7600 H     1 <1>   0.0800 
 33 H        3.6470    -1.5220     0.2400 H     1 <1>   0.0800 
 34 H       -5.8630     0.2800    -1.2190 H     1 <1>   0.0800 
 35 H       -4.8830    -1.9870    -3.0120 H     1 <1>   0.0800 
 36 H       -5.3000    -0.3850    -3.5580 H     1 <1>   0.0800 
 37 H       -6.5450    -1.4350    -2.9350 H     1 <1>   0.0800 
 38 H       -3.1090    -4.7820     2.2100 H     1 <1>   0.0800 
 39 H       -2.6280    -5.5640     0.7010 H     1 <1>   0.0800 
 40 H       -4.2070    -4.7920     0.8280 H     1 <1>   0.0800 
 41 H       -6.0630    -3.2100     1.4160 H     1 <1>   0.1500 
 42 H       -7.9040    -0.4300    -1.2570 H     1 <1>   0.1500 
 43 H       -8.2730    -3.6900     2.4060 H     1 <1>   0.1500 
 44 H      -10.0550    -0.8990    -0.2830 H     1 <1>   0.1500 
 45 H      -12.4870    -2.4680     1.9450 H     1 <1>   0.0800 
 46 H      -11.8790    -2.3010     0.3010 H     1 <1>   0.0800 
 47 H      -11.6320    -1.0000     1.4820 H     1 <1>   0.0800 
@<TRIPOS>BOND
  1   1   2  1   
  2   1   3  1   
  3   2   4  1   
  4   2   5  2   
  5   3   6  2   
  6   3   7  1   
  7   4   8  am  
  8   4  27  1   
  9   5   6  1   
 10   5   9  1   
 11   6  10  1   
 12   7  11  1   
 13   7  28  1   
 14   7  29  1   
 15   8  12  2   
 16   8  13  1   
 17   9  14  2   
 18   9  15  1   
 19  10  11  1   
 20  10  30  1   
 21  10  31  1   
 22  11  32  1   
 23  11  33  1   
 24  13  16  1   
 25  13  17  1   
 26  13  34  1   
 27  15  18  1   
 28  16  19  1   
 29  17  35  1   
 30  17  36  1   
 31  17  37  1   
 32  18  38  1   
 33  18  39  1   
 34  18  40  1   
 35  19  20  ar  
 36  19  21  ar  
 37  20  22  ar  
 38  20  41  1   
 39  21  23  ar  
 40  21  42  1   
 41  22  24  ar  
 42  22  43  1   
 43  23  24  ar  
 44  23  44  1   
 45  24  25  1   
 46  25  26  1   
 47  26  45  1   
 48  26  46  1   
 49  26  47  1   
@<TRIPOS>SUBSTRUCTURE
  1 ****   4 GROUP 4 **** **** 0

# MOE 2024.06 (io_trps.svl 2023.06)
