@<TRIPOS>MOLECULE
2-Cyclohexyl-5,6,7,8-tetrahydro-3H-benzo[4,5]thieno[2,3-d]pyrimidin-4-one
40 43 1 0 0 
SMALL
USER_CHARGES


@<TRIPOS>ATOM
  1 S        0.1720     0.3390     1.0830 S.3   1 <1>  -0.0800 
  2 C        0.9520     1.6370     0.2030 C.2   1 <1>   0.1240 
  3 C       -1.3920     0.8390     0.4440 C.2   1 <1>  -0.1400 
  4 N        2.2810     1.8950     0.2100 N.pl3 1 <1>  -0.5340 
  5 C        0.0770     2.3840    -0.5110 C.2   1 <1>  -0.0860 
  6 C       -1.2770     1.9150    -0.3530 C.2   1 <1>  -0.1810 
  7 C       -2.6500     0.0840     0.8120 C.3   1 <1>   0.0200 
  8 C        2.7540     2.9420    -0.5280 C.2   1 <1>   0.4390 
  9 C        0.6410     3.4600    -1.2660 C.2   1 <1>   0.8670 
 10 C       -2.4900     2.5480    -1.0170 C.3   1 <1>   0.0210 
 11 C       -3.7870     0.5160    -0.1330 C.3   1 <1>  -0.1600 
 12 N        1.9970     3.7010    -1.2380 N.2   1 <1>  -0.6610 
 13 C        4.2600     3.2010    -0.4920 C.3   1 <1>  -0.0190 
 14 O       -0.0520     4.1940    -1.9550 O.2   1 <1>  -0.5700 
 15 C       -3.7970     2.0410    -0.3720 C.3   1 <1>  -0.1600 
 16 C        5.0590     2.0120    -1.0620 C.3   1 <1>  -0.1600 
 17 C        4.7450     3.5590     0.9270 C.3   1 <1>  -0.1600 
 18 C        6.5690     2.2860    -1.0320 C.3   1 <1>  -0.1600 
 19 C        6.2560     3.8280     0.9520 C.3   1 <1>  -0.1600 
 20 C        7.0420     2.6390     0.3840 C.3   1 <1>  -0.1600 
 21 H        2.9230     1.3200     0.7570 H     1 <1>   0.4000 
 22 H       -2.9070     0.3130     1.8310 H     1 <1>   0.0800 
 23 H       -2.4860    -0.9750     0.7270 H     1 <1>   0.0800 
 24 H       -2.4780     2.3010    -2.0650 H     1 <1>   0.0800 
 25 H       -2.4430     3.6190    -0.9260 H     1 <1>   0.0800 
 26 H       -4.7310     0.2020     0.2770 H     1 <1>   0.0800 
 27 H       -3.6580     0.0210    -1.0800 H     1 <1>   0.0800 
 28 H        4.4530     4.0520    -1.1230 H     1 <1>   0.0800 
 29 H       -4.6290     2.3070    -1.0010 H     1 <1>   0.0800 
 30 H       -3.9290     2.5380     0.5740 H     1 <1>   0.0800 
 31 H        4.7510     1.8300    -2.0780 H     1 <1>   0.0800 
 32 H        4.8550     1.1230    -0.4920 H     1 <1>   0.0800 
 33 H        4.5240     2.7540     1.6070 H     1 <1>   0.0800 
 34 H        4.2210     4.4340     1.2720 H     1 <1>   0.0800 
 35 H        6.7970     3.1020    -1.6970 H     1 <1>   0.0800 
 36 H        7.1010     1.4180    -1.3840 H     1 <1>   0.0800 
 37 H        6.5720     4.0200     1.9630 H     1 <1>   0.0800 
 38 H        6.4700     4.7070     0.3680 H     1 <1>   0.0800 
 39 H        8.0910     2.8790     0.3630 H     1 <1>   0.0800 
 40 H        6.9130     1.7850     1.0280 H     1 <1>   0.0800 
@<TRIPOS>BOND
  1   1   2  1   
  2   1   3  1   
  3   2   4  1   
  4   2   5  2   
  5   3   6  2   
  6   3   7  1   
  7   4   8  1   
  8   4  21  1   
  9   5   6  1   
 10   5   9  1   
 11   6  10  1   
 12   7  11  1   
 13   7  22  1   
 14   7  23  1   
 15   8  12  2   
 16   8  13  1   
 17   9  12  1   
 18   9  14  2   
 19  10  15  1   
 20  10  24  1   
 21  10  25  1   
 22  11  15  1   
 23  11  26  1   
 24  11  27  1   
 25  13  16  1   
 26  13  17  1   
 27  13  28  1   
 28  15  29  1   
 29  15  30  1   
 30  16  18  1   
 31  16  31  1   
 32  16  32  1   
 33  17  19  1   
 34  17  33  1   
 35  17  34  1   
 36  18  20  1   
 37  18  35  1   
 38  18  36  1   
 39  19  20  1   
 40  19  37  1   
 41  19  38  1   
 42  20  39  1   
 43  20  40  1   
@<TRIPOS>SUBSTRUCTURE
  1 ****   2 GROUP 4 **** **** 0

# MOE 2024.06 (io_trps.svl 2023.06)
