@<TRIPOS>MOLECULE
3-{4-Methyl-5-[4-(pyrrolidine-1-sulfonyl)-phenyl]-4H-[1,2,4]triazol-3-ylsulfanylmethyl}-pyridine
49 52 1 0 0 
SMALL
USER_CHARGES


@<TRIPOS>ATOM
  1 S       -0.1300     0.1660    -1.6400 S.o2  1 <1>   1.4470 
  2 O       -0.3570     1.5670    -1.9260 O.2   1 <1>  -0.6500 
  3 O       -0.5200    -0.8300    -2.6140 O.2   1 <1>  -0.6500 
  4 N       -0.9700    -0.1940    -0.2140 N.am  1 <1>  -0.8490 
  5 C        1.6010    -0.1090    -1.1700 C.ar  1 <1>  -0.0090 
  6 C       -2.4010    -0.3220    -0.4210 C.3   1 <1>   0.1960 
  7 C       -0.8170     0.7880     0.8460 C.3   1 <1>   0.1960 
  8 C        2.5670     0.8770    -1.3370 C.ar  1 <1>  -0.1500 
  9 C        2.0070    -1.3200    -0.6220 C.ar  1 <1>  -0.1500 
 10 C       -3.0000    -0.2430     0.9790 C.3   1 <1>  -0.1600 
 11 C       -1.9350     0.4550     1.8260 C.3   1 <1>  -0.1600 
 12 C        3.8840     0.6580    -0.9770 C.ar  1 <1>  -0.1500 
 13 C        3.3230    -1.5410    -0.2610 C.ar  1 <1>  -0.1500 
 14 C        4.2940    -0.5590    -0.4400 C.ar  1 <1>   0.0530 
 15 C        5.6750    -0.7770    -0.0870 C.2   1 <1>   0.1340 
 16 N        6.3800     0.0030     0.6870 N.2   1 <1>  -0.3380 
 17 N        6.4250    -1.8100    -0.5230 N.pl3 1 <1>   0.0480 
 18 N        7.6050    -0.5110     0.7840 N.2   1 <1>  -0.3380 
 19 C        7.5940    -1.5740     0.0610 C.2   1 <1>   0.2430 
 20 C        6.0730    -2.9010    -1.4560 C.3   1 <1>   0.0160 
 21 S        9.0170    -2.6430    -0.1510 S.3   1 <1>  -0.2860 
 22 C       10.3030    -1.8040     0.8720 C.3   1 <1>   0.2130 
 23 C       11.5820    -2.6140     0.7790 C.ar  1 <1>  -0.1430 
 24 C       11.7950    -3.6880     1.6300 C.ar  1 <1>   0.1600 
 25 C       12.5540    -2.2990    -0.1510 C.ar  1 <1>  -0.1500 
 26 N       12.8770    -4.4510     1.6340 N.ar  1 <1>  -0.6200 
 27 C       13.6860    -3.0850    -0.1630 C.ar  1 <1>  -0.1500 
 28 C       13.7950    -4.1310     0.7370 C.ar  1 <1>   0.1600 
 29 H       -2.6380    -1.2510    -0.9120 H     1 <1>   0.0800 
 30 H       -2.7600     0.5010    -1.0200 H     1 <1>   0.0800 
 31 H       -0.9650     1.7840     0.4610 H     1 <1>   0.0800 
 32 H        0.1550     0.7180     1.3060 H     1 <1>   0.0800 
 33 H        2.2830     1.8300    -1.7540 H     1 <1>   0.1500 
 34 H        1.2730    -2.0950    -0.4760 H     1 <1>   0.1500 
 35 H       -3.1840    -1.2350     1.3520 H     1 <1>   0.0800 
 36 H       -3.9260     0.3040     0.9630 H     1 <1>   0.0800 
 37 H       -2.3100     1.3460     2.2980 H     1 <1>   0.0800 
 38 H       -1.5630    -0.2150     2.5810 H     1 <1>   0.0800 
 39 H        4.6140     1.4390    -1.1100 H     1 <1>   0.1500 
 40 H        3.5990    -2.4850     0.1750 H     1 <1>   0.1500 
 41 H        5.2700    -2.5870    -2.0990 H     1 <1>   0.0800 
 42 H        5.7690    -3.7660    -0.8940 H     1 <1>   0.0800 
 43 H        6.9270    -3.1490    -2.0600 H     1 <1>   0.0800 
 44 H        9.9300    -1.7540     1.8800 H     1 <1>   0.0800 
 45 H       10.4260    -0.8100     0.4790 H     1 <1>   0.0800 
 46 H       11.0320    -3.9370     2.3490 H     1 <1>   0.1500 
 47 H       12.4360    -1.4790    -0.8380 H     1 <1>   0.1500 
 48 H       14.4780    -2.8920    -0.8630 H     1 <1>   0.1500 
 49 H       14.6850    -4.7380     0.7180 H     1 <1>   0.1500 
@<TRIPOS>BOND
  1   1   2  2   
  2   1   3  2   
  3   1   4  am  
  4   1   5  1   
  5   4   6  1   
  6   4   7  1   
  7   5   8  ar  
  8   5   9  ar  
  9   6  10  1   
 10   6  29  1   
 11   6  30  1   
 12   7  11  1   
 13   7  31  1   
 14   7  32  1   
 15   8  12  ar  
 16   8  33  1   
 17   9  13  ar  
 18   9  34  1   
 19  10  11  1   
 20  10  35  1   
 21  10  36  1   
 22  11  37  1   
 23  11  38  1   
 24  12  14  ar  
 25  12  39  1   
 26  13  14  ar  
 27  13  40  1   
 28  14  15  1   
 29  15  16  2   
 30  15  17  1   
 31  16  18  1   
 32  17  19  1   
 33  17  20  1   
 34  18  19  2   
 35  19  21  1   
 36  20  41  1   
 37  20  42  1   
 38  20  43  1   
 39  21  22  1   
 40  22  23  1   
 41  22  44  1   
 42  22  45  1   
 43  23  24  ar  
 44  23  25  ar  
 45  24  26  ar  
 46  24  46  1   
 47  25  27  ar  
 48  25  47  1   
 49  26  28  ar  
 50  27  28  ar  
 51  27  48  1   
 52  28  49  1   
@<TRIPOS>SUBSTRUCTURE
  1 ****  15 GROUP 4 **** **** 0

# MOE 2024.06 (io_trps.svl 2023.06)
