@<TRIPOS>MOLECULE
NONAME
41 42 1 0 0 
SMALL
USER_CHARGES


@<TRIPOS>ATOM
  1 S       -1.2740     1.1400     2.4500 S.3   1 <1>  -0.9360 
  2 C       -2.5270     0.9010     1.4680 C.cat 1 <1>   0.7360 
  3 N       -2.9730    -0.3070     1.1710 N.pl3 1 <1>  -0.7000 
  4 N       -3.1990     1.8440     0.8190 N.pl3 1 <1>  -0.7640 
  5 C       -3.9730    -0.1510     0.2640 C.2   1 <1>   0.4260 
  6 C       -4.1420     1.1730     0.0230 C.2   1 <1>   0.2770 
  7 C       -2.8450     3.3000     0.8080 C.3   1 <1>   0.4150 
  8 N       -4.7160    -1.1420    -0.3500 N.am  1 <1>  -0.4360 
  9 C       -5.1510     1.5780    -0.9040 C.2   1 <1>   0.7030 
 10 C       -1.6410     3.6240    -0.0880 C.2   1 <1>   0.5690 
 11 C       -5.6660    -0.7590    -1.2840 C.2   1 <1>   0.6900 
 12 C       -4.4720    -2.5750    -0.0180 C.3   1 <1>   0.0600 
 13 O       -5.4090     2.7560    -1.1040 O.2   1 <1>  -0.5700 
 14 N       -5.8650     0.5880    -1.5690 N.am  1 <1>  -0.4200 
 15 O       -1.8070     4.3590    -1.0350 O.2   1 <1>  -0.5700 
 16 N       -0.4330     3.0690     0.2140 N.am  1 <1>  -0.7300 
 17 O       -6.3280    -1.6040    -1.8540 O.2   1 <1>  -0.5700 
 18 C       -6.8940     0.9770    -2.5840 C.3   1 <1>   0.0600 
 19 C        0.8510     3.1660    -0.4740 C.3   1 <1>   0.3000 
 20 C        0.7160     2.6100    -1.8910 C.3   1 <1>  -0.2400 
 21 C        1.3190     4.6200    -0.4860 C.3   1 <1>  -0.2400 
 22 C        1.8310     2.3110     0.3250 C.3   1 <1>  -0.2400 
 23 H       -2.5260    -1.1170     1.5900 H     1 <1>   0.4500 
 24 H       -2.6090     3.6100     1.8100 H     1 <1>   0.0800 
 25 H       -3.6890     3.8760     0.4750 H     1 <1>   0.0800 
 26 H       -3.5320    -2.8880    -0.4380 H     1 <1>   0.0800 
 27 H       -5.2520    -3.2020    -0.4160 H     1 <1>   0.0800 
 28 H       -4.4460    -2.7050     1.0500 H     1 <1>   0.0800 
 29 H       -0.4100     2.4220     1.0240 H     1 <1>   0.3700 
 30 H       -6.6340     1.9120    -3.0500 H     1 <1>   0.0800 
 31 H       -7.8520     1.0790    -2.1050 H     1 <1>   0.0800 
 32 H       -6.9670     0.2280    -3.3540 H     1 <1>   0.0800 
 33 H        0.0450     3.2150    -2.4730 H     1 <1>   0.0800 
 34 H        0.3450     1.6010    -1.8640 H     1 <1>   0.0800 
 35 H        1.6720     2.6100    -2.3810 H     1 <1>   0.0800 
 36 H        1.3650     5.0060     0.5160 H     1 <1>   0.0800 
 37 H        0.6500     5.2290    -1.0660 H     1 <1>   0.0800 
 38 H        2.2980     4.6900    -0.9250 H     1 <1>   0.0800 
 39 H        1.9200     2.6820     1.3310 H     1 <1>   0.0800 
 40 H        2.8040     2.3340    -0.1310 H     1 <1>   0.0800 
 41 H        1.4980     1.2890     0.3620 H     1 <1>   0.0800 
@<TRIPOS>BOND
  1   1   2  1   
  2   2   3  ar  
  3   2   4  ar  
  4   3   5  1   
  5   3  23  1   
  6   4   6  1   
  7   4   7  1   
  8   5   6  2   
  9   5   8  1   
 10   6   9  1   
 11   7  10  1   
 12   7  24  1   
 13   7  25  1   
 14   8  11  am  
 15   8  12  1   
 16   9  13  2   
 17   9  14  am  
 18  10  15  2   
 19  10  16  am  
 20  11  14  am  
 21  11  17  2   
 22  12  26  1   
 23  12  27  1   
 24  12  28  1   
 25  14  18  1   
 26  16  19  1   
 27  16  29  1   
 28  18  30  1   
 29  18  31  1   
 30  18  32  1   
 31  19  20  1   
 32  19  21  1   
 33  19  22  1   
 34  20  33  1   
 35  20  34  1   
 36  20  35  1   
 37  21  36  1   
 38  21  37  1   
 39  21  38  1   
 40  22  39  1   
 41  22  40  1   
 42  22  41  1   
@<TRIPOS>SUBSTRUCTURE
  1 ****   4 GROUP 4 **** **** 0

# MOE 2024.06 (io_trps.svl 2023.06)
