@<TRIPOS>MOLECULE
NONAME
62 64 1 0 0 
SMALL
USER_CHARGES


@<TRIPOS>ATOM
  1 O        0.3980    -0.3800     0.2120 O.2   1 <1>  -0.5740 
  2 C        1.5110    -0.8560     0.1240 C.2   1 <1>   0.6870 
  3 N        2.6030    -0.0260    -0.1210 N.am  1 <1>  -0.4250 
  4 N        1.6980    -2.2230     0.2710 N.am  1 <1>  -0.4400 
  5 C        3.8920    -0.5380    -0.1970 C.2   1 <1>   0.7000 
  6 C        2.3680     1.4440    -0.2750 C.3   1 <1>   0.0540 
  7 C        2.9840    -2.7150     0.1830 C.2   1 <1>   0.4220 
  8 C        0.5560    -3.1590     0.5030 C.3   1 <1>   0.0540 
  9 O        4.8510     0.1920    -0.3850 O.2   1 <1>  -0.5740 
 10 C        4.0700    -1.9490    -0.0440 C.2   1 <1>   0.2720 
 11 N        3.3890    -4.0010     0.2980 N.pl3 1 <1>  -0.7030 
 12 N        5.1780    -2.8190    -0.0740 N.pl3 1 <1>  -0.7670 
 13 C        4.7030    -4.0530     0.1430 C.cat 1 <1>   1.0690 
 14 C        6.5600    -2.3090    -0.3230 C.3   1 <1>   0.4930 
 15 N        5.3980    -5.1890     0.1950 N.pl3 1 <1>  -0.7170 
 16 C        7.5510    -3.4610    -0.3420 C.ar  1 <1>  -0.1490 
 17 C        4.9210    -6.5460     0.5700 C.3   1 <1>   0.1620 
 18 C        8.1620    -3.9260     0.8200 C.ar  1 <1>  -0.1490 
 19 C        7.7880    -4.1030    -1.5500 C.ar  1 <1>  -0.1560 
 20 C        4.2640    -7.2580    -0.6260 C.3   1 <1>   0.1340 
 21 C        8.9830    -5.0390     0.7500 C.ar  1 <1>  -0.1560 
 22 C        7.9550    -3.2570     2.1730 C.3   1 <1>  -0.1030 
 23 C        8.6030    -5.2180    -1.6100 C.ar  1 <1>  -0.1490 
 24 N        3.0550    -8.0040    -0.1960 N.am  1 <1>  -0.7330 
 25 C        9.1990    -5.6840    -0.4530 C.ar  1 <1>  -0.1560 
 26 C        8.8590    -5.9180    -2.9330 C.3   1 <1>  -0.1030 
 27 C        1.8920    -7.4370     0.2200 C.2   1 <1>   0.5650 
 28 O        1.8050    -6.2370     0.3590 O.2   1 <1>  -0.5740 
 29 C        0.6950    -8.3380     0.5320 C.3   1 <1>  -0.0260 
 30 C       -0.5510    -7.9250    -0.2680 C.3   1 <1>  -0.2450 
 31 C        0.3770    -8.3420     2.0360 C.3   1 <1>  -0.2450 
 32 H        1.4860     1.6170    -0.8690 H     1 <1>   0.0740 
 33 H        3.1990     1.9240    -0.7610 H     1 <1>   0.0740 
 34 H        2.2240     1.8890     0.6940 H     1 <1>   0.0740 
 35 H       -0.3710    -2.6210     0.6110 H     1 <1>   0.0740 
 36 H        0.7240    -3.7280     1.4000 H     1 <1>   0.0740 
 37 H        0.4640    -3.8350    -0.3290 H     1 <1>   0.0740 
 38 H        2.7820    -4.8260     0.4150 H     1 <1>   0.4460 
 39 H        6.8260    -1.5930     0.4370 H     1 <1>   0.0740 
 40 H        6.5860    -1.7960    -1.2700 H     1 <1>   0.0740 
 41 H        6.4160    -5.1090     0.0350 H     1 <1>   0.4460 
 42 H        4.2180    -6.4560     1.3810 H     1 <1>   0.0740 
 43 H        5.7550    -7.1300     0.9210 H     1 <1>   0.0740 
 44 H        7.3320    -3.7430    -2.4570 H     1 <1>   0.1440 
 45 H        4.9650    -7.9420    -1.0750 H     1 <1>   0.0740 
 46 H        3.9670    -6.5400    -1.3710 H     1 <1>   0.0740 
 47 H        9.4700    -5.4140     1.6350 H     1 <1>   0.1440 
 48 H        6.9100    -3.2060     2.4200 H     1 <1>   0.0740 
 49 H        8.3640    -2.2620     2.1600 H     1 <1>   0.0740 
 50 H        8.4530    -3.8060     2.9530 H     1 <1>   0.0740 
 51 H        3.0900    -9.0220    -0.3130 H     1 <1>   0.3650 
 52 H        9.8450    -6.5450    -0.4860 H     1 <1>   0.1440 
 53 H        8.0360    -5.7720    -3.6100 H     1 <1>   0.0740 
 54 H        8.9890    -6.9750    -2.7810 H     1 <1>   0.0740 
 55 H        9.7520    -5.5240    -3.3850 H     1 <1>   0.0740 
 56 H        0.9470    -9.3440     0.2470 H     1 <1>   0.0740 
 57 H       -0.8600    -6.9310     0.0010 H     1 <1>   0.0740 
 58 H       -1.3640    -8.6020    -0.0730 H     1 <1>   0.0740 
 59 H       -0.3380    -7.9440    -1.3220 H     1 <1>   0.0740 
 60 H        0.1000    -7.3560     2.3640 H     1 <1>   0.0740 
 61 H        1.2370    -8.6610     2.5970 H     1 <1>   0.0740 
 62 H       -0.4350    -9.0150     2.2450 H     1 <1>   0.0740 
@<TRIPOS>BOND
  1   1   2  2   
  2   2   3  am  
  3   2   4  am  
  4   3   5  am  
  5   3   6  1   
  6   4   7  1   
  7   4   8  1   
  8   5   9  2   
  9   5  10  1   
 10   6  32  1   
 11   6  33  1   
 12   6  34  1   
 13   7  10  2   
 14   7  11  1   
 15   8  35  1   
 16   8  36  1   
 17   8  37  1   
 18  10  12  1   
 19  11  13  ar  
 20  11  38  1   
 21  12  13  ar  
 22  12  14  1   
 23  13  15  ar  
 24  14  16  1   
 25  14  39  1   
 26  14  40  1   
 27  15  17  1   
 28  15  41  1   
 29  16  18  ar  
 30  16  19  ar  
 31  17  20  1   
 32  17  42  1   
 33  17  43  1   
 34  18  21  ar  
 35  18  22  1   
 36  19  23  ar  
 37  19  44  1   
 38  20  24  1   
 39  20  45  1   
 40  20  46  1   
 41  21  25  ar  
 42  21  47  1   
 43  22  48  1   
 44  22  49  1   
 45  22  50  1   
 46  23  25  ar  
 47  23  26  1   
 48  24  27  am  
 49  24  51  1   
 50  25  52  1   
 51  26  53  1   
 52  26  54  1   
 53  26  55  1   
 54  27  28  2   
 55  27  29  1   
 56  29  30  1   
 57  29  31  1   
 58  29  56  1   
 59  30  57  1   
 60  30  58  1   
 61  30  59  1   
 62  31  60  1   
 63  31  61  1   
 64  31  62  1   
@<TRIPOS>SUBSTRUCTURE
  1 ****  13 GROUP 4 **** **** 0

# MOE 2024.06 (io_trps.svl 2023.06)
