@<TRIPOS>MOLECULE
N-(4-Isopropyl-phenyl)-2-[3-(3-methoxy-propyl)-2,4-dioxo-3,4-dihydro-2H-thieno[3
54 56 1 0 0 
SMALL
USER_CHARGES


@<TRIPOS>ATOM
  1 S        1.2490    -1.1330    -3.2150 S.3   1 <1>  -0.0800 
  2 C        2.4470    -1.3090    -1.9250 C.2   1 <1>  -0.0450 
  3 C        0.3800    -2.5530    -2.6580 C.2   1 <1>  -0.1100 
  4 C        3.5800    -0.4800    -1.7180 C.2   1 <1>   0.7150 
  5 C        2.1410    -2.3730    -1.1470 C.2   1 <1>   0.0630 
  6 C        0.9750    -3.0870    -1.5730 C.2   1 <1>  -0.1500 
  7 O        3.8210     0.4950    -2.4110 O.2   1 <1>  -0.5700 
  8 N        4.4280    -0.8300    -0.6790 N.am  1 <1>  -0.4200 
  9 N        2.9750    -2.6530    -0.0640 N.am  1 <1>  -0.4230 
 10 C        4.1510    -1.9360     0.1120 C.2   1 <1>   0.6900 
 11 C        5.6330    -0.0010    -0.3940 C.3   1 <1>   0.1400 
 12 C        2.6260    -3.7400     0.9050 C.3   1 <1>   0.2010 
 13 O        4.9500    -2.3040     0.9580 O.2   1 <1>  -0.5700 
 14 C        5.3050     1.0430     0.6760 C.3   1 <1>  -0.1600 
 15 C        3.2780    -5.0660     0.5380 C.2   1 <1>   0.5690 
 16 C        6.5230     1.9100     0.9820 C.3   1 <1>   0.1200 
 17 O        2.5560    -5.9900     0.2520 O.2   1 <1>  -0.5700 
 18 N        4.6460    -5.1310     0.5660 N.am  1 <1>  -0.5470 
 19 O        6.1640     2.7890     1.9930 O.3   1 <1>  -0.5600 
 20 C        5.5550    -6.1600     0.2780 C.ar  1 <1>   0.1170 
 21 C        7.1770     3.6630     2.3710 C.3   1 <1>   0.0400 
 22 C        5.1940    -7.3640    -0.3170 C.ar  1 <1>  -0.1500 
 23 C        6.8930    -5.9610     0.5920 C.ar  1 <1>  -0.1500 
 24 C        6.1420    -8.3360    -0.5840 C.ar  1 <1>  -0.1500 
 25 C        7.8410    -6.9320     0.3260 C.ar  1 <1>  -0.1500 
 26 C        7.4760    -8.1330    -0.2660 C.ar  1 <1>  -0.1430 
 27 C        8.5070    -9.2180    -0.5690 C.3   1 <1>   0.0630 
 28 C        9.1680    -9.7200     0.7190 C.3   1 <1>  -0.2400 
 29 C        9.5600    -8.7120    -1.5600 C.3   1 <1>  -0.2400 
 30 H       -0.4940    -2.8460    -3.2130 H     1 <1>   0.1500 
 31 H        0.6310    -3.9700    -1.0650 H     1 <1>   0.1500 
 32 H        5.9640     0.4890    -1.2940 H     1 <1>   0.0800 
 33 H        6.4360    -0.6330    -0.0550 H     1 <1>   0.0800 
 34 H        1.5610    -3.8690     0.9440 H     1 <1>   0.0800 
 35 H        2.9470    -3.4600     1.8920 H     1 <1>   0.0800 
 36 H        4.9990     0.5470     1.5800 H     1 <1>   0.0800 
 37 H        4.5090     1.6780     0.3270 H     1 <1>   0.0800 
 38 H        6.8160     2.4790     0.1150 H     1 <1>   0.0800 
 39 H        7.3460     1.3070     1.3270 H     1 <1>   0.0800 
 40 H        5.0910    -4.2440     0.8320 H     1 <1>   0.3700 
 41 H        6.7980     4.2940     3.1550 H     1 <1>   0.0800 
 42 H        7.4600     4.2660     1.5260 H     1 <1>   0.0800 
 43 H        8.0180     3.0980     2.7350 H     1 <1>   0.0800 
 44 H        4.1710    -7.5540    -0.5800 H     1 <1>   0.1500 
 45 H        7.1990    -5.0390     1.0520 H     1 <1>   0.1500 
 46 H        5.8280    -9.2560    -1.0450 H     1 <1>   0.1500 
 47 H        8.8690    -6.7500     0.5840 H     1 <1>   0.1500 
 48 H        8.0030   -10.0540    -1.0260 H     1 <1>   0.0800 
 49 H        9.7300    -8.9360     1.1920 H     1 <1>   0.0800 
 50 H        9.8310   -10.5380     0.5030 H     1 <1>   0.0800 
 51 H        8.4130   -10.0630     1.4050 H     1 <1>   0.0800 
 52 H       10.1300    -7.9060    -1.1350 H     1 <1>   0.0800 
 53 H        9.0780    -8.3570    -2.4540 H     1 <1>   0.0800 
 54 H       10.2330    -9.5070    -1.8270 H     1 <1>   0.0800 
@<TRIPOS>BOND
  1   1   2  1   
  2   1   3  1   
  3   2   4  1   
  4   2   5  2   
  5   3   6  2   
  6   3  30  1   
  7   4   7  2   
  8   4   8  am  
  9   5   6  1   
 10   5   9  1   
 11   6  31  1   
 12   8  10  am  
 13   8  11  1   
 14   9  10  am  
 15   9  12  1   
 16  10  13  2   
 17  11  14  1   
 18  11  32  1   
 19  11  33  1   
 20  12  15  1   
 21  12  34  1   
 22  12  35  1   
 23  14  16  1   
 24  14  36  1   
 25  14  37  1   
 26  15  17  2   
 27  15  18  am  
 28  16  19  1   
 29  16  38  1   
 30  16  39  1   
 31  18  20  1   
 32  18  40  1   
 33  19  21  1   
 34  20  22  ar  
 35  20  23  ar  
 36  21  41  1   
 37  21  42  1   
 38  21  43  1   
 39  22  24  ar  
 40  22  44  1   
 41  23  25  ar  
 42  23  45  1   
 43  24  26  ar  
 44  24  46  1   
 45  25  26  ar  
 46  25  47  1   
 47  26  27  1   
 48  27  28  1   
 49  27  29  1   
 50  27  48  1   
 51  28  49  1   
 52  28  50  1   
 53  28  51  1   
 54  29  52  1   
 55  29  53  1   
 56  29  54  1   
@<TRIPOS>SUBSTRUCTURE
  1 ****  13 GROUP 4 **** **** 0

# MOE 2024.06 (io_trps.svl 2023.06)
