@<TRIPOS>MOLECULE
[1,2,3]Thiadiazole-4-carboxylic acid cyclopropyl-[(4-methoxy-benzylcarbamoyl)-m-tolyl-methyl]-amide
55 58 1 0 0 
SMALL
USER_CHARGES


@<TRIPOS>ATOM
  1 S        5.0670    -0.6230    -4.2460 S.3   1 <1>   0.1810 
  2 N        6.7220    -0.2900    -4.1090 N.2   1 <1>  -0.2210 
  3 C        5.0650    -1.5980    -2.8320 C.2   1 <1>  -0.1100 
  4 N        7.2120    -0.8650    -3.1020 N.2   1 <1>  -0.2270 
  5 C        6.3170    -1.6130    -2.3420 C.2   1 <1>   0.1410 
  6 C        6.7730    -2.2920    -1.1430 C.2   1 <1>   0.7160 
  7 O        7.7000    -3.0820    -1.2060 O.2   1 <1>  -0.5700 
  8 N        6.1680    -2.0900     0.0810 N.am  1 <1>  -0.5090 
  9 C        5.2040    -0.9900     0.3560 C.3   1 <1>   0.0490 
 10 C        6.5290    -2.9820     1.2450 C.3   1 <1>   0.4250 
 11 C        5.4570     0.3990    -0.1540 C.3   1 <1>  -0.2000 
 12 C        5.5990     0.1020     1.3020 C.3   1 <1>  -0.2000 
 13 C        5.2700    -3.3570     2.0480 C.ar  1 <1>  -0.1430 
 14 C        7.7750    -2.4380     1.9890 C.2   1 <1>   0.5690 
 15 C        4.5490    -4.4760     1.6480 C.ar  1 <1>  -0.1500 
 16 C        4.8060    -2.6270     3.1360 C.ar  1 <1>  -0.1500 
 17 O        7.7140    -1.9580     3.0980 O.2   1 <1>  -0.5700 
 18 N        8.9600    -2.4660     1.3210 N.am  1 <1>  -0.7300 
 19 C        3.3980    -4.8660     2.3120 C.ar  1 <1>  -0.1430 
 20 C        3.6580    -3.0110     3.8060 C.ar  1 <1>  -0.1500 
 21 C       10.1200    -1.6130     1.6200 C.3   1 <1>   0.2840 
 22 C        2.9560    -4.1280     3.3950 C.ar  1 <1>  -0.1500 
 23 C        2.6310    -6.0950     1.8590 C.3   1 <1>  -0.0970 
 24 C       10.4630    -0.8920     0.3300 C.ar  1 <1>  -0.1430 
 25 C       11.6620    -1.1290    -0.3250 C.ar  1 <1>  -0.1500 
 26 C        9.5480    -0.0090    -0.2260 C.ar  1 <1>  -0.1500 
 27 C       11.9310    -0.5050    -1.5310 C.ar  1 <1>  -0.1500 
 28 C        9.8110     0.6090    -1.4350 C.ar  1 <1>  -0.1500 
 29 C       11.0050     0.3530    -2.1000 C.ar  1 <1>   0.0830 
 30 O       11.3180     0.8950    -3.3030 O.3   1 <1>  -0.3630 
 31 C       10.2950     1.3710    -4.1510 C.3   1 <1>   0.0400 
 32 H        4.1450    -2.0500    -2.5120 H     1 <1>   0.1500 
 33 H        4.1870    -1.3430     0.4110 H     1 <1>   0.1000 
 34 H        6.8690    -3.9170     0.8400 H     1 <1>   0.0800 
 35 H        4.6200     1.0000    -0.4640 H     1 <1>   0.1000 
 36 H        6.3540     0.6340    -0.6990 H     1 <1>   0.1000 
 37 H        6.5860     0.1150     1.7290 H     1 <1>   0.1000 
 38 H        4.8570     0.4930     1.9750 H     1 <1>   0.1000 
 39 H        4.8840    -5.0570     0.8060 H     1 <1>   0.1500 
 40 H        5.3290    -1.7510     3.4780 H     1 <1>   0.1500 
 41 H        8.9550    -2.7910     0.3420 H     1 <1>   0.3700 
 42 H        3.3140    -2.4380     4.6490 H     1 <1>   0.1500 
 43 H       10.9410    -2.2260     1.9500 H     1 <1>   0.0800 
 44 H        9.8810    -0.9030     2.3940 H     1 <1>   0.0800 
 45 H        2.0660    -4.4190     3.9250 H     1 <1>   0.1500 
 46 H        2.7070    -6.2160     0.7940 H     1 <1>   0.0800 
 47 H        1.5910    -6.0060     2.1170 H     1 <1>   0.0800 
 48 H        3.0330    -6.9700     2.3380 H     1 <1>   0.0800 
 49 H       12.3870    -1.8060     0.0910 H     1 <1>   0.1500 
 50 H        8.6210     0.1900     0.2800 H     1 <1>   0.1500 
 51 H       12.8560    -0.6880    -2.0460 H     1 <1>   0.1500 
 52 H        9.0800     1.2790    -1.8460 H     1 <1>   0.1500 
 53 H       10.7290     1.5890    -5.1090 H     1 <1>   0.0800 
 54 H        9.8760     2.2660    -3.7270 H     1 <1>   0.0800 
 55 H        9.5430     0.6080    -4.2550 H     1 <1>   0.0800 
@<TRIPOS>BOND
  1   1   2  1   
  2   1   3  1   
  3   2   4  2   
  4   3   5  2   
  5   3  32  1   
  6   4   5  1   
  7   5   6  1   
  8   6   7  2   
  9   6   8  am  
 10   8   9  1   
 11   8  10  1   
 12   9  11  1   
 13   9  12  1   
 14   9  33  1   
 15  10  13  1   
 16  10  14  1   
 17  10  34  1   
 18  11  12  1   
 19  11  35  1   
 20  11  36  1   
 21  12  37  1   
 22  12  38  1   
 23  13  15  ar  
 24  13  16  ar  
 25  14  17  2   
 26  14  18  am  
 27  15  19  ar  
 28  15  39  1   
 29  16  20  ar  
 30  16  40  1   
 31  18  21  1   
 32  18  41  1   
 33  19  22  ar  
 34  19  23  1   
 35  20  22  ar  
 36  20  42  1   
 37  21  24  1   
 38  21  43  1   
 39  21  44  1   
 40  22  45  1   
 41  23  46  1   
 42  23  47  1   
 43  23  48  1   
 44  24  25  ar  
 45  24  26  ar  
 46  25  27  ar  
 47  25  49  1   
 48  26  28  ar  
 49  26  50  1   
 50  27  29  ar  
 51  27  51  1   
 52  28  29  ar  
 53  28  52  1   
 54  29  30  1   
 55  30  31  1   
 56  31  53  1   
 57  31  54  1   
 58  31  55  1   
@<TRIPOS>SUBSTRUCTURE
  1 ****   8 GROUP 4 **** **** 0

# MOE 2024.06 (io_trps.svl 2023.06)
