@<TRIPOS>MOLECULE
ka-06600
32 33 1 0 0 
SMALL
USER_CHARGES


@<TRIPOS>ATOM
  1 O       -1.0190     1.8020    -2.4510 O.2   1 <1>  -0.5700 
  2 C       -1.1210     2.0170    -1.2840 C.2   1 <1>   0.4480 
  3 C       -2.0260     1.2620    -0.3170 C.3   1 <1>   0.0420 
  4 C       -0.3340     3.1560    -0.6700 C.3   1 <1>  -0.0380 
  5 C       -2.6300    -0.0440    -0.8140 C.2   1 <1>   0.6590 
  6 C       -3.0910     2.2130     0.2920 C.3   1 <1>   0.0630 
  7 C       -1.1140     3.7590     0.4750 C.2   1 <1>   0.4480 
  8 O       -2.7270    -0.3620    -1.9700 O.2   1 <1>  -0.5700 
  9 O       -3.0690    -0.8390     0.1570 O.3   1 <1>  -0.4300 
 10 C       -4.4490     2.1650    -0.4080 C.ar  1 <1>  -0.1440 
 11 C       -2.6210     3.6810     0.3670 C.3   1 <1>  -0.0990 
 12 O       -0.5730     4.2190     1.4320 O.2   1 <1>  -0.5700 
 13 C       -3.7200    -2.0610    -0.1270 C.3   1 <1>   0.0400 
 14 C       -5.6030     2.0040     0.3470 C.ar  1 <1>  -0.1500 
 15 C       -4.5610     2.2860    -1.7870 C.ar  1 <1>  -0.1500 
 16 C       -6.8450     1.9640    -0.2630 C.ar  1 <1>  -0.1500 
 17 C       -5.8020     2.2450    -2.3980 C.ar  1 <1>  -0.1500 
 18 C       -6.9450     2.0850    -1.6370 C.ar  1 <1>  -0.1500 
 19 H       -1.3790     0.9660     0.4880 H     1 <1>   0.0800 
 20 H       -0.1510     3.9090    -1.4130 H     1 <1>   0.0800 
 21 H        0.6100     2.7920    -0.3120 H     1 <1>   0.0800 
 22 H       -3.2390     1.8750     1.3050 H     1 <1>   0.0800 
 23 H       -3.0760     4.1680     1.2110 H     1 <1>   0.0800 
 24 H       -2.9200     4.2160    -0.5170 H     1 <1>   0.0800 
 25 H       -3.9870    -2.5310     0.8020 H     1 <1>   0.0800 
 26 H       -3.0510    -2.6920    -0.6850 H     1 <1>   0.0800 
 27 H       -4.6040    -1.8540    -0.7060 H     1 <1>   0.0800 
 28 H       -5.5480     1.9080     1.4170 H     1 <1>   0.1500 
 29 H       -3.6890     2.4050    -2.4080 H     1 <1>   0.1500 
 30 H       -7.7330     1.8380     0.3310 H     1 <1>   0.1500 
 31 H       -5.8750     2.3340    -3.4680 H     1 <1>   0.1500 
 32 H       -7.9090     2.0520    -2.1130 H     1 <1>   0.1500 
@<TRIPOS>BOND
  1   1   2  2   
  2   2   3  1   
  3   2   4  1   
  4   3   5  1   
  5   3   6  1   
  6   3  19  1   
  7   4   7  1   
  8   4  20  1   
  9   4  21  1   
 10   5   8  2   
 11   5   9  1   
 12   6  10  1   
 13   6  11  1   
 14   6  22  1   
 15   7  11  1   
 16   7  12  2   
 17   9  13  1   
 18  10  14  ar  
 19  10  15  ar  
 20  11  23  1   
 21  11  24  1   
 22  13  25  1   
 23  13  26  1   
 24  13  27  1   
 25  14  16  ar  
 26  14  28  1   
 27  15  17  ar  
 28  15  29  1   
 29  16  18  ar  
 30  16  30  1   
 31  17  18  ar  
 32  17  31  1   
 33  18  32  1   
@<TRIPOS>SUBSTRUCTURE
  1 ****   6 GROUP 4 **** **** 0

# MOE 2024.06 (io_trps.svl 2023.06)
