@<TRIPOS>MOLECULE
9930
43 45 1 0 0 
SMALL
USER_CHARGES


@<TRIPOS>ATOM
  1 O        0.0760    -2.1590    -2.0910 O.2   1 <1>  -0.5750 
  2 C       -0.2590    -1.9870    -0.9390 C.2   1 <1>   0.7010 
  3 O        0.5720    -1.3390    -0.1170 O.3   1 <1>  -0.4360 
  4 C       -1.4990    -2.4480    -0.4040 C.2   1 <1>  -0.1330 
  5 C        1.7950    -0.7910    -0.5750 C.3   1 <1>   0.0310 
  6 C       -2.2810    -3.4640    -0.8620 C.2   1 <1>   0.1560 
  7 C       -1.9490    -1.6250     0.8050 C.3   1 <1>   0.7120 
  8 N       -3.4800    -3.7670    -0.2430 N.pl3 1 <1>  -0.6940 
  9 C       -1.9790    -4.3710    -2.0460 C.3   1 <1>  -0.1110 
 10 N       -3.1740    -2.1770     1.4340 N.pl3 1 <1>  -0.4630 
 11 C       -2.2080    -0.1630     0.4420 C.ar  1 <1>  -0.1520 
 12 C       -3.8830    -3.1140     0.8560 C.cat 1 <1>   1.0690 
 13 N       -3.8010    -1.7150     2.5580 N.2   1 <1>  -0.2680 
 14 C       -3.1570     0.1950    -0.5160 C.ar  1 <1>   0.0730 
 15 C       -1.4760     0.8300     1.0810 C.ar  1 <1>  -0.1590 
 16 N       -4.9710    -3.2910     1.5640 N.pl3 1 <1>  -0.7040 
 17 C       -4.8830    -2.4020     2.6020 C.2   1 <1>   0.4970 
 18 O       -3.8600    -0.7960    -1.1290 O.3   1 <1>  -0.3690 
 19 C       -3.3600     1.5380    -0.8180 C.ar  1 <1>  -0.1590 
 20 C       -1.6780     2.1700     0.7730 C.ar  1 <1>   0.0730 
 21 C       -4.5040    -0.5540    -2.3640 C.3   1 <1>   0.0310 
 22 C       -2.6230     2.5140    -0.1760 C.ar  1 <1>  -0.1590 
 23 O       -0.9970     3.1920     1.3520 O.3   1 <1>  -0.3690 
 24 C        0.0070     2.9580     2.3140 C.3   1 <1>   0.0310 
 25 H        2.2900    -0.3170     0.2530 H     1 <1>   0.0710 
 26 H        1.5860    -0.0660    -1.3440 H     1 <1>   0.0710 
 27 H        2.4090    -1.5830    -0.9690 H     1 <1>   0.0710 
 28 H       -1.1780    -1.6670     1.5550 H     1 <1>   0.0710 
 29 H       -4.0890    -4.4750    -0.6500 H     1 <1>   0.4440 
 30 H       -2.5630    -4.0700    -2.8970 H     1 <1>   0.0710 
 31 H       -2.2140    -5.3930    -1.8080 H     1 <1>   0.0710 
 32 H       -0.9420    -4.3460    -2.3230 H     1 <1>   0.0710 
 33 H       -0.7430     0.5580     1.8180 H     1 <1>   0.1410 
 34 H       -5.7320    -3.9380     1.3820 H     1 <1>   0.4440 
 35 H       -5.6450    -2.3050     3.3620 H     1 <1>   0.1410 
 36 H       -4.0870     1.8500    -1.5440 H     1 <1>   0.1410 
 37 H       -4.8470    -1.4940    -2.7580 H     1 <1>   0.0710 
 38 H       -3.8000    -0.1090    -3.0460 H     1 <1>   0.0710 
 39 H       -5.3430     0.0990    -2.2020 H     1 <1>   0.0710 
 40 H       -2.7760     3.5540    -0.4070 H     1 <1>   0.1410 
 41 H        0.4080     3.9090     2.6140 H     1 <1>   0.0710 
 42 H        0.7820     2.3580     1.8720 H     1 <1>   0.0710 
 43 H       -0.4300     2.4640     3.1630 H     1 <1>   0.0710 
@<TRIPOS>BOND
  1   1   2  2   
  2   2   3  1   
  3   2   4  1   
  4   3   5  1   
  5   4   6  2   
  6   4   7  1   
  7   5  25  1   
  8   5  26  1   
  9   5  27  1   
 10   6   8  1   
 11   6   9  1   
 12   7  10  1   
 13   7  11  1   
 14   7  28  1   
 15   8  12  ar  
 16   8  29  1   
 17   9  30  1   
 18   9  31  1   
 19   9  32  1   
 20  10  12  ar  
 21  10  13  1   
 22  11  14  ar  
 23  11  15  ar  
 24  12  16  ar  
 25  13  17  2   
 26  14  18  1   
 27  14  19  ar  
 28  15  20  ar  
 29  15  33  1   
 30  16  17  1   
 31  16  34  1   
 32  17  35  1   
 33  18  21  1   
 34  19  22  ar  
 35  19  36  1   
 36  20  22  ar  
 37  20  23  1   
 38  21  37  1   
 39  21  38  1   
 40  21  39  1   
 41  22  40  1   
 42  23  24  1   
 43  24  41  1   
 44  24  42  1   
 45  24  43  1   
@<TRIPOS>SUBSTRUCTURE
  1 ****  11 GROUP 4 **** **** 0

# MOE 2024.06 (io_trps.svl 2023.06)
