@<TRIPOS>MOLECULE
NONAME
54 56 1 0 0 
SMALL
USER_CHARGES


@<TRIPOS>ATOM
  1 O        0.7050     1.7000    -2.2420 O.3   1 <1>  -0.3620 
  2 C        1.3340     2.1620    -1.1270 C.ar  1 <1>   0.0830 
  3 C       -0.0030     0.4890    -2.0990 C.3   1 <1>   0.0400 
  4 C        0.6310     2.6400    -0.0050 C.ar  1 <1>   0.1000 
  5 C        2.7170     2.1520    -1.1430 C.ar  1 <1>  -0.1500 
  6 N       -0.7720     2.7000     0.0370 N.pl3 1 <1>  -0.8380 
  7 C        1.3760     3.0790     1.0860 C.ar  1 <1>  -0.1500 
  8 C        3.4340     2.5940    -0.0440 C.ar  1 <1>  -0.1500 
  9 C       -1.5490     2.4790     1.2840 C.3   1 <1>   0.2090 
 10 C       -1.4810     3.5840    -0.9300 C.3   1 <1>   0.2090 
 11 C        2.7600     3.0550     1.0710 C.ar  1 <1>  -0.1500 
 12 C       -2.9420     1.9200     0.9380 C.3   1 <1>   0.1100 
 13 C       -2.8830     3.0260    -1.2350 C.3   1 <1>   0.1100 
 14 N       -3.6880     2.7920     0.0000 N.3   1 <1>  -0.8100 
 15 C       -5.0700     2.3270    -0.2690 C.3   1 <1>   0.3700 
 16 C       -5.1250     1.1110    -1.2030 C.2   1 <1>   0.0060 
 17 C       -5.9420     3.4830    -0.7980 C.3   1 <1>  -0.1600 
 18 N       -5.1630     1.1470    -2.4850 N.2   1 <1>  -0.3380 
 19 N       -5.1550    -0.1510    -0.8030 N.pl3 1 <1>   0.3140 
 20 C       -5.9990     4.6950     0.1470 C.3   1 <1>  -0.2400 
 21 N       -5.2050    -0.1170    -2.8840 N.2   1 <1>   0.0000 
 22 N       -5.2040    -0.9090    -1.8760 N.2   1 <1>  -0.4180 
 23 C       -5.1840    -0.7330     0.5510 C.3   1 <1>   0.0960 
 24 C       -6.5880    -1.2360     0.8660 C.3   1 <1>   0.1200 
 25 O       -6.6160    -1.5710     2.2140 O.3   1 <1>  -0.5600 
 26 C       -7.8290    -2.1110     2.6360 C.3   1 <1>   0.0400 
 27 H       -0.3730     0.2000    -3.0660 H     1 <1>   0.0800 
 28 H       -0.8250     0.6320    -1.4230 H     1 <1>   0.0800 
 29 H        0.6670    -0.2610    -1.7180 H     1 <1>   0.0800 
 30 H        3.2290     1.7940    -2.0170 H     1 <1>   0.1500 
 31 H        0.8700     3.4570     1.9520 H     1 <1>   0.1500 
 32 H        4.5100     2.5790    -0.0610 H     1 <1>   0.1500 
 33 H       -1.6580     3.4100     1.8120 H     1 <1>   0.0800 
 34 H       -1.0260     1.7830     1.9150 H     1 <1>   0.0800 
 35 H       -0.9170     3.6590    -1.8430 H     1 <1>   0.0800 
 36 H       -1.5730     4.5710    -0.5120 H     1 <1>   0.0800 
 37 H        3.3120     3.4020     1.9270 H     1 <1>   0.1500 
 38 H       -3.5010     1.8150     1.8510 H     1 <1>   0.0800 
 39 H       -2.8080     0.9460     0.5010 H     1 <1>   0.0800 
 40 H       -2.7570     2.1050    -1.7760 H     1 <1>   0.0800 
 41 H       -3.3900     3.7200    -1.8790 H     1 <1>   0.0800 
 42 H       -5.5070     2.0450     0.6730 H     1 <1>   0.0800 
 43 H       -6.9410     3.1110    -0.9370 H     1 <1>   0.0800 
 44 H       -5.5910     3.7950    -1.7640 H     1 <1>   0.0800 
 45 H       -6.3640     4.4030     1.1150 H     1 <1>   0.0800 
 46 H       -6.6550     5.4460    -0.2570 H     1 <1>   0.0800 
 47 H       -5.0200     5.1260     0.2630 H     1 <1>   0.0800 
 48 H       -4.8980     0.0090     1.2690 H     1 <1>   0.0800 
 49 H       -4.4880    -1.5500     0.5870 H     1 <1>   0.0800 
 50 H       -6.8160    -2.1110     0.2800 H     1 <1>   0.0800 
 51 H       -7.3210    -0.4660     0.6920 H     1 <1>   0.0800 
 52 H       -7.7500    -2.3310     3.6870 H     1 <1>   0.0800 
 53 H       -8.0250    -3.0180     2.0910 H     1 <1>   0.0800 
 54 H       -8.6150    -1.3930     2.4760 H     1 <1>   0.0800 
@<TRIPOS>BOND
  1   1   2  1   
  2   1   3  1   
  3   2   4  ar  
  4   2   5  ar  
  5   3  27  1   
  6   3  28  1   
  7   3  29  1   
  8   4   6  1   
  9   4   7  ar  
 10   5   8  ar  
 11   5  30  1   
 12   6   9  1   
 13   6  10  1   
 14   7  11  ar  
 15   7  31  1   
 16   8  11  ar  
 17   8  32  1   
 18   9  12  1   
 19   9  33  1   
 20   9  34  1   
 21  10  13  1   
 22  10  35  1   
 23  10  36  1   
 24  11  37  1   
 25  12  14  1   
 26  12  38  1   
 27  12  39  1   
 28  13  14  1   
 29  13  40  1   
 30  13  41  1   
 31  14  15  1   
 32  15  16  1   
 33  15  17  1   
 34  15  42  1   
 35  16  18  2   
 36  16  19  1   
 37  17  20  1   
 38  17  43  1   
 39  17  44  1   
 40  18  21  1   
 41  19  22  1   
 42  19  23  1   
 43  20  45  1   
 44  20  46  1   
 45  20  47  1   
 46  21  22  2   
 47  23  24  1   
 48  23  48  1   
 49  23  49  1   
 50  24  25  1   
 51  24  50  1   
 52  24  51  1   
 53  25  26  1   
 54  26  52  1   
 55  26  53  1   
 56  26  54  1   
@<TRIPOS>SUBSTRUCTURE
  1 ****  12 GROUP 4 **** **** 0

# MOE 2024.06 (io_trps.svl 2023.06)
