@<TRIPOS>MOLECULE
NONAME
50 52 1 0 0 
SMALL
USER_CHARGES


@<TRIPOS>ATOM
  1 O        0.4750     1.0570     1.2640 O.3   1 <1>  -0.3630 
  2 C        0.0230     1.6850     0.1340 C.ar  1 <1>   0.0830 
  3 C       -0.3830     0.2890     2.0770 C.3   1 <1>   0.0400 
  4 C        0.9320     2.4580    -0.6130 C.ar  1 <1>   0.1000 
  5 C       -1.2990     1.5790    -0.2890 C.ar  1 <1>  -0.1500 
  6 N        2.2840     2.6350    -0.2850 N.pl3 1 <1>  -0.8380 
  7 C        0.4780     3.0970    -1.7580 C.ar  1 <1>  -0.1500 
  8 C       -1.7270     2.2270    -1.4360 C.ar  1 <1>  -0.1500 
  9 C        3.1320     1.4110    -0.3520 C.3   1 <1>   0.2090 
 10 C        2.5520     3.4010     0.9660 C.3   1 <1>   0.2090 
 11 C       -0.8360     2.9870    -2.1710 C.ar  1 <1>  -0.1500 
 12 C        4.6250     1.7580    -0.1860 C.3   1 <1>   0.1100 
 13 C        4.0520     3.7210     1.1070 C.3   1 <1>   0.1100 
 14 N        4.8900     2.4950     1.0730 N.3   1 <1>  -0.8100 
 15 C        6.3200     2.7840     1.3200 C.3   1 <1>   0.2900 
 16 C        7.0700     3.4270     0.1520 C.2   1 <1>   0.0060 
 17 N        6.8090     4.6060    -0.2780 N.2   1 <1>  -0.3380 
 18 N        8.0850     2.9090    -0.5450 N.pl3 1 <1>   0.3140 
 19 N        7.6520     4.8310    -1.2700 N.2   1 <1>   0.0000 
 20 N        8.4250     3.8260    -1.4390 N.2   1 <1>  -0.4180 
 21 C        8.8540     1.6040    -0.4150 C.3   1 <1>   0.2560 
 22 C        7.9210     0.3860    -0.5420 C.3   1 <1>  -0.2400 
 23 C        9.5970     1.5640     0.9320 C.3   1 <1>  -0.2400 
 24 C        9.9160     1.4740    -1.5300 C.3   1 <1>  -0.2400 
 25 H        0.1920    -0.0890     2.9030 H     1 <1>   0.0800 
 26 H       -0.7720    -0.5290     1.4980 H     1 <1>   0.0800 
 27 H       -1.1750     0.9190     2.4420 H     1 <1>   0.0800 
 28 H       -2.0170     0.9990     0.2550 H     1 <1>   0.1500 
 29 H        1.1770     3.6860    -2.3230 H     1 <1>   0.1500 
 30 H       -2.7500     2.1400    -1.7560 H     1 <1>   0.1500 
 31 H        2.9770     0.9280    -1.3000 H     1 <1>   0.0800 
 32 H        2.8430     0.7270     0.4260 H     1 <1>   0.0800 
 33 H        2.2320     2.8280     1.8190 H     1 <1>   0.0800 
 34 H        1.9890     4.3170     0.9450 H     1 <1>   0.0800 
 35 H       -1.1620     3.4930    -3.0630 H     1 <1>   0.1500 
 36 H        4.9310     2.3500    -1.0320 H     1 <1>   0.0800 
 37 H        5.1800     0.8410    -0.1900 H     1 <1>   0.0800 
 38 H        4.2090     4.2390     2.0360 H     1 <1>   0.0800 
 39 H        4.3270     4.3820     0.3040 H     1 <1>   0.0800 
 40 H        6.7920     1.8690     1.6140 H     1 <1>   0.0800 
 41 H        6.3930     3.4450     2.1660 H     1 <1>   0.0800 
 42 H        7.3280     0.4630    -1.4370 H     1 <1>   0.0800 
 43 H        7.2750     0.2840     0.3070 H     1 <1>   0.0800 
 44 H        8.4990    -0.5190    -0.6030 H     1 <1>   0.0800 
 45 H        8.9220     1.5740     1.7650 H     1 <1>   0.0800 
 46 H       10.2600     2.4080     1.0140 H     1 <1>   0.0800 
 47 H       10.1890     0.6680     1.0040 H     1 <1>   0.0800 
 48 H        9.4500     1.4900    -2.5000 H     1 <1>   0.0800 
 49 H       10.4580     0.5500    -1.4360 H     1 <1>   0.0800 
 50 H       10.6270     2.2800    -1.4750 H     1 <1>   0.0800 
@<TRIPOS>BOND
  1   1   2  1   
  2   1   3  1   
  3   2   4  ar  
  4   2   5  ar  
  5   3  25  1   
  6   3  26  1   
  7   3  27  1   
  8   4   6  1   
  9   4   7  ar  
 10   5   8  ar  
 11   5  28  1   
 12   6   9  1   
 13   6  10  1   
 14   7  11  ar  
 15   7  29  1   
 16   8  11  ar  
 17   8  30  1   
 18   9  12  1   
 19   9  31  1   
 20   9  32  1   
 21  10  13  1   
 22  10  33  1   
 23  10  34  1   
 24  11  35  1   
 25  12  14  1   
 26  12  36  1   
 27  12  37  1   
 28  13  14  1   
 29  13  38  1   
 30  13  39  1   
 31  14  15  1   
 32  15  16  1   
 33  15  40  1   
 34  15  41  1   
 35  16  17  2   
 36  16  18  1   
 37  17  19  1   
 38  18  20  1   
 39  18  21  1   
 40  19  20  2   
 41  21  22  1   
 42  21  23  1   
 43  21  24  1   
 44  22  42  1   
 45  22  43  1   
 46  22  44  1   
 47  23  45  1   
 48  23  46  1   
 49  23  47  1   
 50  24  48  1   
 51  24  49  1   
 52  24  50  1   
@<TRIPOS>SUBSTRUCTURE
  1 ****  12 GROUP 4 **** **** 0

# MOE 2024.06 (io_trps.svl 2023.06)
