@<TRIPOS>MOLECULE
NONAME
49 52 1 0 0 
SMALL
USER_CHARGES


@<TRIPOS>ATOM
  1 O        0.2830    -0.1010     0.4940 O.2   1 <1>  -0.5700 
  2 C        1.2200     0.6390     0.2520 C.2   1 <1>   0.5440 
  3 N        1.0230     2.0010     0.1750 N.am  1 <1>  -0.5470 
  4 C        2.5660     0.1090     0.0280 C.ar  1 <1>   0.3960 
  5 C       -0.1080     2.8210     0.3290 C.ar  1 <1>   0.1170 
  6 N        3.5590     0.9730    -0.2640 N.ar  1 <1>  -0.6200 
  7 C        2.8050    -1.2640     0.1180 C.ar  1 <1>  -0.1500 
  8 C       -0.0610     4.1160    -0.1710 C.ar  1 <1>  -0.1500 
  9 C       -1.2720     2.4130     0.9710 C.ar  1 <1>  -0.1500 
 10 C        4.7610     0.4600    -0.4600 C.ar  1 <1>   0.1600 
 11 C        4.0630    -1.7840    -0.0880 C.ar  1 <1>  -0.1500 
 12 C       -1.1380     4.9730    -0.0410 C.ar  1 <1>  -0.1500 
 13 C       -2.3510     3.2690     1.0990 C.ar  1 <1>  -0.1500 
 14 C        5.0640    -0.8880    -0.3860 C.ar  1 <1>  -0.1500 
 15 C       -2.3060     4.5620     0.5940 C.ar  1 <1>   0.1170 
 16 N       -3.4300     5.3890     0.7630 N.am  1 <1>  -0.5470 
 17 C       -3.8050     6.5500     0.1450 C.2   1 <1>   0.5690 
 18 O       -3.1670     7.0910    -0.7230 O.2   1 <1>  -0.5700 
 19 C       -5.1060     7.1940     0.5840 C.3   1 <1>  -0.0990 
 20 C       -6.2800     6.8340    -0.3490 C.3   1 <1>  -0.0800 
 21 C       -7.6680     7.6230     0.0250 C.3   1 <1>  -0.0800 
 22 C       -6.6290     5.1940    -0.3700 C.3   1 <1>  -0.1600 
 23 C       -7.9610     6.3230    -0.1100 C.3   1 <1>  -0.1600 
 24 C       -9.2900     7.4560     0.1470 C.3   1 <1>  -0.1600 
 25 C       -8.2500     5.0240    -0.2340 C.3   1 <1>  -0.0800 
 26 C       -9.6380     5.8200     0.1060 C.3   1 <1>  -0.1600 
 27 H        1.8840     2.4880    -0.0850 H     1 <1>   0.3700 
 28 H        1.9880    -1.9240     0.3530 H     1 <1>   0.1500 
 29 H        0.8260     4.4610    -0.6710 H     1 <1>   0.1500 
 30 H       -1.3420     1.4220     1.3790 H     1 <1>   0.1500 
 31 H        5.5550     1.1500    -0.6930 H     1 <1>   0.1500 
 32 H        4.2540    -2.8420    -0.0210 H     1 <1>   0.1500 
 33 H       -1.0620     5.9690    -0.4380 H     1 <1>   0.1500 
 34 H       -3.2370     2.9190     1.5960 H     1 <1>   0.1500 
 35 H        6.0700    -1.2270    -0.5580 H     1 <1>   0.1500 
 36 H       -4.1090     5.0310     1.4300 H     1 <1>   0.3700 
 37 H       -4.9650     8.2600     0.5720 H     1 <1>   0.0800 
 38 H       -5.3340     6.9050     1.5930 H     1 <1>   0.0800 
 39 H       -5.9840     7.1310    -1.3480 H     1 <1>   0.0800 
 40 H       -7.4370     8.0520     0.9910 H     1 <1>   0.0800 
 41 H       -6.1500     4.6840     0.4510 H     1 <1>   0.0800 
 42 H       -6.2660     4.7470    -1.2820 H     1 <1>   0.0800 
 43 H       -8.1200     6.4620    -1.2710 H     1 <1>   0.0800 
 44 H       -7.8040     6.1820     1.0470 H     1 <1>   0.0800 
 45 H       -9.7760     7.9600    -0.6750 H     1 <1>   0.0800 
 46 H       -9.6580     7.8980     1.0600 H     1 <1>   0.0800 
 47 H       -8.4930     4.5870    -1.1940 H     1 <1>   0.0800 
 48 H      -10.3940     5.6150    -0.6350 H     1 <1>   0.0800 
 49 H      -10.0250     5.4980     1.0610 H     1 <1>   0.0800 
@<TRIPOS>BOND
  1   1   2  2   
  2   2   3  am  
  3   2   4  1   
  4   3   5  1   
  5   3  27  1   
  6   4   6  ar  
  7   4   7  ar  
  8   5   8  ar  
  9   5   9  ar  
 10   6  10  ar  
 11   7  11  ar  
 12   7  28  1   
 13   8  12  ar  
 14   8  29  1   
 15   9  13  ar  
 16   9  30  1   
 17  10  14  ar  
 18  10  31  1   
 19  11  14  ar  
 20  11  32  1   
 21  12  15  ar  
 22  12  33  1   
 23  13  15  ar  
 24  13  34  1   
 25  14  35  1   
 26  15  16  1   
 27  16  17  am  
 28  16  36  1   
 29  17  18  2   
 30  17  19  1   
 31  19  20  1   
 32  19  37  1   
 33  19  38  1   
 34  20  21  1   
 35  20  22  1   
 36  20  39  1   
 37  21  23  1   
 38  21  24  1   
 39  21  40  1   
 40  22  25  1   
 41  22  41  1   
 42  22  42  1   
 43  23  25  1   
 44  23  43  1   
 45  23  44  1   
 46  24  26  1   
 47  24  45  1   
 48  24  46  1   
 49  25  26  1   
 50  25  47  1   
 51  26  48  1   
 52  26  49  1   
@<TRIPOS>SUBSTRUCTURE
  1 ****  13 GROUP 4 **** **** 0

# MOE 2024.06 (io_trps.svl 2023.06)
