@<TRIPOS>MOLECULE
NONAME
47 50 1 0 0 
SMALL
USER_CHARGES


@<TRIPOS>ATOM
  1 O       -0.3280     0.3010     0.1280 O.2   1 <1>  -0.5700 
  2 C       -0.8330    -0.7580    -0.1950 C.2   1 <1>   0.6900 
  3 N       -2.1180    -0.7920    -0.6740 N.am  1 <1>  -0.6600 
  4 N       -0.1590    -1.9370    -0.0610 N.am  1 <1>  -0.5470 
  5 C       -2.6320    -1.8330    -1.6040 C.3   1 <1>   0.1400 
  6 C       -3.0590     0.3260    -0.4070 C.3   1 <1>   0.1400 
  7 C        1.1760    -2.2200     0.2620 C.ar  1 <1>   0.1170 
  8 C       -3.9310    -2.4120    -1.0440 C.3   1 <1>  -0.1600 
  9 C       -4.3740    -0.2340     0.1440 C.3   1 <1>  -0.1600 
 10 C        1.4890    -3.4710     0.7810 C.ar  1 <1>  -0.1500 
 11 C        2.2080    -1.3080     0.0660 C.ar  1 <1>  -0.1500 
 12 C       -4.9710    -1.3090    -0.7800 C.3   1 <1>   0.1000 
 13 C        2.7920    -3.8120     1.1010 C.ar  1 <1>  -0.1430 
 14 C        3.5120    -1.6390     0.3830 C.ar  1 <1>  -0.1500 
 15 C       -6.2600    -1.8700    -0.1850 C.2   1 <1>   0.0070 
 16 C        3.8050    -2.8890     0.8990 C.ar  1 <1>  -0.1500 
 17 C        3.1220    -5.1800     1.6690 C.3   1 <1>  -0.0970 
 18 N       -6.3900    -3.0410     0.3410 N.2   1 <1>  -0.5650 
 19 N       -7.4080    -1.1420    -0.1700 N.pl3 1 <1>   0.0330 
 20 C       -7.6940    -3.1010     0.7310 C.ar  1 <1>   0.2270 
 21 C       -8.3450    -1.9240     0.4190 C.ar  1 <1>  -0.1520 
 22 C       -8.3890    -4.1340     1.3570 C.ar  1 <1>  -0.1500 
 23 C       -9.6970    -1.7390     0.7190 C.ar  1 <1>  -0.1500 
 24 C       -9.7230    -3.9630     1.6580 C.ar  1 <1>  -0.1500 
 25 C      -10.3760    -2.7650     1.3390 C.ar  1 <1>  -0.1500 
 26 H       -0.7830    -2.7350    -0.0740 H     1 <1>   0.3700 
 27 H       -1.9100    -2.6170    -1.7500 H     1 <1>   0.0800 
 28 H       -2.8190    -1.3780    -2.5620 H     1 <1>   0.0800 
 29 H       -3.2340     0.8640    -1.3230 H     1 <1>   0.0800 
 30 H       -2.6360     1.0120     0.3080 H     1 <1>   0.0800 
 31 H       -3.7150    -2.9360    -0.1290 H     1 <1>   0.0800 
 32 H       -4.3360    -3.1260    -1.7400 H     1 <1>   0.0800 
 33 H       -5.0720     0.5730     0.2710 H     1 <1>   0.0800 
 34 H       -4.1890    -0.6610     1.1150 H     1 <1>   0.0800 
 35 H        0.7010    -4.1840     0.9370 H     1 <1>   0.1500 
 36 H        1.9940    -0.3360    -0.3380 H     1 <1>   0.1500 
 37 H       -5.2130    -0.8530    -1.7240 H     1 <1>   0.0800 
 38 H        4.2990    -0.9220     0.2270 H     1 <1>   0.1500 
 39 H        4.8230    -3.1380     1.1430 H     1 <1>   0.1500 
 40 H        2.2300    -5.6950     1.9760 H     1 <1>   0.0800 
 41 H        3.7660    -5.0780     2.5250 H     1 <1>   0.0800 
 42 H        3.6240    -5.7720     0.9250 H     1 <1>   0.0800 
 43 H       -7.5490    -0.1950    -0.5260 H     1 <1>   0.2700 
 44 H       -7.8630    -5.0410     1.5900 H     1 <1>   0.1500 
 45 H      -10.1900    -0.8160     0.4710 H     1 <1>   0.1500 
 46 H      -10.2740    -4.7510     2.1410 H     1 <1>   0.1500 
 47 H      -11.4180    -2.6570     1.5840 H     1 <1>   0.1500 
@<TRIPOS>BOND
  1   1   2  2   
  2   2   3  am  
  3   2   4  am  
  4   3   5  1   
  5   3   6  1   
  6   4   7  1   
  7   4  26  1   
  8   5   8  1   
  9   5  27  1   
 10   5  28  1   
 11   6   9  1   
 12   6  29  1   
 13   6  30  1   
 14   7  10  ar  
 15   7  11  ar  
 16   8  12  1   
 17   8  31  1   
 18   8  32  1   
 19   9  12  1   
 20   9  33  1   
 21   9  34  1   
 22  10  13  ar  
 23  10  35  1   
 24  11  14  ar  
 25  11  36  1   
 26  12  15  1   
 27  12  37  1   
 28  13  16  ar  
 29  13  17  1   
 30  14  16  ar  
 31  14  38  1   
 32  15  18  2   
 33  15  19  1   
 34  16  39  1   
 35  17  40  1   
 36  17  41  1   
 37  17  42  1   
 38  18  20  1   
 39  19  21  1   
 40  19  43  1   
 41  20  21  ar  
 42  20  22  ar  
 43  21  23  ar  
 44  22  24  ar  
 45  22  44  1   
 46  23  25  ar  
 47  23  45  1   
 48  24  25  ar  
 49  24  46  1   
 50  25  47  1   
@<TRIPOS>SUBSTRUCTURE
  1 ****   8 GROUP 4 **** **** 0

# MOE 2024.06 (io_trps.svl 2023.06)
