@<TRIPOS>MOLECULE
NONAME
29 29 1 0 0 
SMALL
USER_CHARGES


@<TRIPOS>ATOM
  1 CL      -3.6510     2.3940     0.1330 Cl    1 <1>  -0.2900 
  2 C       -2.6200     1.1010    -0.4880 C.3   1 <1>   0.1910 
  3 C       -3.3960    -0.1970    -0.6530 C.2   1 <1>   0.5690 
  4 O       -2.9060    -1.0540    -1.3470 O.2   1 <1>  -0.5700 
  5 N       -4.6000    -0.3350    -0.0180 N.am  1 <1>  -0.5470 
  6 C       -5.5210    -1.3970     0.0490 C.ar  1 <1>   0.1170 
  7 C       -6.8350    -1.1340     0.4530 C.ar  1 <1>   0.0830 
  8 C       -5.1770    -2.7140    -0.2380 C.ar  1 <1>  -0.1500 
  9 O       -7.2320     0.1340     0.7350 O.3   1 <1>  -0.3630 
 10 C       -7.7560    -2.1580     0.5950 C.ar  1 <1>  -0.1500 
 11 C       -6.1030    -3.7370    -0.1150 C.ar  1 <1>  -0.1500 
 12 C       -7.5510     0.9710    -0.3560 C.3   1 <1>   0.2000 
 13 C       -7.3920    -3.4620     0.3060 C.ar  1 <1>  -0.1500 
 14 C       -7.4870     2.4110     0.1460 C.3   1 <1>  -0.2400 
 15 C       -8.9520     0.6270    -0.8660 C.3   1 <1>  -0.2400 
 16 H       -1.8140     0.9630     0.2080 H     1 <1>   0.0800 
 17 H       -2.2320     1.4210    -1.4360 H     1 <1>   0.0800 
 18 H       -4.9340     0.5040     0.4670 H     1 <1>   0.3700 
 19 H       -4.1790    -2.9550    -0.5540 H     1 <1>   0.1500 
 20 H       -8.7520    -1.9310     0.9280 H     1 <1>   0.1500 
 21 H       -5.8160    -4.7480    -0.3440 H     1 <1>   0.1500 
 22 H       -6.8210     0.8200    -1.1340 H     1 <1>   0.0800 
 23 H       -8.1090    -4.2580     0.4090 H     1 <1>   0.1500 
 24 H       -8.2090     2.5670     0.9280 H     1 <1>   0.0800 
 25 H       -7.7000     3.0910    -0.6590 H     1 <1>   0.0800 
 26 H       -6.5050     2.6300     0.5220 H     1 <1>   0.0800 
 27 H       -9.6700     0.7030    -0.0690 H     1 <1>   0.0800 
 28 H       -8.9680    -0.3680    -1.2710 H     1 <1>   0.0800 
 29 H       -9.2330     1.3070    -1.6490 H     1 <1>   0.0800 
@<TRIPOS>BOND
  1   1   2  1   
  2   2   3  1   
  3   2  16  1   
  4   2  17  1   
  5   3   4  2   
  6   3   5  am  
  7   5   6  1   
  8   5  18  1   
  9   6   7  ar  
 10   6   8  ar  
 11   7   9  1   
 12   7  10  ar  
 13   8  11  ar  
 14   8  19  1   
 15   9  12  1   
 16  10  13  ar  
 17  10  20  1   
 18  11  13  ar  
 19  11  21  1   
 20  12  14  1   
 21  12  15  1   
 22  12  22  1   
 23  13  23  1   
 24  14  24  1   
 25  14  25  1   
 26  14  26  1   
 27  15  27  1   
 28  15  28  1   
 29  15  29  1   
@<TRIPOS>SUBSTRUCTURE
  1 ****   6 GROUP 4 **** **** 0

# MOE 2024.06 (io_trps.svl 2023.06)
