@<TRIPOS>MOLECULE
N-Adamantan-1-yl-2-[3-(4-fluoro-phenyl)-6-oxo-6H-pyridazin-1-yl]-acetamide
52 56 1 0 0 
SMALL
USER_CHARGES


@<TRIPOS>ATOM
  1 F        0.4700     0.5330     1.2940 F     1 <1>  -0.1900 
  2 C       -0.0630     1.6670     0.9290 C.ar  1 <1>   0.1900 
  3 C       -1.3590     1.6750     0.4520 C.ar  1 <1>  -0.1500 
  4 C        0.6860     2.8220     1.0340 C.ar  1 <1>  -0.1500 
  5 C       -1.9140     2.8820     0.0660 C.ar  1 <1>  -0.1500 
  6 C        0.1150     4.0210     0.6440 C.ar  1 <1>  -0.1500 
  7 C       -1.1920     4.0770     0.1470 C.ar  1 <1>   0.0860 
  8 C       -1.7900     5.3260    -0.2740 C.2   1 <1>   0.3490 
  9 N       -3.0060     5.6180     0.1080 N.2   1 <1>  -0.5120 
 10 C       -1.0410     6.2090    -1.1080 C.2   1 <1>  -0.1360 
 11 N       -3.5500     6.7990    -0.3270 N.am  1 <1>  -0.2980 
 12 C       -1.5680     7.3940    -1.5070 C.2   1 <1>  -0.1360 
 13 C       -2.8730     7.7420    -1.0920 C.2   1 <1>   0.6160 
 14 C       -4.9790     7.0500     0.0190 C.3   1 <1>   0.2010 
 15 O       -3.3680     8.8290    -1.3670 O.2   1 <1>  -0.5700 
 16 C       -5.9020     7.0810    -1.2040 C.2   1 <1>   0.5690 
 17 O       -5.8100     6.2020    -2.0280 O.2   1 <1>  -0.5700 
 18 N       -6.8590     8.0240    -1.4060 N.am  1 <1>  -0.7300 
 19 C       -7.3400     9.1950    -0.6530 C.3   1 <1>   0.3000 
 20 C       -7.8020     8.8030     0.7650 C.3   1 <1>  -0.1600 
 21 C       -8.5550     9.7470    -1.4240 C.3   1 <1>  -0.1600 
 22 C       -6.2660    10.2970    -0.5850 C.3   1 <1>  -0.1600 
 23 C       -8.3610    10.0400     1.4960 C.3   1 <1>  -0.0800 
 24 C       -9.1340    10.9850    -0.7120 C.3   1 <1>  -0.0800 
 25 C       -6.8260    11.5330     0.1460 C.3   1 <1>  -0.0800 
 26 C       -9.5670    10.5900     0.7120 C.3   1 <1>  -0.1600 
 27 C       -7.2670    11.1250     1.5660 C.3   1 <1>  -0.1600 
 28 C       -8.0440    12.0700    -0.6270 C.3   1 <1>  -0.1600 
 29 H       -1.9170     0.7570     0.3880 H     1 <1>   0.1500 
 30 H        1.6900     2.7770     1.4170 H     1 <1>   0.1500 
 31 H       -2.9260     2.9100    -0.3050 H     1 <1>   0.1500 
 32 H        0.6870     4.9280     0.7350 H     1 <1>   0.1500 
 33 H       -0.0570     5.9060    -1.4140 H     1 <1>   0.1500 
 34 H       -1.0490     8.0960    -2.1300 H     1 <1>   0.1500 
 35 H       -5.0290     7.9710     0.5560 H     1 <1>   0.0800 
 36 H       -5.3190     6.2670     0.6690 H     1 <1>   0.0800 
 37 H       -7.3400     7.9100    -2.2980 H     1 <1>   0.3700 
 38 H       -6.9880     8.4110     1.3410 H     1 <1>   0.0800 
 39 H       -8.5640     8.0470     0.7030 H     1 <1>   0.0800 
 40 H       -9.3180     8.9910    -1.4940 H     1 <1>   0.0800 
 41 H       -8.2600    10.0210    -2.4210 H     1 <1>   0.0800 
 42 H       -5.9600    10.5710    -1.5800 H     1 <1>   0.0800 
 43 H       -5.3970     9.9570    -0.0600 H     1 <1>   0.0800 
 44 H       -8.6680     9.7680     2.4920 H     1 <1>   0.0800 
 45 H       -9.9810    11.3610    -1.2600 H     1 <1>   0.0800 
 46 H       -6.0660    12.2950     0.2040 H     1 <1>   0.0800 
 47 H       -9.9720    11.4470     1.2210 H     1 <1>   0.0800 
 48 H      -10.3420     9.8440     0.6650 H     1 <1>   0.0800 
 49 H       -6.4200    10.7560     2.1180 H     1 <1>   0.0800 
 50 H       -7.6440    11.9870     2.0890 H     1 <1>   0.0800 
 51 H       -8.4350    12.9420    -0.1310 H     1 <1>   0.0800 
 52 H       -7.7450    12.3660    -1.6180 H     1 <1>   0.0800 
@<TRIPOS>BOND
  1   1   2  1   
  2   2   3  ar  
  3   2   4  ar  
  4   3   5  ar  
  5   3  29  1   
  6   4   6  ar  
  7   4  30  1   
  8   5   7  ar  
  9   5  31  1   
 10   6   7  ar  
 11   6  32  1   
 12   7   8  1   
 13   8   9  2   
 14   8  10  1   
 15   9  11  1   
 16  10  12  2   
 17  10  33  1   
 18  11  13  am  
 19  11  14  1   
 20  12  13  1   
 21  12  34  1   
 22  13  15  2   
 23  14  16  1   
 24  14  35  1   
 25  14  36  1   
 26  16  17  2   
 27  16  18  am  
 28  18  19  1   
 29  18  37  1   
 30  19  20  1   
 31  19  21  1   
 32  19  22  1   
 33  20  23  1   
 34  20  38  1   
 35  20  39  1   
 36  21  24  1   
 37  21  40  1   
 38  21  41  1   
 39  22  25  1   
 40  22  42  1   
 41  22  43  1   
 42  23  26  1   
 43  23  27  1   
 44  23  44  1   
 45  24  26  1   
 46  24  28  1   
 47  24  45  1   
 48  25  27  1   
 49  25  28  1   
 50  25  46  1   
 51  26  47  1   
 52  26  48  1   
 53  27  49  1   
 54  27  50  1   
 55  28  51  1   
 56  28  52  1   
@<TRIPOS>SUBSTRUCTURE
  1 ****  14 GROUP 4 **** **** 0

# MOE 2024.06 (io_trps.svl 2023.06)
