@<TRIPOS>MOLECULE
NONAME
59 61 1 0 0 
SMALL
USER_CHARGES


@<TRIPOS>ATOM
  1 F       -1.8950    -2.3050    -0.9260 F     1 <1>  -0.1960 
  2 C       -2.0460    -1.4180     0.0220 C.ar  1 <1>   0.1840 
  3 C       -2.9460    -0.3800    -0.1630 C.ar  1 <1>  -0.1500 
  4 C       -1.3060    -1.5680     1.1790 C.ar  1 <1>  -0.1560 
  5 C       -3.0920     0.5430     0.8640 C.ar  1 <1>  -0.1560 
  6 C       -3.7520    -0.2500    -1.4420 C.3   1 <1>   0.4930 
  7 C       -1.4700    -0.6430     2.1940 C.ar  1 <1>  -0.1560 
  8 C       -2.3610     0.4080     2.0340 C.ar  1 <1>  -0.1560 
  9 N       -5.1000    -0.8230    -1.2090 N.pl3 1 <1>  -0.7670 
 10 C       -5.4510    -2.1050    -1.1270 C.cat 1 <1>   1.0690 
 11 C       -6.2550    -0.0620    -0.9290 C.2   1 <1>   0.2710 
 12 N       -6.7420    -2.1980    -0.8520 N.pl3 1 <1>  -0.7030 
 13 N       -4.6360    -3.1490    -1.2700 N.pl3 1 <1>  -0.7170 
 14 C       -6.5560     1.3350    -0.8170 C.2   1 <1>   0.7000 
 15 C       -7.2480    -0.9490    -0.7160 C.2   1 <1>   0.4210 
 16 C       -5.0180    -4.5880    -1.2720 C.3   1 <1>   0.1610 
 17 O       -5.6940     2.1790    -1.0030 O.2   1 <1>  -0.5740 
 18 N       -7.8540     1.7040    -0.4870 N.am  1 <1>  -0.4250 
 19 N       -8.5450    -0.6000    -0.3990 N.am  1 <1>  -0.4410 
 20 C       -5.1670    -5.1300     0.1610 C.3   1 <1>   0.1340 
 21 C       -8.8490     0.7500    -0.2920 C.2   1 <1>   0.6870 
 22 C       -8.2140     3.1520    -0.3600 C.3   1 <1>   0.0530 
 23 C       -9.5690    -1.6610    -0.1580 C.3   1 <1>   0.0530 
 24 N       -6.3250    -6.0500     0.2560 N.am  1 <1>  -0.7330 
 25 O       -9.9810     1.1000    -0.0300 O.2   1 <1>  -0.5740 
 26 C       -7.6320    -5.6870     0.1690 C.2   1 <1>   0.5650 
 27 O       -7.9430    -4.5500    -0.1090 O.2   1 <1>  -0.5740 
 28 C       -8.7200    -6.7320     0.4160 C.3   1 <1>  -0.0260 
 29 C       -8.6830    -7.2220     1.8790 C.3   1 <1>  -0.1660 
 30 C       -8.6120    -7.8960    -0.5890 C.3   1 <1>  -0.2460 
 31 C       -9.8750    -8.1120     2.2560 C.3   1 <1>  -0.2460 
 32 H       -0.6140    -2.3850     1.2850 H     1 <1>   0.1440 
 33 H       -3.7690     1.3760     0.7670 H     1 <1>   0.1440 
 34 H       -3.2690    -0.7660    -2.2550 H     1 <1>   0.0730 
 35 H       -3.8230     0.7860    -1.7230 H     1 <1>   0.0730 
 36 H       -0.9050    -0.7350     3.1070 H     1 <1>   0.1440 
 37 H       -2.4800     1.1280     2.8270 H     1 <1>   0.1440 
 38 H       -7.2420    -3.0810    -0.6670 H     1 <1>   0.4450 
 39 H       -3.6310    -2.9690    -1.3410 H     1 <1>   0.4450 
 40 H       -4.2680    -5.1570    -1.7950 H     1 <1>   0.0730 
 41 H       -5.9470    -4.7000    -1.8070 H     1 <1>   0.0730 
 42 H       -5.3260    -4.3210     0.8540 H     1 <1>   0.0730 
 43 H       -4.2720    -5.6530     0.4510 H     1 <1>   0.0730 
 44 H       -7.3400     3.7600    -0.2060 H     1 <1>   0.0730 
 45 H       -8.8750     3.2960     0.4780 H     1 <1>   0.0730 
 46 H       -8.7140     3.4770    -1.2550 H     1 <1>   0.0730 
 47 H       -9.5930    -2.3450    -0.9890 H     1 <1>   0.0730 
 48 H      -10.5510    -1.2340    -0.0440 H     1 <1>   0.0730 
 49 H       -9.3260    -2.2050     0.7380 H     1 <1>   0.0730 
 50 H       -6.1160    -7.0210     0.5090 H     1 <1>   0.3650 
 51 H       -9.6670    -6.2460     0.2530 H     1 <1>   0.0730 
 52 H       -8.6900    -6.3620     2.5280 H     1 <1>   0.0730 
 53 H       -7.7710    -7.7600     2.0650 H     1 <1>   0.0730 
 54 H       -7.7290    -8.4810    -0.4060 H     1 <1>   0.0730 
 55 H       -8.5690    -7.5120    -1.5930 H     1 <1>   0.0730 
 56 H       -9.4710    -8.5380    -0.5190 H     1 <1>   0.0730 
 57 H      -10.8030    -7.6100     2.0450 H     1 <1>   0.0730 
 58 H       -9.8430    -8.3370     3.3070 H     1 <1>   0.0730 
 59 H       -9.8500    -9.0410     1.7160 H     1 <1>   0.0730 
@<TRIPOS>BOND
  1   1   2  1   
  2   2   3  ar  
  3   2   4  ar  
  4   3   5  ar  
  5   3   6  1   
  6   4   7  ar  
  7   4  32  1   
  8   5   8  ar  
  9   5  33  1   
 10   6   9  1   
 11   6  34  1   
 12   6  35  1   
 13   7   8  ar  
 14   7  36  1   
 15   8  37  1   
 16   9  10  ar  
 17   9  11  1   
 18  10  12  ar  
 19  10  13  ar  
 20  11  14  1   
 21  11  15  2   
 22  12  15  1   
 23  12  38  1   
 24  13  16  1   
 25  13  39  1   
 26  14  17  2   
 27  14  18  am  
 28  15  19  1   
 29  16  20  1   
 30  16  40  1   
 31  16  41  1   
 32  18  21  am  
 33  18  22  1   
 34  19  21  am  
 35  19  23  1   
 36  20  24  1   
 37  20  42  1   
 38  20  43  1   
 39  21  25  2   
 40  22  44  1   
 41  22  45  1   
 42  22  46  1   
 43  23  47  1   
 44  23  48  1   
 45  23  49  1   
 46  24  26  am  
 47  24  50  1   
 48  26  27  2   
 49  26  28  1   
 50  28  29  1   
 51  28  30  1   
 52  28  51  1   
 53  29  31  1   
 54  29  52  1   
 55  29  53  1   
 56  30  54  1   
 57  30  55  1   
 58  30  56  1   
 59  31  57  1   
 60  31  58  1   
 61  31  59  1   
@<TRIPOS>SUBSTRUCTURE
  1 ****  12 GROUP 4 **** **** 0

# MOE 2024.06 (io_trps.svl 2023.06)
