@<TRIPOS>MOLECULE
N-Benzo[1,3]dioxol-5-yl-2-chloro-propionamide
25 26 1 0 0 
SMALL
USER_CHARGES


@<TRIPOS>ATOM
  1 CL       0.7060    -0.1940    -0.6940 Cl    1 <1>  -0.2900 
  2 C        0.1630     1.4830    -0.5870 C.3   1 <1>   0.2710 
  3 C        1.3660     2.4310    -0.5730 C.2   1 <1>   0.5690 
  4 C       -0.7080     1.5970     0.6700 C.3   1 <1>  -0.2400 
  5 O        1.1770     3.5880    -0.8650 O.2   1 <1>  -0.5700 
  6 N        2.5960     1.9280    -0.2360 N.am  1 <1>  -0.5470 
  7 C        3.8550     2.5390    -0.1130 C.ar  1 <1>   0.1170 
  8 C        4.9870     1.7280    -0.1790 C.ar  1 <1>  -0.1500 
  9 C        4.0150     3.9160     0.0880 C.ar  1 <1>  -0.1500 
 10 C        6.2290     2.3130    -0.0490 C.ar  1 <1>   0.0830 
 11 C        5.2740     4.4890     0.2160 C.ar  1 <1>  -0.1500 
 12 O        7.4290     1.7240    -0.0840 O.3   1 <1>  -0.3630 
 13 C        6.3710     3.6550     0.1420 C.ar  1 <1>   0.0830 
 14 C        8.3970     2.7570     0.0920 C.3   1 <1>   0.4000 
 15 O        7.6690     3.9750     0.2370 O.3   1 <1>  -0.3630 
 16 H       -0.4250     1.6770    -1.4660 H     1 <1>   0.0800 
 17 H       -0.1290     1.3720     1.5480 H     1 <1>   0.0800 
 18 H       -1.5430     0.9220     0.6060 H     1 <1>   0.0800 
 19 H       -1.0850     2.6000     0.7570 H     1 <1>   0.0800 
 20 H        2.6040     0.9130    -0.1160 H     1 <1>   0.3700 
 21 H        4.9110     0.6690    -0.3320 H     1 <1>   0.1500 
 22 H        3.1520     4.5530     0.1500 H     1 <1>   0.1500 
 23 H        5.4010     5.5450     0.3680 H     1 <1>   0.1500 
 24 H        9.0260     2.8140    -0.7780 H     1 <1>   0.0800 
 25 H        8.9670     2.5690     0.9850 H     1 <1>   0.0800 
@<TRIPOS>BOND
  1   1   2  1   
  2   2   3  1   
  3   2   4  1   
  4   2  16  1   
  5   3   5  2   
  6   3   6  am  
  7   4  17  1   
  8   4  18  1   
  9   4  19  1   
 10   6   7  1   
 11   6  20  1   
 12   7   8  ar  
 13   7   9  ar  
 14   8  10  ar  
 15   8  21  1   
 16   9  11  ar  
 17   9  22  1   
 18  10  12  1   
 19  10  13  ar  
 20  11  13  ar  
 21  11  23  1   
 22  12  14  1   
 23  13  15  1   
 24  14  15  1   
 25  14  24  1   
 26  14  25  1   
@<TRIPOS>SUBSTRUCTURE
  1 ****   7 GROUP 4 **** **** 0

# MOE 2024.06 (io_trps.svl 2023.06)
