@<TRIPOS>MOLECULE
NONAME
24 24 1 0 0 
SMALL
USER_CHARGES


@<TRIPOS>ATOM
  1 O        0.2070    -0.8980     0.3560 O.2   1 <1>  -0.5700 
  2 C        0.1830    -2.0440    -0.0120 C.2   1 <1>   0.6590 
  3 O        1.2860    -2.7690    -0.1520 O.3   1 <1>  -0.4300 
  4 C       -1.1160    -2.7460    -0.3340 C.3   1 <1>  -0.0990 
  5 C        2.5630    -2.2310     0.1210 C.3   1 <1>   0.0400 
  6 C       -1.5070    -3.7300     0.7730 C.3   1 <1>  -0.0170 
  7 C       -2.8130    -4.4230     0.4260 C.ar  1 <1>  -0.1440 
  8 C       -2.8070    -5.6240    -0.2660 C.ar  1 <1>  -0.1500 
  9 C       -4.0240    -3.8560     0.7940 C.ar  1 <1>  -0.1500 
 10 C       -3.9980    -6.2530    -0.5860 C.ar  1 <1>  -0.1500 
 11 C       -5.2160    -4.4840     0.4740 C.ar  1 <1>  -0.1500 
 12 C       -5.2030    -5.6830    -0.2160 C.ar  1 <1>  -0.1500 
 13 H       -1.0060    -3.2680    -1.2670 H     1 <1>   0.0800 
 14 H       -1.8890    -2.0080    -0.4510 H     1 <1>   0.0800 
 15 H        3.3000    -2.9930    -0.0610 H     1 <1>   0.0800 
 16 H        2.5960    -1.9200     1.1500 H     1 <1>   0.0800 
 17 H        2.7310    -1.3890    -0.5270 H     1 <1>   0.0800 
 18 H       -1.6130    -3.2020     1.7060 H     1 <1>   0.0800 
 19 H       -0.7300    -4.4640     0.9000 H     1 <1>   0.0800 
 20 H       -1.8750    -6.0760    -0.5590 H     1 <1>   0.1500 
 21 H       -4.0450    -2.9240     1.3300 H     1 <1>   0.1500 
 22 H       -3.9860    -7.1860    -1.1230 H     1 <1>   0.1500 
 23 H       -6.1520    -4.0390     0.7630 H     1 <1>   0.1500 
 24 H       -6.1290    -6.1720    -0.4640 H     1 <1>   0.1500 
@<TRIPOS>BOND
  1   1   2  2   
  2   2   3  1   
  3   2   4  1   
  4   3   5  1   
  5   4   6  1   
  6   4  13  1   
  7   4  14  1   
  8   5  15  1   
  9   5  16  1   
 10   5  17  1   
 11   6   7  1   
 12   6  18  1   
 13   6  19  1   
 14   7   8  ar  
 15   7   9  ar  
 16   8  10  ar  
 17   8  20  1   
 18   9  11  ar  
 19   9  21  1   
 20  10  12  ar  
 21  10  22  1   
 22  11  12  ar  
 23  11  23  1   
 24  12  24  1   
@<TRIPOS>SUBSTRUCTURE
  1 ****   6 GROUP 4 **** **** 0

# MOE 2024.06 (io_trps.svl 2023.06)
