@<TRIPOS>MOLECULE
4-Methyl-4H-furo[3,2-b]pyrrole-5-carboxylic acid (2-methoxy-ethylcarbamoyl)-methyl ester
36 37 1 0 0 
SMALL
USER_CHARGES


@<TRIPOS>ATOM
  1 O        0.1100     0.3700     0.7590 O.2   1 <1>  -0.5700 
  2 C       -0.1490    -0.7600     0.3960 C.2   1 <1>   0.8050 
  3 O       -1.4090    -1.1890     0.4870 O.3   1 <1>  -0.4300 
  4 C        0.8180    -1.6850    -0.1320 C.2   1 <1>  -0.2370 
  5 C       -2.4380    -0.3370     0.9830 C.3   1 <1>   0.1810 
  6 N        2.1770    -1.4220    -0.2750 N.pl3 1 <1>  -0.0400 
  7 C        0.5850    -2.9690    -0.5830 C.2   1 <1>  -0.1630 
  8 C       -3.7870    -1.0480     1.0180 C.2   1 <1>   0.5690 
  9 C        2.7660    -2.5380    -0.8070 C.2   1 <1>  -0.0510 
 10 C        2.9060    -0.1840     0.0680 C.3   1 <1>   0.0160 
 11 C        1.8080    -3.4740    -0.9950 C.2   1 <1>   0.1820 
 12 O       -4.7820    -0.3940     1.2120 O.2   1 <1>  -0.5700 
 13 N       -3.8430    -2.3930     0.8260 N.am  1 <1>  -0.7300 
 14 C        3.9670    -3.1180    -1.2450 C.2   1 <1>  -0.1630 
 15 O        2.3230    -4.5940    -1.5160 O.3   1 <1>  -0.3090 
 16 C       -5.0770    -3.2170     0.8780 C.3   1 <1>   0.1400 
 17 C        3.6290    -4.3610    -1.6610 C.2   1 <1>  -0.0100 
 18 C       -5.8390    -3.1230    -0.4440 C.3   1 <1>   0.1200 
 19 O       -6.8660    -4.0650    -0.4290 O.3   1 <1>  -0.5600 
 20 C       -7.6910    -4.0150    -1.5470 C.3   1 <1>   0.0400 
 21 H       -2.5040     0.5250     0.3440 H     1 <1>   0.0800 
 22 H       -2.1750    -0.0250     1.9770 H     1 <1>   0.0800 
 23 H       -0.3430    -3.5090    -0.6260 H     1 <1>   0.1500 
 24 H        2.7870     0.0220     1.1170 H     1 <1>   0.0800 
 25 H        2.5060     0.6350    -0.5020 H     1 <1>   0.0800 
 26 H        3.9500    -0.3000    -0.1570 H     1 <1>   0.0800 
 27 H       -2.9710    -2.8890     0.6270 H     1 <1>   0.3700 
 28 H        4.9300    -2.6420    -1.2340 H     1 <1>   0.1500 
 29 H       -5.7100    -2.8640     1.6750 H     1 <1>   0.0800 
 30 H       -4.8110    -4.2420     1.0700 H     1 <1>   0.0800 
 31 H        4.2410    -5.1450    -2.0710 H     1 <1>   0.1500 
 32 H       -5.1880    -3.3440    -1.2710 H     1 <1>   0.0800 
 33 H       -6.2660    -2.1400    -0.5520 H     1 <1>   0.0800 
 34 H       -8.4400    -4.7810    -1.4450 H     1 <1>   0.0800 
 35 H       -7.1050    -4.1960    -2.4310 H     1 <1>   0.0800 
 36 H       -8.1650    -3.0500    -1.5960 H     1 <1>   0.0800 
@<TRIPOS>BOND
  1   1   2  2   
  2   2   3  1   
  3   2   4  1   
  4   3   5  1   
  5   4   6  1   
  6   4   7  2   
  7   5   8  1   
  8   5  21  1   
  9   5  22  1   
 10   6   9  1   
 11   6  10  1   
 12   7  11  1   
 13   7  23  1   
 14   8  12  2   
 15   8  13  am  
 16   9  11  2   
 17   9  14  1   
 18  10  24  1   
 19  10  25  1   
 20  10  26  1   
 21  11  15  1   
 22  13  16  1   
 23  13  27  1   
 24  14  17  2   
 25  14  28  1   
 26  15  17  1   
 27  16  18  1   
 28  16  29  1   
 29  16  30  1   
 30  17  31  1   
 31  18  19  1   
 32  18  32  1   
 33  18  33  1   
 34  19  20  1   
 35  20  34  1   
 36  20  35  1   
 37  20  36  1   
@<TRIPOS>SUBSTRUCTURE
  1 ****   3 GROUP 4 **** **** 0

# MOE 2024.06 (io_trps.svl 2023.06)
