@<TRIPOS>MOLECULE
NONAME
43 45 1 0 0 
SMALL
USER_CHARGES


@<TRIPOS>ATOM
  1 N       -0.2450     1.4800     2.6360 N.2   1 <1>   0.0000 
  2 N       -0.5470     1.6460     1.4000 N.2   1 <1>  -0.4180 
  3 N        0.8340     2.1850     2.9540 N.2   1 <1>  -0.3380 
  4 N        0.3530     2.4690     0.8980 N.pl3 1 <1>   0.3140 
  5 C        1.1890     2.7800     1.8790 C.2   1 <1>   0.0060 
  6 C        0.3320     2.9330    -0.5210 C.3   1 <1>   0.1760 
  7 C        2.3790     3.7250     1.7620 C.3   1 <1>   0.2900 
  8 C       -0.8490     3.8850    -0.7560 C.3   1 <1>  -0.2400 
  9 C        0.2720     1.7440    -1.4930 C.3   1 <1>  -0.2400 
 10 N        3.6560     3.0300     1.5060 N.3   1 <1>  -0.8100 
 11 C        4.7760     3.9980     1.4190 C.3   1 <1>   0.1100 
 12 C        3.6460     2.1400     0.3200 C.3   1 <1>   0.1100 
 13 C        6.1370     3.3080     1.2080 C.3   1 <1>   0.2090 
 14 C        4.9980     1.4330     0.1070 C.3   1 <1>   0.2090 
 15 N        6.1020     2.4280     0.0050 N.pl3 1 <1>  -0.8380 
 16 C        7.3280     1.9380    -0.4270 C.ar  1 <1>   0.1000 
 17 C        8.0560     1.0200     0.3230 C.ar  1 <1>  -0.1500 
 18 C        7.8490     2.3710    -1.6380 C.ar  1 <1>  -0.1500 
 19 C        9.2740     0.5460    -0.1290 C.ar  1 <1>  -0.1500 
 20 C        9.0670     1.9010    -2.0950 C.ar  1 <1>  -0.1500 
 21 C        9.7820     0.9870    -1.3400 C.ar  1 <1>  -0.1500 
 22 H        1.2410     3.4700    -0.7130 H     1 <1>   0.0800 
 23 H        2.4650     4.2550     2.6950 H     1 <1>   0.0800 
 24 H        2.1990     4.4550     0.9920 H     1 <1>   0.0800 
 25 H       -1.7820     3.3740    -0.5890 H     1 <1>   0.0800 
 26 H       -0.8380     4.2480    -1.7680 H     1 <1>   0.0800 
 27 H       -0.7880     4.7280    -0.0920 H     1 <1>   0.0800 
 28 H       -0.6460     1.1960    -1.3640 H     1 <1>   0.0800 
 29 H        1.1000     1.0790    -1.3250 H     1 <1>   0.0800 
 30 H        0.3170     2.0930    -2.5090 H     1 <1>   0.0800 
 31 H        4.8220     4.5720     2.3280 H     1 <1>   0.0800 
 32 H        4.6100     4.6760     0.6000 H     1 <1>   0.0800 
 33 H        3.4210     2.7090    -0.5650 H     1 <1>   0.0800 
 34 H        2.8950     1.3810     0.4450 H     1 <1>   0.0800 
 35 H        6.3770     2.7220     2.0780 H     1 <1>   0.0800 
 36 H        6.9040     4.0520     1.0800 H     1 <1>   0.0800 
 37 H        4.9620     0.8490    -0.7950 H     1 <1>   0.0800 
 38 H        5.1810     0.7680     0.9330 H     1 <1>   0.0800 
 39 H        7.6610     0.6800     1.2620 H     1 <1>   0.1500 
 40 H        7.2860     3.0810    -2.2150 H     1 <1>   0.1500 
 41 H        9.8280    -0.1640     0.4600 H     1 <1>   0.1500 
 42 H        9.4580     2.2460    -3.0360 H     1 <1>   0.1500 
 43 H       10.7300     0.6200    -1.6930 H     1 <1>   0.1500 
@<TRIPOS>BOND
  1   1   2  2   
  2   1   3  1   
  3   2   4  1   
  4   3   5  2   
  5   4   5  1   
  6   4   6  1   
  7   5   7  1   
  8   6   8  1   
  9   6   9  1   
 10   6  22  1   
 11   7  10  1   
 12   7  23  1   
 13   7  24  1   
 14   8  25  1   
 15   8  26  1   
 16   8  27  1   
 17   9  28  1   
 18   9  29  1   
 19   9  30  1   
 20  10  11  1   
 21  10  12  1   
 22  11  13  1   
 23  11  31  1   
 24  11  32  1   
 25  12  14  1   
 26  12  33  1   
 27  12  34  1   
 28  13  15  1   
 29  13  35  1   
 30  13  36  1   
 31  14  15  1   
 32  14  37  1   
 33  14  38  1   
 34  15  16  1   
 35  16  17  ar  
 36  16  18  ar  
 37  17  19  ar  
 38  17  39  1   
 39  18  20  ar  
 40  18  40  1   
 41  19  21  ar  
 42  19  41  1   
 43  20  21  ar  
 44  20  42  1   
 45  21  43  1   
@<TRIPOS>SUBSTRUCTURE
  1 ****  12 GROUP 4 **** **** 0

# MOE 2024.06 (io_trps.svl 2023.06)
