@<TRIPOS>MOLECULE
1-(5-Methyl-[1,2,4]triazolo[1,5-a]pyrimidin-7-yl)-piperidine-4-carboxylic acid cycloheptylamide
55 58 1 0 0 
SMALL
USER_CHARGES


@<TRIPOS>ATOM
  1 O        1.7360    -2.4520    -2.7870 O.2   1 <1>  -0.5700 
  2 C        2.4000    -2.2860    -1.7950 C.2   1 <1>   0.5690 
  3 N        3.3170    -1.2910    -1.7810 N.am  1 <1>  -0.7300 
  4 C        2.1950    -3.2080    -0.5890 C.3   1 <1>  -0.0190 
  5 C        4.3260    -0.9440    -0.7650 C.3   1 <1>   0.2200 
  6 C        3.0520    -4.4800    -0.7260 C.3   1 <1>  -0.1600 
  7 C        0.7130    -3.5890    -0.3940 C.3   1 <1>  -0.1600 
  8 C        3.8020     0.2300     0.0720 C.3   1 <1>  -0.1600 
  9 C        5.6470    -0.6660    -1.4930 C.3   1 <1>  -0.1600 
 10 C        2.8300    -5.4430     0.4430 C.3   1 <1>   0.2090 
 11 C        0.5230    -4.5500     0.7800 C.3   1 <1>   0.2090 
 12 C        4.3380     0.1950     1.5120 C.3   1 <1>  -0.1600 
 13 C        6.7320     0.0650    -0.6830 C.3   1 <1>  -0.1600 
 14 N        1.3770    -5.7530     0.5680 N.pl3 1 <1>  -0.8380 
 15 C        5.8250     0.5490     1.6570 C.3   1 <1>  -0.1600 
 16 C        6.7880    -0.2980     0.8090 C.3   1 <1>  -0.1600 
 17 C        0.8470    -7.0100     0.4420 C.2   1 <1>   0.4790 
 18 N        1.2960    -7.8920    -0.5080 N.pl3 1 <1>  -0.3220 
 19 C       -0.1740    -7.4680     1.2430 C.2   1 <1>  -0.1360 
 20 N        2.2370    -7.7650    -1.5070 N.2   1 <1>  -0.2600 
 21 C        0.7150    -9.0980    -0.6070 C.cat 1 <1>   0.9620 
 22 C       -0.6860    -8.7470     1.0640 C.2   1 <1>   0.3750 
 23 C        2.1910    -8.8790    -2.1400 C.2   1 <1>   0.5030 
 24 N       -0.2600    -9.5790     0.1480 N.2   1 <1>  -0.6120 
 25 N        1.2750    -9.7330    -1.6180 N.pl3 1 <1>  -0.7000 
 26 C       -1.8030    -9.2440     1.9570 C.3   1 <1>  -0.1790 
 27 H        3.3350    -0.7110    -2.6210 H     1 <1>   0.3700 
 28 H        2.5010    -2.6810     0.2960 H     1 <1>   0.0800 
 29 H        4.4740    -1.7920    -0.1180 H     1 <1>   0.0800 
 30 H        4.0920    -4.2130    -0.7730 H     1 <1>   0.0800 
 31 H        2.8030    -4.9800    -1.6460 H     1 <1>   0.0800 
 32 H        0.3360    -4.0580    -1.2870 H     1 <1>   0.0800 
 33 H        0.1340    -2.6990    -0.2270 H     1 <1>   0.0800 
 34 H        2.7300     0.1620     0.1310 H     1 <1>   0.0800 
 35 H        4.0450     1.1670    -0.3970 H     1 <1>   0.0800 
 36 H        5.4550    -0.0830    -2.3770 H     1 <1>   0.0800 
 37 H        6.0450    -1.6140    -1.8110 H     1 <1>   0.0800 
 38 H        3.1690    -4.9840     1.3570 H     1 <1>   0.0800 
 39 H        3.4040    -6.3420     0.3000 H     1 <1>   0.0800 
 40 H       -0.5160    -4.8240     0.8430 H     1 <1>   0.0800 
 41 H        0.8040    -4.0670     1.7010 H     1 <1>   0.0800 
 42 H        4.1610    -0.7780     1.9370 H     1 <1>   0.0800 
 43 H        3.7730     0.9000     2.1000 H     1 <1>   0.0800 
 44 H        6.5960     1.1280    -0.7840 H     1 <1>   0.0800 
 45 H        7.6850    -0.1650    -1.1290 H     1 <1>   0.0800 
 46 H        6.0930     0.4260     2.6930 H     1 <1>   0.0800 
 47 H        5.9650     1.5900     1.4230 H     1 <1>   0.0800 
 48 H        7.7850    -0.0910     1.1570 H     1 <1>   0.0800 
 49 H        6.6130    -1.3490     0.9590 H     1 <1>   0.0800 
 50 H       -0.5650    -6.8370     2.0170 H     1 <1>   0.1500 
 51 H        2.8030    -9.1250    -2.9950 H     1 <1>   0.1500 
 52 H        1.0060   -10.6700    -1.9070 H     1 <1>   0.4500 
 53 H       -2.0890    -8.5030     2.6810 H     1 <1>   0.0800 
 54 H       -1.4840   -10.1280     2.4800 H     1 <1>   0.0800 
 55 H       -2.6630    -9.4910     1.3610 H     1 <1>   0.0800 
@<TRIPOS>BOND
  1   1   2  2   
  2   2   3  am  
  3   2   4  1   
  4   3   5  1   
  5   3  27  1   
  6   4   6  1   
  7   4   7  1   
  8   4  28  1   
  9   5   8  1   
 10   5   9  1   
 11   5  29  1   
 12   6  10  1   
 13   6  30  1   
 14   6  31  1   
 15   7  11  1   
 16   7  32  1   
 17   7  33  1   
 18   8  12  1   
 19   8  34  1   
 20   8  35  1   
 21   9  13  1   
 22   9  36  1   
 23   9  37  1   
 24  10  14  1   
 25  10  38  1   
 26  10  39  1   
 27  11  14  1   
 28  11  40  1   
 29  11  41  1   
 30  12  15  1   
 31  12  42  1   
 32  12  43  1   
 33  13  16  1   
 34  13  44  1   
 35  13  45  1   
 36  14  17  1   
 37  15  16  1   
 38  15  46  1   
 39  15  47  1   
 40  16  48  1   
 41  16  49  1   
 42  17  18  1   
 43  17  19  2   
 44  18  20  1   
 45  18  21  ar  
 46  19  22  1   
 47  19  50  1   
 48  20  23  2   
 49  21  24  1   
 50  21  25  ar  
 51  22  24  2   
 52  22  26  1   
 53  23  25  1   
 54  23  51  1   
 55  25  52  1   
 56  26  53  1   
 57  26  54  1   
 58  26  55  1   
@<TRIPOS>SUBSTRUCTURE
  1 ****   6 GROUP 4 **** **** 0

# MOE 2024.06 (io_trps.svl 2023.06)
