@<TRIPOS>MOLECULE
N-Ethyl-2-(3-ethyl-2,4-dioxo-3,4-dihydro-2H-thieno[3,2-d]pyrimidin-1-yl)-N-m-tol
47 49 1 0 0 
SMALL
USER_CHARGES


@<TRIPOS>ATOM
  1 S        4.0980    -0.8020     3.6020 S.3   1 <1>  -0.0800 
  2 C        3.9120    -1.1230     1.8720 C.2   1 <1>  -0.0450 
  3 C        3.2940    -2.3080     4.0070 C.2   1 <1>  -0.1100 
  4 C        4.3340    -0.2660     0.8250 C.2   1 <1>   0.7150 
  5 C        3.2910    -2.3100     1.6750 C.2   1 <1>   0.0630 
  6 C        2.9330    -2.9740     2.8940 C.2   1 <1>  -0.1500 
  7 O        4.9160     0.7870     1.0290 O.2   1 <1>  -0.5700 
  8 N        4.0530    -0.6780    -0.4670 N.am  1 <1>  -0.4200 
  9 N        3.0740    -2.7290     0.3580 N.am  1 <1>  -0.4230 
 10 C        3.4220    -1.8930    -0.7000 C.2   1 <1>   0.6900 
 11 C        4.4120     0.2050    -1.6130 C.3   1 <1>   0.1400 
 12 C        2.4160    -4.0560     0.0800 C.3   1 <1>   0.2010 
 13 O        3.1860    -2.2390    -1.8440 O.2   1 <1>  -0.5700 
 14 C        3.2530     1.1530    -1.9230 C.3   1 <1>  -0.2400 
 15 C        3.1930    -5.2750     0.5840 C.2   1 <1>   0.5690 
 16 O        2.6610    -5.9120     1.4650 O.2   1 <1>  -0.5700 
 17 N        4.4200    -5.6480     0.0620 N.am  1 <1>  -0.4770 
 18 C        5.1940    -6.6670     0.6430 C.ar  1 <1>   0.1170 
 19 C        4.9850    -5.0750    -1.1870 C.3   1 <1>   0.1400 
 20 C        4.7780    -7.9930     0.5970 C.ar  1 <1>  -0.1500 
 21 C        6.4000    -6.3660     1.2650 C.ar  1 <1>  -0.1500 
 22 C        4.3640    -5.7550    -2.4060 C.3   1 <1>  -0.2400 
 23 C        5.5490    -9.0030     1.1480 C.ar  1 <1>  -0.1430 
 24 C        7.1770    -7.3680     1.8160 C.ar  1 <1>  -0.1500 
 25 C        6.7530    -8.6850     1.7550 C.ar  1 <1>  -0.1500 
 26 C        5.0850   -10.4460     1.0930 C.3   1 <1>  -0.0970 
 27 H        3.1730    -2.5400     5.0510 H     1 <1>   0.1500 
 28 H        2.4190    -3.9180     2.9040 H     1 <1>   0.1500 
 29 H        4.6370    -0.3910    -2.4810 H     1 <1>   0.0800 
 30 H        5.2950     0.7750    -1.3760 H     1 <1>   0.0800 
 31 H        2.2330    -4.1840    -0.9690 H     1 <1>   0.0800 
 32 H        1.4550    -4.0540     0.5590 H     1 <1>   0.0800 
 33 H        2.3730     0.5950    -2.1900 H     1 <1>   0.0800 
 34 H        3.5170     1.7860    -2.7510 H     1 <1>   0.0800 
 35 H        3.0420     1.7770    -1.0730 H     1 <1>   0.0800 
 36 H        6.0500    -5.2380    -1.2030 H     1 <1>   0.0800 
 37 H        4.8290    -4.0160    -1.2240 H     1 <1>   0.0800 
 38 H        3.8390    -8.2210     0.1280 H     1 <1>   0.1500 
 39 H        6.7240    -5.3440     1.3200 H     1 <1>   0.1500 
 40 H        4.5620    -6.8120    -2.3820 H     1 <1>   0.0800 
 41 H        4.7970    -5.3490    -3.3030 H     1 <1>   0.0800 
 42 H        3.3030    -5.5910    -2.4420 H     1 <1>   0.0800 
 43 H        8.1090    -7.1260     2.2950 H     1 <1>   0.1500 
 44 H        7.3620    -9.4610     2.1860 H     1 <1>   0.1500 
 45 H        4.0380   -10.5010     0.8550 H     1 <1>   0.0800 
 46 H        5.2410   -10.9210     2.0450 H     1 <1>   0.0800 
 47 H        5.6390   -10.9790     0.3420 H     1 <1>   0.0800 
@<TRIPOS>BOND
  1   1   2  1   
  2   1   3  1   
  3   2   4  1   
  4   2   5  2   
  5   3   6  2   
  6   3  27  1   
  7   4   7  2   
  8   4   8  am  
  9   5   6  1   
 10   5   9  1   
 11   6  28  1   
 12   8  10  am  
 13   8  11  1   
 14   9  10  am  
 15   9  12  1   
 16  10  13  2   
 17  11  14  1   
 18  11  29  1   
 19  11  30  1   
 20  12  15  1   
 21  12  31  1   
 22  12  32  1   
 23  14  33  1   
 24  14  34  1   
 25  14  35  1   
 26  15  16  2   
 27  15  17  am  
 28  17  18  1   
 29  17  19  1   
 30  18  20  ar  
 31  18  21  ar  
 32  19  22  1   
 33  19  36  1   
 34  19  37  1   
 35  20  23  ar  
 36  20  38  1   
 37  21  24  ar  
 38  21  39  1   
 39  22  40  1   
 40  22  41  1   
 41  22  42  1   
 42  23  25  ar  
 43  23  26  1   
 44  24  25  ar  
 45  24  43  1   
 46  25  44  1   
 47  26  45  1   
 48  26  46  1   
 49  26  47  1   
@<TRIPOS>SUBSTRUCTURE
  1 ****  15 GROUP 4 **** **** 0

# MOE 2024.06 (io_trps.svl 2023.06)
