@<TRIPOS>MOLECULE
1-(1-Phenyl-1H-tetrazol-5-yl)-piperidine-4-carboxylic acid (5-fluoro-2-methyl-phenyl)-amide
49 52 1 0 0 
SMALL
USER_CHARGES


@<TRIPOS>ATOM
  1 F        1.5190     0.9090    -1.2750 F     1 <1>  -0.1900 
  2 C        2.0500    -0.2540    -1.0080 C.ar  1 <1>   0.1900 
  3 C        3.3410    -0.3000    -0.5280 C.ar  1 <1>  -0.1500 
  4 C        1.2980    -1.3920    -1.2160 C.ar  1 <1>  -0.1500 
  5 C        3.9160    -1.5300    -0.2400 C.ar  1 <1>   0.1170 
  6 C        1.8690    -2.6190    -0.9270 C.ar  1 <1>  -0.1500 
  7 N        5.2240    -1.5440     0.2600 N.am  1 <1>  -0.5470 
  8 C        3.1670    -2.6980    -0.4380 C.ar  1 <1>  -0.1430 
  9 C        6.3470    -2.0480    -0.3340 C.2   1 <1>   0.5690 
 10 C        3.7410    -4.0750    -0.1300 C.3   1 <1>  -0.0960 
 11 O        6.3180    -2.6110    -1.4020 O.2   1 <1>  -0.5700 
 12 C        7.6740    -1.8790     0.4100 C.3   1 <1>  -0.0190 
 13 C        8.1040    -0.4000     0.4620 C.3   1 <1>  -0.1600 
 14 C        8.8160    -2.7220    -0.1960 C.3   1 <1>  -0.1600 
 15 C        9.4270    -0.2180     1.2120 C.3   1 <1>   0.2090 
 16 C       10.1320    -2.5310     0.5580 C.3   1 <1>   0.2090 
 17 N       10.4790    -1.0830     0.6110 N.pl3 1 <1>  -0.8220 
 18 C       11.3130    -0.5330    -0.3880 C.2   1 <1>   0.2710 
 19 N       11.0150     0.5220    -1.0640 N.2   1 <1>  -0.3380 
 20 N       12.5150    -0.9930    -0.7990 N.pl3 1 <1>   0.5930 
 21 N       12.0180     0.7130    -1.9150 N.2   1 <1>   0.0000 
 22 N       12.9200    -0.1820    -1.7760 N.2   1 <1>  -0.4180 
 23 C       13.2990    -2.0760    -0.3080 C.ar  1 <1>  -0.0230 
 24 C       13.4750    -2.2690     1.0600 C.ar  1 <1>  -0.1500 
 25 C       13.9050    -2.9680    -1.1890 C.ar  1 <1>  -0.1500 
 26 C       14.2270    -3.3290     1.5340 C.ar  1 <1>  -0.1500 
 27 C       14.6570    -4.0290    -0.7160 C.ar  1 <1>  -0.1500 
 28 C       14.8170    -4.2110     0.6460 C.ar  1 <1>  -0.1500 
 29 H        3.8910     0.6110    -0.3900 H     1 <1>   0.1500 
 30 H        0.2950    -1.3170    -1.5950 H     1 <1>   0.1500 
 31 H        1.2940    -3.5150    -1.0870 H     1 <1>   0.1500 
 32 H        5.3680    -1.0070     1.1110 H     1 <1>   0.3700 
 33 H        4.2890    -4.0580     0.7940 H     1 <1>   0.0800 
 34 H        4.4020    -4.3770    -0.9220 H     1 <1>   0.0800 
 35 H        2.9590    -4.8070    -0.0410 H     1 <1>   0.0800 
 36 H        7.5170    -2.2220     1.4170 H     1 <1>   0.0800 
 37 H        7.3500     0.1930     0.9470 H     1 <1>   0.0800 
 38 H        8.2200    -0.0220    -0.5400 H     1 <1>   0.0800 
 39 H        8.9650    -2.4430    -1.2260 H     1 <1>   0.0800 
 40 H        8.5450    -3.7630    -0.1790 H     1 <1>   0.0800 
 41 H        9.3040    -0.4860     2.2470 H     1 <1>   0.0800 
 42 H        9.7310     0.8150     1.1730 H     1 <1>   0.0800 
 43 H       10.9060    -3.0920     0.0620 H     1 <1>   0.0800 
 44 H       10.0420    -2.9090     1.5620 H     1 <1>   0.0800 
 45 H       13.0200    -1.5870     1.7590 H     1 <1>   0.1500 
 46 H       13.7890    -2.8320    -2.2520 H     1 <1>   0.1500 
 47 H       14.3560    -3.4680     2.5940 H     1 <1>   0.1500 
 48 H       15.1200    -4.7120    -1.4070 H     1 <1>   0.1500 
 49 H       15.4040    -5.0350     1.0140 H     1 <1>   0.1500 
@<TRIPOS>BOND
  1   1   2  1   
  2   2   3  ar  
  3   2   4  ar  
  4   3   5  ar  
  5   3  29  1   
  6   4   6  ar  
  7   4  30  1   
  8   5   7  1   
  9   5   8  ar  
 10   6   8  ar  
 11   6  31  1   
 12   7   9  am  
 13   7  32  1   
 14   8  10  1   
 15   9  11  2   
 16   9  12  1   
 17  10  33  1   
 18  10  34  1   
 19  10  35  1   
 20  12  13  1   
 21  12  14  1   
 22  12  36  1   
 23  13  15  1   
 24  13  37  1   
 25  13  38  1   
 26  14  16  1   
 27  14  39  1   
 28  14  40  1   
 29  15  17  1   
 30  15  41  1   
 31  15  42  1   
 32  16  17  1   
 33  16  43  1   
 34  16  44  1   
 35  17  18  1   
 36  18  19  2   
 37  18  20  1   
 38  19  21  1   
 39  20  22  1   
 40  20  23  1   
 41  21  22  2   
 42  23  24  ar  
 43  23  25  ar  
 44  24  26  ar  
 45  24  45  1   
 46  25  27  ar  
 47  25  46  1   
 48  26  28  ar  
 49  26  47  1   
 50  27  28  ar  
 51  27  48  1   
 52  28  49  1   
@<TRIPOS>SUBSTRUCTURE
  1 ****  12 GROUP 4 **** **** 0

# MOE 2024.06 (io_trps.svl 2023.06)
