@<TRIPOS>MOLECULE
4-(2,3-Dihydro-benzo[1,4]dioxine-6-carbonyl)-piperidine-1-carboxylic acid m-tolylamide
52 55 1 0 0 
SMALL
USER_CHARGES


@<TRIPOS>ATOM
  1 O       -0.4480    -0.3690     1.2190 O.2   1 <1>  -0.5700 
  2 C       -0.6130    -1.4940     0.7870 C.2   1 <1>   0.6900 
  3 N       -1.8810    -2.0200     0.6860 N.am  1 <1>  -0.6600 
  4 N        0.4550    -2.2690     0.4310 N.am  1 <1>  -0.5470 
  5 C       -3.0460    -1.3150     1.2910 C.3   1 <1>   0.1400 
  6 C       -2.2390    -3.2030    -0.1470 C.3   1 <1>   0.1400 
  7 C        1.8200    -1.9750     0.3070 C.ar  1 <1>   0.1170 
  8 C       -4.0230    -0.8860     0.1920 C.3   1 <1>  -0.1600 
  9 C       -3.2220    -2.7860    -1.2450 C.3   1 <1>  -0.1600 
 10 C        2.7410    -3.0120     0.4060 C.ar  1 <1>  -0.1500 
 11 C        2.2960    -0.6900     0.0660 C.ar  1 <1>  -0.1500 
 12 C       -4.4670    -2.0860    -0.6640 C.3   1 <1>  -0.0190 
 13 C        4.1000    -2.7840     0.2740 C.ar  1 <1>  -0.1430 
 14 C        3.6520    -0.4520    -0.0670 C.ar  1 <1>  -0.1500 
 15 C       -5.4600    -1.6500    -1.7520 C.2   1 <1>   0.4230 
 16 C        4.5530    -1.4970     0.0360 C.ar  1 <1>  -0.1500 
 17 C        5.0960    -3.9240     0.3860 C.3   1 <1>  -0.0970 
 18 O       -5.0070    -1.3100    -2.8170 O.2   1 <1>  -0.5700 
 19 C       -6.8880    -1.6620    -1.4930 C.ar  1 <1>   0.0860 
 20 C       -7.4400    -1.7650    -0.2100 C.ar  1 <1>  -0.1500 
 21 C       -7.7890    -1.5660    -2.5600 C.ar  1 <1>  -0.1500 
 22 C       -8.8060    -1.7820    -0.0100 C.ar  1 <1>   0.0830 
 23 C       -9.1590    -1.5740    -2.3710 C.ar  1 <1>  -0.1500 
 24 O       -9.2780    -1.9070     1.2560 O.3   1 <1>  -0.3630 
 25 C       -9.6770    -1.6770    -1.0940 C.ar  1 <1>   0.0830 
 26 C      -10.6440    -2.2540     1.4000 C.3   1 <1>   0.1200 
 27 O      -11.0180    -1.6670    -0.9200 O.3   1 <1>  -0.3630 
 28 C      -11.5030    -1.4730     0.3950 C.3   1 <1>   0.1200 
 29 H        0.2140    -3.2470     0.3410 H     1 <1>   0.3700 
 30 H       -2.7260    -0.4480     1.8450 H     1 <1>   0.0800 
 31 H       -3.5360    -1.9800     1.9810 H     1 <1>   0.0800 
 32 H       -2.6900    -3.9500     0.4840 H     1 <1>   0.0800 
 33 H       -1.3690    -3.6340    -0.6090 H     1 <1>   0.0800 
 34 H       -3.5400    -0.1530    -0.4320 H     1 <1>   0.0800 
 35 H       -4.8750    -0.4140     0.6460 H     1 <1>   0.0800 
 36 H       -3.5230    -3.6540    -1.8040 H     1 <1>   0.0800 
 37 H       -2.7120    -2.1230    -1.9240 H     1 <1>   0.0800 
 38 H        2.3870    -4.0090     0.5910 H     1 <1>   0.1500 
 39 H        1.6060     0.1290    -0.0220 H     1 <1>   0.1500 
 40 H       -4.9540    -2.8040    -0.0290 H     1 <1>   0.0800 
 41 H        4.0040     0.5480    -0.2510 H     1 <1>   0.1500 
 42 H        5.6060    -1.3030    -0.0690 H     1 <1>   0.1500 
 43 H        4.6330    -4.7980     0.8070 H     1 <1>   0.0800 
 44 H        5.9160    -3.6360     1.0200 H     1 <1>   0.0800 
 45 H        5.4790    -4.1700    -0.5880 H     1 <1>   0.0800 
 46 H       -6.8190    -1.8300     0.6610 H     1 <1>   0.1500 
 47 H       -7.4020    -1.4800    -3.5620 H     1 <1>   0.1500 
 48 H       -9.8310    -1.4970    -3.2080 H     1 <1>   0.1500 
 49 H      -10.9390    -2.0300     2.4100 H     1 <1>   0.0800 
 50 H      -10.7410    -3.3110     1.2310 H     1 <1>   0.0800 
 51 H      -11.4670    -0.4200     0.6120 H     1 <1>   0.0800 
 52 H      -12.5240    -1.8050     0.4250 H     1 <1>   0.0800 
@<TRIPOS>BOND
  1   1   2  2   
  2   2   3  am  
  3   2   4  am  
  4   3   5  1   
  5   3   6  1   
  6   4   7  1   
  7   4  29  1   
  8   5   8  1   
  9   5  30  1   
 10   5  31  1   
 11   6   9  1   
 12   6  32  1   
 13   6  33  1   
 14   7  10  ar  
 15   7  11  ar  
 16   8  12  1   
 17   8  34  1   
 18   8  35  1   
 19   9  12  1   
 20   9  36  1   
 21   9  37  1   
 22  10  13  ar  
 23  10  38  1   
 24  11  14  ar  
 25  11  39  1   
 26  12  15  1   
 27  12  40  1   
 28  13  16  ar  
 29  13  17  1   
 30  14  16  ar  
 31  14  41  1   
 32  15  18  2   
 33  15  19  1   
 34  16  42  1   
 35  17  43  1   
 36  17  44  1   
 37  17  45  1   
 38  19  20  ar  
 39  19  21  ar  
 40  20  22  ar  
 41  20  46  1   
 42  21  23  ar  
 43  21  47  1   
 44  22  24  1   
 45  22  25  ar  
 46  23  25  ar  
 47  23  48  1   
 48  24  26  1   
 49  25  27  1   
 50  26  28  1   
 51  26  49  1   
 52  26  50  1   
 53  27  28  1   
 54  28  51  1   
 55  28  52  1   
@<TRIPOS>SUBSTRUCTURE
  1 ****  12 GROUP 4 **** **** 0

# MOE 2024.06 (io_trps.svl 2023.06)
