@<TRIPOS>MOLECULE
NONAME
51 53 1 0 0 
SMALL
USER_CHARGES


@<TRIPOS>ATOM
  1 O       -1.2280    -0.7970     0.4760 O.2   1 <1>  -0.5700 
  2 C       -0.9430    -1.1770    -0.6430 C.2   1 <1>   0.6900 
  3 N       -1.9410    -1.5650    -1.4990 N.am  1 <1>  -0.6600 
  4 N        0.3440    -1.2460    -1.0850 N.am  1 <1>  -0.5470 
  5 C       -1.9000    -2.8920    -2.1550 C.3   1 <1>   0.1400 
  6 C       -3.2990    -0.9870    -1.3480 C.3   1 <1>   0.1400 
  7 C        1.5690    -1.0540    -0.4280 C.ar  1 <1>   0.1170 
  8 C       -2.6990    -3.8710    -1.2920 C.3   1 <1>  -0.1600 
  9 C       -4.1370    -1.9240    -0.4780 C.3   1 <1>  -0.1600 
 10 C        1.7180    -1.1680     0.9510 C.ar  1 <1>  -0.1500 
 11 C        2.6940    -0.7560    -1.1890 C.ar  1 <1>  -0.1500 
 12 C       -4.1230    -3.3540    -1.0440 C.3   1 <1>   0.4230 
 13 C        2.9520    -0.9850     1.5480 C.ar  1 <1>  -0.1500 
 14 C        3.9320    -0.5720    -0.5980 C.ar  1 <1>  -0.1500 
 15 N       -4.8650    -4.3140    -0.1710 N.4   1 <1>  -0.9590 
 16 C        4.0670    -0.6870     0.7830 C.ar  1 <1>   0.0830 
 17 C       -6.3390    -4.0810    -0.2290 C.3   1 <1>   0.3430 
 18 C       -4.3810    -4.3540     1.2470 C.3   1 <1>   0.3430 
 19 O        5.2420    -0.5240     1.4470 O.3   1 <1>  -0.3630 
 20 C       -7.0690    -5.2200     0.4850 C.3   1 <1>  -0.1600 
 21 C       -5.0680    -5.4990     1.9930 C.3   1 <1>  -0.1600 
 22 C        6.4250    -0.1900     0.7570 C.3   1 <1>   0.0400 
 23 C       -6.5960    -5.3790     1.9350 C.3   1 <1>  -0.1600 
 24 H        0.4020    -1.3160    -2.0950 H     1 <1>   0.3700 
 25 H       -0.8830    -3.2360    -2.2490 H     1 <1>   0.0800 
 26 H       -2.3230    -2.8160    -3.1430 H     1 <1>   0.0800 
 27 H       -3.2330    -0.0150    -0.8860 H     1 <1>   0.0800 
 28 H       -3.7440    -0.8650    -2.3210 H     1 <1>   0.0800 
 29 H       -2.7350    -4.8210    -1.7950 H     1 <1>   0.0800 
 30 H       -2.1670    -3.9940    -0.3660 H     1 <1>   0.0800 
 31 H       -5.1400    -1.5410    -0.4390 H     1 <1>   0.0800 
 32 H       -3.7210    -1.8920     0.5130 H     1 <1>   0.0800 
 33 H        0.8700    -1.4000     1.5680 H     1 <1>   0.1500 
 34 H        2.6040    -0.6620    -2.2550 H     1 <1>   0.1500 
 35 H       -4.6140    -3.3210    -2.0040 H     1 <1>   0.0800 
 36 H        3.0580    -1.0710     2.6140 H     1 <1>   0.1500 
 37 H        4.7730    -0.3420    -1.2220 H     1 <1>   0.1500 
 38 H       -4.7060    -5.2530    -0.5530 H     1 <1>   0.4500 
 39 H       -6.5800    -3.1460     0.2500 H     1 <1>   0.0800 
 40 H       -6.6680    -4.0330    -1.2550 H     1 <1>   0.0800 
 41 H       -4.6090    -3.4220     1.7390 H     1 <1>   0.0800 
 42 H       -3.3130    -4.4980     1.2780 H     1 <1>   0.0800 
 43 H       -6.9150    -6.1390    -0.0550 H     1 <1>   0.0800 
 44 H       -8.1270    -5.0190     0.4770 H     1 <1>   0.0800 
 45 H       -4.7550    -6.4390     1.5720 H     1 <1>   0.0800 
 46 H       -4.7490    -5.4880     3.0210 H     1 <1>   0.0800 
 47 H        7.2180    -0.1010     1.4780 H     1 <1>   0.0800 
 48 H        6.2820     0.7500     0.2540 H     1 <1>   0.0800 
 49 H        6.6540    -0.9740     0.0570 H     1 <1>   0.0800 
 50 H       -7.0500    -6.2510     2.3760 H     1 <1>   0.0800 
 51 H       -6.9090    -4.5220     2.5100 H     1 <1>   0.0800 
@<TRIPOS>BOND
  1   1   2  2   
  2   2   3  am  
  3   2   4  am  
  4   3   5  1   
  5   3   6  1   
  6   4   7  1   
  7   4  24  1   
  8   5   8  1   
  9   5  25  1   
 10   5  26  1   
 11   6   9  1   
 12   6  27  1   
 13   6  28  1   
 14   7  10  ar  
 15   7  11  ar  
 16   8  12  1   
 17   8  29  1   
 18   8  30  1   
 19   9  12  1   
 20   9  31  1   
 21   9  32  1   
 22  10  13  ar  
 23  10  33  1   
 24  11  14  ar  
 25  11  34  1   
 26  12  15  1   
 27  12  35  1   
 28  13  16  ar  
 29  13  36  1   
 30  14  16  ar  
 31  14  37  1   
 32  15  17  1   
 33  15  18  1   
 34  15  38  1   
 35  16  19  1   
 36  17  20  1   
 37  17  39  1   
 38  17  40  1   
 39  18  21  1   
 40  18  41  1   
 41  18  42  1   
 42  19  22  1   
 43  20  23  1   
 44  20  43  1   
 45  20  44  1   
 46  21  23  1   
 47  21  45  1   
 48  21  46  1   
 49  22  47  1   
 50  22  48  1   
 51  22  49  1   
 52  23  50  1   
 53  23  51  1   
@<TRIPOS>SUBSTRUCTURE
  1 ****   2 GROUP 4 **** **** 0

# MOE 2024.06 (io_trps.svl 2023.06)
