@<TRIPOS>MOLECULE
7953
52 55 1 0 0 
SMALL
USER_CHARGES


@<TRIPOS>ATOM
  1 S       -0.3430    -0.3320     0.5590 S.3   1 <1>  -0.0800 
  2 C        1.2090     0.3250     0.0270 C.2   1 <1>   0.1040 
  3 C       -1.0940     1.2300     0.3320 C.2   1 <1>  -0.1400 
  4 N        2.2920    -0.5220    -0.1010 N.am  1 <1>  -0.4940 
  5 C        1.1190     1.6660    -0.2500 C.2   1 <1>  -0.0860 
  6 C       -0.2280     2.1370    -0.0850 C.2   1 <1>  -0.1810 
  7 C       -2.5070     1.6790     0.5180 C.3   1 <1>   0.0200 
  8 C        2.7710    -1.4860     0.7500 C.2   1 <1>   0.5690 
  9 C        2.2040     2.5240    -0.6330 C.2   1 <1>   0.8060 
 10 C       -0.9090     3.4660    -0.2840 C.3   1 <1>   0.0210 
 11 C       -2.3850     3.1720     0.1160 C.3   1 <1>  -0.1600 
 12 O        2.2170    -1.7700     1.7830 O.2   1 <1>  -0.5700 
 13 C        4.0960    -2.1840     0.4050 C.3   1 <1>   0.2810 
 14 O        2.1110     3.3710    -1.4960 O.2   1 <1>  -0.5700 
 15 O        3.3860     2.4340    -0.0070 O.3   1 <1>  -0.4300 
 16 N        5.2020    -1.1880     0.2180 N.am  1 <1>  -0.4200 
 17 C        3.9790    -3.1480    -0.8070 C.3   1 <1>  -0.0800 
 18 C        3.4650     2.2620     1.3950 C.3   1 <1>   0.0400 
 19 C        6.2310    -1.0050     1.1040 C.2   1 <1>   0.5440 
 20 C        5.3140    -0.2390    -0.7680 C.2   1 <1>   0.5440 
 21 C        2.9150    -4.2300    -0.5590 C.3   1 <1>  -0.2400 
 22 C        5.3160    -3.8400    -1.1300 C.3   1 <1>  -0.2400 
 23 O        6.4060    -1.6880     2.0890 O.2   1 <1>  -0.5700 
 24 C        7.0270     0.1080     0.6720 C.ar  1 <1>   0.0860 
 25 O        4.5370    -0.1360    -1.6940 O.2   1 <1>  -0.5700 
 26 C        6.4510     0.5900    -0.4930 C.ar  1 <1>   0.0860 
 27 C        8.1620     0.7150     1.1960 C.ar  1 <1>  -0.1500 
 28 C        6.9940     1.6900    -1.1430 C.ar  1 <1>  -0.1500 
 29 C        8.7070     1.8090     0.5450 C.ar  1 <1>  -0.1500 
 30 C        8.1240     2.2960    -0.6190 C.ar  1 <1>  -0.1500 
 31 H        2.9310    -0.3020    -0.8790 H     1 <1>   0.3700 
 32 H       -2.8120     1.5630     1.5430 H     1 <1>   0.0800 
 33 H       -3.1670     1.1400    -0.1380 H     1 <1>   0.0800 
 34 H       -0.8360     3.7720    -1.3140 H     1 <1>   0.0800 
 35 H       -0.4720     4.2150     0.3510 H     1 <1>   0.0800 
 36 H       -2.6700     3.7980     0.9430 H     1 <1>   0.0800 
 37 H       -3.0370     3.3830    -0.7140 H     1 <1>   0.0800 
 38 H        4.3470    -2.7880     1.2600 H     1 <1>   0.0800 
 39 H        3.6690    -2.5870    -1.6730 H     1 <1>   0.0800 
 40 H        2.8400     2.9980     1.8730 H     1 <1>   0.0800 
 41 H        3.1440     1.2720     1.6640 H     1 <1>   0.0800 
 42 H        4.4880     2.4060     1.6950 H     1 <1>   0.0800 
 43 H        3.1590    -4.8120     0.3130 H     1 <1>   0.0800 
 44 H        2.8490    -4.8930    -1.4040 H     1 <1>   0.0800 
 45 H        1.9430    -3.7910    -0.4120 H     1 <1>   0.0800 
 46 H        5.6820    -4.3770    -0.2730 H     1 <1>   0.0800 
 47 H        6.0590    -3.1220    -1.4290 H     1 <1>   0.0800 
 48 H        5.1910    -4.5350    -1.9420 H     1 <1>   0.0800 
 49 H        8.6030     0.3290     2.1000 H     1 <1>   0.1500 
 50 H        6.5300     2.0620    -2.0420 H     1 <1>   0.1500 
 51 H        9.5870     2.2880     0.9420 H     1 <1>   0.1500 
 52 H        8.5550     3.1500    -1.1160 H     1 <1>   0.1500 
@<TRIPOS>BOND
  1   1   2  1   
  2   1   3  1   
  3   2   4  1   
  4   2   5  2   
  5   3   6  2   
  6   3   7  1   
  7   4   8  am  
  8   4  31  1   
  9   5   6  1   
 10   5   9  1   
 11   6  10  1   
 12   7  11  1   
 13   7  32  1   
 14   7  33  1   
 15   8  12  2   
 16   8  13  1   
 17   9  14  2   
 18   9  15  1   
 19  10  11  1   
 20  10  34  1   
 21  10  35  1   
 22  11  36  1   
 23  11  37  1   
 24  13  16  1   
 25  13  17  1   
 26  13  38  1   
 27  15  18  1   
 28  16  19  am  
 29  16  20  am  
 30  17  21  1   
 31  17  22  1   
 32  17  39  1   
 33  18  40  1   
 34  18  41  1   
 35  18  42  1   
 36  19  23  2   
 37  19  24  1   
 38  20  25  2   
 39  20  26  1   
 40  21  43  1   
 41  21  44  1   
 42  21  45  1   
 43  22  46  1   
 44  22  47  1   
 45  22  48  1   
 46  24  26  ar  
 47  24  27  ar  
 48  26  28  ar  
 49  27  29  ar  
 50  27  49  1   
 51  28  30  ar  
 52  28  50  1   
 53  29  30  ar  
 54  29  51  1   
 55  30  52  1   
@<TRIPOS>SUBSTRUCTURE
  1 ****   4 GROUP 4 **** **** 0

# MOE 2024.06 (io_trps.svl 2023.06)
