@<TRIPOS>MOLECULE
2-(5-Amino-8-ethyl-7-methyl-[1,2,4]triazolo[4,3-c]pyrimidin-3-ylsulfanyl)-N-cyclohexyl-N-methyl-acetamide
51 53 1 0 0 
SMALL
USER_CHARGES


@<TRIPOS>ATOM
  1 S       -0.2680     0.5240    -2.6890 S.3   1 <1>  -0.2860 
  2 C        1.0790    -0.3100    -1.8300 C.2   1 <1>   0.2420 
  3 C       -1.5850    -0.7740    -2.9000 C.3   1 <1>   0.1310 
  4 N        1.1270    -1.5850    -1.6580 N.2   1 <1>  -0.3380 
  5 N        2.1190     0.3460    -1.3070 N.pl3 1 <1>   0.2940 
  6 C       -2.7200    -0.5200    -1.9150 C.2   1 <1>   0.5690 
  7 N        2.2430    -1.8230    -0.9750 N.2   1 <1>  -0.3380 
  8 C        2.5540     1.6690    -1.1930 C.2   1 <1>   0.5090 
  9 C        2.8290    -0.6660    -0.7710 C.2   1 <1>   0.1410 
 10 O       -3.6650     0.0920    -2.3550 O.2   1 <1>  -0.5700 
 11 N       -2.6650    -0.9570    -0.6050 N.am  1 <1>  -0.6600 
 12 N        3.6470     1.9870    -0.5750 N.2   1 <1>  -0.6210 
 13 N        1.8420     2.6970    -1.7270 N.pl3 1 <1>  -0.8500 
 14 C        4.0350    -0.3360    -0.0980 C.2   1 <1>  -0.0930 
 15 C       -3.6220    -0.5050     0.4510 C.3   1 <1>   0.2200 
 16 C       -1.6250    -1.8980    -0.0930 C.3   1 <1>   0.0600 
 17 C        4.3890     0.9850    -0.0200 C.2   1 <1>   0.0330 
 18 C        4.8450    -1.4910     0.4870 C.3   1 <1>  -0.0220 
 19 C       -5.0340    -1.0570     0.2100 C.3   1 <1>  -0.1600 
 20 C       -3.6240     1.0230     0.6100 C.3   1 <1>  -0.1600 
 21 C        5.6270     1.5080     0.6880 C.3   1 <1>  -0.1020 
 22 C        4.3720    -1.8220     1.9050 C.3   1 <1>  -0.2400 
 23 C       -5.9900    -0.6230     1.3310 C.3   1 <1>  -0.1600 
 24 C       -4.5790     1.4520     1.7350 C.3   1 <1>  -0.1600 
 25 C       -5.9940     0.9040     1.4970 C.3   1 <1>  -0.1600 
 26 H       -1.1460    -1.7440    -2.7910 H     1 <1>   0.0800 
 27 H       -1.9520    -0.6700    -3.9030 H     1 <1>   0.0800 
 28 H        2.1920     3.6500    -1.6080 H     1 <1>   0.4000 
 29 H        0.9470     2.5820    -2.2110 H     1 <1>   0.4000 
 30 H       -3.2910    -0.9040     1.3950 H     1 <1>   0.0800 
 31 H       -1.2520    -2.5330    -0.8740 H     1 <1>   0.0800 
 32 H       -2.0440    -2.5370     0.6650 H     1 <1>   0.0800 
 33 H       -0.8080    -1.3420     0.3330 H     1 <1>   0.0800 
 34 H        5.8930    -1.2540     0.4980 H     1 <1>   0.0800 
 35 H        4.7370    -2.3620    -0.1370 H     1 <1>   0.0800 
 36 H       -4.9970    -2.1300     0.1640 H     1 <1>   0.0800 
 37 H       -5.4150    -0.6900    -0.7260 H     1 <1>   0.0800 
 38 H       -3.9460     1.4900    -0.3030 H     1 <1>   0.0800 
 39 H       -2.6290     1.3620     0.8340 H     1 <1>   0.0800 
 40 H        6.3470     1.8330    -0.0410 H     1 <1>   0.0800 
 41 H        6.0810     0.7740     1.3250 H     1 <1>   0.0800 
 42 H        5.3600     2.3510     1.3010 H     1 <1>   0.0800 
 43 H        4.4860    -0.9680     2.5470 H     1 <1>   0.0800 
 44 H        4.9480    -2.6370     2.3060 H     1 <1>   0.0800 
 45 H        3.3350    -2.1090     1.8900 H     1 <1>   0.0800 
 46 H       -5.6870    -1.0810     2.2580 H     1 <1>   0.0800 
 47 H       -6.9860    -0.9630     1.1050 H     1 <1>   0.0800 
 48 H       -4.6130     2.5260     1.7870 H     1 <1>   0.0800 
 49 H       -4.2090     1.0870     2.6780 H     1 <1>   0.0800 
 50 H       -6.6300     1.1760     2.3210 H     1 <1>   0.0800 
 51 H       -6.4000     1.3540     0.6060 H     1 <1>   0.0800 
@<TRIPOS>BOND
  1   1   2  1   
  2   1   3  1   
  3   2   4  2   
  4   2   5  1   
  5   3   6  1   
  6   3  26  1   
  7   3  27  1   
  8   4   7  1   
  9   5   8  1   
 10   5   9  1   
 11   6  10  2   
 12   6  11  am  
 13   7   9  2   
 14   8  12  2   
 15   8  13  1   
 16   9  14  1   
 17  11  15  1   
 18  11  16  1   
 19  12  17  1   
 20  13  28  1   
 21  13  29  1   
 22  14  17  2   
 23  14  18  1   
 24  15  19  1   
 25  15  20  1   
 26  15  30  1   
 27  16  31  1   
 28  16  32  1   
 29  16  33  1   
 30  17  21  1   
 31  18  22  1   
 32  18  34  1   
 33  18  35  1   
 34  19  23  1   
 35  19  36  1   
 36  19  37  1   
 37  20  24  1   
 38  20  38  1   
 39  20  39  1   
 40  21  40  1   
 41  21  41  1   
 42  21  42  1   
 43  22  43  1   
 44  22  44  1   
 45  22  45  1   
 46  23  25  1   
 47  23  46  1   
 48  23  47  1   
 49  24  25  1   
 50  24  48  1   
 51  24  49  1   
 52  25  50  1   
 53  25  51  1   
@<TRIPOS>SUBSTRUCTURE
  1 ****   2 GROUP 4 **** **** 0

# MOE 2024.06 (io_trps.svl 2023.06)
