@<TRIPOS>MOLECULE
2-(5-Furan-2-yl-4-furan-2-ylmethyl-4H-[1,2,4]triazol-3-ylsulfanyl)-N-isopropyl-acetamide
42 44 1 0 0 
SMALL
USER_CHARGES


@<TRIPOS>ATOM
  1 S       -0.4640     0.5320    -0.2660 S.3   1 <1>  -0.2860 
  2 C        1.1930     0.8170     0.3640 C.2   1 <1>   0.2420 
  3 C       -1.5280     1.4670     0.9380 C.3   1 <1>   0.1310 
  4 N        1.4320     1.4850     1.4330 N.2   1 <1>  -0.3380 
  5 N        2.2840     0.3520    -0.2340 N.pl3 1 <1>   0.0480 
  6 C       -3.0010     1.2120     0.6720 C.2   1 <1>   0.5690 
  7 N        2.7550     1.4690     1.5780 N.2   1 <1>  -0.3380 
  8 C        3.2680     0.7890     0.5840 C.2   1 <1>   0.1860 
  9 C        2.3270    -0.4470    -1.4760 C.3   1 <1>   0.2760 
 10 O       -3.7680     2.1390     0.7800 O.2   1 <1>  -0.5700 
 11 N       -3.3990    -0.0490     0.3380 N.am  1 <1>  -0.7300 
 12 C        4.6830     0.5620     0.4250 C.2   1 <1>   0.1400 
 13 C        2.1620    -1.9210    -1.1610 C.2   1 <1>  -0.0400 
 14 C       -4.7580    -0.5380     0.0410 C.3   1 <1>   0.2200 
 15 O        5.1900     0.0030    -0.6680 O.3   1 <1>  -0.2800 
 16 C        5.7060     0.8510     1.2740 C.2   1 <1>  -0.1500 
 17 O        3.1010    -2.5350    -0.4690 O.3   1 <1>  -0.2800 
 18 C        1.1690    -2.7820    -1.4750 C.2   1 <1>  -0.1500 
 19 C       -5.3110     0.1710    -1.1930 C.3   1 <1>  -0.2400 
 20 C       -5.6610    -0.3600     1.2600 C.3   1 <1>  -0.2400 
 21 C        6.4970    -0.0790    -0.5350 C.2   1 <1>  -0.0100 
 22 C        6.8840     0.4330     0.6510 C.2   1 <1>  -0.1500 
 23 C        2.7340    -3.7920    -0.3240 C.2   1 <1>  -0.0100 
 24 C        1.5460    -4.0130    -0.9240 C.2   1 <1>  -0.1500 
 25 H       -1.2970     2.5100     0.8250 H     1 <1>   0.0800 
 26 H       -1.2640     1.1390     1.9260 H     1 <1>   0.0800 
 27 H        3.2500    -0.2820    -1.9950 H     1 <1>   0.0800 
 28 H        1.5300    -0.1280    -2.1220 H     1 <1>   0.0800 
 29 H       -2.6660    -0.7480     0.2130 H     1 <1>   0.3700 
 30 H       -4.6910    -1.5910    -0.1760 H     1 <1>   0.0800 
 31 H        5.6340     1.3110     2.2440 H     1 <1>   0.1500 
 32 H        0.2630    -2.6010    -2.0280 H     1 <1>   0.1500 
 33 H       -5.4400     1.2210    -1.0030 H     1 <1>   0.0800 
 34 H       -6.2680    -0.2430    -1.4540 H     1 <1>   0.0800 
 35 H       -4.6450     0.0410    -2.0260 H     1 <1>   0.0800 
 36 H       -5.8000     0.6820     1.4830 H     1 <1>   0.0800 
 37 H       -5.2320    -0.8510     2.1140 H     1 <1>   0.0800 
 38 H       -6.6250    -0.7930     1.0660 H     1 <1>   0.0800 
 39 H        7.0770    -0.5160    -1.3300 H     1 <1>   0.1500 
 40 H        7.8750     0.5150     1.0610 H     1 <1>   0.1500 
 41 H        3.3790    -4.4610     0.2200 H     1 <1>   0.1500 
 42 H        0.9820    -4.9270    -0.9840 H     1 <1>   0.1500 
@<TRIPOS>BOND
  1   1   2  1   
  2   1   3  1   
  3   2   4  2   
  4   2   5  1   
  5   3   6  1   
  6   3  25  1   
  7   3  26  1   
  8   4   7  1   
  9   5   8  1   
 10   5   9  1   
 11   6  10  2   
 12   6  11  am  
 13   7   8  2   
 14   8  12  1   
 15   9  13  1   
 16   9  27  1   
 17   9  28  1   
 18  11  14  1   
 19  11  29  1   
 20  12  15  1   
 21  12  16  2   
 22  13  17  1   
 23  13  18  2   
 24  14  19  1   
 25  14  20  1   
 26  14  30  1   
 27  15  21  1   
 28  16  22  1   
 29  16  31  1   
 30  17  23  1   
 31  18  24  1   
 32  18  32  1   
 33  19  33  1   
 34  19  34  1   
 35  19  35  1   
 36  20  36  1   
 37  20  37  1   
 38  20  38  1   
 39  21  22  2   
 40  21  39  1   
 41  22  40  1   
 42  23  24  2   
 43  23  41  1   
 44  24  42  1   
@<TRIPOS>SUBSTRUCTURE
  1 ****   2 GROUP 4 **** **** 0

# MOE 2024.06 (io_trps.svl 2023.06)
