@<TRIPOS>MOLECULE
NONAME
55 57 1 0 0 
SMALL
USER_CHARGES


@<TRIPOS>ATOM
  1 S        0.6180     0.4030     2.5320 S.3   1 <1>  -0.2860 
  2 C        1.2030     1.4800     1.2280 C.2   1 <1>   0.2420 
  3 C       -1.2210     0.3190     2.2810 C.3   1 <1>   0.1310 
  4 N        0.4510     2.3550     0.6620 N.2   1 <1>  -0.5650 
  5 N        2.4810     1.4020     0.7740 N.pl3 1 <1>   0.0480 
  6 C       -1.6020    -1.0310     1.6800 C.2   1 <1>   0.5690 
  7 C        1.2820     2.9230    -0.2550 C.ar  1 <1>   0.2270 
  8 C        2.5410     2.3460    -0.2070 C.ar  1 <1>  -0.1520 
  9 C        3.5500     0.4610     1.1720 C.3   1 <1>   0.1570 
 10 O       -1.6560    -1.9690     2.4420 O.2   1 <1>  -0.5700 
 11 N       -1.8940    -1.1840     0.3420 N.am  1 <1>  -0.6600 
 12 C        1.0150     3.9400    -1.1700 C.ar  1 <1>  -0.1500 
 13 C        3.5560     2.7620    -1.0730 C.ar  1 <1>  -0.1500 
 14 C        3.9170    -0.4590     0.0200 C.2   1 <1>   0.5690 
 15 C       -2.4230    -2.4820    -0.1640 C.3   1 <1>   0.1400 
 16 C       -1.5980    -0.1630    -0.7000 C.3   1 <1>   0.1400 
 17 C        2.0130     4.3570    -2.0230 C.ar  1 <1>  -0.1500 
 18 C        3.2820     3.7660    -1.9750 C.ar  1 <1>  -0.1500 
 19 O        4.9880    -0.2630    -0.5070 O.2   1 <1>  -0.5700 
 20 N        3.0810    -1.4660    -0.4020 N.am  1 <1>  -0.6600 
 21 C       -3.9250    -2.5740     0.0990 C.3   1 <1>  -0.2400 
 22 C       -2.8240     0.7080    -0.9580 C.3   1 <1>  -0.2400 
 23 C        1.8230    -1.8540     0.3110 C.3   1 <1>   0.1400 
 24 C        3.3900    -2.2080    -1.6630 C.3   1 <1>   0.1400 
 25 C        1.3760    -3.2670    -0.0700 C.3   1 <1>  -0.1600 
 26 C        2.0950    -2.5380    -2.4130 C.3   1 <1>  -0.1600 
 27 C        1.1410    -3.4130    -1.5820 C.3   1 <1>  -0.1600 
 28 H       -1.5250     1.1420     1.6670 H     1 <1>   0.0800 
 29 H       -1.6660     0.4180     3.2530 H     1 <1>   0.0800 
 30 H        3.2460    -0.1170     2.0210 H     1 <1>   0.0800 
 31 H        4.4150     1.0330     1.4490 H     1 <1>   0.0800 
 32 H        0.0340     4.3760    -1.1860 H     1 <1>   0.1500 
 33 H        4.5300     2.3030    -1.0360 H     1 <1>   0.1500 
 34 H       -1.9250    -3.2930     0.3410 H     1 <1>   0.0800 
 35 H       -2.2290    -2.5810    -1.2180 H     1 <1>   0.0800 
 36 H       -1.2940    -0.6460    -1.6120 H     1 <1>   0.0800 
 37 H       -0.7780     0.4510    -0.3860 H     1 <1>   0.0800 
 38 H        1.8260     5.1410    -2.7360 H     1 <1>   0.1500 
 39 H        4.0450     4.1060    -2.6530 H     1 <1>   0.1500 
 40 H       -4.1200    -2.5090     1.1540 H     1 <1>   0.0800 
 41 H       -4.2940    -3.5190    -0.2540 H     1 <1>   0.0800 
 42 H       -4.4520    -1.7900    -0.4110 H     1 <1>   0.0800 
 43 H       -3.6120     0.1290    -1.4020 H     1 <1>   0.0800 
 44 H       -2.5620     1.4970    -1.6400 H     1 <1>   0.0800 
 45 H       -3.1750     1.1530    -0.0450 H     1 <1>   0.0800 
 46 H        1.0440    -1.1580     0.0510 H     1 <1>   0.0800 
 47 H        1.9770    -1.8200     1.3750 H     1 <1>   0.0800 
 48 H        3.9160    -3.1150    -1.4180 H     1 <1>   0.0800 
 49 H        4.0250    -1.6130    -2.2970 H     1 <1>   0.0800 
 50 H        0.4760    -3.5140     0.4660 H     1 <1>   0.0800 
 51 H        2.1370    -3.9590     0.2480 H     1 <1>   0.0800 
 52 H        2.3310    -3.0370    -3.3360 H     1 <1>   0.0800 
 53 H        1.6100    -1.6100    -2.6630 H     1 <1>   0.0800 
 54 H        0.1280    -3.1390    -1.8190 H     1 <1>   0.0800 
 55 H        1.2690    -4.4480    -1.8510 H     1 <1>   0.0800 
@<TRIPOS>BOND
  1   1   2  1   
  2   1   3  1   
  3   2   4  2   
  4   2   5  1   
  5   3   6  1   
  6   3  28  1   
  7   3  29  1   
  8   4   7  1   
  9   5   8  1   
 10   5   9  1   
 11   6  10  2   
 12   6  11  am  
 13   7   8  ar  
 14   7  12  ar  
 15   8  13  ar  
 16   9  14  1   
 17   9  30  1   
 18   9  31  1   
 19  11  15  1   
 20  11  16  1   
 21  12  17  ar  
 22  12  32  1   
 23  13  18  ar  
 24  13  33  1   
 25  14  19  2   
 26  14  20  am  
 27  15  21  1   
 28  15  34  1   
 29  15  35  1   
 30  16  22  1   
 31  16  36  1   
 32  16  37  1   
 33  17  18  ar  
 34  17  38  1   
 35  18  39  1   
 36  20  23  1   
 37  20  24  1   
 38  21  40  1   
 39  21  41  1   
 40  21  42  1   
 41  22  43  1   
 42  22  44  1   
 43  22  45  1   
 44  23  25  1   
 45  23  46  1   
 46  23  47  1   
 47  24  26  1   
 48  24  48  1   
 49  24  49  1   
 50  25  27  1   
 51  25  50  1   
 52  25  51  1   
 53  26  27  1   
 54  26  52  1   
 55  26  53  1   
 56  27  54  1   
 57  27  55  1   
@<TRIPOS>SUBSTRUCTURE
  1 ****   2 GROUP 4 **** **** 0

# MOE 2024.06 (io_trps.svl 2023.06)
