@<TRIPOS>MOLECULE
NONAME
57 60 1 0 0 
SMALL
USER_CHARGES


@<TRIPOS>ATOM
  1 S        1.7570     0.0780    -2.2330 S.3   1 <1>  -0.2860 
  2 C        1.5360     1.4860    -1.1520 C.2   1 <1>   0.2420 
  3 C        0.0280    -0.3880    -2.7320 C.3   1 <1>   0.1310 
  4 N        0.4800     2.2180    -1.1710 N.2   1 <1>  -0.5650 
  5 N        2.4800     1.8190    -0.2380 N.pl3 1 <1>   0.0480 
  6 C       -0.3310    -1.7720    -2.2030 C.2   1 <1>   0.5690 
  7 C        0.7210     3.1240    -0.1840 C.ar  1 <1>   0.2270 
  8 C        1.9480     2.8890     0.4150 C.ar  1 <1>  -0.1520 
  9 C        3.7550     1.1340     0.0540 C.3   1 <1>   0.1570 
 10 O       -0.4210    -2.6590    -3.0210 O.2   1 <1>  -0.5700 
 11 N       -0.5650    -2.0100    -0.8690 N.am  1 <1>  -0.6600 
 12 C       -0.0810     4.1750     0.2580 C.ar  1 <1>  -0.1500 
 13 C        2.3900     3.6780     1.4800 C.ar  1 <1>  -0.1500 
 14 C        3.5310    -0.0450     0.9900 C.2   1 <1>   0.5690 
 15 C       -0.9710    -3.3650    -0.3860 C.3   1 <1>   0.1400 
 16 C       -0.3550    -1.0220     0.2390 C.3   1 <1>   0.1400 
 17 C        0.3550     4.9630     1.3000 C.ar  1 <1>  -0.1500 
 18 C        1.5890     4.7120     1.9120 C.ar  1 <1>  -0.1500 
 19 O        3.1380     0.2340     2.1000 O.2   1 <1>  -0.5700 
 20 N        3.7960    -1.3530     0.6390 N.am  1 <1>  -0.6600 
 21 C       -2.0800    -3.2690     0.6700 C.3   1 <1>   0.1200 
 22 C       -1.4700    -1.0980     1.2960 C.3   1 <1>   0.1200 
 23 C        3.6900    -2.4390     1.6640 C.3   1 <1>   0.1400 
 24 C        4.3210    -1.8270    -0.6790 C.3   1 <1>   0.1400 
 25 O       -1.6920    -2.4170     1.7070 O.3   1 <1>  -0.5600 
 26 C        2.8540    -3.6080     1.1350 C.3   1 <1>  -0.1600 
 27 C        3.4880    -3.0000    -1.2060 C.3   1 <1>  -0.1600 
 28 C        3.4160    -4.1440    -0.1880 C.3   1 <1>  -0.0800 
 29 C        2.5600    -5.2930    -0.7310 C.3   1 <1>  -0.2400 
 30 H        0.0070    -0.3850    -3.8050 H     1 <1>   0.0800 
 31 H       -0.6570     0.3490    -2.3620 H     1 <1>   0.0800 
 32 H        4.4080     1.8300     0.5430 H     1 <1>   0.0800 
 33 H        4.2150     0.8500    -0.8670 H     1 <1>   0.0800 
 34 H       -1.0250     4.3440    -0.2260 H     1 <1>   0.1500 
 35 H        3.3340     3.4740     1.9560 H     1 <1>   0.1500 
 36 H       -0.1210    -3.8560     0.0490 H     1 <1>   0.0800 
 37 H       -1.3180    -3.9690    -1.2060 H     1 <1>   0.0800 
 38 H       -0.3410    -0.0220    -0.1430 H     1 <1>   0.0800 
 39 H        0.5940    -1.2120     0.7100 H     1 <1>   0.0800 
 40 H       -0.2510     5.7780     1.6550 H     1 <1>   0.1500 
 41 H        1.9050     5.3350     2.7300 H     1 <1>   0.1500 
 42 H       -2.2720    -4.2380     1.0950 H     1 <1>   0.0800 
 43 H       -2.9900    -2.8950     0.2330 H     1 <1>   0.0800 
 44 H       -2.3890    -0.7020     0.9020 H     1 <1>   0.0800 
 45 H       -1.1920    -0.5250     2.1630 H     1 <1>   0.0800 
 46 H        3.2390    -2.0730     2.5700 H     1 <1>   0.0800 
 47 H        4.6800    -2.7840     1.9070 H     1 <1>   0.0800 
 48 H        5.3410    -2.1450    -0.5500 H     1 <1>   0.0800 
 49 H        4.3070    -1.0510    -1.4190 H     1 <1>   0.0800 
 50 H        1.8420    -3.2710     1.0020 H     1 <1>   0.0800 
 51 H        2.8440    -4.3910     1.8710 H     1 <1>   0.0800 
 52 H        3.9250    -3.3570    -2.1220 H     1 <1>   0.0800 
 53 H        2.4950    -2.6540    -1.4330 H     1 <1>   0.0800 
 54 H        4.4110    -4.5170    -0.0120 H     1 <1>   0.0800 
 55 H        1.5730    -4.9490    -0.9830 H     1 <1>   0.0800 
 56 H        2.4780    -6.0790    -0.0010 H     1 <1>   0.0800 
 57 H        3.0090    -5.7020    -1.6190 H     1 <1>   0.0800 
@<TRIPOS>BOND
  1   1   2  1   
  2   1   3  1   
  3   2   4  2   
  4   2   5  1   
  5   3   6  1   
  6   3  30  1   
  7   3  31  1   
  8   4   7  1   
  9   5   8  1   
 10   5   9  1   
 11   6  10  2   
 12   6  11  am  
 13   7   8  ar  
 14   7  12  ar  
 15   8  13  ar  
 16   9  14  1   
 17   9  32  1   
 18   9  33  1   
 19  11  15  1   
 20  11  16  1   
 21  12  17  ar  
 22  12  34  1   
 23  13  18  ar  
 24  13  35  1   
 25  14  19  2   
 26  14  20  am  
 27  15  21  1   
 28  15  36  1   
 29  15  37  1   
 30  16  22  1   
 31  16  38  1   
 32  16  39  1   
 33  17  18  ar  
 34  17  40  1   
 35  18  41  1   
 36  20  23  1   
 37  20  24  1   
 38  21  25  1   
 39  21  42  1   
 40  21  43  1   
 41  22  25  1   
 42  22  44  1   
 43  22  45  1   
 44  23  26  1   
 45  23  46  1   
 46  23  47  1   
 47  24  27  1   
 48  24  48  1   
 49  24  49  1   
 50  26  28  1   
 51  26  50  1   
 52  26  51  1   
 53  27  28  1   
 54  27  52  1   
 55  27  53  1   
 56  28  29  1   
 57  28  54  1   
 58  29  55  1   
 59  29  56  1   
 60  29  57  1   
@<TRIPOS>SUBSTRUCTURE
  1 ****  16 GROUP 4 **** **** 0

# MOE 2024.06 (io_trps.svl 2023.06)
