@<TRIPOS>MOLECULE
[1,2,3]Thiadiazole-4-carboxylic acid (cyclopentylcarbamoyl-pyridin-4-yl-methyl)-m-tolyl-amide
53 56 1 0 0 
SMALL
USER_CHARGES


@<TRIPOS>ATOM
  1 S       -0.2890     0.5130    -1.4050 S.3   1 <1>   0.1810 
  2 N       -0.8620     1.1390    -2.8690 N.2   1 <1>  -0.2210 
  3 C       -1.5900     1.1950    -0.5150 C.2   1 <1>  -0.1100 
  4 N       -1.9230     1.7930    -2.6930 N.2   1 <1>  -0.2270 
  5 C       -2.3810     1.8540    -1.3800 C.2   1 <1>   0.1410 
  6 C       -3.6080     2.5700    -1.0790 C.2   1 <1>   0.7160 
  7 O       -3.7260     3.7350    -1.4120 O.2   1 <1>  -0.5700 
  8 N       -4.6420     1.9590    -0.3860 N.am  1 <1>  -0.4770 
  9 C       -4.5530     0.6370     0.0710 C.ar  1 <1>   0.1170 
 10 C       -5.9160     2.7350    -0.1210 C.3   1 <1>   0.4250 
 11 C       -4.4400     0.3540     1.4270 C.ar  1 <1>  -0.1500 
 12 C       -4.5930    -0.4190    -0.8330 C.ar  1 <1>  -0.1500 
 13 C       -5.9090     3.2200     1.3360 C.ar  1 <1>  -0.1440 
 14 C       -7.2150     2.0000    -0.5350 C.2   1 <1>   0.5690 
 15 C       -4.3880    -0.9520     1.8800 C.ar  1 <1>  -0.1440 
 16 C       -4.5360    -1.7260    -0.3880 C.ar  1 <1>  -0.1500 
 17 C       -4.9980     4.1790     1.7400 C.ar  1 <1>  -0.1500 
 18 C       -6.7650     2.7580     2.3220 C.ar  1 <1>  -0.1500 
 19 O       -8.0190     2.6180    -1.1930 O.2   1 <1>  -0.5700 
 20 N       -7.4520     0.7030    -0.1570 N.am  1 <1>  -0.7300 
 21 C       -4.4360    -1.9920     0.9660 C.ar  1 <1>  -0.1500 
 22 C       -4.2720    -1.2530     3.3640 C.3   1 <1>  -0.0970 
 23 C       -4.9720     4.5990     3.0580 C.ar  1 <1>   0.1600 
 24 C       -6.6570     3.2450     3.6130 C.ar  1 <1>   0.1600 
 25 C       -8.6080    -0.1640    -0.4790 C.3   1 <1>   0.2200 
 26 N       -5.7750     4.1480     4.0060 N.ar  1 <1>  -0.6200 
 27 C       -8.8380    -0.2920    -1.9890 C.3   1 <1>  -0.1600 
 28 C       -9.9080     0.3780     0.1240 C.3   1 <1>  -0.1600 
 29 C      -10.2050     0.3330    -2.2660 C.3   1 <1>  -0.1600 
 30 C      -10.9710     0.1840    -0.9560 C.3   1 <1>  -0.1600 
 31 H       -1.6340     1.0310     0.5460 H     1 <1>   0.1500 
 32 H       -5.9170     3.6220    -0.7270 H     1 <1>   0.0800 
 33 H       -4.3880     1.1630     2.1340 H     1 <1>   0.1500 
 34 H       -4.6740    -0.2170    -1.8880 H     1 <1>   0.1500 
 35 H       -4.5680    -2.5380    -1.0950 H     1 <1>   0.1500 
 36 H       -4.3030     4.6080     1.0390 H     1 <1>   0.1500 
 37 H       -7.5230     2.0240     2.1170 H     1 <1>   0.1500 
 38 H       -6.6920     0.2030     0.3150 H     1 <1>   0.3700 
 39 H       -4.3930    -3.0130     1.3060 H     1 <1>   0.1500 
 40 H       -4.4700    -0.3740     3.9510 H     1 <1>   0.0800 
 41 H       -3.2800    -1.6010     3.5890 H     1 <1>   0.0800 
 42 H       -4.9780    -2.0140     3.6440 H     1 <1>   0.0800 
 43 H       -4.2520     5.3460     3.3480 H     1 <1>   0.1500 
 44 H       -7.3330     2.8720     4.3640 H     1 <1>   0.1500 
 45 H       -8.4200    -1.1470    -0.0790 H     1 <1>   0.0800 
 46 H       -8.8750    -1.3360    -2.2450 H     1 <1>   0.0800 
 47 H       -8.0660     0.1820    -2.5700 H     1 <1>   0.0800 
 48 H       -9.8190     1.4300     0.3320 H     1 <1>   0.0800 
 49 H      -10.1720    -0.1410     1.0280 H     1 <1>   0.0800 
 50 H      -10.7110    -0.1370    -3.0910 H     1 <1>   0.0800 
 51 H      -10.0770     1.3810    -2.4820 H     1 <1>   0.0800 
 52 H      -11.7680     0.9020    -0.8720 H     1 <1>   0.0800 
 53 H      -11.3800    -0.8100    -0.8900 H     1 <1>   0.0800 
@<TRIPOS>BOND
  1   1   2  1   
  2   1   3  1   
  3   2   4  2   
  4   3   5  2   
  5   3  31  1   
  6   4   5  1   
  7   5   6  1   
  8   6   7  2   
  9   6   8  am  
 10   8   9  1   
 11   8  10  1   
 12   9  11  ar  
 13   9  12  ar  
 14  10  13  1   
 15  10  14  1   
 16  10  32  1   
 17  11  15  ar  
 18  11  33  1   
 19  12  16  ar  
 20  12  34  1   
 21  13  17  ar  
 22  13  18  ar  
 23  14  19  2   
 24  14  20  am  
 25  15  21  ar  
 26  15  22  1   
 27  16  21  ar  
 28  16  35  1   
 29  17  23  ar  
 30  17  36  1   
 31  18  24  ar  
 32  18  37  1   
 33  20  25  1   
 34  20  38  1   
 35  21  39  1   
 36  22  40  1   
 37  22  41  1   
 38  22  42  1   
 39  23  26  ar  
 40  23  43  1   
 41  24  26  ar  
 42  24  44  1   
 43  25  27  1   
 44  25  28  1   
 45  25  45  1   
 46  27  29  1   
 47  27  46  1   
 48  27  47  1   
 49  28  30  1   
 50  28  48  1   
 51  28  49  1   
 52  29  30  1   
 53  29  50  1   
 54  29  51  1   
 55  30  52  1   
 56  30  53  1   
@<TRIPOS>SUBSTRUCTURE
  1 ****   8 GROUP 4 **** **** 0

# MOE 2024.06 (io_trps.svl 2023.06)
