@<TRIPOS>MOLECULE
2361
46 48 1 0 0 
SMALL
USER_CHARGES


@<TRIPOS>ATOM
  1 S       -0.6050     0.8610     0.0560 S.3   1 <1>  -0.0800 
  2 C       -1.8660     1.3530    -1.0300 C.2   1 <1>   0.4420 
  3 C       -0.1270     2.5230     0.1430 C.2   1 <1>   0.1980 
  4 N       -1.8450     2.6140    -1.2510 N.2   1 <1>  -0.3380 
  5 N       -2.7360     0.4510    -1.6040 N.am  1 <1>  -0.4940 
  6 N       -0.8580     3.2760    -0.5750 N.2   1 <1>  -0.3380 
  7 C        1.0580     2.9080     1.0220 C.3   1 <1>   0.1000 
  8 C       -3.2360    -0.7810    -1.2990 C.2   1 <1>   0.5690 
  9 C        2.3490     2.2190     0.5580 C.3   1 <1>  -0.2400 
 10 C        0.7840     2.5970     2.4990 C.3   1 <1>  -0.2400 
 11 O       -3.9020    -1.3240    -2.1450 O.2   1 <1>  -0.5700 
 12 C       -3.0310    -1.4860     0.0600 C.3   1 <1>   0.2810 
 13 N       -2.6930    -2.9270    -0.1530 N.am  1 <1>  -0.4200 
 14 C       -4.2040    -1.2550     1.0520 C.3   1 <1>  -0.0800 
 15 C       -1.4320    -3.3110    -0.5230 C.2   1 <1>   0.5440 
 16 C       -3.5510    -3.9690    -0.4260 C.2   1 <1>   0.5440 
 17 C       -3.9710    -1.9630     2.3990 C.3   1 <1>  -0.2400 
 18 C       -4.4270     0.2430     1.3280 C.3   1 <1>  -0.2400 
 19 O       -0.4630    -2.5830    -0.4560 O.2   1 <1>  -0.5700 
 20 C       -1.4710    -4.6590    -1.0110 C.ar  1 <1>   0.0860 
 21 O       -4.7470    -3.9620    -0.2280 O.2   1 <1>  -0.5700 
 22 C       -2.7930    -5.0670    -0.9540 C.ar  1 <1>   0.0860 
 23 C       -0.4880    -5.5190    -1.4840 C.ar  1 <1>  -0.1500 
 24 C       -3.1500    -6.3430    -1.3730 C.ar  1 <1>  -0.1500 
 25 C       -0.8450    -6.7910    -1.9000 C.ar  1 <1>  -0.1500 
 26 C       -2.1720    -7.2010    -1.8450 C.ar  1 <1>  -0.1500 
 27 H       -3.1450     0.8040    -2.4680 H     1 <1>   0.3700 
 28 H        1.1960     3.9720     0.9250 H     1 <1>   0.0800 
 29 H        2.2760     1.1520     0.6670 H     1 <1>   0.0800 
 30 H        3.1860     2.5670     1.1370 H     1 <1>   0.0800 
 31 H        2.5340     2.4460    -0.4780 H     1 <1>   0.0800 
 32 H        0.6750     1.5380     2.6550 H     1 <1>   0.0800 
 33 H       -0.1200     3.0870     2.8160 H     1 <1>   0.0800 
 34 H        1.5950     2.9510     3.1110 H     1 <1>   0.0800 
 35 H       -2.1760    -1.0600     0.5350 H     1 <1>   0.0800 
 36 H       -5.1100    -1.6350     0.6100 H     1 <1>   0.0800 
 37 H       -3.9120    -3.0280     2.2690 H     1 <1>   0.0800 
 38 H       -4.7880    -1.7650     3.0710 H     1 <1>   0.0800 
 39 H       -3.0590    -1.6220     2.8580 H     1 <1>   0.0800 
 40 H       -4.7090     0.7650     0.4310 H     1 <1>   0.0800 
 41 H       -3.5390     0.6980     1.7300 H     1 <1>   0.0800 
 42 H       -5.2250     0.3740     2.0390 H     1 <1>   0.0800 
 43 H        0.5360    -5.1870    -1.5240 H     1 <1>   0.1500 
 44 H       -4.1830    -6.6460    -1.3260 H     1 <1>   0.1500 
 45 H       -0.0910    -7.4670    -2.2700 H     1 <1>   0.1500 
 46 H       -2.4390    -8.1920    -2.1720 H     1 <1>   0.1500 
@<TRIPOS>BOND
  1   1   2  1   
  2   1   3  1   
  3   2   4  2   
  4   2   5  1   
  5   3   6  2   
  6   3   7  1   
  7   4   6  1   
  8   5   8  am  
  9   5  27  1   
 10   7   9  1   
 11   7  10  1   
 12   7  28  1   
 13   8  11  2   
 14   8  12  1   
 15   9  29  1   
 16   9  30  1   
 17   9  31  1   
 18  10  32  1   
 19  10  33  1   
 20  10  34  1   
 21  12  13  1   
 22  12  14  1   
 23  12  35  1   
 24  13  15  am  
 25  13  16  am  
 26  14  17  1   
 27  14  18  1   
 28  14  36  1   
 29  15  19  2   
 30  15  20  1   
 31  16  21  2   
 32  16  22  1   
 33  17  37  1   
 34  17  38  1   
 35  17  39  1   
 36  18  40  1   
 37  18  41  1   
 38  18  42  1   
 39  20  22  ar  
 40  20  23  ar  
 41  22  24  ar  
 42  23  25  ar  
 43  23  43  1   
 44  24  26  ar  
 45  24  44  1   
 46  25  26  ar  
 47  25  45  1   
 48  26  46  1   
@<TRIPOS>SUBSTRUCTURE
  1 ****  12 GROUP 4 **** **** 0

# MOE 2024.06 (io_trps.svl 2023.06)
