@<TRIPOS>MOLECULE
NONAME
60 63 1 0 0 
SMALL
USER_CHARGES


@<TRIPOS>ATOM
  1 O       -1.0910     0.1110    -0.9040 O.2   1 <1>  -0.5700 
  2 C       -1.7380    -0.6440    -0.2140 C.2   1 <1>   0.5440 
  3 N       -2.7270    -0.0410     0.5060 N.am  1 <1>  -0.7300 
  4 C       -1.4760    -2.0680    -0.2340 C.ar  1 <1>   0.0860 
  5 C       -3.8370    -0.6120     1.3090 C.3   1 <1>   0.2200 
  6 C       -1.2640    -2.8200     0.9280 C.ar  1 <1>   0.0820 
  7 C       -1.4410    -2.7480    -1.4530 C.ar  1 <1>  -0.1500 
  8 C       -4.6620    -1.6470     0.4310 C.3   1 <1>  -0.1600 
  9 C       -4.7050     0.6140     1.7710 C.3   1 <1>  -0.1600 
 10 O       -1.2250    -2.2360     2.1400 O.3   1 <1>  -0.3630 
 11 C       -1.0900    -4.1940     0.8710 C.ar  1 <1>  -0.1500 
 12 C       -1.2540    -4.1160    -1.5140 C.ar  1 <1>  -0.1500 
 13 C       -5.5220    -0.9980    -0.7150 C.3   1 <1>   0.4230 
 14 C       -5.8980     0.6510     0.8380 C.3   1 <1>   0.4230 
 15 C       -0.0130    -1.6070     2.5000 C.3   1 <1>   0.0400 
 16 C       -1.0860    -4.8440    -0.3480 C.ar  1 <1>  -0.1500 
 17 N       -5.3700     0.4310    -0.5240 N.4   1 <1>  -0.9590 
 18 C       -7.0660    -1.2620    -0.7300 C.3   1 <1>  -0.1600 
 19 C       -7.3900     0.8970     0.8080 C.3   1 <1>  -0.1600 
 20 C       -5.7650     1.3430    -1.6270 C.3   1 <1>   0.4860 
 21 C       -7.9910    -0.4330     0.2450 C.3   1 <1>  -0.1600 
 22 C       -4.9130     2.5870    -1.4840 C.ar  1 <1>  -0.1430 
 23 C       -5.4970     3.8010    -1.1450 C.ar  1 <1>   0.0820 
 24 C       -3.5400     2.5130    -1.6830 C.ar  1 <1>  -0.1500 
 25 O       -6.8450     3.8220    -0.9870 O.3   1 <1>  -0.3630 
 26 C       -4.6970     4.9300    -0.9870 C.ar  1 <1>  -0.1500 
 27 C       -2.7510     3.6370    -1.5230 C.ar  1 <1>  -0.1500 
 28 C       -7.5430     5.0330    -0.7820 C.3   1 <1>   0.0400 
 29 C       -3.3290     4.8430    -1.1730 C.ar  1 <1>  -0.1500 
 30 H       -2.5170     0.9460     0.6910 H     1 <1>   0.3700 
 31 H       -3.4220    -1.1040     2.1740 H     1 <1>   0.0800 
 32 H       -1.5610    -2.1880    -2.3650 H     1 <1>   0.1500 
 33 H       -5.3250    -2.1820     1.0880 H     1 <1>   0.0800 
 34 H       -4.0260    -2.4030     0.0130 H     1 <1>   0.0800 
 35 H       -4.1700     1.5480     1.7670 H     1 <1>   0.0800 
 36 H       -5.0640     0.4390     2.7690 H     1 <1>   0.0800 
 37 H       -0.9500    -4.7480     1.7820 H     1 <1>   0.1500 
 38 H       -1.2330    -4.6200    -2.4660 H     1 <1>   0.1500 
 39 H       -5.0970    -1.2850    -1.6650 H     1 <1>   0.0800 
 40 H       -6.1370    -0.3210     1.2160 H     1 <1>   0.0800 
 41 H       -0.1160    -1.2210     3.4980 H     1 <1>   0.0800 
 42 H        0.1880    -0.8040     1.8130 H     1 <1>   0.0800 
 43 H        0.7790    -2.3340     2.4670 H     1 <1>   0.0800 
 44 H       -0.9440    -5.9110    -0.3920 H     1 <1>   0.1500 
 45 H       -4.3520     0.5770    -0.4390 H     1 <1>   0.4500 
 46 H       -7.2420    -2.3130    -0.5790 H     1 <1>   0.0800 
 47 H       -7.4010    -1.0580    -1.7320 H     1 <1>   0.0800 
 48 H       -7.6550     1.7500     0.2160 H     1 <1>   0.0800 
 49 H       -7.7540     1.0690     1.8060 H     1 <1>   0.0800 
 50 H       -6.8140     1.5780    -1.5900 H     1 <1>   0.0800 
 51 H       -5.5520     0.8860    -2.5790 H     1 <1>   0.0800 
 52 H       -8.2070    -1.0670     1.0900 H     1 <1>   0.0800 
 53 H       -8.9370    -0.2320    -0.2280 H     1 <1>   0.0800 
 54 H       -3.0620     1.5900    -1.9680 H     1 <1>   0.1500 
 55 H       -5.1140     5.8830    -0.7200 H     1 <1>   0.1500 
 56 H       -1.6860     3.5710    -1.6750 H     1 <1>   0.1500 
 57 H       -8.5950     4.8140    -0.7430 H     1 <1>   0.0800 
 58 H       -7.3400     5.6990    -1.6030 H     1 <1>   0.0800 
 59 H       -7.2280     5.4680     0.1510 H     1 <1>   0.0800 
 60 H       -2.7110     5.7170    -1.0500 H     1 <1>   0.1500 
@<TRIPOS>BOND
  1   1   2  2   
  2   2   3  am  
  3   2   4  1   
  4   3   5  1   
  5   3  30  1   
  6   4   6  ar  
  7   4   7  ar  
  8   5   8  1   
  9   5   9  1   
 10   5  31  1   
 11   6  10  1   
 12   6  11  ar  
 13   7  12  ar  
 14   7  32  1   
 15   8  13  1   
 16   8  33  1   
 17   8  34  1   
 18   9  14  1   
 19   9  35  1   
 20   9  36  1   
 21  10  15  1   
 22  11  16  ar  
 23  11  37  1   
 24  12  16  ar  
 25  12  38  1   
 26  13  17  1   
 27  13  18  1   
 28  13  39  1   
 29  14  17  1   
 30  14  19  1   
 31  14  40  1   
 32  15  41  1   
 33  15  42  1   
 34  15  43  1   
 35  16  44  1   
 36  17  20  1   
 37  17  45  1   
 38  18  21  1   
 39  18  46  1   
 40  18  47  1   
 41  19  21  1   
 42  19  48  1   
 43  19  49  1   
 44  20  22  1   
 45  20  50  1   
 46  20  51  1   
 47  21  52  1   
 48  21  53  1   
 49  22  23  ar  
 50  22  24  ar  
 51  23  25  1   
 52  23  26  ar  
 53  24  27  ar  
 54  24  54  1   
 55  25  28  1   
 56  26  29  ar  
 57  26  55  1   
 58  27  29  ar  
 59  27  56  1   
 60  28  57  1   
 61  28  58  1   
 62  28  59  1   
 63  29  60  1   
@<TRIPOS>SUBSTRUCTURE
  1 ****   3 GROUP 4 **** **** 0

# MOE 2024.06 (io_trps.svl 2023.06)
