@<TRIPOS>MOLECULE
NONAME
46 49 1 0 0 
SMALL
USER_CHARGES


@<TRIPOS>ATOM
  1 S       -0.0620     0.0890     0.4130 S.3   1 <1>  -0.3320 
  2 C        1.6160    -0.5210     0.3580 C.ar  1 <1>   0.7220 
  3 C       -0.9820    -1.1870     1.4050 C.3   1 <1>   0.1310 
  4 N        1.8330    -1.7090     0.9730 N.ar  1 <1>  -0.3100 
  5 N        2.4750     0.2320    -0.2780 N.ar  1 <1>  -0.5670 
  6 C       -2.4570    -0.8300     1.5150 C.2   1 <1>   0.5690 
  7 N        3.0270    -2.2280     0.9750 N.ar  1 <1>  -0.2560 
  8 C        3.6950    -0.3110    -0.2650 C.ar  1 <1>   0.1050 
  9 O       -2.8480    -0.4710     2.6020 O.2   1 <1>  -0.5700 
 10 N       -3.3080    -0.9370     0.4380 N.am  1 <1>  -0.6600 
 11 C        3.9740    -1.5200     0.3480 C.ar  1 <1>   0.2560 
 12 N        4.8440     0.1880    -0.8230 N.pl3 1 <1>   0.0480 
 13 C       -2.9060    -1.3430    -0.9390 C.3   1 <1>   0.1400 
 14 C       -4.7540    -0.5980     0.5640 C.3   1 <1>   0.1400 
 15 C        5.3580    -1.7770     0.1600 C.ar  1 <1>   0.0000 
 16 C        5.8690    -0.7050    -0.5670 C.ar  1 <1>  -0.1520 
 17 C        4.9740     1.4580    -1.5610 C.3   1 <1>   0.0160 
 18 C       -3.7380    -2.5510    -1.3840 C.3   1 <1>  -0.1600 
 19 C       -5.6060    -1.7960     0.1330 C.3   1 <1>  -0.1600 
 20 C        6.1990    -2.8210     0.5450 C.ar  1 <1>  -0.1500 
 21 C        7.2190    -0.6670    -0.9140 C.ar  1 <1>  -0.1500 
 22 C       -5.2430    -2.2700    -1.2820 C.3   1 <1>  -0.1600 
 23 C        7.5350    -2.7860     0.2030 C.ar  1 <1>  -0.1440 
 24 C        8.0390    -1.7050    -0.5260 C.ar  1 <1>  -0.1500 
 25 C        8.4740    -3.9070     0.6090 C.3   1 <1>  -0.0970 
 26 H       -0.5340    -1.2100     2.3810 H     1 <1>   0.0800 
 27 H       -0.8540    -2.1390     0.9260 H     1 <1>   0.0800 
 28 H       -1.8630    -1.5940    -0.9890 H     1 <1>   0.0800 
 29 H       -3.0790    -0.5170    -1.6080 H     1 <1>   0.0800 
 30 H       -4.9690     0.2510    -0.0620 H     1 <1>   0.0800 
 31 H       -4.9990    -0.3310     1.5790 H     1 <1>   0.0800 
 32 H        4.0190     1.9510    -1.6080 H     1 <1>   0.0800 
 33 H        5.3190     1.2550    -2.5580 H     1 <1>   0.0800 
 34 H        5.6780     2.0920    -1.0550 H     1 <1>   0.0800 
 35 H       -3.4840    -3.3950    -0.7670 H     1 <1>   0.0800 
 36 H       -3.4860    -2.8010    -2.4000 H     1 <1>   0.0800 
 37 H       -6.6460    -1.5230     0.1680 H     1 <1>   0.0800 
 38 H       -5.4540    -2.5970     0.8360 H     1 <1>   0.0800 
 39 H        5.7840    -3.6400     1.1060 H     1 <1>   0.1500 
 40 H        7.6140     0.1610    -1.4750 H     1 <1>   0.1500 
 41 H       -5.7980    -3.1610    -1.5210 H     1 <1>   0.0800 
 42 H       -5.5130    -1.5080    -1.9920 H     1 <1>   0.0800 
 43 H        9.0820    -1.6870    -0.7870 H     1 <1>   0.1500 
 44 H        7.9500    -4.6660     1.1620 H     1 <1>   0.0800 
 45 H        9.2640    -3.5180     1.2260 H     1 <1>   0.0800 
 46 H        8.9050    -4.3580    -0.2670 H     1 <1>   0.0800 
@<TRIPOS>BOND
  1   1   2  1   
  2   1   3  1   
  3   2   4  ar  
  4   2   5  ar  
  5   3   6  1   
  6   3  26  1   
  7   3  27  1   
  8   4   7  ar  
  9   5   8  ar  
 10   6   9  2   
 11   6  10  am  
 12   7  11  ar  
 13   8  11  ar  
 14   8  12  1   
 15  10  13  1   
 16  10  14  1   
 17  11  15  1   
 18  12  16  1   
 19  12  17  1   
 20  13  18  1   
 21  13  28  1   
 22  13  29  1   
 23  14  19  1   
 24  14  30  1   
 25  14  31  1   
 26  15  16  ar  
 27  15  20  ar  
 28  16  21  ar  
 29  17  32  1   
 30  17  33  1   
 31  17  34  1   
 32  18  22  1   
 33  18  35  1   
 34  18  36  1   
 35  19  22  1   
 36  19  37  1   
 37  19  38  1   
 38  20  23  ar  
 39  20  39  1   
 40  21  24  ar  
 41  21  40  1   
 42  22  41  1   
 43  22  42  1   
 44  23  24  ar  
 45  23  25  1   
 46  24  43  1   
 47  25  44  1   
 48  25  45  1   
 49  25  46  1   
@<TRIPOS>SUBSTRUCTURE
  1 ****   2 GROUP 4 **** **** 0

# MOE 2024.06 (io_trps.svl 2023.06)
