@<TRIPOS>MOLECULE
ka-03981
30 31 1 0 0 
SMALL
USER_CHARGES


@<TRIPOS>ATOM
  1 O       -0.3790     0.1150     1.1010 O.2   1 <1>  -0.5700 
  2 C       -1.3710     0.7980     0.7710 C.2   1 <1>   0.6160 
  3 N       -2.5850     0.1230     0.5700 N.am  1 <1>  -0.4770 
  4 C       -1.2950     2.1870     0.6090 C.2   1 <1>  -0.1240 
  5 C       -3.7170     0.8330     0.1110 C.ar  1 <1>   0.1170 
  6 C       -2.6700    -1.3120     0.9580 C.3   1 <1>   0.1400 
  7 C       -2.4070     2.9290     0.2200 C.2   1 <1>  -0.1780 
  8 C        0.0300     2.9060     0.8610 C.3   1 <1>  -0.0220 
  9 C       -3.6420     2.2310    -0.0500 C.ar  1 <1>   0.0280 
 10 C       -4.9250     0.1960    -0.2010 C.ar  1 <1>  -0.1500 
 11 C       -2.3770    -2.1980    -0.2530 C.3   1 <1>  -0.2400 
 12 O       -2.3580     4.1700     0.0930 O.3   1 <1>  -0.8500 
 13 C        0.8820     2.9310    -0.4100 C.3   1 <1>  -0.2400 
 14 C       -4.7730     2.9230    -0.4810 C.ar  1 <1>  -0.1500 
 15 C       -6.0300     0.9020    -0.6310 C.ar  1 <1>  -0.1500 
 16 C       -5.9560     2.2770    -0.7690 C.ar  1 <1>  -0.1500 
 17 H       -3.6430    -1.5250     1.3620 H     1 <1>   0.0800 
 18 H       -1.9610    -1.5240     1.7400 H     1 <1>   0.0800 
 19 H        0.5670     2.4210     1.6550 H     1 <1>   0.0800 
 20 H       -0.1670     3.9160     1.1770 H     1 <1>   0.0800 
 21 H       -5.0150    -0.8670    -0.1170 H     1 <1>   0.1500 
 22 H       -3.0720    -1.9970    -1.0470 H     1 <1>   0.0800 
 23 H       -2.4530    -3.2330     0.0250 H     1 <1>   0.0800 
 24 H       -1.3770    -2.0100    -0.6030 H     1 <1>   0.0800 
 25 H        1.1010     1.9270    -0.7270 H     1 <1>   0.0800 
 26 H        1.8000     3.4580    -0.2320 H     1 <1>   0.0800 
 27 H        0.3330     3.4320    -1.1890 H     1 <1>   0.0800 
 28 H       -4.6890     3.9900    -0.5870 H     1 <1>   0.1500 
 29 H       -6.9480     0.3910    -0.8610 H     1 <1>   0.1500 
 30 H       -6.8090     2.8410    -1.1000 H     1 <1>   0.1500 
@<TRIPOS>BOND
  1   1   2  2   
  2   2   3  am  
  3   2   4  1   
  4   3   5  1   
  5   3   6  1   
  6   4   7  2   
  7   4   8  1   
  8   5   9  ar  
  9   5  10  ar  
 10   6  11  1   
 11   6  17  1   
 12   6  18  1   
 13   7   9  1   
 14   7  12  1   
 15   8  13  1   
 16   8  19  1   
 17   8  20  1   
 18   9  14  ar  
 19  10  15  ar  
 20  10  21  1   
 21  11  22  1   
 22  11  23  1   
 23  11  24  1   
 24  13  25  1   
 25  13  26  1   
 26  13  27  1   
 27  14  16  ar  
 28  14  28  1   
 29  15  16  ar  
 30  15  29  1   
 31  16  30  1   
@<TRIPOS>SUBSTRUCTURE
  1 ****   5 GROUP 4 **** **** 0

# MOE 2024.06 (io_trps.svl 2023.06)
