@<TRIPOS>MOLECULE
5241
43 45 1 0 0 
SMALL
USER_CHARGES


@<TRIPOS>ATOM
  1 CL      -0.2060    -1.2340     0.3620 Cl    1 <1>  -0.1770 
  2 C       -1.8320    -1.7780     0.7130 C.ar  1 <1>   0.1770 
  3 C       -2.7330    -0.9270     1.3420 C.ar  1 <1>  -0.1440 
  4 C       -2.1830    -3.0670     0.3490 C.ar  1 <1>  -0.1500 
  5 C       -4.0120    -1.3960     1.6050 C.ar  1 <1>  -0.1500 
  6 C       -2.3370     0.4860     1.7400 C.3   1 <1>  -0.0960 
  7 C       -3.4610    -3.5240     0.6140 C.ar  1 <1>  -0.1500 
  8 C       -4.3710    -2.6850     1.2370 C.ar  1 <1>   0.0830 
  9 O       -5.6140    -3.1350     1.4970 O.3   1 <1>  -0.3630 
 10 C       -6.6350    -2.7190     0.6040 C.3   1 <1>   0.1810 
 11 C       -7.0290    -3.8410    -0.3590 C.2   1 <1>   0.5690 
 12 O       -6.1840    -4.4440    -0.9730 O.2   1 <1>  -0.5700 
 13 N       -8.3350    -4.2030    -0.5370 N.am  1 <1>  -0.4940 
 14 C       -9.5400    -3.5870    -0.2470 C.2   1 <1>   0.1040 
 15 S      -10.8900    -4.6900     0.0340 S.3   1 <1>  -0.0800 
 16 C       -9.9400    -2.2750    -0.1330 C.2   1 <1>  -0.0860 
 17 C      -11.9460    -3.3440     0.3770 C.2   1 <1>  -0.1400 
 18 C      -11.3200    -2.1890     0.2560 C.2   1 <1>  -0.1810 
 19 C       -9.1600    -1.0950    -0.3700 C.2   1 <1>   0.8060 
 20 C      -13.3850    -3.2960     0.7800 C.3   1 <1>   0.0200 
 21 C      -12.2520    -1.0470     0.5700 C.3   1 <1>   0.0210 
 22 O       -9.1010    -0.1780     0.4200 O.2   1 <1>  -0.5700 
 23 O       -8.4350    -0.9660    -1.4870 O.3   1 <1>  -0.4300 
 24 C      -13.5920    -1.7640     0.9080 C.3   1 <1>  -0.1600 
 25 C       -8.7940    -1.5830    -2.7080 C.3   1 <1>   0.0400 
 26 H       -1.4630    -3.7000    -0.1370 H     1 <1>   0.1500 
 27 H       -4.7370    -0.7720     2.0960 H     1 <1>   0.1500 
 28 H       -1.5080     0.4560     2.4260 H     1 <1>   0.0800 
 29 H       -3.1540     0.9980     2.2160 H     1 <1>   0.0800 
 30 H       -2.0450     1.0450     0.8690 H     1 <1>   0.0800 
 31 H       -3.7620    -4.5200     0.3380 H     1 <1>   0.1500 
 32 H       -6.2960    -1.8620     0.0490 H     1 <1>   0.0800 
 33 H       -7.4730    -2.4390     1.2120 H     1 <1>   0.0800 
 34 H       -8.4030    -5.1370    -0.9450 H     1 <1>   0.3700 
 35 H      -13.5360    -3.7990     1.7190 H     1 <1>   0.0800 
 36 H      -14.0110    -3.7230     0.0170 H     1 <1>   0.0800 
 37 H      -12.3600    -0.3980    -0.2810 H     1 <1>   0.0800 
 38 H      -11.8860    -0.4850     1.4130 H     1 <1>   0.0800 
 39 H      -13.8950    -1.5180     1.9110 H     1 <1>   0.0800 
 40 H      -14.3620    -1.4400     0.2290 H     1 <1>   0.0800 
 41 H       -9.8510    -1.4620    -2.8710 H     1 <1>   0.0800 
 42 H       -8.5320    -2.6250    -2.6760 H     1 <1>   0.0800 
 43 H       -8.2470    -1.1000    -3.4990 H     1 <1>   0.0800 
@<TRIPOS>BOND
  1   1   2  1   
  2   2   3  ar  
  3   2   4  ar  
  4   3   5  ar  
  5   3   6  1   
  6   4   7  ar  
  7   4  26  1   
  8   5   8  ar  
  9   5  27  1   
 10   6  28  1   
 11   6  29  1   
 12   6  30  1   
 13   7   8  ar  
 14   7  31  1   
 15   8   9  1   
 16   9  10  1   
 17  10  11  1   
 18  10  32  1   
 19  10  33  1   
 20  11  12  2   
 21  11  13  am  
 22  13  14  1   
 23  13  34  1   
 24  14  15  1   
 25  14  16  2   
 26  15  17  1   
 27  16  18  1   
 28  16  19  1   
 29  17  18  2   
 30  17  20  1   
 31  18  21  1   
 32  19  22  2   
 33  19  23  1   
 34  20  24  1   
 35  20  35  1   
 36  20  36  1   
 37  21  24  1   
 38  21  37  1   
 39  21  38  1   
 40  23  25  1   
 41  24  39  1   
 42  24  40  1   
 43  25  41  1   
 44  25  42  1   
 45  25  43  1   
@<TRIPOS>SUBSTRUCTURE
  1 ****  10 GROUP 4 **** **** 0

# MOE 2024.06 (io_trps.svl 2023.06)
