@<TRIPOS>MOLECULE
Pyrrolidine-1,2-dicarboxylic acid 2-{[2-(3,4-dimethoxy-phenyl)-ethyl]-amide} 1-[(4-fluoro-phenyl)-amide]
56 58 1 0 0 
SMALL
USER_CHARGES


@<TRIPOS>ATOM
  1 F       -2.1130    -0.0430    -1.1200 F     1 <1>  -0.1900 
  2 C       -2.6280    -1.2370    -0.9960 C.ar  1 <1>   0.1900 
  3 C       -1.8760    -2.3310    -1.3780 C.ar  1 <1>  -0.1500 
  4 C       -3.9070    -1.3620    -0.4870 C.ar  1 <1>  -0.1500 
  5 C       -2.4270    -3.5930    -1.2410 C.ar  1 <1>  -0.1500 
  6 C       -4.4450    -2.6310    -0.3540 C.ar  1 <1>  -0.1500 
  7 C       -3.7120    -3.7560    -0.7230 C.ar  1 <1>   0.1170 
  8 N       -4.2840    -5.0230    -0.5750 N.am  1 <1>  -0.5470 
  9 C       -3.6760    -6.2350    -0.4700 C.2   1 <1>   0.6900 
 10 O       -4.1240    -7.1330    -1.1520 O.2   1 <1>  -0.5700 
 11 N       -2.6230    -6.4690     0.3740 N.am  1 <1>  -0.6600 
 12 C       -1.5400    -7.4640     0.0560 C.3   1 <1>   0.2810 
 13 C       -2.1930    -5.5820     1.4790 C.3   1 <1>   0.1400 
 14 C       -1.8900    -8.9560     0.2860 C.2   1 <1>   0.5690 
 15 C       -0.3460    -7.0050     0.9130 C.3   1 <1>  -0.1600 
 16 C       -0.6760    -5.5900     1.3810 C.3   1 <1>  -0.1600 
 17 O       -0.9960    -9.7530     0.4670 O.2   1 <1>  -0.5700 
 18 N       -3.1860    -9.3600     0.2520 N.am  1 <1>  -0.7300 
 19 C       -3.6810   -10.7450     0.4000 C.3   1 <1>   0.1400 
 20 C       -4.0980   -11.2880    -0.9660 C.3   1 <1>  -0.0170 
 21 C       -4.6560   -12.6960    -0.8260 C.ar  1 <1>  -0.1430 
 22 C       -6.0240   -12.9020    -0.7230 C.ar  1 <1>  -0.1500 
 23 C       -3.7980   -13.7840    -0.7910 C.ar  1 <1>  -0.1500 
 24 C       -6.5360   -14.1810    -0.5850 C.ar  1 <1>   0.0830 
 25 C       -4.3020   -15.0690    -0.6690 C.ar  1 <1>  -0.1500 
 26 O       -7.8800   -14.3040    -0.4510 O.3   1 <1>  -0.3620 
 27 C       -5.6680   -15.2790    -0.5830 C.ar  1 <1>   0.0830 
 28 C       -8.3410   -14.7910     0.7910 C.3   1 <1>   0.0400 
 29 O       -6.1000   -16.5610    -0.5050 O.3   1 <1>  -0.3630 
 30 C       -6.8480   -17.0350    -1.6030 C.3   1 <1>   0.0400 
 31 H       -0.8860    -2.1930    -1.7740 H     1 <1>   0.1500 
 32 H       -4.4620    -0.4860    -0.2030 H     1 <1>   0.1500 
 33 H       -1.8600    -4.4560    -1.5400 H     1 <1>   0.1500 
 34 H       -5.4370    -2.7510     0.0430 H     1 <1>   0.1500 
 35 H       -5.2100    -5.1240    -0.9870 H     1 <1>   0.3700 
 36 H       -1.2850    -7.3520    -0.9820 H     1 <1>   0.0800 
 37 H       -2.5060    -6.0160     2.4130 H     1 <1>   0.0800 
 38 H       -2.5910    -4.5870     1.4030 H     1 <1>   0.0800 
 39 H        0.5740    -7.0510     0.3600 H     1 <1>   0.0800 
 40 H       -0.2540    -7.6450     1.7740 H     1 <1>   0.0800 
 41 H       -0.2140    -5.3510     2.3230 H     1 <1>   0.0800 
 42 H       -0.3650    -4.8710     0.6430 H     1 <1>   0.0800 
 43 H       -3.8710    -8.6590    -0.0700 H     1 <1>   0.3700 
 44 H       -4.5210   -10.7520     1.0720 H     1 <1>   0.0800 
 45 H       -2.9070   -11.3670     0.8180 H     1 <1>   0.0800 
 46 H       -3.2430   -11.3040    -1.6190 H     1 <1>   0.0800 
 47 H       -4.8420   -10.6440    -1.3990 H     1 <1>   0.0800 
 48 H       -6.7060   -12.0720    -0.7430 H     1 <1>   0.1500 
 49 H       -2.7340   -13.6360    -0.8600 H     1 <1>   0.1500 
 50 H       -3.6380   -15.9130    -0.6470 H     1 <1>   0.1500 
 51 H       -7.9290   -14.1820     1.5760 H     1 <1>   0.0800 
 52 H       -8.0310   -15.8130     0.9100 H     1 <1>   0.0800 
 53 H       -9.4130   -14.7290     0.7990 H     1 <1>   0.0800 
 54 H       -7.0300   -18.0840    -1.4590 H     1 <1>   0.0800 
 55 H       -6.2800   -16.8780    -2.5030 H     1 <1>   0.0800 
 56 H       -7.7820   -16.5050    -1.6540 H     1 <1>   0.0800 
@<TRIPOS>BOND
  1   1   2  1   
  2   2   3  ar  
  3   2   4  ar  
  4   3   5  ar  
  5   3  31  1   
  6   4   6  ar  
  7   4  32  1   
  8   5   7  ar  
  9   5  33  1   
 10   6   7  ar  
 11   6  34  1   
 12   7   8  1   
 13   8   9  am  
 14   8  35  1   
 15   9  10  2   
 16   9  11  am  
 17  11  12  1   
 18  11  13  1   
 19  12  14  1   
 20  12  15  1   
 21  12  36  1   
 22  13  16  1   
 23  13  37  1   
 24  13  38  1   
 25  14  17  2   
 26  14  18  am  
 27  15  16  1   
 28  15  39  1   
 29  15  40  1   
 30  16  41  1   
 31  16  42  1   
 32  18  19  1   
 33  18  43  1   
 34  19  20  1   
 35  19  44  1   
 36  19  45  1   
 37  20  21  1   
 38  20  46  1   
 39  20  47  1   
 40  21  22  ar  
 41  21  23  ar  
 42  22  24  ar  
 43  22  48  1   
 44  23  25  ar  
 45  23  49  1   
 46  24  26  1   
 47  24  27  ar  
 48  25  27  ar  
 49  25  50  1   
 50  26  28  1   
 51  27  29  1   
 52  28  51  1   
 53  28  52  1   
 54  28  53  1   
 55  29  30  1   
 56  30  54  1   
 57  30  55  1   
 58  30  56  1   
@<TRIPOS>SUBSTRUCTURE
  1 ****  18 GROUP 4 **** **** 0

# MOE 2024.06 (io_trps.svl 2023.06)
