@<TRIPOS>MOLECULE
12047
46 48 1 0 0 
SMALL
USER_CHARGES


@<TRIPOS>ATOM
  1 S       -0.3300    -0.3800     0.9240 S.o2  1 <1>   1.4970 
  2 O        0.1910    -1.1770     2.0160 O.2   1 <1>  -0.6500 
  3 O       -0.7680     0.9760     1.1830 O.2   1 <1>  -0.6500 
  4 N        0.8350    -0.3240    -0.2730 N.2   1 <1>  -0.6380 
  5 C       -1.6800    -1.2920     0.1180 C.ar  1 <1>  -0.0090 
  6 C        1.9340     0.2650    -0.0090 C.2   1 <1>   0.4860 
  7 C       -1.7540    -2.6800     0.1840 C.ar  1 <1>  -0.1500 
  8 C       -2.6660    -0.6320    -0.6100 C.ar  1 <1>  -0.1500 
  9 N        2.8490     0.2730    -1.0390 N.pl3 1 <1>  -0.5500 
 10 C        2.3730     0.9240     1.1960 C.2   1 <1>  -0.1360 
 11 C       -2.7740    -3.3790    -0.4380 C.ar  1 <1>  -0.1500 
 12 C       -3.6870    -1.3250    -1.2340 C.ar  1 <1>  -0.1500 
 13 C        4.0970     0.8580    -0.9560 C.2   1 <1>  -0.0500 
 14 C        3.5970     1.5060     1.2970 C.2   1 <1>  -0.1500 
 15 C       -3.7580    -2.7090    -1.1490 C.ar  1 <1>   0.1170 
 16 C        4.4830     1.4710     0.1890 C.2   1 <1>  -0.1500 
 17 N       -4.7800    -3.4280    -1.7730 N.am  1 <1>  -0.5470 
 18 C       -6.1350    -3.3450    -1.6620 C.2   1 <1>   0.5690 
 19 O       -6.8160    -4.0540    -2.3600 O.2   1 <1>  -0.5700 
 20 C       -6.8060    -2.3940    -0.6640 C.3   1 <1>  -0.0190 
 21 C       -7.7420    -3.1530     0.2960 C.3   1 <1>  -0.1600 
 22 C       -7.5780    -1.2760    -1.3910 C.3   1 <1>  -0.1600 
 23 C       -8.4150    -2.2000     1.2950 C.3   1 <1>  -0.1600 
 24 C       -8.2510    -0.3190    -0.3970 C.3   1 <1>  -0.1600 
 25 C       -9.1700    -1.0800     0.5670 C.3   1 <1>  -0.1600 
 26 H       -1.0010    -3.2210     0.7340 H     1 <1>   0.1500 
 27 H       -2.6300     0.4430    -0.6870 H     1 <1>   0.1500 
 28 H        2.5340    -0.1950    -1.8900 H     1 <1>   0.4000 
 29 H        1.7110     0.9570     2.0400 H     1 <1>   0.1500 
 30 H       -2.8100    -4.4520    -0.3660 H     1 <1>   0.1500 
 31 H       -4.4310    -0.7900    -1.7960 H     1 <1>   0.1500 
 32 H        4.7340     0.8050    -1.8240 H     1 <1>   0.1500 
 33 H        3.9210     1.9970     2.1980 H     1 <1>   0.1500 
 34 H        5.4480     1.9360     0.2880 H     1 <1>   0.1500 
 35 H       -4.4930    -4.1790    -2.4010 H     1 <1>   0.3700 
 36 H       -6.0470    -1.9330    -0.0600 H     1 <1>   0.0800 
 37 H       -7.1800    -3.8980     0.8330 H     1 <1>   0.0800 
 38 H       -8.5010    -3.6630    -0.2740 H     1 <1>   0.0800 
 39 H       -8.3310    -1.7190    -2.0220 H     1 <1>   0.0800 
 40 H       -6.9080    -0.7220    -2.0240 H     1 <1>   0.0800 
 41 H       -7.6670    -1.7680     1.9370 H     1 <1>   0.0800 
 42 H       -9.1000    -2.7530     1.9130 H     1 <1>   0.0800 
 43 H       -8.8260     0.4150    -0.9360 H     1 <1>   0.0800 
 44 H       -7.4960     0.2010     0.1670 H     1 <1>   0.0800 
 45 H       -9.5830    -0.3960     1.2890 H     1 <1>   0.0800 
 46 H       -9.9890    -1.5080     0.0130 H     1 <1>   0.0800 
@<TRIPOS>BOND
  1   1   2  2   
  2   1   3  2   
  3   1   4  1   
  4   1   5  1   
  5   4   6  2   
  6   5   7  ar  
  7   5   8  ar  
  8   6   9  1   
  9   6  10  1   
 10   7  11  ar  
 11   7  26  1   
 12   8  12  ar  
 13   8  27  1   
 14   9  13  1   
 15   9  28  1   
 16  10  14  2   
 17  10  29  1   
 18  11  15  ar  
 19  11  30  1   
 20  12  15  ar  
 21  12  31  1   
 22  13  16  2   
 23  13  32  1   
 24  14  16  1   
 25  14  33  1   
 26  15  17  1   
 27  16  34  1   
 28  17  18  am  
 29  17  35  1   
 30  18  19  2   
 31  18  20  1   
 32  20  21  1   
 33  20  22  1   
 34  20  36  1   
 35  21  23  1   
 36  21  37  1   
 37  21  38  1   
 38  22  24  1   
 39  22  39  1   
 40  22  40  1   
 41  23  25  1   
 42  23  41  1   
 43  23  42  1   
 44  24  25  1   
 45  24  43  1   
 46  24  44  1   
 47  25  45  1   
 48  25  46  1   
@<TRIPOS>SUBSTRUCTURE
  1 ****   8 GROUP 4 **** **** 0

# MOE 2024.06 (io_trps.svl 2023.06)
