@<TRIPOS>MOLECULE
NONAME
55 58 1 0 0 
SMALL
USER_CHARGES


@<TRIPOS>ATOM
  1 S       -3.9230     0.3990    -0.7380 S.3   1 <1>  -0.0800 
  2 C       -2.6750     1.5860    -1.0930 C.2   1 <1>  -0.1400 
  3 C       -4.4860     0.4290    -2.3990 C.2   1 <1>  -0.1100 
  4 C       -2.7220     1.9460    -2.3900 C.2   1 <1>  -0.1500 
  5 C       -1.7700     2.0120     0.0510 C.3   1 <1>   0.2760 
  6 C       -3.7550     1.2880    -3.1320 C.2   1 <1>  -0.1500 
  7 N       -2.5200     2.6680     1.1500 N.pl3 1 <1>   0.3140 
  8 N       -2.0750     2.5970     2.3840 N.2   1 <1>  -0.4180 
  9 C       -3.6380     3.3890     1.1860 C.2   1 <1>   0.0060 
 10 N       -2.8980     3.2490     3.1200 N.2   1 <1>   0.0000 
 11 N       -3.8800     3.7520     2.3890 N.2   1 <1>  -0.3380 
 12 C       -4.5440     3.7590     0.0210 C.3   1 <1>   0.5230 
 13 N       -5.9620     3.7830     0.4870 N.4   1 <1>  -0.9590 
 14 C       -6.4480     2.4140     0.8260 C.3   1 <1>   0.3430 
 15 C       -6.8590     4.5020    -0.4550 C.3   1 <1>   0.3430 
 16 C       -7.8290     2.5120     1.4680 C.3   1 <1>  -0.1600 
 17 C       -8.2540     4.6270     0.1580 C.3   1 <1>  -0.1600 
 18 C       -8.8370     3.2630     0.5760 C.3   1 <1>  -0.0190 
 19 C      -10.1750     3.4500     1.3020 C.2   1 <1>   0.4230 
 20 O      -10.1300     3.9780     2.3840 O.2   1 <1>  -0.5700 
 21 C      -11.4130     2.9910     0.7100 C.ar  1 <1>   0.0860 
 22 C      -11.6350     2.9410    -0.6720 C.ar  1 <1>  -0.1500 
 23 C      -12.4620     2.5740     1.5320 C.ar  1 <1>  -0.1500 
 24 C      -12.8250     2.4780    -1.2020 C.ar  1 <1>  -0.1500 
 25 C      -13.6540     2.1110     1.0100 C.ar  1 <1>  -0.1500 
 26 C      -13.8470     2.0530    -0.3590 C.ar  1 <1>   0.0830 
 27 O      -15.0370     1.5830    -0.7920 O.3   1 <1>  -0.3630 
 28 C      -15.3560     1.4960    -2.1610 C.3   1 <1>   0.1200 
 29 C      -16.7700     0.9360    -2.2810 C.3   1 <1>  -0.2400 
 30 H       -5.3070    -0.2170    -2.6600 H     1 <1>   0.1500 
 31 H       -2.0650     2.6450    -2.8820 H     1 <1>   0.1500 
 32 H       -1.0210     2.6970    -0.3040 H     1 <1>   0.0800 
 33 H       -1.2690     1.1470     0.4500 H     1 <1>   0.0800 
 34 H       -3.8900     1.4820    -4.1840 H     1 <1>   0.1500 
 35 H       -4.4470     3.0630    -0.7920 H     1 <1>   0.0800 
 36 H       -4.2610     4.7370    -0.3330 H     1 <1>   0.0800 
 37 H       -5.9350     4.3000     1.3830 H     1 <1>   0.4500 
 38 H       -5.7690     1.9400     1.5190 H     1 <1>   0.0800 
 39 H       -6.5020     1.8100    -0.0650 H     1 <1>   0.0800 
 40 H       -6.9210     3.9610    -1.3850 H     1 <1>   0.0800 
 41 H       -6.4710     5.4880    -0.6580 H     1 <1>   0.0800 
 42 H       -7.7320     3.0080     2.4200 H     1 <1>   0.0800 
 43 H       -8.1960     1.5200     1.6660 H     1 <1>   0.0800 
 44 H       -8.9110     5.0950    -0.5540 H     1 <1>   0.0800 
 45 H       -8.2010     5.2770     1.0150 H     1 <1>   0.0800 
 46 H       -8.9910     2.6660    -0.3050 H     1 <1>   0.0800 
 47 H      -10.8770     3.2790    -1.3530 H     1 <1>   0.1500 
 48 H      -12.3370     2.6160     2.6010 H     1 <1>   0.1500 
 49 H      -12.9480     2.4570    -2.2690 H     1 <1>   0.1500 
 50 H      -14.4480     1.7910     1.6610 H     1 <1>   0.1500 
 51 H      -14.6460     0.8410    -2.6360 H     1 <1>   0.0800 
 52 H      -15.3010     2.4830    -2.5880 H     1 <1>   0.0800 
 53 H      -16.8180    -0.0430    -1.8360 H     1 <1>   0.0800 
 54 H      -17.0450     0.8570    -3.3160 H     1 <1>   0.0800 
 55 H      -17.4690     1.5880    -1.7880 H     1 <1>   0.0800 
@<TRIPOS>BOND
  1   1   2  1   
  2   1   3  1   
  3   2   4  2   
  4   2   5  1   
  5   3   6  2   
  6   3  30  1   
  7   4   6  1   
  8   4  31  1   
  9   5   7  1   
 10   5  32  1   
 11   5  33  1   
 12   6  34  1   
 13   7   8  1   
 14   7   9  1   
 15   8  10  2   
 16   9  11  2   
 17   9  12  1   
 18  10  11  1   
 19  12  13  1   
 20  12  35  1   
 21  12  36  1   
 22  13  14  1   
 23  13  15  1   
 24  13  37  1   
 25  14  16  1   
 26  14  38  1   
 27  14  39  1   
 28  15  17  1   
 29  15  40  1   
 30  15  41  1   
 31  16  18  1   
 32  16  42  1   
 33  16  43  1   
 34  17  18  1   
 35  17  44  1   
 36  17  45  1   
 37  18  19  1   
 38  18  46  1   
 39  19  20  2   
 40  19  21  1   
 41  21  22  ar  
 42  21  23  ar  
 43  22  24  ar  
 44  22  47  1   
 45  23  25  ar  
 46  23  48  1   
 47  24  26  ar  
 48  24  49  1   
 49  25  26  ar  
 50  25  50  1   
 51  26  27  1   
 52  27  28  1   
 53  28  29  1   
 54  28  51  1   
 55  28  52  1   
 56  29  53  1   
 57  29  54  1   
 58  29  55  1   
@<TRIPOS>SUBSTRUCTURE
  1 ****  18 GROUP 4 **** **** 0

# MOE 2024.06 (io_trps.svl 2023.06)
