@<TRIPOS>MOLECULE
NONAME
49 52 1 0 0 
SMALL
USER_CHARGES


@<TRIPOS>ATOM
  1 S       -0.2010    -0.5780    -1.1090 S.o2  1 <1>   1.4480 
  2 O        0.3220     0.7600    -0.9460 O.2   1 <1>  -0.6540 
  3 O       -0.6440    -1.0170    -2.4160 O.2   1 <1>  -0.6540 
  4 N       -1.5800    -0.6690    -0.1210 N.am  1 <1>  -0.8520 
  5 C        0.9200    -1.7910    -0.3590 C.ar  1 <1>  -0.0180 
  6 C       -2.4820     0.4600    -0.3840 C.3   1 <1>   0.1880 
  7 C       -2.2830    -1.9490    -0.2730 C.3   1 <1>   0.1880 
  8 C        1.3080    -2.9370    -1.0450 C.ar  1 <1>  -0.1580 
  9 C        1.4010    -1.6120     0.9330 C.ar  1 <1>  -0.1580 
 10 C       -3.7100     0.4380     0.5430 C.3   1 <1>   0.1600 
 11 C       -3.4900    -2.0320     0.6770 C.3   1 <1>   0.1600 
 12 C        2.1390    -3.8770    -0.4600 C.ar  1 <1>  -0.1580 
 13 C        2.2340    -2.5460     1.5250 C.ar  1 <1>  -0.1580 
 14 N       -4.4290    -0.8770     0.4800 N.pl3 1 <1>  -0.5960 
 15 C        2.6020    -3.6810     0.8280 C.ar  1 <1>  -0.1580 
 16 C       -5.7400    -1.0270     0.1910 C.cat 1 <1>   1.0690 
 17 N       -6.2200    -2.1260    -0.3860 N.pl3 1 <1>  -0.7040 
 18 N       -6.7510    -0.1650     0.4190 N.pl3 1 <1>  -0.7670 
 19 C       -7.5790    -1.9940    -0.5620 C.ar  1 <1>   0.3030 
 20 C       -7.9230    -0.7580    -0.0520 C.ar  1 <1>   0.3030 
 21 C       -6.7850     1.0670     1.2410 C.3   1 <1>   0.3480 
 22 C       -8.5320    -2.8430    -1.1120 C.ar  1 <1>  -0.1170 
 23 C       -9.2510    -0.3410    -0.0710 C.ar  1 <1>  -0.1170 
 24 C       -6.9360     2.2870     0.3350 C.3   1 <1>  -0.2470 
 25 C       -9.8480    -2.4240    -1.1360 C.ar  1 <1>  -0.1580 
 26 C      -10.2060    -1.1790    -0.6160 C.ar  1 <1>  -0.1580 
 27 H       -2.8010     0.4420    -1.4130 H     1 <1>   0.0720 
 28 H       -1.9540     1.3860    -0.2220 H     1 <1>   0.0720 
 29 H       -1.6080    -2.7570    -0.0440 H     1 <1>   0.0720 
 30 H       -2.6170    -2.0740    -1.2900 H     1 <1>   0.0720 
 31 H        0.9570    -3.0990    -2.0500 H     1 <1>   0.1420 
 32 H        1.1200    -0.7290     1.4810 H     1 <1>   0.1420 
 33 H       -4.3520     1.2410     0.2420 H     1 <1>   0.0720 
 34 H       -3.3880     0.6220     1.5540 H     1 <1>   0.0720 
 35 H       -3.1240    -2.0140     1.6900 H     1 <1>   0.0720 
 36 H       -3.9900    -2.9730     0.5350 H     1 <1>   0.0720 
 37 H        2.4290    -4.7580    -1.0070 H     1 <1>   0.1420 
 38 H        2.5970    -2.3880     2.5260 H     1 <1>   0.1420 
 39 H        3.2490    -4.4100     1.2860 H     1 <1>   0.1420 
 40 H       -5.6620    -2.9120    -0.7050 H     1 <1>   0.4440 
 41 H       -5.8940     1.1500     1.8380 H     1 <1>   0.0720 
 42 H       -7.6210     1.0190     1.9210 H     1 <1>   0.0720 
 43 H       -8.2500    -3.8020    -1.5090 H     1 <1>   0.1420 
 44 H       -9.5330     0.6160     0.3290 H     1 <1>   0.1420 
 45 H       -6.9150     3.1810     0.9320 H     1 <1>   0.0720 
 46 H       -7.8750     2.2610    -0.1880 H     1 <1>   0.0720 
 47 H       -6.1410     2.3430    -0.3850 H     1 <1>   0.0720 
 48 H      -10.6120    -3.0590    -1.5560 H     1 <1>   0.1420 
 49 H      -11.2400    -0.8750    -0.6440 H     1 <1>   0.1420 
@<TRIPOS>BOND
  1   1   2  2   
  2   1   3  2   
  3   1   4  am  
  4   1   5  1   
  5   4   6  1   
  6   4   7  1   
  7   5   8  ar  
  8   5   9  ar  
  9   6  10  1   
 10   6  27  1   
 11   6  28  1   
 12   7  11  1   
 13   7  29  1   
 14   7  30  1   
 15   8  12  ar  
 16   8  31  1   
 17   9  13  ar  
 18   9  32  1   
 19  10  14  1   
 20  10  33  1   
 21  10  34  1   
 22  11  14  1   
 23  11  35  1   
 24  11  36  1   
 25  12  15  ar  
 26  12  37  1   
 27  13  15  ar  
 28  13  38  1   
 29  14  16  ar  
 30  15  39  1   
 31  16  17  ar  
 32  16  18  ar  
 33  17  19  1   
 34  17  40  1   
 35  18  20  1   
 36  18  21  1   
 37  19  20  ar  
 38  19  22  ar  
 39  20  23  ar  
 40  21  24  1   
 41  21  41  1   
 42  21  42  1   
 43  22  25  ar  
 44  22  43  1   
 45  23  26  ar  
 46  23  44  1   
 47  24  45  1   
 48  24  46  1   
 49  24  47  1   
 50  25  26  ar  
 51  25  48  1   
 52  26  49  1   
@<TRIPOS>SUBSTRUCTURE
  1 ****  14 GROUP 4 **** **** 0

# MOE 2024.06 (io_trps.svl 2023.06)
