@<TRIPOS>MOLECULE
1-(3-Chloro-benzyl)-3-(3-methoxy-propyl)-1H-thieno[3,2-d]pyrimidine-2,4-dione
41 43 1 0 0 
SMALL
USER_CHARGES


@<TRIPOS>ATOM
  1 CL       1.7270     2.6840     1.4180 Cl    1 <1>  -0.1770 
  2 C        0.1650     2.8000     0.6490 C.ar  1 <1>   0.1770 
  3 C       -0.1890     3.9730     0.0090 C.ar  1 <1>  -0.1500 
  4 C       -0.6930     1.7180     0.6910 C.ar  1 <1>  -0.1500 
  5 C       -1.4320     4.0770    -0.6000 C.ar  1 <1>  -0.1440 
  6 C       -1.9290     1.8140     0.0770 C.ar  1 <1>  -0.1500 
  7 C       -2.2940     2.9870    -0.5650 C.ar  1 <1>  -0.1500 
  8 C       -1.8370     5.3670    -1.3050 C.3   1 <1>   0.2840 
  9 N       -1.8080     6.5170    -0.3580 N.am  1 <1>  -0.4230 
 10 C       -0.7400     7.4080    -0.3910 C.2   1 <1>   0.6900 
 11 C       -2.8370     6.6950     0.5700 C.2   1 <1>   0.0630 
 12 O        0.1690     7.2370    -1.1850 O.2   1 <1>  -0.5700 
 13 N       -0.6950     8.4900     0.4790 N.am  1 <1>  -0.4200 
 14 C       -2.7650     7.7540     1.4090 C.2   1 <1>  -0.0450 
 15 C       -4.0010     5.8830     0.7680 C.2   1 <1>  -0.1500 
 16 C       -1.7030     8.6930     1.4060 C.2   1 <1>   0.7150 
 17 C        0.4410     9.4530     0.4060 C.3   1 <1>   0.1400 
 18 S       -4.1690     7.7800     2.4860 S.3   1 <1>  -0.0800 
 19 C       -4.8120     6.3230     1.7500 C.2   1 <1>  -0.1100 
 20 O       -1.6580     9.6410     2.1740 O.2   1 <1>  -0.5700 
 21 C        0.1220    10.5690    -0.5930 C.3   1 <1>  -0.1600 
 22 C        1.2780    11.5610    -0.6830 C.3   1 <1>   0.1200 
 23 O        0.9270    12.5340    -1.6080 O.3   1 <1>  -0.5600 
 24 C        1.8950    13.5140    -1.7940 C.3   1 <1>   0.0400 
 25 H        0.5080     4.7920    -0.0080 H     1 <1>   0.1500 
 26 H       -0.3930     0.8170     1.1950 H     1 <1>   0.1500 
 27 H       -2.6070     0.9770     0.1000 H     1 <1>   0.1500 
 28 H       -3.2580     3.0400    -1.0400 H     1 <1>   0.1500 
 29 H       -2.8280     5.2750    -1.7120 H     1 <1>   0.0800 
 30 H       -1.1720     5.5390    -2.1340 H     1 <1>   0.0800 
 31 H       -4.1850     5.0050     0.1790 H     1 <1>   0.1500 
 32 H        1.3370     8.9360     0.1030 H     1 <1>   0.0800 
 33 H        0.6270     9.8740     1.3790 H     1 <1>   0.0800 
 34 H       -5.7420     5.9440     2.1370 H     1 <1>   0.1500 
 35 H       -0.7620    11.0940    -0.2740 H     1 <1>   0.0800 
 36 H       -0.0450    10.1420    -1.5660 H     1 <1>   0.0800 
 37 H        2.1760    11.0720    -1.0210 H     1 <1>   0.0800 
 38 H        1.4480    12.0350     0.2690 H     1 <1>   0.0800 
 39 H        1.5250    14.2130    -2.5240 H     1 <1>   0.0800 
 40 H        2.7990    13.0570    -2.1550 H     1 <1>   0.0800 
 41 H        2.0700    14.0230    -0.8610 H     1 <1>   0.0800 
@<TRIPOS>BOND
  1   1   2  1   
  2   2   3  ar  
  3   2   4  ar  
  4   3   5  ar  
  5   3  25  1   
  6   4   6  ar  
  7   4  26  1   
  8   5   7  ar  
  9   5   8  1   
 10   6   7  ar  
 11   6  27  1   
 12   7  28  1   
 13   8   9  1   
 14   8  29  1   
 15   8  30  1   
 16   9  10  am  
 17   9  11  1   
 18  10  12  2   
 19  10  13  am  
 20  11  14  2   
 21  11  15  1   
 22  13  16  am  
 23  13  17  1   
 24  14  16  1   
 25  14  18  1   
 26  15  19  2   
 27  15  31  1   
 28  16  20  2   
 29  17  21  1   
 30  17  32  1   
 31  17  33  1   
 32  18  19  1   
 33  19  34  1   
 34  21  22  1   
 35  21  35  1   
 36  21  36  1   
 37  22  23  1   
 38  22  37  1   
 39  22  38  1   
 40  23  24  1   
 41  24  39  1   
 42  24  40  1   
 43  24  41  1   
@<TRIPOS>SUBSTRUCTURE
  1 ****  10 GROUP 4 **** **** 0

# MOE 2024.06 (io_trps.svl 2023.06)
