@<TRIPOS>MOLECULE
4-(2-Methoxy-ethyl)-5-p-tolyloxymethyl-4H-[1,2,4]triazole-3-thiol
36 37 1 0 0 
SMALL
USER_CHARGES


@<TRIPOS>ATOM
  1 S       -0.7650     0.0540     0.3080 S.3   1 <1>  -0.9360 
  2 C       -2.1600     0.2350    -0.5020 C.cat 1 <1>   0.7360 
  3 N       -2.2880     0.7550    -1.7020 N.pl3 1 <1>  -0.3930 
  4 N       -3.3470    -0.1480    -0.0860 N.pl3 1 <1>  -0.7640 
  5 N       -3.5910     0.6990    -2.1140 N.2   1 <1>  -0.2600 
  6 C       -4.2010     0.1460    -1.1240 C.2   1 <1>   0.4850 
  7 C       -3.6100    -0.8380     1.1940 C.3   1 <1>   0.3540 
  8 C       -5.6930    -0.1730    -1.0970 C.3   1 <1>   0.2880 
  9 C       -3.4260    -2.3540     1.0440 C.3   1 <1>   0.1200 
 10 O       -6.3280     0.5450    -0.0540 O.3   1 <1>  -0.3630 
 11 O       -4.3550    -2.8750     0.1320 O.3   1 <1>  -0.5600 
 12 C       -7.6400     0.3550     0.2310 C.ar  1 <1>   0.0830 
 13 C       -4.1570    -4.2220    -0.1520 C.3   1 <1>   0.0400 
 14 C       -8.1720     1.1260     1.2520 C.ar  1 <1>  -0.1500 
 15 C       -8.4570    -0.5550    -0.4350 C.ar  1 <1>  -0.1500 
 16 C       -9.5010     0.9940     1.6110 C.ar  1 <1>  -0.1500 
 17 C       -9.7870    -0.6830    -0.0720 C.ar  1 <1>  -0.1500 
 18 C      -10.3150     0.0870     0.9520 C.ar  1 <1>  -0.1430 
 19 C      -11.7740    -0.0570     1.3460 C.3   1 <1>  -0.0970 
 20 H       -1.4810     1.1150    -2.2100 H     1 <1>   0.4500 
 21 H       -4.6060    -0.6240     1.5370 H     1 <1>   0.0800 
 22 H       -2.9220    -0.4740     1.9380 H     1 <1>   0.0800 
 23 H       -5.8350    -1.2230    -0.9280 H     1 <1>   0.0800 
 24 H       -6.1480     0.1140    -2.0270 H     1 <1>   0.0800 
 25 H       -3.5750    -2.8360     1.9940 H     1 <1>   0.0800 
 26 H       -2.4280    -2.5580     0.6930 H     1 <1>   0.0800 
 27 H       -4.9170    -4.5350    -0.8470 H     1 <1>   0.0800 
 28 H       -4.2380    -4.7940     0.7560 H     1 <1>   0.0800 
 29 H       -3.1850    -4.3520    -0.5960 H     1 <1>   0.0800 
 30 H       -7.5410     1.8300     1.7630 H     1 <1>   0.1500 
 31 H       -8.0890    -1.1710    -1.2320 H     1 <1>   0.1500 
 32 H       -9.9000     1.6010     2.4050 H     1 <1>   0.1500 
 33 H      -10.4140    -1.3870    -0.5910 H     1 <1>   0.1500 
 34 H      -11.9000     0.1340     2.3970 H     1 <1>   0.0800 
 35 H      -12.1250    -1.0510     1.1380 H     1 <1>   0.0800 
 36 H      -12.3710     0.6450     0.7920 H     1 <1>   0.0800 
@<TRIPOS>BOND
  1   1   2  1   
  2   2   3  ar  
  3   2   4  ar  
  4   3   5  1   
  5   3  20  1   
  6   4   6  1   
  7   4   7  1   
  8   5   6  2   
  9   6   8  1   
 10   7   9  1   
 11   7  21  1   
 12   7  22  1   
 13   8  10  1   
 14   8  23  1   
 15   8  24  1   
 16   9  11  1   
 17   9  25  1   
 18   9  26  1   
 19  10  12  1   
 20  11  13  1   
 21  12  14  ar  
 22  12  15  ar  
 23  13  27  1   
 24  13  28  1   
 25  13  29  1   
 26  14  16  ar  
 27  14  30  1   
 28  15  17  ar  
 29  15  31  1   
 30  16  18  ar  
 31  16  32  1   
 32  17  18  ar  
 33  17  33  1   
 34  18  19  1   
 35  19  34  1   
 36  19  35  1   
 37  19  36  1   
@<TRIPOS>SUBSTRUCTURE
  1 ****  10 GROUP 4 **** **** 0

# MOE 2024.06 (io_trps.svl 2023.06)
