@<TRIPOS>MOLECULE
NONAME
52 55 1 0 0 
SMALL
USER_CHARGES


@<TRIPOS>ATOM
  1 O        0.4130     1.3310     1.0770 O.2   1 <1>  -0.5700 
  2 C        0.3220     2.0220     0.0920 C.2   1 <1>   0.5690 
  3 N       -0.8750     2.3560    -0.4780 N.am  1 <1>  -0.5470 
  4 C        1.5960     2.5610    -0.5560 C.3   1 <1>  -0.0190 
  5 C       -2.1660     1.9890    -0.0730 C.ar  1 <1>   0.1170 
  6 C        2.5360     1.4150    -0.9790 C.3   1 <1>  -0.1600 
  7 C        2.3320     3.5340     0.3870 C.3   1 <1>  -0.1600 
  8 C       -2.6100     0.6650    -0.0500 C.ar  1 <1>  -0.1440 
  9 C       -3.0470     2.9990     0.2920 C.ar  1 <1>  -0.1500 
 10 C        3.8410     1.9460    -1.5740 C.3   1 <1>   0.2090 
 11 C        3.6420     4.0360    -0.2230 C.3   1 <1>   0.2090 
 12 C       -3.9090     0.3860     0.3430 C.ar  1 <1>  -0.1500 
 13 C       -1.7080    -0.4960    -0.4500 C.3   1 <1>  -0.0960 
 14 C       -4.3420     2.7110     0.6790 C.ar  1 <1>  -0.1500 
 15 N        4.4780     2.8680    -0.5980 N.pl3 1 <1>  -0.8220 
 16 C       -4.7810     1.3990     0.7060 C.ar  1 <1>  -0.1440 
 17 C        5.8740     3.0350    -0.6410 C.2   1 <1>   0.2700 
 18 C       -6.1990     1.0690     1.1360 C.3   1 <1>  -0.0970 
 19 N        6.4500     4.1660    -0.8520 N.2   1 <1>  -0.3380 
 20 N        6.8150     2.0790    -0.4820 N.pl3 1 <1>   0.5930 
 21 N        7.7570     3.9200    -0.8450 N.2   1 <1>   0.0000 
 22 N        7.9950     2.6820    -0.6320 N.2   1 <1>  -0.4180 
 23 C        6.6670     0.6890    -0.1970 C.ar  1 <1>  -0.0230 
 24 C        7.4710    -0.2550    -0.8320 C.ar  1 <1>  -0.1500 
 25 C        5.7150     0.2410     0.7170 C.ar  1 <1>  -0.1500 
 26 C        7.3210    -1.6050    -0.5710 C.ar  1 <1>  -0.1500 
 27 C        5.5630    -1.1090     0.9780 C.ar  1 <1>  -0.1500 
 28 C        6.3650    -2.0330     0.3340 C.ar  1 <1>  -0.1500 
 29 H       -0.8450     3.0270    -1.2400 H     1 <1>   0.3700 
 30 H        1.3230     3.1050    -1.4420 H     1 <1>   0.0800 
 31 H        2.0440     0.7890    -1.7020 H     1 <1>   0.0800 
 32 H        2.7710     0.8030    -0.1260 H     1 <1>   0.0800 
 33 H        2.5550     3.0370     1.3160 H     1 <1>   0.0800 
 34 H        1.6990     4.3740     0.6120 H     1 <1>   0.0800 
 35 H       -2.7150     4.0210     0.2820 H     1 <1>   0.1500 
 36 H        3.6420     2.4800    -2.4880 H     1 <1>   0.0800 
 37 H        4.4970     1.1230    -1.8010 H     1 <1>   0.0800 
 38 H        4.1660     4.6450     0.4950 H     1 <1>   0.0800 
 39 H        3.4480     4.6340    -1.0970 H     1 <1>   0.0800 
 40 H       -4.2500    -0.6340     0.3700 H     1 <1>   0.1500 
 41 H       -1.1120    -0.2350    -1.3050 H     1 <1>   0.0800 
 42 H       -2.2890    -1.3650    -0.6990 H     1 <1>   0.0800 
 43 H       -1.0560    -0.7450     0.3680 H     1 <1>   0.0800 
 44 H       -5.0050     3.5090     0.9630 H     1 <1>   0.1500 
 45 H       -6.5770     0.2370     0.5690 H     1 <1>   0.0800 
 46 H       -6.8490     1.9110     0.9770 H     1 <1>   0.0800 
 47 H       -6.2110     0.8140     2.1800 H     1 <1>   0.0800 
 48 H        8.2210     0.0680    -1.5350 H     1 <1>   0.1500 
 49 H        5.0850     0.9500     1.2280 H     1 <1>   0.1500 
 50 H        7.9490    -2.3230    -1.0690 H     1 <1>   0.1500 
 51 H        4.8200    -1.4390     1.6850 H     1 <1>   0.1500 
 52 H        6.2480    -3.0840     0.5380 H     1 <1>   0.1500 
@<TRIPOS>BOND
  1   1   2  2   
  2   2   3  am  
  3   2   4  1   
  4   3   5  1   
  5   3  29  1   
  6   4   6  1   
  7   4   7  1   
  8   4  30  1   
  9   5   8  ar  
 10   5   9  ar  
 11   6  10  1   
 12   6  31  1   
 13   6  32  1   
 14   7  11  1   
 15   7  33  1   
 16   7  34  1   
 17   8  12  ar  
 18   8  13  1   
 19   9  14  ar  
 20   9  35  1   
 21  10  15  1   
 22  10  36  1   
 23  10  37  1   
 24  11  15  1   
 25  11  38  1   
 26  11  39  1   
 27  12  16  ar  
 28  12  40  1   
 29  13  41  1   
 30  13  42  1   
 31  13  43  1   
 32  14  16  ar  
 33  14  44  1   
 34  15  17  1   
 35  16  18  1   
 36  17  19  2   
 37  17  20  1   
 38  18  45  1   
 39  18  46  1   
 40  18  47  1   
 41  19  21  1   
 42  20  22  1   
 43  20  23  1   
 44  21  22  2   
 45  23  24  ar  
 46  23  25  ar  
 47  24  26  ar  
 48  24  48  1   
 49  25  27  ar  
 50  25  49  1   
 51  26  28  ar  
 52  26  50  1   
 53  27  28  ar  
 54  27  51  1   
 55  28  52  1   
@<TRIPOS>SUBSTRUCTURE
  1 ****   6 GROUP 4 **** **** 0

# MOE 2024.06 (io_trps.svl 2023.06)
