@<TRIPOS>MOLECULE
ka-00793
40 41 1 0 0 
SMALL
USER_CHARGES


@<TRIPOS>ATOM
  1 N       -0.0050    -0.3890     1.3070 N.2   1 <1>  -0.7070 
  2 N        1.2540    -0.7780     1.0530 N.pl3 1 <1>   0.3000 
  3 C       -0.0660     0.8670     0.9260 C.2   1 <1>   0.2890 
  4 C        1.9960     0.2080     0.5100 C.2   1 <1>  -0.3320 
  5 C       -1.2350     1.7370     0.9950 C.2   1 <1>   0.2890 
  6 C        1.1730     1.2750     0.4180 C.2   1 <1>  -0.1500 
  7 C        3.4600     0.0340     0.1240 C.3   1 <1>   0.1800 
  8 N       -2.1870     1.6940     1.8990 N.2   1 <1>  -0.7070 
  9 C       -1.4880     2.7660     0.0790 C.2   1 <1>  -0.1500 
 10 C        4.2750    -0.3300     1.3690 C.3   1 <1>  -0.2400 
 11 C        4.0110     1.3360    -0.4690 C.3   1 <1>  -0.2400 
 12 C        3.5820    -1.0790    -0.9220 C.3   1 <1>  -0.2400 
 13 N       -3.0390     2.6760     1.5660 N.pl3 1 <1>   0.3000 
 14 C       -2.6430     3.3490     0.4670 C.2   1 <1>  -0.3320 
 15 C       -3.4270     4.5130    -0.1270 C.3   1 <1>   0.1800 
 16 C       -3.5470     5.6300     0.9140 C.3   1 <1>  -0.2400 
 17 C       -2.7090     5.0610    -1.3660 C.3   1 <1>  -0.2400 
 18 C       -4.8230     4.0300    -0.5340 C.3   1 <1>  -0.2400 
 19 H        1.5810    -1.7280     1.2630 H     1 <1>   0.2700 
 20 H        1.3860     2.2590     0.0440 H     1 <1>   0.1500 
 21 H       -0.8600     3.0060    -0.7580 H     1 <1>   0.1500 
 22 H        4.1620     0.4340     2.1190 H     1 <1>   0.0800 
 23 H        5.3180    -0.4180     1.1260 H     1 <1>   0.0800 
 24 H        3.9440    -1.2630     1.7860 H     1 <1>   0.0800 
 25 H        5.0440     1.2210    -0.7440 H     1 <1>   0.0800 
 26 H        3.9380     2.1340     0.2490 H     1 <1>   0.0800 
 27 H        3.4540     1.6130    -1.3460 H     1 <1>   0.0800 
 28 H        4.6050    -1.1910    -1.2360 H     1 <1>   0.0800 
 29 H        2.9830    -0.8430    -1.7830 H     1 <1>   0.0800 
 30 H        3.2470    -2.0200    -0.5230 H     1 <1>   0.0800 
 31 H       -3.8890     2.8640     2.1100 H     1 <1>   0.2700 
 32 H       -2.5680     5.9470     1.2280 H     1 <1>   0.0800 
 33 H       -4.0880     5.2940     1.7800 H     1 <1>   0.0800 
 34 H       -4.0640     6.4780     0.5000 H     1 <1>   0.0800 
 35 H       -2.6150     4.2930    -2.1130 H     1 <1>   0.0800 
 36 H       -1.7250     5.4070    -1.1040 H     1 <1>   0.0800 
 37 H       -3.2570     5.8830    -1.7900 H     1 <1>   0.0800 
 38 H       -4.7410     3.2210    -1.2390 H     1 <1>   0.0800 
 39 H       -5.3800     4.8270    -0.9930 H     1 <1>   0.0800 
 40 H       -5.3730     3.6800     0.3200 H     1 <1>   0.0800 
@<TRIPOS>BOND
  1   1   2  1   
  2   1   3  2   
  3   2   4  1   
  4   2  19  1   
  5   3   5  1   
  6   3   6  1   
  7   4   6  2   
  8   4   7  1   
  9   5   8  2   
 10   5   9  1   
 11   6  20  1   
 12   7  10  1   
 13   7  11  1   
 14   7  12  1   
 15   8  13  1   
 16   9  14  2   
 17   9  21  1   
 18  10  22  1   
 19  10  23  1   
 20  10  24  1   
 21  11  25  1   
 22  11  26  1   
 23  11  27  1   
 24  12  28  1   
 25  12  29  1   
 26  12  30  1   
 27  13  14  1   
 28  13  31  1   
 29  14  15  1   
 30  15  16  1   
 31  15  17  1   
 32  15  18  1   
 33  16  32  1   
 34  16  33  1   
 35  16  34  1   
 36  17  35  1   
 37  17  36  1   
 38  17  37  1   
 39  18  38  1   
 40  18  39  1   
 41  18  40  1   
@<TRIPOS>SUBSTRUCTURE
  1 ****   3 GROUP 4 **** **** 0

# MOE 2024.06 (io_trps.svl 2023.06)
