@<TRIPOS>MOLECULE
2893
40 40 1 0 0 
SMALL
USER_CHARGES


@<TRIPOS>ATOM
  1 O       -0.4410    -0.1860     0.1040 O.2   1 <1>  -0.5700 
  2 C       -0.3670    -1.3910     0.2260 C.2   1 <1>   0.6340 
  3 O        0.8410    -1.9640     0.2000 O.3   1 <1>  -0.4300 
  4 C       -1.5230    -2.2520     0.4080 C.ar  1 <1>   0.0860 
  5 C        2.0160    -1.2030     0.0230 C.3   1 <1>   0.1200 
  6 C       -2.8200    -1.7570     0.2760 C.ar  1 <1>  -0.1500 
  7 C       -1.3870    -3.6060     0.7280 C.ar  1 <1>  -0.1500 
  8 C        3.2110    -2.1560     0.0380 C.3   1 <1>  -0.1600 
  9 C       -3.9430    -2.5560     0.4500 C.ar  1 <1>   0.1170 
 10 C       -2.4910    -4.4180     0.9090 C.ar  1 <1>  -0.1500 
 11 C        4.5290    -1.3940    -0.1500 C.3   1 <1>  -0.1600 
 12 N       -5.2500    -2.0640     0.3320 N.am  1 <1>  -0.5470 
 13 C       -3.7620    -3.8940     0.7730 C.ar  1 <1>  -0.1500 
 14 C        5.7250    -2.3500    -0.1350 C.3   1 <1>  -0.2400 
 15 C       -5.7480    -1.0380    -0.4240 C.2   1 <1>   0.5690 
 16 O       -5.0750    -0.3860    -1.1840 O.2   1 <1>  -0.5700 
 17 C       -7.2400    -0.7170    -0.3090 C.3   1 <1>  -0.0190 
 18 C       -7.6280    -0.2750     1.1130 C.3   1 <1>  -0.2400 
 19 C       -8.1220    -1.8960    -0.7570 C.3   1 <1>  -0.2400 
 20 H        2.0800    -0.4870     0.8250 H     1 <1>   0.0800 
 21 H        1.9450    -0.6840    -0.9180 H     1 <1>   0.0800 
 22 H       -2.9490    -0.7170     0.0320 H     1 <1>   0.1500 
 23 H       -0.4040    -4.0300     0.8380 H     1 <1>   0.1500 
 24 H        3.0960    -2.8730    -0.7560 H     1 <1>   0.0800 
 25 H        3.2310    -2.6790     0.9780 H     1 <1>   0.0800 
 26 H       -2.3600    -5.4580     1.1560 H     1 <1>   0.1500 
 27 H        4.6450    -0.6700     0.6390 H     1 <1>   0.0800 
 28 H        4.5110    -0.8650    -1.0880 H     1 <1>   0.0800 
 29 H       -5.9550    -2.5760     0.8560 H     1 <1>   0.3700 
 30 H       -4.6160    -4.5320     0.9120 H     1 <1>   0.1500 
 31 H        5.7760    -2.8750     0.8030 H     1 <1>   0.0800 
 32 H        6.6390    -1.7990    -0.2680 H     1 <1>   0.0800 
 33 H        5.6410    -3.0700    -0.9310 H     1 <1>   0.0800 
 34 H       -7.4360     0.1080    -0.9720 H     1 <1>   0.0800 
 35 H       -7.4850    -1.0720     1.8210 H     1 <1>   0.0800 
 36 H       -8.6590     0.0300     1.1410 H     1 <1>   0.0800 
 37 H       -7.0200     0.5610     1.4130 H     1 <1>   0.0800 
 38 H       -8.0020    -2.7420    -0.1050 H     1 <1>   0.0800 
 39 H       -7.8540    -2.1920    -1.7570 H     1 <1>   0.0800 
 40 H       -9.1580    -1.6060    -0.7570 H     1 <1>   0.0800 
@<TRIPOS>BOND
  1   1   2  2   
  2   2   3  1   
  3   2   4  1   
  4   3   5  1   
  5   4   6  ar  
  6   4   7  ar  
  7   5   8  1   
  8   5  20  1   
  9   5  21  1   
 10   6   9  ar  
 11   6  22  1   
 12   7  10  ar  
 13   7  23  1   
 14   8  11  1   
 15   8  24  1   
 16   8  25  1   
 17   9  12  1   
 18   9  13  ar  
 19  10  13  ar  
 20  10  26  1   
 21  11  14  1   
 22  11  27  1   
 23  11  28  1   
 24  12  15  am  
 25  12  29  1   
 26  13  30  1   
 27  14  31  1   
 28  14  32  1   
 29  14  33  1   
 30  15  16  2   
 31  15  17  1   
 32  17  18  1   
 33  17  19  1   
 34  17  34  1   
 35  18  35  1   
 36  18  36  1   
 37  18  37  1   
 38  19  38  1   
 39  19  39  1   
 40  19  40  1   
@<TRIPOS>SUBSTRUCTURE
  1 ****   4 GROUP 4 **** **** 0

# MOE 2024.06 (io_trps.svl 2023.06)
