@<TRIPOS>MOLECULE
Pyrrolidine-1,2-dicarboxylic acid 1-[(4-methoxy-phenyl)-amide] 2-(phenethyl-amide)
52 54 1 0 0 
SMALL
USER_CHARGES


@<TRIPOS>ATOM
  1 O        1.9350     0.0450    -1.6480 O.2   1 <1>  -0.5700 
  2 C        2.3960     0.7660    -0.7860 C.2   1 <1>   0.6900 
  3 N        3.3680     0.2970     0.0600 N.am  1 <1>  -0.6600 
  4 N        1.8880     2.0230    -0.7050 N.am  1 <1>  -0.5470 
  5 C        4.3580    -0.7570    -0.3570 C.3   1 <1>   0.2810 
  6 C        3.8380     0.9760     1.2880 C.3   1 <1>   0.1400 
  7 C        2.5710     3.2420    -0.6200 C.ar  1 <1>   0.1170 
  8 C        3.8460    -2.2210    -0.3200 C.2   1 <1>   0.5690 
  9 C        5.5700    -0.5160     0.5670 C.3   1 <1>  -0.1600 
 10 C        5.3510     0.8500     1.2120 C.3   1 <1>  -0.1600 
 11 C        3.8730     3.3840    -1.0900 C.ar  1 <1>  -0.1500 
 12 C        1.9380     4.3450    -0.0610 C.ar  1 <1>  -0.1500 
 13 O        4.5960    -3.1150     0.0000 O.2   1 <1>  -0.5700 
 14 N        2.5620    -2.4900    -0.6760 N.am  1 <1>  -0.7300 
 15 C        4.5340     4.5950    -0.9940 C.ar  1 <1>  -0.1500 
 16 C        2.5950     5.5580     0.0370 C.ar  1 <1>  -0.1500 
 17 C        1.9180    -3.8210    -0.7160 C.3   1 <1>   0.1400 
 18 C        3.8940     5.6930    -0.4250 C.ar  1 <1>   0.0820 
 19 C        0.8690    -3.9170     0.3900 C.3   1 <1>  -0.0170 
 20 O        4.4660     6.9180    -0.2880 O.3   1 <1>  -0.3620 
 21 C        0.1740    -5.2690     0.3430 C.ar  1 <1>  -0.1440 
 22 C        5.7680     7.1700    -0.7680 C.3   1 <1>   0.0400 
 23 C       -1.0300    -5.4180    -0.3270 C.ar  1 <1>  -0.1500 
 24 C        0.7450    -6.3670     0.9680 C.ar  1 <1>  -0.1500 
 25 C       -1.6580    -6.6520    -0.3700 C.ar  1 <1>  -0.1500 
 26 C        0.1190    -7.6000     0.9260 C.ar  1 <1>  -0.1500 
 27 C       -1.0840    -7.7440     0.2570 C.ar  1 <1>  -0.1500 
 28 H        0.9900     2.0770    -1.1790 H     1 <1>   0.3700 
 29 H        4.6520    -0.5480    -1.3700 H     1 <1>   0.0800 
 30 H        3.4640     0.4400     2.1440 H     1 <1>   0.0800 
 31 H        3.5280     2.0020     1.3550 H     1 <1>   0.0800 
 32 H        6.4950    -0.5690     0.0220 H     1 <1>   0.0800 
 33 H        5.5930    -1.2610     1.3430 H     1 <1>   0.0800 
 34 H        5.8070     0.9240     2.1830 H     1 <1>   0.0800 
 35 H        5.7390     1.6290     0.5790 H     1 <1>   0.0800 
 36 H        4.3690     2.5420    -1.5360 H     1 <1>   0.1500 
 37 H        0.9310     4.2520     0.3030 H     1 <1>   0.1500 
 38 H        2.0020    -1.6930    -1.0190 H     1 <1>   0.3700 
 39 H        5.5380     4.6660    -1.3650 H     1 <1>   0.1500 
 40 H        2.1050     6.4100     0.4730 H     1 <1>   0.1500 
 41 H        2.6590    -4.5910    -0.5800 H     1 <1>   0.0800 
 42 H        1.4550    -3.9640    -1.6770 H     1 <1>   0.0800 
 43 H        0.1440    -3.1320     0.2690 H     1 <1>   0.0800 
 44 H        1.3470    -3.7930     1.3450 H     1 <1>   0.0800 
 45 H        6.0030     8.2000    -0.5690 H     1 <1>   0.0800 
 46 H        5.7910     6.9890    -1.8280 H     1 <1>   0.0800 
 47 H        6.4610     6.5310    -0.2510 H     1 <1>   0.0800 
 48 H       -1.4850    -4.5760    -0.8180 H     1 <1>   0.1500 
 49 H        1.6810    -6.2640     1.4900 H     1 <1>   0.1500 
 50 H       -2.5930    -6.7610    -0.8920 H     1 <1>   0.1500 
 51 H        0.5680    -8.4480     1.4140 H     1 <1>   0.1500 
 52 H       -1.5710    -8.7020     0.2230 H     1 <1>   0.1500 
@<TRIPOS>BOND
  1   1   2  2   
  2   2   3  am  
  3   2   4  am  
  4   3   5  1   
  5   3   6  1   
  6   4   7  1   
  7   4  28  1   
  8   5   8  1   
  9   5   9  1   
 10   5  29  1   
 11   6  10  1   
 12   6  30  1   
 13   6  31  1   
 14   7  11  ar  
 15   7  12  ar  
 16   8  13  2   
 17   8  14  am  
 18   9  10  1   
 19   9  32  1   
 20   9  33  1   
 21  10  34  1   
 22  10  35  1   
 23  11  15  ar  
 24  11  36  1   
 25  12  16  ar  
 26  12  37  1   
 27  14  17  1   
 28  14  38  1   
 29  15  18  ar  
 30  15  39  1   
 31  16  18  ar  
 32  16  40  1   
 33  17  19  1   
 34  17  41  1   
 35  17  42  1   
 36  18  20  1   
 37  19  21  1   
 38  19  43  1   
 39  19  44  1   
 40  20  22  1   
 41  21  23  ar  
 42  21  24  ar  
 43  22  45  1   
 44  22  46  1   
 45  22  47  1   
 46  23  25  ar  
 47  23  48  1   
 48  24  26  ar  
 49  24  49  1   
 50  25  27  ar  
 51  25  50  1   
 52  26  27  ar  
 53  26  51  1   
 54  27  52  1   
@<TRIPOS>SUBSTRUCTURE
  1 ****   3 GROUP 4 **** **** 0

# MOE 2024.06 (io_trps.svl 2023.06)
