@<TRIPOS>MOLECULE
NONAME
33 34 1 0 0 
SMALL
USER_CHARGES


@<TRIPOS>ATOM
  1 CL      -0.9310    -1.8670    -1.2220 Cl    1 <1>  -0.2900 
  2 C       -1.5140    -0.9560     0.1710 C.3   1 <1>   0.1910 
  3 C       -2.9350    -0.4510    -0.0530 C.2   1 <1>   0.5690 
  4 O       -3.0930     0.7480    -0.0480 O.2   1 <1>  -0.5700 
  5 N       -3.9970    -1.3090    -0.2200 N.am  1 <1>  -0.6600 
  6 C       -3.9220    -2.8060    -0.1840 C.3   1 <1>   0.1400 
  7 C       -5.3730    -0.7970    -0.5110 C.3   1 <1>   0.1400 
  8 C       -4.9440    -3.3810     0.8080 C.3   1 <1>   0.1400 
  9 C       -6.4040    -1.3760     0.4720 C.3   1 <1>   0.1400 
 10 N       -6.3180    -2.8690     0.5180 N.am  1 <1>  -0.6600 
 11 C       -7.3240    -3.7050     0.0780 C.2   1 <1>   0.5440 
 12 O       -7.0360    -4.8360    -0.2650 O.2   1 <1>  -0.5700 
 13 C       -8.7070    -3.2690    -0.0020 C.ar  1 <1>   0.0860 
 14 C       -9.4500    -3.4600    -1.1660 C.ar  1 <1>  -0.1500 
 15 C       -9.3420    -2.6500     1.0750 C.ar  1 <1>  -0.1500 
 16 C      -10.7630    -3.0360    -1.2600 C.ar  1 <1>  -0.1500 
 17 C      -10.6550    -2.2230     0.9880 C.ar  1 <1>  -0.1500 
 18 C      -11.3670    -2.4130    -0.1830 C.ar  1 <1>  -0.1500 
 19 H       -0.8470    -0.1260     0.3110 H     1 <1>   0.0800 
 20 H       -1.4720    -1.5990     1.0290 H     1 <1>   0.0800 
 21 H       -2.9410    -3.1410     0.0980 H     1 <1>   0.0800 
 22 H       -4.1310    -3.1940    -1.1660 H     1 <1>   0.0800 
 23 H       -5.6450    -1.0780    -1.5130 H     1 <1>   0.0800 
 24 H       -5.3990     0.2770    -0.4540 H     1 <1>   0.0800 
 25 H       -4.6690    -3.0970     1.8080 H     1 <1>   0.0800 
 26 H       -4.9200    -4.4560     0.7580 H     1 <1>   0.0800 
 27 H       -7.3830    -1.0560     0.1660 H     1 <1>   0.0800 
 28 H       -6.2160    -0.9790     1.4550 H     1 <1>   0.0800 
 29 H       -8.9840    -3.9520    -2.0030 H     1 <1>   0.1500 
 30 H       -8.7960    -2.5090     1.9910 H     1 <1>   0.1500 
 31 H      -11.3170    -3.1930    -2.1700 H     1 <1>   0.1500 
 32 H      -11.1250    -1.7460     1.8310 H     1 <1>   0.1500 
 33 H      -12.3890    -2.0830    -0.2530 H     1 <1>   0.1500 
@<TRIPOS>BOND
  1   1   2  1   
  2   2   3  1   
  3   2  19  1   
  4   2  20  1   
  5   3   4  2   
  6   3   5  am  
  7   5   6  1   
  8   5   7  1   
  9   6   8  1   
 10   6  21  1   
 11   6  22  1   
 12   7   9  1   
 13   7  23  1   
 14   7  24  1   
 15   8  10  1   
 16   8  25  1   
 17   8  26  1   
 18   9  10  1   
 19   9  27  1   
 20   9  28  1   
 21  10  11  am  
 22  11  12  2   
 23  11  13  1   
 24  13  14  ar  
 25  13  15  ar  
 26  14  16  ar  
 27  14  29  1   
 28  15  17  ar  
 29  15  30  1   
 30  16  18  ar  
 31  16  31  1   
 32  17  18  ar  
 33  17  32  1   
 34  18  33  1   
@<TRIPOS>SUBSTRUCTURE
  1 ****  10 GROUP 4 **** **** 0

# MOE 2024.06 (io_trps.svl 2023.06)
