@<TRIPOS>MOLECULE
NONAME
41 44 1 0 0 
SMALL
USER_CHARGES


@<TRIPOS>ATOM
  1 CL      -0.2090    -0.0570    -0.2460 Cl    1 <1>  -0.1770 
  2 C       -1.8730    -0.5760    -0.1700 C.ar  1 <1>   0.1770 
  3 C       -2.8470     0.3160     0.2350 C.ar  1 <1>  -0.1500 
  4 C       -2.1980    -1.8730    -0.5180 C.ar  1 <1>  -0.1500 
  5 C       -4.1640    -0.1030     0.2930 C.ar  1 <1>  -0.1500 
  6 C       -3.5200    -2.2800    -0.4560 C.ar  1 <1>  -0.1500 
  7 C       -4.5310    -1.4070    -0.0460 C.ar  1 <1>   0.0540 
  8 C       -5.9160    -1.8320     0.0250 C.2   1 <1>   0.2350 
  9 N       -6.9400    -1.0300    -0.1440 N.2   1 <1>  -0.7070 
 10 C       -6.3420    -3.1380     0.2770 C.2   1 <1>  -0.1500 
 11 N       -8.0590    -1.8000    -0.0010 N.pl3 1 <1>   0.5610 
 12 C       -7.6880    -3.1010     0.2420 C.2   1 <1>  -0.0680 
 13 C       -9.4060    -1.4420    -0.1650 C.cat 1 <1>   0.3950 
 14 N       -8.6580    -4.0910     0.3750 N.pl3 1 <1>  -0.5840 
 15 N       -9.7810    -0.1570    -0.4380 N.pl3 1 <1>  -0.0920 
 16 C      -10.3350    -2.4970    -0.0410 C.2   1 <1>  -0.1360 
 17 C       -9.9580    -3.7910     0.2280 C.2   1 <1>  -0.0380 
 18 C      -11.0370     0.1950    -1.1820 C.3   1 <1>   0.1860 
 19 C       -8.9770     1.0680    -0.0890 C.3   1 <1>   0.1860 
 20 C      -10.9540    -4.9260     0.3750 C.3   1 <1>  -0.1020 
 21 C      -11.8140     1.2990    -0.4580 C.3   1 <1>   0.1200 
 22 C       -9.8620     2.1630     0.5270 C.3   1 <1>   0.1200 
 23 O      -10.9740     2.3940    -0.2800 O.3   1 <1>  -0.5600 
 24 H       -2.5710     1.3220     0.4990 H     1 <1>   0.1500 
 25 H       -1.4240    -2.5480    -0.8340 H     1 <1>   0.1500 
 26 H       -4.9240     0.5900     0.6080 H     1 <1>   0.1500 
 27 H       -3.7640    -3.2890    -0.7370 H     1 <1>   0.1500 
 28 H       -5.7070    -3.9860     0.4550 H     1 <1>   0.1500 
 29 H       -8.3540    -5.0570     0.5750 H     1 <1>   0.4000 
 30 H      -11.3860    -2.3040    -0.1320 H     1 <1>   0.1500 
 31 H      -11.6740    -0.6550    -1.3280 H     1 <1>   0.0800 
 32 H      -10.7670     0.5590    -2.1590 H     1 <1>   0.0800 
 33 H       -8.4960     1.4470    -0.9740 H     1 <1>   0.0800 
 34 H       -8.2190     0.8410     0.6370 H     1 <1>   0.0800 
 35 H      -10.7560    -5.6870    -0.3600 H     1 <1>   0.0800 
 36 H      -11.9630    -4.5800     0.2410 H     1 <1>   0.0800 
 37 H      -10.8720    -5.3630     1.3540 H     1 <1>   0.0800 
 38 H      -12.1800     0.9730     0.5020 H     1 <1>   0.0800 
 39 H      -12.6500     1.6240    -1.0540 H     1 <1>   0.0800 
 40 H       -9.3130     3.0870     0.6020 H     1 <1>   0.0800 
 41 H      -10.1990     1.8870     1.5120 H     1 <1>   0.0800 
@<TRIPOS>BOND
  1   1   2  1   
  2   2   3  ar  
  3   2   4  ar  
  4   3   5  ar  
  5   3  24  1   
  6   4   6  ar  
  7   4  25  1   
  8   5   7  ar  
  9   5  26  1   
 10   6   7  ar  
 11   6  27  1   
 12   7   8  1   
 13   8   9  2   
 14   8  10  1   
 15   9  11  1   
 16  10  12  2   
 17  10  28  1   
 18  11  12  1   
 19  11  13  ar  
 20  12  14  1   
 21  13  15  ar  
 22  13  16  1   
 23  14  17  1   
 24  14  29  1   
 25  15  18  1   
 26  15  19  1   
 27  16  17  2   
 28  16  30  1   
 29  17  20  1   
 30  18  21  1   
 31  18  31  1   
 32  18  32  1   
 33  19  22  1   
 34  19  33  1   
 35  19  34  1   
 36  20  35  1   
 37  20  36  1   
 38  20  37  1   
 39  21  23  1   
 40  21  38  1   
 41  21  39  1   
 42  22  23  1   
 43  22  40  1   
 44  22  41  1   
@<TRIPOS>SUBSTRUCTURE
  1 ****   9 GROUP 4 **** **** 0

# MOE 2024.06 (io_trps.svl 2023.06)
