@<TRIPOS>MOLECULE
NONAME
34 36 1 0 0 
SMALL
USER_CHARGES


@<TRIPOS>ATOM
  1 O       -0.1430     0.3100     0.0240 O.2   1 <1>  -0.5700 
  2 C       -0.4870     1.4450    -0.1930 C.2   1 <1>   0.5690 
  3 N        0.3190     2.5540    -0.1940 N.am  1 <1>  -0.2370 
  4 C       -1.9240     1.7970    -0.5140 C.3   1 <1>  -0.0190 
  5 C        1.7090     2.5500     0.0620 C.ar  1 <1>   0.1170 
  6 C       -0.4190     3.6680    -0.4990 C.2   1 <1>   0.5690 
  7 C       -1.8760     3.3270    -0.7350 C.3   1 <1>  -0.0190 
  8 C       -2.9000     1.2940     0.5660 C.3   1 <1>  -0.0220 
  9 C        2.5510     1.6500    -0.5810 C.ar  1 <1>  -0.1500 
 10 C        2.2690     3.4530     0.9630 C.ar  1 <1>  -0.1500 
 11 O       -0.0070     4.7970    -0.5840 O.2   1 <1>  -0.5700 
 12 C       -2.8220     4.1710     0.1400 C.3   1 <1>  -0.0220 
 13 C       -4.1730     2.1230     0.5770 C.2   1 <1>  -0.2760 
 14 C        3.9100     1.6590    -0.3290 C.ar  1 <1>   0.0820 
 15 C        3.6300     3.4590     1.2170 C.ar  1 <1>  -0.1500 
 16 C       -4.1280     3.4410     0.3810 C.2   1 <1>  -0.2880 
 17 C       -5.4500     1.3500     0.8560 C.3   1 <1>  -0.1020 
 18 O        4.6990     0.7820    -0.9680 O.3   1 <1>  -0.5320 
 19 C        4.4580     2.5590     0.5690 C.ar  1 <1>  -0.1500 
 20 H       -2.1840     1.3270    -1.4460 H     1 <1>   0.0800 
 21 H       -2.1030     3.5280    -1.7660 H     1 <1>   0.0800 
 22 H       -2.4480     1.3560     1.5410 H     1 <1>   0.0800 
 23 H       -3.1200     0.2570     0.3750 H     1 <1>   0.0800 
 24 H        2.1550     0.9340    -1.2770 H     1 <1>   0.1500 
 25 H        1.6360     4.1620     1.4680 H     1 <1>   0.1500 
 26 H       -3.0070     5.1110    -0.3500 H     1 <1>   0.0800 
 27 H       -2.3690     4.3820     1.0940 H     1 <1>   0.0800 
 28 H        4.0430     4.1660     1.9160 H     1 <1>   0.1500 
 29 H       -4.9930     4.0840     0.4020 H     1 <1>   0.1500 
 30 H       -5.3850     0.8600     1.8110 H     1 <1>   0.0800 
 31 H       -5.6110     0.6090     0.0940 H     1 <1>   0.0800 
 32 H       -6.2970     2.0130     0.8710 H     1 <1>   0.0800 
 33 H        5.6360     0.8540    -0.7150 H     1 <1>   0.4500 
 34 H        5.5150     2.5650     0.7650 H     1 <1>   0.1500 
@<TRIPOS>BOND
  1   1   2  2   
  2   2   3  am  
  3   2   4  1   
  4   3   5  1   
  5   3   6  am  
  6   4   7  1   
  7   4   8  1   
  8   4  20  1   
  9   5   9  ar  
 10   5  10  ar  
 11   6   7  1   
 12   6  11  2   
 13   7  12  1   
 14   7  21  1   
 15   8  13  1   
 16   8  22  1   
 17   8  23  1   
 18   9  14  ar  
 19   9  24  1   
 20  10  15  ar  
 21  10  25  1   
 22  12  16  1   
 23  12  26  1   
 24  12  27  1   
 25  13  16  2   
 26  13  17  1   
 27  14  18  1   
 28  14  19  ar  
 29  15  19  ar  
 30  15  28  1   
 31  16  29  1   
 32  17  30  1   
 33  17  31  1   
 34  17  32  1   
 35  18  33  1   
 36  19  34  1   
@<TRIPOS>SUBSTRUCTURE
  1 ****   3 GROUP 4 **** **** 0

# MOE 2024.06 (io_trps.svl 2023.06)
