@<TRIPOS>MOLECULE
1-(1-Phenyl-1H-tetrazol-5-yl)-piperidine-4-carboxylic acid cyclopentylamide
49 52 1 0 0 
SMALL
USER_CHARGES


@<TRIPOS>ATOM
  1 O        0.3420    -2.5090    -2.6340 O.2   1 <1>  -0.5700 
  2 C       -0.3870    -2.3790    -1.6810 C.2   1 <1>   0.5690 
  3 N        0.0470    -1.8640    -0.5040 N.am  1 <1>  -0.7300 
  4 C       -1.8460    -2.8040    -1.8030 C.3   1 <1>  -0.0190 
  5 C        1.4110    -1.3940    -0.2210 C.3   1 <1>   0.2200 
  6 C       -2.8030    -1.6120    -1.5960 C.3   1 <1>  -0.1600 
  7 C       -2.1860    -3.9550    -0.8340 C.3   1 <1>  -0.1600 
  8 C        1.9270    -2.1150     1.0170 C.3   1 <1>  -0.1600 
  9 C        1.3400     0.0610     0.2250 C.3   1 <1>  -0.1600 
 10 C       -4.2660    -2.0510    -1.6610 C.3   1 <1>   0.2090 
 11 C       -3.6640    -4.3410    -0.9110 C.3   1 <1>   0.2090 
 12 C        1.3260    -1.3710     2.2160 C.3   1 <1>  -0.1600 
 13 C        0.9420     0.0240     1.7050 C.3   1 <1>  -0.1600 
 14 N       -4.4860    -3.1280    -0.6600 N.pl3 1 <1>  -0.8220 
 15 C       -5.7880    -3.3060    -0.1560 C.2   1 <1>   0.2710 
 16 N       -6.4650    -4.3920    -0.2910 N.2   1 <1>  -0.3380 
 17 N       -6.5260    -2.4030     0.5240 N.pl3 1 <1>   0.5930 
 18 N       -7.6400    -4.1670     0.2880 N.2   1 <1>   0.0000 
 19 N       -7.6980    -2.9860     0.7760 N.2   1 <1>  -0.4180 
 20 C       -6.1920    -1.0830     0.9480 C.ar  1 <1>  -0.0230 
 21 C       -4.9360    -0.7990     1.4820 C.ar  1 <1>  -0.1500 
 22 C       -7.1150    -0.0470     0.8350 C.ar  1 <1>  -0.1500 
 23 C       -4.6100     0.4850     1.8800 C.ar  1 <1>  -0.1500 
 24 C       -6.7890     1.2370     1.2340 C.ar  1 <1>  -0.1500 
 25 C       -5.5360     1.5050     1.7550 C.ar  1 <1>  -0.1500 
 26 H       -0.5980    -1.7740     0.2790 H     1 <1>   0.3700 
 27 H       -1.9880    -3.1680    -2.8060 H     1 <1>   0.0800 
 28 H        2.0500    -1.5330    -1.0780 H     1 <1>   0.0800 
 29 H       -2.6210    -0.8710    -2.3540 H     1 <1>   0.0800 
 30 H       -2.6290    -1.1520    -0.6400 H     1 <1>   0.0800 
 31 H       -1.9630    -3.6700     0.1780 H     1 <1>   0.0800 
 32 H       -1.5830    -4.8140    -1.0720 H     1 <1>   0.0800 
 33 H        2.9980    -2.0130     1.0450 H     1 <1>   0.0800 
 34 H        1.6840    -3.1630     1.0090 H     1 <1>   0.0800 
 35 H        0.6610     0.6390    -0.3780 H     1 <1>   0.0800 
 36 H        2.3230     0.4890     0.1380 H     1 <1>   0.0800 
 37 H       -4.4960    -2.4260    -2.6450 H     1 <1>   0.0800 
 38 H       -4.9080    -1.2100    -1.4620 H     1 <1>   0.0800 
 39 H       -3.8830    -5.0930    -0.1720 H     1 <1>   0.0800 
 40 H       -3.8990    -4.7410    -1.8830 H     1 <1>   0.0800 
 41 H        2.0360    -1.3130     3.0240 H     1 <1>   0.0800 
 42 H        0.4470    -1.8860     2.5640 H     1 <1>   0.0800 
 43 H       -0.1200     0.1680     1.8030 H     1 <1>   0.0800 
 44 H        1.4480     0.7980     2.2570 H     1 <1>   0.0800 
 45 H       -4.2090    -1.5870     1.5860 H     1 <1>   0.1500 
 46 H       -8.0960    -0.2450     0.4360 H     1 <1>   0.1500 
 47 H       -3.6360     0.6920     2.2900 H     1 <1>   0.1500 
 48 H       -7.5120     2.0300     1.1410 H     1 <1>   0.1500 
 49 H       -5.2830     2.5040     2.0650 H     1 <1>   0.1500 
@<TRIPOS>BOND
  1   1   2  2   
  2   2   3  am  
  3   2   4  1   
  4   3   5  1   
  5   3  26  1   
  6   4   6  1   
  7   4   7  1   
  8   4  27  1   
  9   5   8  1   
 10   5   9  1   
 11   5  28  1   
 12   6  10  1   
 13   6  29  1   
 14   6  30  1   
 15   7  11  1   
 16   7  31  1   
 17   7  32  1   
 18   8  12  1   
 19   8  33  1   
 20   8  34  1   
 21   9  13  1   
 22   9  35  1   
 23   9  36  1   
 24  10  14  1   
 25  10  37  1   
 26  10  38  1   
 27  11  14  1   
 28  11  39  1   
 29  11  40  1   
 30  12  13  1   
 31  12  41  1   
 32  12  42  1   
 33  13  43  1   
 34  13  44  1   
 35  14  15  1   
 36  15  16  2   
 37  15  17  1   
 38  16  18  1   
 39  17  19  1   
 40  17  20  1   
 41  18  19  2   
 42  20  21  ar  
 43  20  22  ar  
 44  21  23  ar  
 45  21  45  1   
 46  22  24  ar  
 47  22  46  1   
 48  23  25  ar  
 49  23  47  1   
 50  24  25  ar  
 51  24  48  1   
 52  25  49  1   
@<TRIPOS>SUBSTRUCTURE
  1 ****   6 GROUP 4 **** **** 0

# MOE 2024.06 (io_trps.svl 2023.06)
