@<TRIPOS>MOLECULE
3-(3-Fluoro-benzoylamino)-9-aza-bicyclo[3.3.1]nonane-9-carboxylic acid phenylamide
52 55 1 0 0 
SMALL
USER_CHARGES


@<TRIPOS>ATOM
  1 F       -0.3660     0.9280    -0.2130 F     1 <1>  -0.1900 
  2 C       -1.0250     2.0440    -0.0650 C.ar  1 <1>   0.1900 
  3 C       -2.3570     1.9880     0.2900 C.ar  1 <1>  -0.1500 
  4 C       -0.3620     3.2380    -0.2710 C.ar  1 <1>  -0.1500 
  5 C       -3.0850     3.1670     0.4490 C.ar  1 <1>   0.0860 
  6 C       -1.0680     4.4160    -0.1080 C.ar  1 <1>  -0.1500 
  7 C       -4.4910     3.1250     0.8100 C.2   1 <1>   0.5440 
  8 C       -2.4070     4.3760     0.2490 C.ar  1 <1>  -0.1500 
  9 O       -4.9280     2.2100     1.4790 O.2   1 <1>  -0.5700 
 10 N       -5.3470     4.1030     0.3850 N.am  1 <1>  -0.7300 
 11 C       -6.7930     4.1500     0.6740 C.3   1 <1>   0.2200 
 12 C       -7.5970     3.7240    -0.6060 C.3   1 <1>  -0.1600 
 13 C       -7.1610     5.5680     1.2740 C.3   1 <1>  -0.1600 
 14 C       -8.8070     4.6400    -0.6490 C.3   1 <1>   0.2200 
 15 C       -8.7040     5.8810     1.3160 C.3   1 <1>   0.2200 
 16 N       -9.3130     4.7030     0.7430 N.am  1 <1>  -0.6600 
 17 C       -9.8860     5.3040    -1.4880 C.3   1 <1>  -0.1600 
 18 C       -9.2530     7.0710     0.4360 C.3   1 <1>  -0.1600 
 19 C      -10.4480     4.1190     1.2450 C.2   1 <1>   0.6900 
 20 C      -10.2210     6.6630    -0.7600 C.3   1 <1>  -0.1600 
 21 O      -11.0750     4.6450     2.1420 O.2   1 <1>  -0.5700 
 22 N      -10.9280     2.9420     0.7650 N.am  1 <1>  -0.5470 
 23 C      -10.2050     1.7800     0.4940 C.ar  1 <1>   0.1170 
 24 C       -9.1670     1.3710     1.3240 C.ar  1 <1>  -0.1500 
 25 C      -10.5220     1.0080    -0.6160 C.ar  1 <1>  -0.1500 
 26 C       -8.4440     0.2280     1.0360 C.ar  1 <1>  -0.1500 
 27 C       -9.8060    -0.1400    -0.9020 C.ar  1 <1>  -0.1500 
 28 C       -8.7640    -0.5300    -0.0770 C.ar  1 <1>  -0.1500 
 29 H       -2.8320     1.0360     0.4440 H     1 <1>   0.1500 
 30 H        0.6770     3.2390    -0.5470 H     1 <1>   0.1500 
 31 H       -0.5740     5.3620    -0.2560 H     1 <1>   0.1500 
 32 H       -2.9350     5.3030     0.3840 H     1 <1>   0.1500 
 33 H       -5.0150     4.7960    -0.2830 H     1 <1>   0.3700 
 34 H       -7.0220     3.4260     1.4390 H     1 <1>   0.0800 
 35 H       -7.8860     2.6930    -0.5630 H     1 <1>   0.0800 
 36 H       -7.0110     3.8670    -1.4950 H     1 <1>   0.0800 
 37 H       -6.6640     6.3350     0.7110 H     1 <1>   0.0800 
 38 H       -6.7820     5.6180     2.2780 H     1 <1>   0.0800 
 39 H       -8.1520     5.4670    -0.8600 H     1 <1>   0.0800 
 40 H       -9.0250     5.9990     2.3380 H     1 <1>   0.0800 
 41 H      -10.7520     4.6710    -1.5690 H     1 <1>   0.0800 
 42 H       -9.5100     5.4920    -2.4780 H     1 <1>   0.0800 
 43 H       -8.4220     7.6220     0.0360 H     1 <1>   0.0800 
 44 H       -9.7780     7.7510     1.0830 H     1 <1>   0.0800 
 45 H      -11.2090     6.5620    -0.3430 H     1 <1>   0.0800 
 46 H      -10.2700     7.4630    -1.4780 H     1 <1>   0.0800 
 47 H      -11.8780     2.7890     1.0940 H     1 <1>   0.3700 
 48 H       -8.9180     1.9560     2.1910 H     1 <1>   0.1500 
 49 H      -11.3280     1.3150    -1.2580 H     1 <1>   0.1500 
 50 H       -7.6310    -0.0680     1.6770 H     1 <1>   0.1500 
 51 H      -10.0560    -0.7310    -1.7660 H     1 <1>   0.1500 
 52 H       -8.2010    -1.4200    -0.3000 H     1 <1>   0.1500 
@<TRIPOS>BOND
  1   1   2  1   
  2   2   3  ar  
  3   2   4  ar  
  4   3   5  ar  
  5   3  29  1   
  6   4   6  ar  
  7   4  30  1   
  8   5   7  1   
  9   5   8  ar  
 10   6   8  ar  
 11   6  31  1   
 12   7   9  2   
 13   7  10  am  
 14   8  32  1   
 15  10  11  1   
 16  10  33  1   
 17  11  12  1   
 18  11  13  1   
 19  11  34  1   
 20  12  14  1   
 21  12  35  1   
 22  12  36  1   
 23  13  15  1   
 24  13  37  1   
 25  13  38  1   
 26  14  16  1   
 27  14  17  1   
 28  14  39  1   
 29  15  16  1   
 30  15  18  1   
 31  15  40  1   
 32  16  19  am  
 33  17  20  1   
 34  17  41  1   
 35  17  42  1   
 36  18  20  1   
 37  18  43  1   
 38  18  44  1   
 39  19  21  2   
 40  19  22  am  
 41  20  45  1   
 42  20  46  1   
 43  22  23  1   
 44  22  47  1   
 45  23  24  ar  
 46  23  25  ar  
 47  24  26  ar  
 48  24  48  1   
 49  25  27  ar  
 50  25  49  1   
 51  26  28  ar  
 52  26  50  1   
 53  27  28  ar  
 54  27  51  1   
 55  28  52  1   
@<TRIPOS>SUBSTRUCTURE
  1 ****  11 GROUP 4 **** **** 0

# MOE 2024.06 (io_trps.svl 2023.06)
