@<TRIPOS>MOLECULE
4-(2,3-Dihydro-benzo[1,4]dioxine-6-carbonyl)-piperidine-1-carboxylic acid (2-trifluoromethyl-phenyl)-amide
52 55 1 0 0 
SMALL
USER_CHARGES


@<TRIPOS>ATOM
  1 F       -0.0960     0.6380     0.6970 F     1 <1>  -0.3400 
  2 C        0.9690     0.1480     1.3270 C.3   1 <1>   1.1640 
  3 F        1.6570     1.2050     1.7450 F     1 <1>  -0.3400 
  4 F        0.5090    -0.4450     2.4200 F     1 <1>  -0.3400 
  5 C        1.7870    -0.8030     0.4450 C.ar  1 <1>  -0.1440 
  6 C        1.1580    -1.8450    -0.2470 C.ar  1 <1>   0.1170 
  7 C        3.1670    -0.6470     0.3360 C.ar  1 <1>  -0.1500 
  8 N       -0.2340    -2.0340    -0.1890 N.am  1 <1>  -0.5470 
  9 C        1.9360    -2.6950    -1.0270 C.ar  1 <1>  -0.1500 
 10 C        3.9220    -1.5020    -0.4450 C.ar  1 <1>  -0.1500 
 11 C       -0.9790    -3.1780    -0.1910 C.2   1 <1>   0.6900 
 12 C        3.3030    -2.5300    -1.1290 C.ar  1 <1>  -0.1500 
 13 O       -0.4470    -4.2710    -0.1390 O.2   1 <1>  -0.5700 
 14 N       -2.3450    -3.0690    -0.2230 N.am  1 <1>  -0.6600 
 15 C       -3.2090    -4.1970     0.2190 C.3   1 <1>   0.1400 
 16 C       -3.0820    -1.9050    -0.7850 C.3   1 <1>   0.1400 
 17 C       -4.2140    -3.6890     1.2570 C.3   1 <1>  -0.1600 
 18 C       -4.0760    -1.3800     0.2530 C.3   1 <1>  -0.1600 
 19 C       -5.0310    -2.4940     0.7250 C.3   1 <1>  -0.0190 
 20 C       -6.0250    -1.9560     1.7640 C.2   1 <1>   0.4230 
 21 O       -5.6560    -1.8940     2.9100 O.2   1 <1>  -0.5700 
 22 C       -7.3550    -1.5460     1.3590 C.ar  1 <1>   0.0860 
 23 C       -7.6860    -1.2060     0.0420 C.ar  1 <1>  -0.1500 
 24 C       -8.3800    -1.4690     2.3090 C.ar  1 <1>  -0.1500 
 25 C       -8.9680    -0.8300    -0.3050 C.ar  1 <1>   0.0830 
 26 C       -9.6660    -1.0850     1.9740 C.ar  1 <1>  -0.1500 
 27 O       -9.2310    -0.5360    -1.6040 O.3   1 <1>  -0.3620 
 28 C       -9.9680    -0.7580     0.6650 C.ar  1 <1>   0.0830 
 29 C      -10.5940    -0.4790    -1.9850 C.3   1 <1>   0.1200 
 30 O      -11.2240    -0.3690     0.3520 O.3   1 <1>  -0.3630 
 31 C      -11.4210     0.2410    -0.9100 C.3   1 <1>   0.1200 
 32 H        3.6780     0.1430     0.8610 H     1 <1>   0.1500 
 33 H       -0.8040    -1.2160     0.0090 H     1 <1>   0.3700 
 34 H        1.4660    -3.5000    -1.5650 H     1 <1>   0.1500 
 35 H        4.9880    -1.3710    -0.5200 H     1 <1>   0.1500 
 36 H        3.8830    -3.2030    -1.7370 H     1 <1>   0.1500 
 37 H       -2.6130    -4.9810     0.6550 H     1 <1>   0.0800 
 38 H       -3.7230    -4.6030    -0.6350 H     1 <1>   0.0800 
 39 H       -3.6110    -2.2260    -1.6660 H     1 <1>   0.0800 
 40 H       -2.4080    -1.1190    -1.0790 H     1 <1>   0.0800 
 41 H       -3.6740    -3.4020     2.1430 H     1 <1>   0.0800 
 42 H       -4.8780    -4.4900     1.5290 H     1 <1>   0.0800 
 43 H       -4.6380    -0.5690    -0.1740 H     1 <1>   0.0800 
 44 H       -3.5320    -0.9900     1.0970 H     1 <1>   0.0800 
 45 H       -5.5830    -2.8570    -0.1230 H     1 <1>   0.0800 
 46 H       -6.9520    -1.2230    -0.7390 H     1 <1>   0.1500 
 47 H       -8.1570    -1.7150     3.3340 H     1 <1>   0.1500 
 48 H      -10.4370    -1.0320     2.7220 H     1 <1>   0.1500 
 49 H      -10.9480    -1.4860    -2.1140 H     1 <1>   0.0800 
 50 H      -10.6550     0.0390    -2.9240 H     1 <1>   0.0800 
 51 H      -12.4700     0.1970    -1.1390 H     1 <1>   0.0800 
 52 H      -11.1190     1.2710    -0.8340 H     1 <1>   0.0800 
@<TRIPOS>BOND
  1   1   2  1   
  2   2   3  1   
  3   2   4  1   
  4   2   5  1   
  5   5   6  ar  
  6   5   7  ar  
  7   6   8  1   
  8   6   9  ar  
  9   7  10  ar  
 10   7  32  1   
 11   8  11  am  
 12   8  33  1   
 13   9  12  ar  
 14   9  34  1   
 15  10  12  ar  
 16  10  35  1   
 17  11  13  2   
 18  11  14  am  
 19  12  36  1   
 20  14  15  1   
 21  14  16  1   
 22  15  17  1   
 23  15  37  1   
 24  15  38  1   
 25  16  18  1   
 26  16  39  1   
 27  16  40  1   
 28  17  19  1   
 29  17  41  1   
 30  17  42  1   
 31  18  19  1   
 32  18  43  1   
 33  18  44  1   
 34  19  20  1   
 35  19  45  1   
 36  20  21  2   
 37  20  22  1   
 38  22  23  ar  
 39  22  24  ar  
 40  23  25  ar  
 41  23  46  1   
 42  24  26  ar  
 43  24  47  1   
 44  25  27  1   
 45  25  28  ar  
 46  26  28  ar  
 47  26  48  1   
 48  27  29  1   
 49  28  30  1   
 50  29  31  1   
 51  29  49  1   
 52  29  50  1   
 53  30  31  1   
 54  31  51  1   
 55  31  52  1   
@<TRIPOS>SUBSTRUCTURE
  1 ****  18 GROUP 4 **** **** 0

# MOE 2024.06 (io_trps.svl 2023.06)
