@<TRIPOS>MOLECULE
10042
48 50 1 0 0 
SMALL
USER_CHARGES


@<TRIPOS>ATOM
  1 O       -1.3430    -1.3420     2.4760 O.2   1 <1>  -0.5700 
  2 C       -0.7650    -1.5810     1.4330 C.2   1 <1>   0.7060 
  3 O        0.5380    -1.3020     1.3310 O.3   1 <1>  -0.4300 
  4 C       -1.4430    -2.0970     0.2910 C.2   1 <1>  -0.1240 
  5 C        1.2400    -0.5830     2.3250 C.3   1 <1>   0.1200 
  6 C       -0.9880    -2.9870    -0.6420 C.2   1 <1>  -0.0380 
  7 C       -2.8490    -1.4870     0.1650 C.3   1 <1>   0.4570 
  8 C        0.9840     0.9100     2.1220 C.3   1 <1>  -0.2400 
  9 N       -1.7830    -3.3760    -1.6970 N.pl3 1 <1>  -0.5840 
 10 C        0.3780    -3.6540    -0.6300 C.3   1 <1>  -0.1020 
 11 N       -3.6280    -2.1230    -0.9260 N.pl3 1 <1>   0.3140 
 12 C       -2.7130     0.0160    -0.0990 C.ar  1 <1>  -0.1440 
 13 C       -3.1060    -2.9690    -1.7900 C.2   1 <1>   0.2700 
 14 N       -4.8960    -1.9420    -1.2530 N.2   1 <1>  -0.4180 
 15 C       -3.0140     0.9260     0.9040 C.ar  1 <1>  -0.1500 
 16 C       -2.2660     0.4890    -1.3250 C.ar  1 <1>  -0.1500 
 17 N       -3.9860    -3.3210    -2.6500 N.2   1 <1>  -0.3380 
 18 N       -5.0960    -2.6700    -2.2950 N.2   1 <1>   0.0000 
 19 C       -2.8740     2.2890     0.7000 C.ar  1 <1>   0.0830 
 20 C       -2.1200     1.8530    -1.5530 C.ar  1 <1>   0.0830 
 21 O       -3.2030     3.0820     1.7550 O.3   1 <1>  -0.3630 
 22 C       -2.4040     2.7600    -0.5310 C.ar  1 <1>   0.0830 
 23 O       -1.6960     2.3300    -2.7580 O.3   1 <1>  -0.3630 
 24 C       -3.9700     4.2450     1.5280 C.3   1 <1>   0.0400 
 25 O       -2.2150     4.0910    -0.7420 O.3   1 <1>  -0.3630 
 26 C       -2.0060     1.6300    -3.9430 C.3   1 <1>   0.0400 
 27 C       -0.8810     4.5320    -0.6360 C.3   1 <1>   0.0400 
 28 H        2.2870    -0.8020     2.2060 H     1 <1>   0.0800 
 29 H        0.9220    -0.9120     3.3000 H     1 <1>   0.0800 
 30 H       -3.3980    -1.6500     1.0740 H     1 <1>   0.0800 
 31 H        1.2870     1.2110     1.1350 H     1 <1>   0.0800 
 32 H        1.5500     1.4750     2.8410 H     1 <1>   0.0800 
 33 H       -0.0590     1.1370     2.2620 H     1 <1>   0.0800 
 34 H       -1.4630    -4.0500    -2.4020 H     1 <1>   0.4000 
 35 H        0.2750    -4.7090    -0.8120 H     1 <1>   0.0800 
 36 H        0.8760    -3.5390     0.3140 H     1 <1>   0.0800 
 37 H        0.9980    -3.2300    -1.3990 H     1 <1>   0.0800 
 38 H       -3.3560     0.5920     1.8680 H     1 <1>   0.1500 
 39 H       -2.0190    -0.2100    -2.1030 H     1 <1>   0.1500 
 40 H       -4.4800     4.4940     2.4410 H     1 <1>   0.0800 
 41 H       -4.6830     4.0510     0.7460 H     1 <1>   0.0800 
 42 H       -3.3120     5.0480     1.2500 H     1 <1>   0.0800 
 43 H       -1.8130     2.2830    -4.7750 H     1 <1>   0.0800 
 44 H       -3.0460     1.3550    -3.9280 H     1 <1>   0.0800 
 45 H       -1.3790     0.7590    -4.0120 H     1 <1>   0.0800 
 46 H       -0.8650     5.5950    -0.7880 H     1 <1>   0.0800 
 47 H       -0.2890     4.0430    -1.3890 H     1 <1>   0.0800 
 48 H       -0.5150     4.2910     0.3470 H     1 <1>   0.0800 
@<TRIPOS>BOND
  1   1   2  2   
  2   2   3  1   
  3   2   4  1   
  4   3   5  1   
  5   4   6  2   
  6   4   7  1   
  7   5   8  1   
  8   5  28  1   
  9   5  29  1   
 10   6   9  1   
 11   6  10  1   
 12   7  11  1   
 13   7  12  1   
 14   7  30  1   
 15   8  31  1   
 16   8  32  1   
 17   8  33  1   
 18   9  13  1   
 19   9  34  1   
 20  10  35  1   
 21  10  36  1   
 22  10  37  1   
 23  11  13  1   
 24  11  14  1   
 25  12  15  ar  
 26  12  16  ar  
 27  13  17  2   
 28  14  18  2   
 29  15  19  ar  
 30  15  38  1   
 31  16  20  ar  
 32  16  39  1   
 33  17  18  1   
 34  19  21  1   
 35  19  22  ar  
 36  20  22  ar  
 37  20  23  1   
 38  21  24  1   
 39  22  25  1   
 40  23  26  1   
 41  24  40  1   
 42  24  41  1   
 43  24  42  1   
 44  25  27  1   
 45  26  43  1   
 46  26  44  1   
 47  26  45  1   
 48  27  46  1   
 49  27  47  1   
 50  27  48  1   
@<TRIPOS>SUBSTRUCTURE
  1 ****  12 GROUP 4 **** **** 0

# MOE 2024.06 (io_trps.svl 2023.06)
