@<TRIPOS>MOLECULE
4-(4-Methoxy-benzoyl)-piperidine-1-carboxylic acid p-tolylamide
50 52 1 0 0 
SMALL
USER_CHARGES


@<TRIPOS>ATOM
  1 O       -0.1900    -0.5080     1.8100 O.2   1 <1>  -0.5700 
  2 C        0.1930    -1.3120     0.9820 C.2   1 <1>   0.6900 
  3 N        1.5230    -1.6350     0.8970 N.am  1 <1>  -0.6600 
  4 N       -0.6730    -1.8890     0.0980 N.am  1 <1>  -0.5470 
  5 C        2.0280    -2.9500     0.4210 C.3   1 <1>   0.1400 
  6 C        2.5600    -0.7380     1.4710 C.3   1 <1>   0.1400 
  7 C       -2.0720    -1.8750     0.0170 C.ar  1 <1>   0.1170 
  8 C        3.1140    -2.7240    -0.6330 C.3   1 <1>  -0.1600 
  9 C        3.6630    -0.5060     0.4330 C.3   1 <1>  -0.1600 
 10 C       -2.8890    -1.6310     1.1160 C.ar  1 <1>  -0.1500 
 11 C       -2.6760    -2.1370    -1.2060 C.ar  1 <1>  -0.1500 
 12 C        4.2500    -1.8310    -0.0900 C.3   1 <1>  -0.0190 
 13 C       -4.2670    -1.6440     0.9930 C.ar  1 <1>  -0.1500 
 14 C       -4.0540    -2.1520    -1.3320 C.ar  1 <1>  -0.1500 
 15 C        5.3380    -1.5720    -1.1410 C.2   1 <1>   0.4230 
 16 C       -4.8590    -1.9040    -0.2320 C.ar  1 <1>  -0.1430 
 17 O        4.9810    -1.4160    -2.2830 O.2   1 <1>  -0.5700 
 18 C        6.7360    -1.5310    -0.7590 C.ar  1 <1>   0.0860 
 19 C       -6.3710    -1.9190    -0.3640 C.3   1 <1>  -0.0970 
 20 C        7.7270    -1.6930    -1.7320 C.ar  1 <1>  -0.1500 
 21 C        7.1760    -1.3300     0.5550 C.ar  1 <1>  -0.1500 
 22 C        9.0740    -1.6710    -1.4220 C.ar  1 <1>  -0.1500 
 23 C        8.5200    -1.3080     0.8740 C.ar  1 <1>  -0.1500 
 24 C        9.4820    -1.4800    -0.1070 C.ar  1 <1>   0.0830 
 25 O       10.7730    -1.4480     0.2860 O.3   1 <1>  -0.3630 
 26 C       11.8340    -1.6040    -0.6290 C.3   1 <1>   0.0400 
 27 H       -0.1920    -2.2800    -0.7030 H     1 <1>   0.3700 
 28 H        1.2330    -3.5470     0.0090 H     1 <1>   0.0800 
 29 H        2.4400    -3.4860     1.2590 H     1 <1>   0.0800 
 30 H        2.9670    -1.1930     2.3570 H     1 <1>   0.0800 
 31 H        2.1260     0.2080     1.7490 H     1 <1>   0.0800 
 32 H        2.6670    -2.2660    -1.4980 H     1 <1>   0.0800 
 33 H        3.5170    -3.6730    -0.9400 H     1 <1>   0.0800 
 34 H        4.4380     0.0950     0.8740 H     1 <1>   0.0800 
 35 H        3.2500     0.0540    -0.3890 H     1 <1>   0.0800 
 36 H       -2.4490    -1.4310     2.0750 H     1 <1>   0.1500 
 37 H       -2.0680    -2.3280    -2.0700 H     1 <1>   0.1500 
 38 H        4.6890    -2.3620     0.7350 H     1 <1>   0.0800 
 39 H       -4.8750    -1.4510     1.8590 H     1 <1>   0.1500 
 40 H       -4.4990    -2.3570    -2.2900 H     1 <1>   0.1500 
 41 H       -6.8130    -1.2220     0.3240 H     1 <1>   0.0800 
 42 H       -6.7440    -2.9040    -0.1510 H     1 <1>   0.0800 
 43 H       -6.6640    -1.6430    -1.3610 H     1 <1>   0.0800 
 44 H        7.4280    -1.8390    -2.7560 H     1 <1>   0.1500 
 45 H        6.4710    -1.1780     1.3510 H     1 <1>   0.1500 
 46 H        9.7890    -1.8030    -2.2120 H     1 <1>   0.1500 
 47 H        8.8410    -1.1540     1.8890 H     1 <1>   0.1500 
 48 H       12.7590    -1.5400    -0.0840 H     1 <1>   0.0800 
 49 H       11.7850    -0.8150    -1.3580 H     1 <1>   0.0800 
 50 H       11.7520    -2.5680    -1.0980 H     1 <1>   0.0800 
@<TRIPOS>BOND
  1   1   2  2   
  2   2   3  am  
  3   2   4  am  
  4   3   5  1   
  5   3   6  1   
  6   4   7  1   
  7   4  27  1   
  8   5   8  1   
  9   5  28  1   
 10   5  29  1   
 11   6   9  1   
 12   6  30  1   
 13   6  31  1   
 14   7  10  ar  
 15   7  11  ar  
 16   8  12  1   
 17   8  32  1   
 18   8  33  1   
 19   9  12  1   
 20   9  34  1   
 21   9  35  1   
 22  10  13  ar  
 23  10  36  1   
 24  11  14  ar  
 25  11  37  1   
 26  12  15  1   
 27  12  38  1   
 28  13  16  ar  
 29  13  39  1   
 30  14  16  ar  
 31  14  40  1   
 32  15  17  2   
 33  15  18  1   
 34  16  19  1   
 35  18  20  ar  
 36  18  21  ar  
 37  19  41  1   
 38  19  42  1   
 39  19  43  1   
 40  20  22  ar  
 41  20  44  1   
 42  21  23  ar  
 43  21  45  1   
 44  22  24  ar  
 45  22  46  1   
 46  23  24  ar  
 47  23  47  1   
 48  24  25  1   
 49  25  26  1   
 50  26  48  1   
 51  26  49  1   
 52  26  50  1   
@<TRIPOS>SUBSTRUCTURE
  1 ****   8 GROUP 4 **** **** 0

# MOE 2024.06 (io_trps.svl 2023.06)
