@<TRIPOS>MOLECULE
NONAME
54 57 1 0 0 
SMALL
USER_CHARGES


@<TRIPOS>ATOM
  1 O        0.6000     0.0560     0.6130 O.2   1 <1>  -0.5700 
  2 C        1.3850     0.8560     0.1390 C.2   1 <1>   0.6900 
  3 N        2.4410     0.4420    -0.6300 N.am  1 <1>  -0.6600 
  4 N        1.2050     2.1740     0.3700 N.am  1 <1>  -0.7300 
  5 C        3.6250     1.2890    -0.9590 C.3   1 <1>   0.1400 
  6 C        2.5780    -0.9770    -1.0580 C.3   1 <1>   0.1400 
  7 C        0.0210     2.7330     1.0350 C.3   1 <1>   0.2840 
  8 C        4.8720     0.7110    -0.2750 C.3   1 <1>  -0.0190 
  9 C        3.8230    -1.5940    -0.4100 C.3   1 <1>  -0.1600 
 10 C       -0.0600     4.2040     0.6730 C.ar  1 <1>  -0.1440 
 11 C        6.0970     1.5600    -0.5850 C.2   1 <1>   0.5690 
 12 C        5.0860    -0.7600    -0.6860 C.3   1 <1>  -0.1600 
 13 C       -0.7380     4.6050    -0.4680 C.ar  1 <1>  -0.1500 
 14 C        0.5520     5.1580     1.4720 C.ar  1 <1>  -0.1500 
 15 O        6.1930     2.0740    -1.6730 O.2   1 <1>  -0.5700 
 16 N        7.0430     1.6840     0.3940 N.am  1 <1>  -0.5470 
 17 C       -0.8070     5.9460    -0.8050 C.ar  1 <1>  -0.1500 
 18 C        0.4830     6.4990     1.1370 C.ar  1 <1>  -0.1500 
 19 C        8.2320     2.4330     0.4270 C.ar  1 <1>   0.1170 
 20 C       -0.1970     6.8940    -0.0020 C.ar  1 <1>  -0.1500 
 21 C        8.4150     3.5860    -0.3310 C.ar  1 <1>  -0.1500 
 22 C        9.2590     2.0150     1.2680 C.ar  1 <1>  -0.1500 
 23 C        9.5970     4.3010    -0.2500 C.ar  1 <1>   0.0820 
 24 C       10.4430     2.7270     1.3570 C.ar  1 <1>  -0.1500 
 25 O        9.7440     5.4150    -1.0130 O.3   1 <1>  -0.3620 
 26 C       10.6150     3.8740     0.6040 C.ar  1 <1>   0.0820 
 27 C       11.0570     5.9210    -1.1560 C.3   1 <1>   0.1200 
 28 O       11.7790     4.5680     0.7190 O.3   1 <1>  -0.3630 
 29 C       11.7890     5.8820     0.1930 C.3   1 <1>   0.1200 
 30 H        1.6920     2.8340    -0.2290 H     1 <1>   0.3700 
 31 H        3.4830     2.3040    -0.6360 H     1 <1>   0.0800 
 32 H        3.7610     1.2980    -2.0280 H     1 <1>   0.0800 
 33 H        2.6680    -1.0100    -2.1300 H     1 <1>   0.0800 
 34 H        1.7050    -1.5460    -0.7830 H     1 <1>   0.0800 
 35 H        0.1150     2.6060     2.1000 H     1 <1>   0.0800 
 36 H       -0.8630     2.2130     0.7050 H     1 <1>   0.0800 
 37 H        4.7000     0.7530     0.7850 H     1 <1>   0.0800 
 38 H        3.9590    -2.5920    -0.7850 H     1 <1>   0.0800 
 39 H        3.6550    -1.6640     0.6510 H     1 <1>   0.0800 
 40 H        5.9190    -1.1770    -0.1480 H     1 <1>   0.0800 
 41 H        5.3160    -0.8020    -1.7380 H     1 <1>   0.0800 
 42 H       -1.2130     3.8740    -1.0990 H     1 <1>   0.1500 
 43 H        1.0850     4.8590     2.3580 H     1 <1>   0.1500 
 44 H        6.8820     1.1190     1.2250 H     1 <1>   0.3700 
 45 H       -1.3360     6.2520    -1.6910 H     1 <1>   0.1500 
 46 H        0.9590     7.2360     1.7610 H     1 <1>   0.1500 
 47 H       -0.2510     7.9360    -0.2630 H     1 <1>   0.1500 
 48 H        7.6440     3.9390    -0.9880 H     1 <1>   0.1500 
 49 H        9.1380     1.1250     1.8570 H     1 <1>   0.1500 
 50 H       11.2350     2.4020     2.0070 H     1 <1>   0.1500 
 51 H       10.9850     6.9280    -1.5240 H     1 <1>   0.0800 
 52 H       11.5720     5.3150    -1.8800 H     1 <1>   0.0800 
 53 H       11.3030     6.5290     0.9010 H     1 <1>   0.0800 
 54 H       12.8140     6.1860     0.0810 H     1 <1>   0.0800 
@<TRIPOS>BOND
  1   1   2  2   
  2   2   3  am  
  3   2   4  am  
  4   3   5  1   
  5   3   6  1   
  6   4   7  1   
  7   4  30  1   
  8   5   8  1   
  9   5  31  1   
 10   5  32  1   
 11   6   9  1   
 12   6  33  1   
 13   6  34  1   
 14   7  10  1   
 15   7  35  1   
 16   7  36  1   
 17   8  11  1   
 18   8  12  1   
 19   8  37  1   
 20   9  12  1   
 21   9  38  1   
 22   9  39  1   
 23  10  13  ar  
 24  10  14  ar  
 25  11  15  2   
 26  11  16  am  
 27  12  40  1   
 28  12  41  1   
 29  13  17  ar  
 30  13  42  1   
 31  14  18  ar  
 32  14  43  1   
 33  16  19  1   
 34  16  44  1   
 35  17  20  ar  
 36  17  45  1   
 37  18  20  ar  
 38  18  46  1   
 39  19  21  ar  
 40  19  22  ar  
 41  20  47  1   
 42  21  23  ar  
 43  21  48  1   
 44  22  24  ar  
 45  22  49  1   
 46  23  25  1   
 47  23  26  ar  
 48  24  26  ar  
 49  24  50  1   
 50  25  27  1   
 51  26  28  1   
 52  27  29  1   
 53  27  51  1   
 54  27  52  1   
 55  28  29  1   
 56  29  53  1   
 57  29  54  1   
@<TRIPOS>SUBSTRUCTURE
  1 ****  11 GROUP 4 **** **** 0

# MOE 2024.06 (io_trps.svl 2023.06)
