@<TRIPOS>MOLECULE
NONAME
37 38 1 0 0 
SMALL
USER_CHARGES


@<TRIPOS>ATOM
  1 O        0.5770    -1.1160    -2.4720 O.2   1 <1>  -0.5700 
  2 C        1.1460    -0.5800    -1.5520 C.2   1 <1>   0.5690 
  3 N        0.8890    -0.8880    -0.2480 N.am  1 <1>  -0.7300 
  4 C        2.1990     0.4600    -1.9020 C.3   1 <1>   0.1570 
  5 C       -0.0840    -1.8540     0.2990 C.3   1 <1>   0.2200 
  6 N        2.5770     1.3010    -0.7440 N.pl3 1 <1>   0.0480 
  7 C        0.2600    -3.2730    -0.1800 C.3   1 <1>  -0.1600 
  8 C       -1.4990    -1.4090    -0.0690 C.3   1 <1>  -0.2400 
  9 C        3.3740     0.9170     0.3100 C.ar  1 <1>  -0.1520 
 10 C        2.1740     2.5720    -0.5120 C.2   1 <1>  -0.3020 
 11 C       -0.5300    -4.3660     0.5550 C.3   1 <1>  -0.2400 
 12 C        3.4580     1.9770     1.2060 C.ar  1 <1>   0.0000 
 13 C        4.0320    -0.2900     0.5630 C.ar  1 <1>  -0.1500 
 14 C        2.6860     3.0420     0.6670 C.2   1 <1>  -0.0860 
 15 C        4.2100     1.8300     2.3760 C.ar  1 <1>  -0.1500 
 16 C        4.7660    -0.4200     1.7180 C.ar  1 <1>  -0.1500 
 17 C        2.5120     4.3250     1.2760 C.2   1 <1>   0.5960 
 18 C        4.8560     0.6400     2.6250 C.ar  1 <1>  -0.1500 
 19 O        1.8450     5.2230     0.8220 O.2   1 <1>  -0.5700 
 20 H        1.4170    -0.3800     0.4700 H     1 <1>   0.3700 
 21 H        1.8130     1.0920    -2.6790 H     1 <1>   0.0800 
 22 H        3.0740    -0.0380    -2.2720 H     1 <1>   0.0800 
 23 H        0.0080    -1.8310     1.3720 H     1 <1>   0.0800 
 24 H        1.3090    -3.4480    -0.0170 H     1 <1>   0.0800 
 25 H        0.0690    -3.3560    -1.2360 H     1 <1>   0.0800 
 26 H       -1.6610    -1.4980    -1.1290 H     1 <1>   0.0800 
 27 H       -1.6550    -0.3880     0.2270 H     1 <1>   0.0800 
 28 H       -2.2250    -2.0190     0.4360 H     1 <1>   0.0800 
 29 H        1.5330     3.1110    -1.1890 H     1 <1>   0.1500 
 30 H       -0.3760    -4.2950     1.6170 H     1 <1>   0.0800 
 31 H       -0.2010    -5.3350     0.2260 H     1 <1>   0.0800 
 32 H       -1.5820    -4.2820     0.3470 H     1 <1>   0.0800 
 33 H        3.9640    -1.1060    -0.1360 H     1 <1>   0.1500 
 34 H        4.2810     2.6440     3.0750 H     1 <1>   0.1500 
 35 H        5.2820    -1.3400     1.9350 H     1 <1>   0.1500 
 36 H        3.0140     4.5000     2.2100 H     1 <1>   0.0600 
 37 H        5.4380     0.5140     3.5220 H     1 <1>   0.1500 
@<TRIPOS>BOND
  1   1   2  2   
  2   2   3  am  
  3   2   4  1   
  4   3   5  1   
  5   3  20  1   
  6   4   6  1   
  7   4  21  1   
  8   4  22  1   
  9   5   7  1   
 10   5   8  1   
 11   5  23  1   
 12   6   9  1   
 13   6  10  1   
 14   7  11  1   
 15   7  24  1   
 16   7  25  1   
 17   8  26  1   
 18   8  27  1   
 19   8  28  1   
 20   9  12  ar  
 21   9  13  ar  
 22  10  14  2   
 23  10  29  1   
 24  11  30  1   
 25  11  31  1   
 26  11  32  1   
 27  12  14  1   
 28  12  15  ar  
 29  13  16  ar  
 30  13  33  1   
 31  14  17  1   
 32  15  18  ar  
 33  15  34  1   
 34  16  18  ar  
 35  16  35  1   
 36  17  19  2   
 37  17  36  1   
 38  18  37  1   
@<TRIPOS>SUBSTRUCTURE
  1 ****   9 GROUP 4 **** **** 0

# MOE 2024.06 (io_trps.svl 2023.06)
