@<TRIPOS>MOLECULE
544
37 37 1 0 0 
SMALL
USER_CHARGES


@<TRIPOS>ATOM
  1 BR      -1.5680     0.5190     1.8800 Br    1 <1>  -0.1110 
  2 C       -0.6980     2.1480     1.3510 C.ar  1 <1>   0.1110 
  3 C        0.1480     2.7760     2.2430 C.ar  1 <1>  -0.1500 
  4 C       -0.9390     2.6560     0.0900 C.ar  1 <1>  -0.1500 
  5 C        0.7710     3.9480     1.8510 C.ar  1 <1>  -0.1500 
  6 C       -0.3080     3.8300    -0.2850 C.ar  1 <1>  -0.1500 
  7 C        0.5670     4.4990     0.5810 C.ar  1 <1>   0.0860 
  8 C        1.2470     5.7230     0.1890 C.2   1 <1>   0.5440 
  9 O        1.6320     6.5230     1.0180 O.2   1 <1>  -0.5700 
 10 N        1.5160     6.0040    -1.1230 N.am  1 <1>  -0.7300 
 11 C        1.9090     7.3350    -1.6770 C.3   1 <1>   0.1400 
 12 C        3.4240     7.6030    -1.5590 C.3   1 <1>   0.3430 
 13 N        3.8580     7.6980    -0.1310 N.4   1 <1>  -0.9590 
 14 C        3.7770     9.0940     0.3710 C.3   1 <1>   0.3430 
 15 C        5.1770     7.0610     0.1150 C.3   1 <1>   0.3430 
 16 C        3.7660     9.1060     1.8960 C.3   1 <1>  -0.2400 
 17 C        5.0190     5.5450     0.0840 C.3   1 <1>  -0.2400 
 18 H        0.3100     2.3570     3.2210 H     1 <1>   0.1500 
 19 H       -1.6100     2.1430    -0.5760 H     1 <1>   0.1500 
 20 H        1.4280     4.4480     2.5420 H     1 <1>   0.1500 
 21 H       -0.5100     4.2300    -1.2620 H     1 <1>   0.1500 
 22 H        1.2500     5.3010    -1.8190 H     1 <1>   0.3700 
 23 H        1.3630     8.1110    -1.1650 H     1 <1>   0.0800 
 24 H        1.6270     7.3710    -2.7150 H     1 <1>   0.0800 
 25 H        3.6700     8.5180    -2.0730 H     1 <1>   0.0800 
 26 H        3.9450     6.8010    -2.0520 H     1 <1>   0.0800 
 27 H        3.1460     7.1600     0.4120 H     1 <1>   0.4500 
 28 H        2.8630     9.5480     0.0220 H     1 <1>   0.0800 
 29 H        4.6070     9.6740     0.0000 H     1 <1>   0.0800 
 30 H        5.5480     7.3450     1.0860 H     1 <1>   0.0800 
 31 H        5.8920     7.3820    -0.6260 H     1 <1>   0.0800 
 32 H        2.9560     8.5080     2.2750 H     1 <1>   0.0800 
 33 H        3.6190    10.1150     2.2380 H     1 <1>   0.0800 
 34 H        4.6960     8.7560     2.3040 H     1 <1>   0.0800 
 35 H        4.3100     5.2260     0.8270 H     1 <1>   0.0800 
 36 H        5.9660     5.0870     0.3100 H     1 <1>   0.0800 
 37 H        4.7080     5.1980    -0.8840 H     1 <1>   0.0800 
@<TRIPOS>BOND
  1   1   2  1   
  2   2   3  ar  
  3   2   4  ar  
  4   3   5  ar  
  5   3  18  1   
  6   4   6  ar  
  7   4  19  1   
  8   5   7  ar  
  9   5  20  1   
 10   6   7  ar  
 11   6  21  1   
 12   7   8  1   
 13   8   9  2   
 14   8  10  am  
 15  10  11  1   
 16  10  22  1   
 17  11  12  1   
 18  11  23  1   
 19  11  24  1   
 20  12  13  1   
 21  12  25  1   
 22  12  26  1   
 23  13  14  1   
 24  13  15  1   
 25  13  27  1   
 26  14  16  1   
 27  14  28  1   
 28  14  29  1   
 29  15  17  1   
 30  15  30  1   
 31  15  31  1   
 32  16  32  1   
 33  16  33  1   
 34  16  34  1   
 35  17  35  1   
 36  17  36  1   
 37  17  37  1   
@<TRIPOS>SUBSTRUCTURE
  1 ****   8 GROUP 4 **** **** 0

# MOE 2024.06 (io_trps.svl 2023.06)
