@<TRIPOS>MOLECULE
N-(2-Methoxy-ethyl)-2-[3-(4-methoxy-phenyl)-6-oxo-6H-pyridazin-1-yl]-acetamide
42 43 1 0 0 
SMALL
USER_CHARGES


@<TRIPOS>ATOM
  1 O       -0.0970     0.6750    -0.7480 O.2   1 <1>  -0.5700 
  2 C       -0.9420     1.5440    -0.5750 C.2   1 <1>   0.6160 
  3 N       -0.7570     2.5780     0.3360 N.am  1 <1>  -0.2980 
  4 C       -2.1580     1.5500    -1.2950 C.2   1 <1>  -0.1360 
  5 N       -1.6660     3.5820     0.5630 N.2   1 <1>  -0.5120 
  6 C        0.5170     2.6330     1.1230 C.3   1 <1>   0.2010 
  7 C       -3.0620     2.5340    -1.0620 C.2   1 <1>  -0.1360 
  8 C       -2.7950     3.5540    -0.1010 C.2   1 <1>   0.3490 
  9 C        1.5630     3.5430     0.4880 C.2   1 <1>   0.5690 
 10 C       -3.7860     4.5830     0.1290 C.ar  1 <1>   0.0860 
 11 O        2.7290     3.3750     0.7540 O.2   1 <1>  -0.5700 
 12 N        1.1580     4.5490    -0.3330 N.am  1 <1>  -0.7300 
 13 C       -3.4150     5.9240     0.2530 C.ar  1 <1>  -0.1500 
 14 C       -5.1460     4.2830     0.2380 C.ar  1 <1>  -0.1500 
 15 C        2.0450     5.4890    -1.0610 C.3   1 <1>   0.1400 
 16 C       -4.3500     6.9220     0.4570 C.ar  1 <1>  -0.1500 
 17 C       -6.0870     5.2750     0.4410 C.ar  1 <1>  -0.1500 
 18 C        2.5810     6.5590    -0.1110 C.3   1 <1>   0.1200 
 19 C       -5.7010     6.6000     0.5500 C.ar  1 <1>   0.0830 
 20 O        3.2180     7.5430    -0.8650 O.3   1 <1>  -0.5600 
 21 O       -6.6840     7.5110     0.7450 O.3   1 <1>  -0.3630 
 22 C        3.8350     8.5260    -0.0980 C.3   1 <1>   0.0400 
 23 C       -6.3970     8.8830     0.8950 C.3   1 <1>   0.0400 
 24 H       -2.3090     0.7610    -2.0070 H     1 <1>   0.1500 
 25 H        0.9320     1.6470     1.2270 H     1 <1>   0.0800 
 26 H        0.2990     3.0040     2.1060 H     1 <1>   0.0800 
 27 H       -3.9920     2.5720    -1.5990 H     1 <1>   0.1500 
 28 H        0.1470     4.6420    -0.4800 H     1 <1>   0.3700 
 29 H       -2.3730     6.1840     0.1880 H     1 <1>   0.1500 
 30 H       -5.4750     3.2620     0.1720 H     1 <1>   0.1500 
 31 H        1.4900     5.9550    -1.8560 H     1 <1>   0.0800 
 32 H        2.8720     4.9430    -1.4820 H     1 <1>   0.0800 
 33 H       -4.0130     7.9370     0.5440 H     1 <1>   0.1500 
 34 H       -7.1310     5.0320     0.5210 H     1 <1>   0.1500 
 35 H        3.2930     6.1220     0.5690 H     1 <1>   0.0800 
 36 H        1.7740     7.0170     0.4330 H     1 <1>   0.0800 
 37 H        4.2860     9.2380    -0.7670 H     1 <1>   0.0800 
 38 H        4.5950     8.0720     0.5140 H     1 <1>   0.0800 
 39 H        3.0970     9.0170     0.5120 H     1 <1>   0.0800 
 40 H       -7.3260     9.4040     1.0440 H     1 <1>   0.0800 
 41 H       -5.9170     9.2400     0.0010 H     1 <1>   0.0800 
 42 H       -5.7620     9.0150     1.7530 H     1 <1>   0.0800 
@<TRIPOS>BOND
  1   1   2  2   
  2   2   3  am  
  3   2   4  1   
  4   3   5  1   
  5   3   6  1   
  6   4   7  2   
  7   4  24  1   
  8   5   8  2   
  9   6   9  1   
 10   6  25  1   
 11   6  26  1   
 12   7   8  1   
 13   7  27  1   
 14   8  10  1   
 15   9  11  2   
 16   9  12  am  
 17  10  13  ar  
 18  10  14  ar  
 19  12  15  1   
 20  12  28  1   
 21  13  16  ar  
 22  13  29  1   
 23  14  17  ar  
 24  14  30  1   
 25  15  18  1   
 26  15  31  1   
 27  15  32  1   
 28  16  19  ar  
 29  16  33  1   
 30  17  19  ar  
 31  17  34  1   
 32  18  20  1   
 33  18  35  1   
 34  18  36  1   
 35  19  21  1   
 36  20  22  1   
 37  21  23  1   
 38  22  37  1   
 39  22  38  1   
 40  22  39  1   
 41  23  40  1   
 42  23  41  1   
 43  23  42  1   
@<TRIPOS>SUBSTRUCTURE
  1 ****   5 GROUP 4 **** **** 0

# MOE 2024.06 (io_trps.svl 2023.06)
