@<TRIPOS>MOLECULE
NONAME
28 28 1 0 0 
SMALL
USER_CHARGES


@<TRIPOS>ATOM
  1 CL      -0.3570     1.0440     1.2430 Cl    1 <1>  -0.1770 
  2 C        1.3150     1.4670     1.0010 C.ar  1 <1>   0.4870 
  3 N        2.2000     0.5000     1.1840 N.ar  1 <1>  -0.6200 
  4 C        1.6090     2.7650     0.6390 C.ar  1 <1>  -0.1500 
  5 C        3.4700     0.8420     0.9940 C.ar  1 <1>   0.1600 
  6 C        2.9340     3.0700     0.4550 C.ar  1 <1>   0.1900 
  7 C        3.9230     2.1130     0.6270 C.ar  1 <1>   0.1170 
  8 F        3.2600     4.2900     0.1110 F     1 <1>  -0.1900 
  9 N        5.2780     2.4630     0.4290 N.am  1 <1>  -0.5470 
 10 C        6.4290     1.7480     0.5240 C.2   1 <1>   0.7800 
 11 O        6.4630     0.5750     0.8280 O.2   1 <1>  -0.5700 
 12 O        7.5330     2.4410     0.2570 O.3   1 <1>  -0.4300 
 13 C        8.8630     1.9670     0.2750 C.3   1 <1>   0.2800 
 14 C        9.0470     0.8620    -0.7720 C.3   1 <1>  -0.2400 
 15 C        9.7230     3.1730    -0.1070 C.3   1 <1>  -0.2400 
 16 C        9.2410     1.5040     1.6870 C.3   1 <1>  -0.2400 
 17 H        0.8350     3.4950     0.5100 H     1 <1>   0.1500 
 18 H        4.1900     0.0580     1.1420 H     1 <1>   0.1500 
 19 H        5.4470     3.4330     0.1620 H     1 <1>   0.3700 
 20 H        8.7090     1.1980    -1.7350 H     1 <1>   0.0800 
 21 H        8.5110    -0.0280    -0.4980 H     1 <1>   0.0800 
 22 H       10.0870     0.6010    -0.8490 H     1 <1>   0.0800 
 23 H        9.4550     3.5270    -1.0860 H     1 <1>   0.0800 
 24 H       10.7630     2.9010    -0.1180 H     1 <1>   0.0800 
 25 H        9.5890     3.9680     0.6040 H     1 <1>   0.0800 
 26 H        8.7050     0.6140     1.9620 H     1 <1>   0.0800 
 27 H        9.0360     2.2780     2.4040 H     1 <1>   0.0800 
 28 H       10.2900     1.2730     1.7280 H     1 <1>   0.0800 
@<TRIPOS>BOND
  1   1   2  1   
  2   2   3  ar  
  3   2   4  ar  
  4   3   5  ar  
  5   4   6  ar  
  6   4  17  1   
  7   5   7  ar  
  8   5  18  1   
  9   6   7  ar  
 10   6   8  1   
 11   7   9  1   
 12   9  10  am  
 13   9  19  1   
 14  10  11  2   
 15  10  12  1   
 16  12  13  1   
 17  13  14  1   
 18  13  15  1   
 19  13  16  1   
 20  14  20  1   
 21  14  21  1   
 22  14  22  1   
 23  15  23  1   
 24  15  24  1   
 25  15  25  1   
 26  16  26  1   
 27  16  27  1   
 28  16  28  1   
@<TRIPOS>SUBSTRUCTURE
  1 ****   9 GROUP 4 **** **** 0

# MOE 2024.06 (io_trps.svl 2023.06)
