@<TRIPOS>MOLECULE
11078
38 38 1 0 0 
SMALL
USER_CHARGES


@<TRIPOS>ATOM
  1 BR       0.1280    -0.1330     0.3300 Br    1 <1>  -0.1110 
  2 C        1.9020     0.6170     0.3290 C.ar  1 <1>   0.1110 
  3 C        2.0470     1.9790     0.5110 C.ar  1 <1>  -0.1500 
  4 C        2.9800    -0.2290     0.1510 C.ar  1 <1>  -0.1500 
  5 C        3.3210     2.5240     0.5090 C.ar  1 <1>  -0.1440 
  6 C        4.2580     0.3060     0.1470 C.ar  1 <1>  -0.1440 
  7 C        4.4180     1.6840     0.3080 C.ar  1 <1>   0.0830 
  8 C        3.4910     4.0210     0.7340 C.3   1 <1>  -0.0960 
  9 C        5.4580    -0.6140    -0.0230 C.3   1 <1>  -0.0960 
 10 O        5.6620     2.2100     0.2810 O.3   1 <1>  -0.3630 
 11 C        6.0950     2.6910    -0.9820 C.3   1 <1>   0.1810 
 12 C        7.4320     3.4090    -0.8660 C.2   1 <1>   0.5690 
 13 O        7.5090     4.5910    -1.0940 O.2   1 <1>  -0.5700 
 14 N        8.5430     2.7250    -0.5350 N.am  1 <1>  -0.7300 
 15 C        9.6780     1.8670    -0.1650 C.3   1 <1>   0.1400 
 16 C        9.1430     0.4760     0.1700 C.3   1 <1>  -0.1600 
 17 C       10.2730    -0.4840     0.5620 C.3   1 <1>  -0.1600 
 18 C        9.7190    -1.8720     0.8970 C.3   1 <1>  -0.2400 
 19 H        1.1760     2.5920     0.6550 H     1 <1>   0.1500 
 20 H        2.8120    -1.2830     0.0240 H     1 <1>   0.1500 
 21 H        2.6350     4.4290     1.2410 H     1 <1>   0.0800 
 22 H        3.6070     4.5250    -0.2070 H     1 <1>   0.0800 
 23 H        4.3590     4.2120     1.3400 H     1 <1>   0.0800 
 24 H        5.1650    -1.6460     0.0360 H     1 <1>   0.0800 
 25 H        6.1760    -0.4210     0.7540 H     1 <1>   0.0800 
 26 H        5.9230    -0.4430    -0.9770 H     1 <1>   0.0800 
 27 H        5.3550     3.3680    -1.3640 H     1 <1>   0.0800 
 28 H        6.1910     1.8540    -1.6470 H     1 <1>   0.0800 
 29 H        9.1260     3.5680    -0.5690 H     1 <1>   0.3700 
 30 H       10.1800     2.2840     0.6930 H     1 <1>   0.0800 
 31 H       10.3710     1.8120    -0.9880 H     1 <1>   0.0800 
 32 H        8.6230     0.0840    -0.6860 H     1 <1>   0.0800 
 33 H        8.4470     0.5600     0.9870 H     1 <1>   0.0800 
 34 H       10.7970    -0.0970     1.4200 H     1 <1>   0.0800 
 35 H       10.9750    -0.5700    -0.2500 H     1 <1>   0.0800 
 36 H        9.0290    -1.8130     1.7210 H     1 <1>   0.0800 
 37 H       10.5220    -2.5330     1.1700 H     1 <1>   0.0800 
 38 H        9.2080    -2.2890     0.0460 H     1 <1>   0.0800 
@<TRIPOS>BOND
  1   1   2  1   
  2   2   3  ar  
  3   2   4  ar  
  4   3   5  ar  
  5   3  19  1   
  6   4   6  ar  
  7   4  20  1   
  8   5   7  ar  
  9   5   8  1   
 10   6   7  ar  
 11   6   9  1   
 12   7  10  1   
 13   8  21  1   
 14   8  22  1   
 15   8  23  1   
 16   9  24  1   
 17   9  25  1   
 18   9  26  1   
 19  10  11  1   
 20  11  12  1   
 21  11  27  1   
 22  11  28  1   
 23  12  13  2   
 24  12  14  am  
 25  14  15  1   
 26  14  29  1   
 27  15  16  1   
 28  15  30  1   
 29  15  31  1   
 30  16  17  1   
 31  16  32  1   
 32  16  33  1   
 33  17  18  1   
 34  17  34  1   
 35  17  35  1   
 36  18  36  1   
 37  18  37  1   
 38  18  38  1   
@<TRIPOS>SUBSTRUCTURE
  1 ****  10 GROUP 4 **** **** 0

# MOE 2024.06 (io_trps.svl 2023.06)
