@<TRIPOS>MOLECULE
NONAME
44 46 1 0 0 
SMALL
USER_CHARGES


@<TRIPOS>ATOM
  1 S        0.9790    -0.1240     1.2380 S.3   1 <1>  -0.2860 
  2 C       -0.8200    -0.0500     1.2530 C.2   1 <1>   0.2420 
  3 C        1.4060    -0.4960     3.0120 C.3   1 <1>   0.1310 
  4 N       -1.4980    -0.2190     2.3360 N.2   1 <1>  -0.3380 
  5 N       -1.5660     0.1840     0.1630 N.pl3 1 <1>   0.3340 
  6 C        2.9120    -0.5170     3.2230 C.2   1 <1>   0.5690 
  7 N       -2.7780    -0.0980     1.9930 N.2   1 <1>  -0.3380 
  8 C       -1.4120     0.4300    -1.2050 C.2   1 <1>  -0.1690 
  9 C       -2.8170     0.1410     0.7090 C.2   1 <1>   0.3120 
 10 O        3.3660    -1.1820     4.1220 O.2   1 <1>  -0.5700 
 11 N        3.7140     0.2110     2.4070 N.am  1 <1>  -0.7300 
 12 C       -2.5470     0.6160    -1.9260 C.2   1 <1>  -0.1360 
 13 C       -0.0210     0.4800    -1.8230 C.3   1 <1>  -0.1020 
 14 N       -3.9620     0.3300    -0.0310 N.2   1 <1>  -0.5760 
 15 C        5.1840     0.1910     2.4260 C.3   1 <1>   0.2840 
 16 C       -3.8190     0.5570    -1.2900 C.2   1 <1>   0.3750 
 17 C        5.6630     0.3600     0.9960 C.ar  1 <1>  -0.1430 
 18 C       -5.0540     0.7710    -2.1380 C.3   1 <1>  -0.1790 
 19 C        5.6980    -0.7320     0.1420 C.ar  1 <1>  -0.1500 
 20 C        6.0570     1.6040     0.5270 C.ar  1 <1>  -0.1500 
 21 C        6.1240    -0.5880    -1.1670 C.ar  1 <1>  -0.1500 
 22 C        6.4830     1.7500    -0.7810 C.ar  1 <1>  -0.1500 
 23 C        6.5200     0.6610    -1.6360 C.ar  1 <1>   0.0820 
 24 O        6.9500     0.8920    -2.9020 O.3   1 <1>  -0.3620 
 25 C        7.0710    -0.1570    -3.8370 C.3   1 <1>   0.0400 
 26 H        0.9790    -1.4530     3.2490 H     1 <1>   0.0800 
 27 H        0.9540     0.2660     3.6190 H     1 <1>   0.0800 
 28 H        3.3110     0.6890     1.5980 H     1 <1>   0.3700 
 29 H       -2.5280     0.8110    -2.9830 H     1 <1>   0.1500 
 30 H        0.4850    -0.4590    -1.6830 H     1 <1>   0.0800 
 31 H        0.5620     1.2630    -1.3700 H     1 <1>   0.0800 
 32 H       -0.0800     0.6750    -2.8790 H     1 <1>   0.0800 
 33 H        5.5380    -0.7420     2.8340 H     1 <1>   0.0800 
 34 H        5.5470     0.9930     3.0450 H     1 <1>   0.0800 
 35 H       -5.0250     1.7450    -2.5880 H     1 <1>   0.0800 
 36 H       -5.9380     0.6990    -1.5300 H     1 <1>   0.0800 
 37 H       -5.1040     0.0230    -2.9070 H     1 <1>   0.0800 
 38 H        5.3900    -1.7010     0.4980 H     1 <1>   0.1500 
 39 H        6.0350     2.4630     1.1750 H     1 <1>   0.1500 
 40 H        6.1400    -1.4530    -1.8010 H     1 <1>   0.1500 
 41 H        6.7910     2.7120    -1.1500 H     1 <1>   0.1500 
 42 H        7.4440     0.2580    -4.7560 H     1 <1>   0.0800 
 43 H        6.1020    -0.5940    -3.9990 H     1 <1>   0.0800 
 44 H        7.7650    -0.8850    -3.4560 H     1 <1>   0.0800 
@<TRIPOS>BOND
  1   1   2  1   
  2   1   3  1   
  3   2   4  2   
  4   2   5  1   
  5   3   6  1   
  6   3  26  1   
  7   3  27  1   
  8   4   7  1   
  9   5   8  1   
 10   5   9  1   
 11   6  10  2   
 12   6  11  am  
 13   7   9  2   
 14   8  12  2   
 15   8  13  1   
 16   9  14  1   
 17  11  15  1   
 18  11  28  1   
 19  12  16  1   
 20  12  29  1   
 21  13  30  1   
 22  13  31  1   
 23  13  32  1   
 24  14  16  2   
 25  15  17  1   
 26  15  33  1   
 27  15  34  1   
 28  16  18  1   
 29  17  19  ar  
 30  17  20  ar  
 31  18  35  1   
 32  18  36  1   
 33  18  37  1   
 34  19  21  ar  
 35  19  38  1   
 36  20  22  ar  
 37  20  39  1   
 38  21  23  ar  
 39  21  40  1   
 40  22  23  ar  
 41  22  41  1   
 42  23  24  1   
 43  24  25  1   
 44  25  42  1   
 45  25  43  1   
 46  25  44  1   
@<TRIPOS>SUBSTRUCTURE
  1 ****   1 GROUP 4 **** **** 0

# MOE 2024.06 (io_trps.svl 2023.06)
