@<TRIPOS>MOLECULE
NONAME
34 34 1 0 0 
SMALL
USER_CHARGES


@<TRIPOS>ATOM
  1 O        1.9330    -0.8130     1.8660 O.2   1 <1>  -0.5700 
  2 C        1.4630    -1.1990     0.8260 C.2   1 <1>   0.6590 
  3 O        1.6560    -0.5610    -0.3240 O.3   1 <1>  -0.4300 
  4 C        0.6280    -2.4690     0.7580 C.3   1 <1>   0.1810 
  5 C        2.3730     0.6510    -0.4160 C.3   1 <1>   0.1200 
  6 O       -0.7010    -2.1810     0.3450 O.3   1 <1>  -0.3630 
  7 C        1.4170     1.8090    -0.1350 C.3   1 <1>  -0.2400 
  8 C       -1.6450    -3.1410     0.1790 C.ar  1 <1>   0.0830 
  9 C       -2.9020    -2.7390    -0.2920 C.ar  1 <1>   0.0860 
 10 C       -1.3940    -4.4830     0.4620 C.ar  1 <1>  -0.1500 
 11 C       -3.8770    -3.7230    -0.4660 C.ar  1 <1>  -0.1500 
 12 C       -3.1900    -1.3590    -0.5920 C.2   1 <1>   0.4240 
 13 C       -2.3790    -5.4350     0.2800 C.ar  1 <1>  -0.1500 
 14 C       -3.6320    -5.0530    -0.1890 C.ar  1 <1>   0.0830 
 15 O       -4.2460    -0.9440    -1.0030 O.2   1 <1>  -0.5700 
 16 O       -4.6570    -5.9200    -0.3970 O.3   1 <1>  -0.3630 
 17 C       -4.5160    -7.2990    -0.1480 C.3   1 <1>   0.1200 
 18 C       -5.8420    -7.9750    -0.4840 C.3   1 <1>  -0.2400 
 19 H        0.5910    -2.9210     1.7310 H     1 <1>   0.0800 
 20 H        1.0670    -3.1450     0.0480 H     1 <1>   0.0800 
 21 H        2.7670     0.7230    -1.4150 H     1 <1>   0.0800 
 22 H        3.1920     0.6360     0.2850 H     1 <1>   0.0800 
 23 H        0.5990     1.7940    -0.8330 H     1 <1>   0.0800 
 24 H        1.9400     2.7420    -0.2390 H     1 <1>   0.0800 
 25 H        1.0370     1.7440     0.8690 H     1 <1>   0.0800 
 26 H       -0.4390    -4.8120     0.8260 H     1 <1>   0.1500 
 27 H       -4.8500    -3.4410    -0.8280 H     1 <1>   0.1500 
 28 H       -2.4060    -0.6410    -0.4400 H     1 <1>   0.0600 
 29 H       -2.1580    -6.4610     0.5050 H     1 <1>   0.1500 
 30 H       -4.2740    -7.4360     0.8920 H     1 <1>   0.0800 
 31 H       -3.7270    -7.6800    -0.7720 H     1 <1>   0.0800 
 32 H       -6.6270    -7.5750     0.1330 H     1 <1>   0.0800 
 33 H       -5.7680    -9.0320    -0.3040 H     1 <1>   0.0800 
 34 H       -6.0840    -7.8180    -1.5200 H     1 <1>   0.0800 
@<TRIPOS>BOND
  1   1   2  2   
  2   2   3  1   
  3   2   4  1   
  4   3   5  1   
  5   4   6  1   
  6   4  19  1   
  7   4  20  1   
  8   5   7  1   
  9   5  21  1   
 10   5  22  1   
 11   6   8  1   
 12   7  23  1   
 13   7  24  1   
 14   7  25  1   
 15   8   9  ar  
 16   8  10  ar  
 17   9  11  ar  
 18   9  12  1   
 19  10  13  ar  
 20  10  26  1   
 21  11  14  ar  
 22  11  27  1   
 23  12  15  2   
 24  12  28  1   
 25  13  14  ar  
 26  13  29  1   
 27  14  16  1   
 28  16  17  1   
 29  17  18  1   
 30  17  30  1   
 31  17  31  1   
 32  18  32  1   
 33  18  33  1   
 34  18  34  1   
@<TRIPOS>SUBSTRUCTURE
  1 ****   8 GROUP 4 **** **** 0

# MOE 2024.06 (io_trps.svl 2023.06)
