@<TRIPOS>MOLECULE
ka-04612
23 24 1 0 0 
SMALL
USER_CHARGES


@<TRIPOS>ATOM
  1 O        0.2790     0.2650     0.6250 O.co2 1 <1>  -0.9000 
  2 C        1.3300     0.8470     0.2890 C.2   1 <1>   0.9790 
  3 O        2.3190     0.1310     0.0140 O.co2 1 <1>  -0.9000 
  4 C        1.3630     2.3020     0.1860 C.ar  1 <1>  -0.1790 
  5 C        2.5540     3.0480     0.1840 C.ar  1 <1>   0.1000 
  6 C        0.1650     3.0130     0.0710 C.ar  1 <1>  -0.1500 
  7 N        3.7630     2.4030     0.3680 N.pl3 1 <1>  -0.8690 
  8 C        2.5300     4.4350     0.0030 C.ar  1 <1>  -0.1440 
  9 C        0.1370     4.3850    -0.0740 C.ar  1 <1>  -0.1500 
 10 C        5.0130     3.0050    -0.1020 C.3   1 <1>   0.2090 
 11 C        1.3220     5.0970    -0.1170 C.ar  1 <1>  -0.1500 
 12 C        3.8260     5.2340    -0.0990 C.3   1 <1>  -0.0170 
 13 C        5.0460     4.4470     0.4040 C.3   1 <1>  -0.1600 
 14 H       -0.7590     2.4600     0.0950 H     1 <1>   0.1500 
 15 H        3.6510     1.3720     0.2180 H     1 <1>   0.4000 
 16 H       -0.8050     4.8950    -0.1590 H     1 <1>   0.1500 
 17 H        5.0400     2.9750    -1.1780 H     1 <1>   0.0800 
 18 H        5.8460     2.4490     0.2910 H     1 <1>   0.0800 
 19 H        1.2960     6.1620    -0.2490 H     1 <1>   0.1500 
 20 H        3.7360     6.1470     0.4610 H     1 <1>   0.0800 
 21 H        3.9760     5.4860    -1.1330 H     1 <1>   0.0800 
 22 H        5.9520     4.9270     0.0840 H     1 <1>   0.0800 
 23 H        5.0360     4.4250     1.4790 H     1 <1>   0.0800 
@<TRIPOS>BOND
  1   1   2  ar  
  2   2   3  ar  
  3   2   4  1   
  4   4   5  ar  
  5   4   6  ar  
  6   5   7  1   
  7   5   8  ar  
  8   6   9  ar  
  9   6  14  1   
 10   7  10  1   
 11   7  15  1   
 12   8  11  ar  
 13   8  12  1   
 14   9  11  ar  
 15   9  16  1   
 16  10  13  1   
 17  10  17  1   
 18  10  18  1   
 19  11  19  1   
 20  12  13  1   
 21  12  20  1   
 22  12  21  1   
 23  13  22  1   
 24  13  23  1   
@<TRIPOS>SUBSTRUCTURE
  1 ****   5 GROUP 4 **** **** 0

# MOE 2024.06 (io_trps.svl 2023.06)
