@<TRIPOS>MOLECULE
NONAME
42 44 1 0 0 
SMALL
USER_CHARGES


@<TRIPOS>ATOM
  1 O        0.4730    -0.0460     0.1910 O.2   1 <1>  -0.5700 
  2 C        0.7670    -1.1970     0.4530 C.2   1 <1>   0.6900 
  3 N        2.0690    -1.5380     0.6990 N.am  1 <1>  -0.6600 
  4 N       -0.1820    -2.1730     0.5330 N.am  1 <1>  -0.5470 
  5 C        3.0960    -0.4800     0.9720 C.3   1 <1>   0.1400 
  6 C        2.6650    -2.8380     0.2450 C.3   1 <1>   0.1400 
  7 C       -1.5400    -2.1740     0.1810 C.ar  1 <1>   0.1170 
  8 C        4.0410    -0.2890    -0.2260 C.3   1 <1>   0.2090 
  9 C        3.6080    -2.6240    -0.9530 C.3   1 <1>   0.2090 
 10 C       -2.0660    -1.3220    -0.7840 C.ar  1 <1>  -0.1500 
 11 C       -2.3960    -3.0770     0.8030 C.ar  1 <1>  -0.1500 
 12 N        4.6450    -1.6010    -0.6220 N.pl3 1 <1>  -0.8380 
 13 C       -3.4080    -1.3700    -1.1150 C.ar  1 <1>  -0.1500 
 14 C       -3.7400    -3.1300     0.4750 C.ar  1 <1>  -0.1500 
 15 C        5.9310    -1.9430    -0.2610 C.ar  1 <1>   0.7200 
 16 C       -4.2540    -2.2720    -0.4920 C.ar  1 <1>   0.0820 
 17 N        6.1950    -3.2400    -0.0980 N.ar  1 <1>  -0.6200 
 18 N        6.7990    -0.9460    -0.0970 N.ar  1 <1>  -0.6200 
 19 O       -5.5580    -2.2550    -0.8770 O.3   1 <1>  -0.3630 
 20 C        7.4230    -3.5470     0.2390 C.ar  1 <1>   0.1600 
 21 C        8.0200    -1.2820     0.2390 C.ar  1 <1>   0.1600 
 22 C       -6.5030    -3.1110    -0.2750 C.3   1 <1>   0.0400 
 23 C        8.3910    -2.5910     0.4220 C.ar  1 <1>  -0.1500 
 24 H        0.1420    -2.9810     1.0520 H     1 <1>   0.3700 
 25 H        3.6780    -0.7670     1.8300 H     1 <1>   0.0800 
 26 H        2.6190     0.4570     1.2010 H     1 <1>   0.0800 
 27 H        1.8970    -3.5320    -0.0430 H     1 <1>   0.0800 
 28 H        3.2250    -3.2730     1.0540 H     1 <1>   0.0800 
 29 H        4.7970     0.4320     0.0300 H     1 <1>   0.0800 
 30 H        3.4830     0.1090    -1.0560 H     1 <1>   0.0800 
 31 H        3.0340    -2.2800    -1.7960 H     1 <1>   0.0800 
 32 H        4.0590    -3.5590    -1.2340 H     1 <1>   0.0800 
 33 H       -1.4260    -0.6160    -1.2810 H     1 <1>   0.1500 
 34 H       -2.0110    -3.7430     1.5520 H     1 <1>   0.1500 
 35 H       -3.8060    -0.7060    -1.8610 H     1 <1>   0.1500 
 36 H       -4.3670    -3.8400     0.9790 H     1 <1>   0.1500 
 37 H        7.6650    -4.5880     0.3720 H     1 <1>   0.1500 
 38 H        8.7410    -0.4940     0.3710 H     1 <1>   0.1500 
 39 H       -7.4610    -2.9170    -0.7210 H     1 <1>   0.0800 
 40 H       -6.5410    -2.9010     0.7800 H     1 <1>   0.0800 
 41 H       -6.2150    -4.1310    -0.4560 H     1 <1>   0.0800 
 42 H        9.3950    -2.8550     0.6960 H     1 <1>   0.1500 
@<TRIPOS>BOND
  1   1   2  2   
  2   2   3  am  
  3   2   4  am  
  4   3   5  1   
  5   3   6  1   
  6   4   7  1   
  7   4  24  1   
  8   5   8  1   
  9   5  25  1   
 10   5  26  1   
 11   6   9  1   
 12   6  27  1   
 13   6  28  1   
 14   7  10  ar  
 15   7  11  ar  
 16   8  12  1   
 17   8  29  1   
 18   8  30  1   
 19   9  12  1   
 20   9  31  1   
 21   9  32  1   
 22  10  13  ar  
 23  10  33  1   
 24  11  14  ar  
 25  11  34  1   
 26  12  15  1   
 27  13  16  ar  
 28  13  35  1   
 29  14  16  ar  
 30  14  36  1   
 31  15  17  ar  
 32  15  18  ar  
 33  16  19  1   
 34  17  20  ar  
 35  18  21  ar  
 36  19  22  1   
 37  20  23  ar  
 38  20  37  1   
 39  21  23  ar  
 40  21  38  1   
 41  22  39  1   
 42  22  40  1   
 43  22  41  1   
 44  23  42  1   
@<TRIPOS>SUBSTRUCTURE
  1 ****   3 GROUP 4 **** **** 0

# MOE 2024.06 (io_trps.svl 2023.06)
