@<TRIPOS>MOLECULE
NONAME
33 33 1 0 0 
SMALL
USER_CHARGES


@<TRIPOS>ATOM
  1 O        0.4050    -1.1190     1.1290 O.2   1 <1>  -0.5700 
  2 C        0.4520    -1.7820     0.1240 C.2   1 <1>   0.6590 
  3 O        1.6040    -2.1550    -0.4230 O.3   1 <1>  -0.4300 
  4 C       -0.8050    -2.2160    -0.6020 C.3   1 <1>   0.0440 
  5 C        2.8440    -1.8320     0.1690 C.3   1 <1>   0.0400 
  6 C       -1.0800    -3.7030    -0.4220 C.ar  1 <1>  -0.1440 
  7 C       -0.7330    -4.6130    -1.4050 C.ar  1 <1>  -0.1500 
  8 C       -1.6800    -4.1660     0.7360 C.ar  1 <1>  -0.1500 
  9 C       -0.9860    -5.9640    -1.2340 C.ar  1 <1>  -0.1500 
 10 C       -1.9320    -5.5160     0.9020 C.ar  1 <1>  -0.1500 
 11 C       -1.5920    -6.4440    -0.0770 C.ar  1 <1>  -0.1430 
 12 C       -1.8940    -7.9410     0.1590 C.3   1 <1>   0.1430 
 13 C       -1.4630    -8.8380    -1.0150 C.3   1 <1>  -0.2400 
 14 C       -1.1460    -8.4250     1.4100 C.3   1 <1>  -0.2400 
 15 C       -3.4040    -8.1360     0.3590 C.3   1 <1>  -0.2400 
 16 H       -0.6990    -1.9820    -1.6440 H     1 <1>   0.0800 
 17 H       -1.6360    -1.6510    -0.2210 H     1 <1>   0.0800 
 18 H        3.6300    -2.2390    -0.4410 H     1 <1>   0.0800 
 19 H        2.8790    -2.2620     1.1550 H     1 <1>   0.0800 
 20 H        2.9340    -0.7610     0.2270 H     1 <1>   0.0800 
 21 H       -0.2590    -4.2780    -2.3100 H     1 <1>   0.1500 
 22 H       -1.9530    -3.4770     1.5170 H     1 <1>   0.1500 
 23 H       -0.6960    -6.6230    -2.0290 H     1 <1>   0.1500 
 24 H       -2.3990    -5.8360     1.8150 H     1 <1>   0.1500 
 25 H       -0.4030    -8.7600    -1.1790 H     1 <1>   0.0800 
 26 H       -1.9800    -8.5550    -1.9150 H     1 <1>   0.0800 
 27 H       -1.6930    -9.8680    -0.8090 H     1 <1>   0.0800 
 28 H       -1.4730    -7.8960     2.2860 H     1 <1>   0.0800 
 29 H       -0.0900    -8.2590     1.2920 H     1 <1>   0.0800 
 30 H       -1.3130    -9.4750     1.5710 H     1 <1>   0.0800 
 31 H       -3.9380    -7.7660    -0.4980 H     1 <1>   0.0800 
 32 H       -3.7520    -7.6060     1.2270 H     1 <1>   0.0800 
 33 H       -3.6400    -9.1770     0.4880 H     1 <1>   0.0800 
@<TRIPOS>BOND
  1   1   2  2   
  2   2   3  1   
  3   2   4  1   
  4   3   5  1   
  5   4   6  1   
  6   4  16  1   
  7   4  17  1   
  8   5  18  1   
  9   5  19  1   
 10   5  20  1   
 11   6   7  ar  
 12   6   8  ar  
 13   7   9  ar  
 14   7  21  1   
 15   8  10  ar  
 16   8  22  1   
 17   9  11  ar  
 18   9  23  1   
 19  10  11  ar  
 20  10  24  1   
 21  11  12  1   
 22  12  13  1   
 23  12  14  1   
 24  12  15  1   
 25  13  25  1   
 26  13  26  1   
 27  13  27  1   
 28  14  28  1   
 29  14  29  1   
 30  14  30  1   
 31  15  31  1   
 32  15  32  1   
 33  15  33  1   
@<TRIPOS>SUBSTRUCTURE
  1 ****   6 GROUP 4 **** **** 0

# MOE 2024.06 (io_trps.svl 2023.06)
