@<TRIPOS>MOLECULE
NONAME
43 46 1 0 0 
SMALL
USER_CHARGES


@<TRIPOS>ATOM
  1 BR      -0.1310     0.3270     1.7940 Br    1 <1>  -0.1110 
  2 C       -1.2840     1.6580     1.0110 C.ar  1 <1>   0.1110 
  3 C       -2.6280     1.6300     1.3030 C.ar  1 <1>  -0.1500 
  4 C       -0.7090     2.6090     0.1680 C.ar  1 <1>  -0.1500 
  5 C       -3.4410     2.6050     0.7220 C.ar  1 <1>   0.0000 
  6 C       -1.5130     3.5710    -0.4050 C.ar  1 <1>  -0.1500 
  7 C       -4.8320     2.8800     0.7930 C.ar  1 <1>   0.2560 
  8 C       -2.8830     3.5640    -0.1240 C.ar  1 <1>  -0.1520 
  9 N       -5.8140     2.2640     1.4610 N.ar  1 <1>  -0.2560 
 10 C       -5.0710     3.9850    -0.0040 C.ar  1 <1>   0.1050 
 11 N       -3.8910     4.4060    -0.5620 N.pl3 1 <1>   0.0480 
 12 N       -7.0040     2.7710     1.3160 N.ar  1 <1>  -0.3100 
 13 N       -6.2870     4.5140    -0.1640 N.ar  1 <1>  -0.5670 
 14 C       -3.7210     5.5580    -1.4690 C.3   1 <1>   0.0160 
 15 C       -7.1830     3.8560     0.5250 C.ar  1 <1>   0.7220 
 16 S       -8.8590     4.4590     0.3960 S.3   1 <1>  -0.3320 
 17 C       -9.8400     3.3360     1.5070 C.3   1 <1>   0.1310 
 18 C      -11.3180     3.7000     1.4800 C.2   1 <1>   0.5690 
 19 O      -11.7690     4.2100     2.4800 O.2   1 <1>  -0.5700 
 20 N      -12.1060     3.4350     0.3830 N.am  1 <1>  -0.6600 
 21 C      -11.6280     2.8360    -0.8960 C.3   1 <1>   0.1400 
 22 C      -13.5550     3.7840     0.3760 C.3   1 <1>   0.1400 
 23 C      -12.4380     1.5740    -1.2090 C.3   1 <1>  -0.1600 
 24 C      -14.3870     2.5320     0.0730 C.3   1 <1>  -0.1600 
 25 C      -13.9460     1.8610    -1.2350 C.3   1 <1>  -0.1600 
 26 H       -3.0470     0.8860     1.9560 H     1 <1>   0.1500 
 27 H        0.3490     2.5780    -0.0210 H     1 <1>   0.1500 
 28 H       -1.0940     4.3170    -1.0590 H     1 <1>   0.1500 
 29 H       -3.3220     5.2170    -2.4060 H     1 <1>   0.0800 
 30 H       -3.0450     6.2640    -1.0220 H     1 <1>   0.0800 
 31 H       -4.6710     6.0320    -1.6380 H     1 <1>   0.0800 
 32 H       -9.4490     3.4560     2.5010 H     1 <1>   0.0800 
 33 H       -9.6890     2.3260     1.1790 H     1 <1>   0.0800 
 34 H      -10.5840     2.5850    -0.8490 H     1 <1>   0.0800 
 35 H      -11.7580     3.5570    -1.6850 H     1 <1>   0.0800 
 36 H      -13.7300     4.5320    -0.3780 H     1 <1>   0.0800 
 37 H      -13.8560     4.1930     1.3250 H     1 <1>   0.0800 
 38 H      -12.2240     0.8280    -0.4630 H     1 <1>   0.0800 
 39 H      -12.1300     1.1810    -2.1620 H     1 <1>   0.0800 
 40 H      -15.4250     2.8040     0.0090 H     1 <1>   0.0800 
 41 H      -14.2790     1.8420     0.8920 H     1 <1>   0.0800 
 42 H      -14.4900     0.9430    -1.3750 H     1 <1>   0.0800 
 43 H      -14.1710     2.5120    -2.0620 H     1 <1>   0.0800 
@<TRIPOS>BOND
  1   1   2  1   
  2   2   3  ar  
  3   2   4  ar  
  4   3   5  ar  
  5   3  26  1   
  6   4   6  ar  
  7   4  27  1   
  8   5   7  1   
  9   5   8  ar  
 10   6   8  ar  
 11   6  28  1   
 12   7   9  ar  
 13   7  10  ar  
 14   8  11  1   
 15   9  12  ar  
 16  10  11  1   
 17  10  13  ar  
 18  11  14  1   
 19  12  15  ar  
 20  13  15  ar  
 21  14  29  1   
 22  14  30  1   
 23  14  31  1   
 24  15  16  1   
 25  16  17  1   
 26  17  18  1   
 27  17  32  1   
 28  17  33  1   
 29  18  19  2   
 30  18  20  am  
 31  20  21  1   
 32  20  22  1   
 33  21  23  1   
 34  21  34  1   
 35  21  35  1   
 36  22  24  1   
 37  22  36  1   
 38  22  37  1   
 39  23  25  1   
 40  23  38  1   
 41  23  39  1   
 42  24  25  1   
 43  24  40  1   
 44  24  41  1   
 45  25  42  1   
 46  25  43  1   
@<TRIPOS>SUBSTRUCTURE
  1 ****  15 GROUP 4 **** **** 0

# MOE 2024.06 (io_trps.svl 2023.06)
