@<TRIPOS>MOLECULE
NONAME
50 53 1 0 0 
SMALL
USER_CHARGES


@<TRIPOS>ATOM
  1 S       -2.4230     0.2130     0.4250 S.3   1 <1>  -0.0800 
  2 C       -2.3670     1.9660     0.3050 C.2   1 <1>  -0.1400 
  3 C       -2.5640     0.0540    -1.3150 C.2   1 <1>  -0.1100 
  4 C       -2.4460     2.3530    -0.9830 C.2   1 <1>  -0.1500 
  5 C       -2.2360     2.7480     1.6010 C.3   1 <1>   0.2760 
  6 C       -2.5620     1.2640    -1.9040 C.2   1 <1>  -0.1500 
  7 N       -3.4730     2.7170     2.4220 N.pl3 1 <1>   0.3140 
  8 N       -3.4310     3.1040     3.6770 N.2   1 <1>  -0.4180 
  9 C       -4.7380     2.3890     2.1650 C.2   1 <1>   0.0060 
 10 N       -4.6190     2.9970     4.1470 N.2   1 <1>   0.0000 
 11 N       -5.4490     2.5500     3.2180 N.2   1 <1>  -0.3380 
 12 C       -5.3010     1.8870     0.8420 C.3   1 <1>   0.5230 
 13 N       -6.7940     1.9420     0.8720 N.4   1 <1>  -0.9590 
 14 C       -7.4140     1.0060    -0.1090 C.3   1 <1>   0.3430 
 15 C       -7.2990     3.3430     0.7540 C.3   1 <1>   0.3430 
 16 C       -8.9280     1.0070     0.0700 C.3   1 <1>  -0.1600 
 17 C       -8.8150     3.3650     0.9350 C.3   1 <1>  -0.1600 
 18 C       -9.4770     2.4250    -0.0680 C.3   1 <1>   0.2200 
 19 N      -10.9290     2.4050     0.1480 N.am  1 <1>  -0.7300 
 20 C      -11.8400     2.1730    -0.8470 C.2   1 <1>   0.5440 
 21 O      -11.4130     1.9290    -1.9580 O.2   1 <1>  -0.5700 
 22 C      -13.2680     2.1900    -0.5760 C.ar  1 <1>   0.0860 
 23 C      -13.8180     2.9620     0.4520 C.ar  1 <1>  -0.1500 
 24 C      -14.1490     1.4240    -1.3400 C.ar  1 <1>  -0.1500 
 25 C      -15.1770     2.9550     0.7110 C.ar  1 <1>  -0.1500 
 26 C      -15.5080     1.4140    -1.0870 C.ar  1 <1>  -0.1500 
 27 C      -16.0250     2.1790    -0.0570 C.ar  1 <1>  -0.1500 
 28 H       -2.6230    -0.9420    -1.7220 H     1 <1>   0.1500 
 29 H       -2.4170     3.3680    -1.3460 H     1 <1>   0.1500 
 30 H       -2.0060     3.7750     1.3860 H     1 <1>   0.0800 
 31 H       -1.4290     2.3420     2.1860 H     1 <1>   0.0800 
 32 H       -2.6270     1.4390    -2.9660 H     1 <1>   0.1500 
 33 H       -4.9810     0.8680     0.7000 H     1 <1>   0.0800 
 34 H       -4.9250     2.4790     0.0240 H     1 <1>   0.0800 
 35 H       -7.0380     1.6310     1.8280 H     1 <1>   0.4500 
 36 H       -7.0380     0.0050     0.0410 H     1 <1>   0.0800 
 37 H       -7.1730     1.3130    -1.1140 H     1 <1>   0.0800 
 38 H       -7.0490     3.7430    -0.2160 H     1 <1>   0.0800 
 39 H       -6.8420     3.9660     1.5080 H     1 <1>   0.0800 
 40 H       -9.1820     0.5930     1.0290 H     1 <1>   0.0800 
 41 H       -9.3660     0.3840    -0.6910 H     1 <1>   0.0800 
 42 H       -9.1700     4.3670     0.7730 H     1 <1>   0.0800 
 43 H       -9.0570     3.0780     1.9430 H     1 <1>   0.0800 
 44 H       -9.2810     2.7840    -1.0670 H     1 <1>   0.0800 
 45 H      -11.2600     2.4610     1.1120 H     1 <1>   0.3700 
 46 H      -13.1800     3.5840     1.0520 H     1 <1>   0.1500 
 47 H      -13.7560     0.8290    -2.1470 H     1 <1>   0.1500 
 48 H      -15.5790     3.5570     1.5080 H     1 <1>   0.1500 
 49 H      -16.1650     0.8120    -1.6920 H     1 <1>   0.1500 
 50 H      -17.0820     2.1720     0.1430 H     1 <1>   0.1500 
@<TRIPOS>BOND
  1   1   2  1   
  2   1   3  1   
  3   2   4  2   
  4   2   5  1   
  5   3   6  2   
  6   3  28  1   
  7   4   6  1   
  8   4  29  1   
  9   5   7  1   
 10   5  30  1   
 11   5  31  1   
 12   6  32  1   
 13   7   8  1   
 14   7   9  1   
 15   8  10  2   
 16   9  11  2   
 17   9  12  1   
 18  10  11  1   
 19  12  13  1   
 20  12  33  1   
 21  12  34  1   
 22  13  14  1   
 23  13  15  1   
 24  13  35  1   
 25  14  16  1   
 26  14  36  1   
 27  14  37  1   
 28  15  17  1   
 29  15  38  1   
 30  15  39  1   
 31  16  18  1   
 32  16  40  1   
 33  16  41  1   
 34  17  18  1   
 35  17  42  1   
 36  17  43  1   
 37  18  19  1   
 38  18  44  1   
 39  19  20  am  
 40  19  45  1   
 41  20  21  2   
 42  20  22  1   
 43  22  23  ar  
 44  22  24  ar  
 45  23  25  ar  
 46  23  46  1   
 47  24  26  ar  
 48  24  47  1   
 49  25  27  ar  
 50  25  48  1   
 51  26  27  ar  
 52  26  49  1   
 53  27  50  1   
@<TRIPOS>SUBSTRUCTURE
  1 ****  13 GROUP 4 **** **** 0

# MOE 2024.06 (io_trps.svl 2023.06)
