@<TRIPOS>MOLECULE
2-[3-(3-Chloro-phenyl)-6-oxo-6H-pyridazin-1-yl]-N-(tetrahydro-furan-2-ylmethyl)-acetamide
42 44 1 0 0 
SMALL
USER_CHARGES


@<TRIPOS>ATOM
  1 CL      -2.8670    -2.7780     1.4500 Cl    1 <1>  -0.1770 
  2 C       -1.7680    -2.9940     0.1130 C.ar  1 <1>   0.1770 
  3 C       -0.7310    -3.8970     0.2290 C.ar  1 <1>  -0.1500 
  4 C       -1.9550    -2.2570    -1.0400 C.ar  1 <1>  -0.1500 
  5 C        0.1620    -4.0930    -0.8240 C.ar  1 <1>   0.0860 
  6 C       -1.0770    -2.4310    -2.0950 C.ar  1 <1>  -0.1500 
  7 C        1.2480    -5.0440    -0.7040 C.2   1 <1>   0.3490 
  8 C       -0.0330    -3.3340    -1.9830 C.ar  1 <1>  -0.1500 
  9 N        1.9260    -5.1070     0.4140 N.2   1 <1>  -0.5120 
 10 C        1.5560    -5.8990    -1.8040 C.2   1 <1>  -0.1360 
 11 N        2.9440    -6.0220     0.5030 N.am  1 <1>  -0.2980 
 12 C        2.5790    -6.7870    -1.7240 C.2   1 <1>  -0.1360 
 13 C        3.3340    -6.8650    -0.5320 C.2   1 <1>   0.6160 
 14 C        3.6990    -6.0700     1.7940 C.3   1 <1>   0.2010 
 15 O        4.2850    -7.6280    -0.4190 O.2   1 <1>  -0.5700 
 16 C        4.9470    -5.1970     1.7610 C.2   1 <1>   0.5690 
 17 O        5.9050    -5.5100     2.4270 O.2   1 <1>  -0.5700 
 18 N        4.9510    -4.0840     0.9800 N.am  1 <1>  -0.7300 
 19 C        6.1400    -3.2400     0.6920 C.3   1 <1>   0.1400 
 20 C        7.1870    -4.0050    -0.1340 C.3   1 <1>   0.2000 
 21 O        8.1390    -3.1130    -0.6130 O.3   1 <1>  -0.5600 
 22 C        6.6540    -4.6820    -1.3920 C.3   1 <1>  -0.1600 
 23 C        8.8290    -3.6940    -1.6710 C.3   1 <1>   0.1200 
 24 C        7.8480    -4.6580    -2.3350 C.3   1 <1>  -0.1600 
 25 H       -0.6140    -4.4510     1.1440 H     1 <1>   0.1500 
 26 H       -2.7720    -1.5600    -1.1050 H     1 <1>   0.1500 
 27 H       -1.2070    -1.8590    -3.0000 H     1 <1>   0.1500 
 28 H        0.6460    -3.4440    -2.8110 H     1 <1>   0.1500 
 29 H        0.9540    -5.8260    -2.6910 H     1 <1>   0.1500 
 30 H        2.8550    -7.4500    -2.5220 H     1 <1>   0.1500 
 31 H        3.9860    -7.0830     2.0090 H     1 <1>   0.0800 
 32 H        3.0630    -5.7260     2.5870 H     1 <1>   0.0800 
 33 H        4.1020    -3.8920     0.4390 H     1 <1>   0.3700 
 34 H        6.5870    -2.9320     1.6220 H     1 <1>   0.0800 
 35 H        5.8260    -2.3660     0.1490 H     1 <1>   0.0800 
 36 H        7.6960    -4.7200     0.4910 H     1 <1>   0.0800 
 37 H        5.8430    -4.1080    -1.8020 H     1 <1>   0.0800 
 38 H        6.3130    -5.6810    -1.1810 H     1 <1>   0.0800 
 39 H        9.6770    -4.2200    -1.2670 H     1 <1>   0.0800 
 40 H        9.1580    -2.9170    -2.3380 H     1 <1>   0.0800 
 41 H        7.5670    -4.3070    -3.3120 H     1 <1>   0.0800 
 42 H        8.2960    -5.6320    -2.4250 H     1 <1>   0.0800 
@<TRIPOS>BOND
  1   1   2  1   
  2   2   3  ar  
  3   2   4  ar  
  4   3   5  ar  
  5   3  25  1   
  6   4   6  ar  
  7   4  26  1   
  8   5   7  1   
  9   5   8  ar  
 10   6   8  ar  
 11   6  27  1   
 12   7   9  2   
 13   7  10  1   
 14   8  28  1   
 15   9  11  1   
 16  10  12  2   
 17  10  29  1   
 18  11  13  am  
 19  11  14  1   
 20  12  13  1   
 21  12  30  1   
 22  13  15  2   
 23  14  16  1   
 24  14  31  1   
 25  14  32  1   
 26  16  17  2   
 27  16  18  am  
 28  18  19  1   
 29  18  33  1   
 30  19  20  1   
 31  19  34  1   
 32  19  35  1   
 33  20  21  1   
 34  20  22  1   
 35  20  36  1   
 36  21  23  1   
 37  22  24  1   
 38  22  37  1   
 39  22  38  1   
 40  23  24  1   
 41  23  39  1   
 42  23  40  1   
 43  24  41  1   
 44  24  42  1   
@<TRIPOS>SUBSTRUCTURE
  1 ****   9 GROUP 4 **** **** 0

# MOE 2024.06 (io_trps.svl 2023.06)
