@<TRIPOS>MOLECULE
NONAME
36 37 1 0 0 
SMALL
USER_CHARGES


@<TRIPOS>ATOM
  1 N        0.4220     0.6850     1.1640 N.pl3 1 <1>  -0.8690 
  2 C       -0.8920     1.1250     1.0320 C.ar  1 <1>   0.1000 
  3 C        1.4410     1.0730     0.1960 C.3   1 <1>   0.3690 
  4 C       -1.2520     2.1520     0.1540 C.ar  1 <1>  -0.1440 
  5 C       -1.8750     0.5070     1.7920 C.ar  1 <1>  -0.1500 
  6 C        1.2300     2.5470    -0.1680 C.3   1 <1>  -0.1600 
  7 C        1.3350     0.1380    -1.0100 C.3   1 <1>  -0.2400 
  8 C        2.7950     0.8890     0.8760 C.3   1 <1>  -0.2400 
  9 C       -2.5900     2.5080     0.0450 C.ar  1 <1>  -0.1500 
 10 C       -0.1830     2.8450    -0.6990 C.3   1 <1>   0.0630 
 11 C       -3.2000     0.8800     1.6830 C.ar  1 <1>  -0.1500 
 12 C       -3.5670     1.8840     0.8040 C.ar  1 <1>  -0.1430 
 13 C       -0.3720     4.3690    -0.7660 C.3   1 <1>  -0.2400 
 14 C       -5.0240     2.2960     0.6720 C.3   1 <1>  -0.0170 
 15 C       -5.7130     1.4880    -0.4300 C.3   1 <1>  -0.2400 
 16 H        0.5210    -0.2860     1.4630 H     1 <1>   0.4000 
 17 H       -1.5940    -0.2710     2.4760 H     1 <1>   0.1500 
 18 H        1.9600     2.8480    -0.8970 H     1 <1>   0.0800 
 19 H        1.3940     3.1320     0.7190 H     1 <1>   0.0800 
 20 H        0.3520     0.1800    -1.4410 H     1 <1>   0.0800 
 21 H        1.5350    -0.8760    -0.7170 H     1 <1>   0.0800 
 22 H        2.0490     0.4220    -1.7610 H     1 <1>   0.0800 
 23 H        2.8520     1.5010     1.7590 H     1 <1>   0.0800 
 24 H        3.5870     1.1770     0.2100 H     1 <1>   0.0800 
 25 H        2.9420    -0.1380     1.1560 H     1 <1>   0.0800 
 26 H       -2.8900     3.2760    -0.6420 H     1 <1>   0.1500 
 27 H       -0.2610     2.4530    -1.6980 H     1 <1>   0.0800 
 28 H       -3.9440     0.3850     2.2810 H     1 <1>   0.1500 
 29 H       -0.4330     4.7770     0.2280 H     1 <1>   0.0800 
 30 H       -1.2690     4.6220    -1.3000 H     1 <1>   0.0800 
 31 H        0.4550     4.8270    -1.2780 H     1 <1>   0.0800 
 32 H       -5.0840     3.3450     0.4430 H     1 <1>   0.0800 
 33 H       -5.5320     2.1380     1.6080 H     1 <1>   0.0800 
 34 H       -5.2220     1.6530    -1.3720 H     1 <1>   0.0800 
 35 H       -6.7430     1.7820    -0.5180 H     1 <1>   0.0800 
 36 H       -5.6700     0.4380    -0.2000 H     1 <1>   0.0800 
@<TRIPOS>BOND
  1   1   2  1   
  2   1   3  1   
  3   1  16  1   
  4   2   4  ar  
  5   2   5  ar  
  6   3   6  1   
  7   3   7  1   
  8   3   8  1   
  9   4   9  ar  
 10   4  10  1   
 11   5  11  ar  
 12   5  17  1   
 13   6  10  1   
 14   6  18  1   
 15   6  19  1   
 16   7  20  1   
 17   7  21  1   
 18   7  22  1   
 19   8  23  1   
 20   8  24  1   
 21   8  25  1   
 22   9  12  ar  
 23   9  26  1   
 24  10  13  1   
 25  10  27  1   
 26  11  12  ar  
 27  11  28  1   
 28  12  14  1   
 29  13  29  1   
 30  13  30  1   
 31  13  31  1   
 32  14  15  1   
 33  14  32  1   
 34  14  33  1   
 35  15  34  1   
 36  15  35  1   
 37  15  36  1   
@<TRIPOS>SUBSTRUCTURE
  1 ****   4 GROUP 4 **** **** 0

# MOE 2024.06 (io_trps.svl 2023.06)
