@<TRIPOS>MOLECULE
3-Methyl-1-(2,4,6-trimethyl-benzyl)-1H-thieno[3,2-d]pyrimidine-2,4-dione
40 42 1 0 0 
SMALL
USER_CHARGES


@<TRIPOS>ATOM
  1 S        1.7310     0.1760    -1.7680 S.3   1 <1>  -0.0800 
  2 C        2.6360    -0.7220    -0.5420 C.2   1 <1>  -0.0450 
  3 C        0.8290    -1.2620    -2.2120 C.2   1 <1>  -0.1100 
  4 C        3.6220    -0.1800     0.3230 C.2   1 <1>   0.7150 
  5 C        2.2530    -2.0210    -0.5290 C.2   1 <1>   0.0630 
  6 C        1.2160    -2.3200    -1.4730 C.2   1 <1>  -0.1500 
  7 O        3.9820     0.9840     0.2680 O.2   1 <1>  -0.5700 
  8 N        4.1640    -1.0390     1.2630 N.am  1 <1>  -0.4200 
  9 N        2.8920    -2.8820     0.3700 N.am  1 <1>  -0.4230 
 10 C        3.7190    -2.3520     1.3540 C.2   1 <1>   0.6900 
 11 C        5.1870    -0.5410     2.2270 C.3   1 <1>   0.0600 
 12 C        2.7590    -4.3660     0.2650 C.3   1 <1>   0.2840 
 13 O        4.0190    -3.0170     2.3290 O.2   1 <1>  -0.5700 
 14 C        4.0910    -5.0680    -0.0560 C.ar  1 <1>  -0.1430 
 15 C        4.7610    -4.8260    -1.2590 C.ar  1 <1>  -0.1430 
 16 C        4.6430    -5.9790     0.8500 C.ar  1 <1>  -0.1430 
 17 C        5.9670    -5.4570    -1.5200 C.ar  1 <1>  -0.1500 
 18 C        4.2330    -3.8910    -2.3390 C.3   1 <1>  -0.0970 
 19 C        5.8500    -6.5980     0.5630 C.ar  1 <1>  -0.1500 
 20 C        3.9740    -6.3520     2.1690 C.3   1 <1>  -0.0970 
 21 C        6.5210    -6.3400    -0.6150 C.ar  1 <1>  -0.1430 
 22 C        7.8440    -7.0210    -0.9160 C.3   1 <1>  -0.0970 
 23 H        0.0900    -1.1600    -2.9880 H     1 <1>   0.1500 
 24 H        0.7930    -3.3030    -1.5650 H     1 <1>   0.1500 
 25 H        5.7750     0.2430     1.7820 H     1 <1>   0.0800 
 26 H        5.8490    -1.3410     2.5130 H     1 <1>   0.0800 
 27 H        4.6960    -0.1600     3.1050 H     1 <1>   0.0800 
 28 H        2.0580    -4.6250    -0.5020 H     1 <1>   0.0800 
 29 H        2.3440    -4.7190     1.1890 H     1 <1>   0.0800 
 30 H        6.4870    -5.2630    -2.4410 H     1 <1>   0.1500 
 31 H        3.1840    -4.0510    -2.5000 H     1 <1>   0.0800 
 32 H        4.7330    -4.0650    -3.2750 H     1 <1>   0.0800 
 33 H        4.4050    -2.8690    -2.0560 H     1 <1>   0.0800 
 34 H        6.2770    -7.2920     1.2640 H     1 <1>   0.1500 
 35 H        2.9940    -6.7560     1.9890 H     1 <1>   0.0800 
 36 H        3.8920    -5.4910     2.8070 H     1 <1>   0.0800 
 37 H        4.5430    -7.0950     2.6970 H     1 <1>   0.0800 
 38 H        8.4870    -6.3600    -1.4690 H     1 <1>   0.0800 
 39 H        7.6700    -7.9070    -1.4990 H     1 <1>   0.0800 
 40 H        8.3430    -7.2960    -0.0050 H     1 <1>   0.0800 
@<TRIPOS>BOND
  1   1   2  1   
  2   1   3  1   
  3   2   4  1   
  4   2   5  2   
  5   3   6  2   
  6   3  23  1   
  7   4   7  2   
  8   4   8  am  
  9   5   6  1   
 10   5   9  1   
 11   6  24  1   
 12   8  10  am  
 13   8  11  1   
 14   9  10  am  
 15   9  12  1   
 16  10  13  2   
 17  11  25  1   
 18  11  26  1   
 19  11  27  1   
 20  12  14  1   
 21  12  28  1   
 22  12  29  1   
 23  14  15  ar  
 24  14  16  ar  
 25  15  17  ar  
 26  15  18  1   
 27  16  19  ar  
 28  16  20  1   
 29  17  21  ar  
 30  17  30  1   
 31  18  31  1   
 32  18  32  1   
 33  18  33  1   
 34  19  21  ar  
 35  19  34  1   
 36  20  35  1   
 37  20  36  1   
 38  20  37  1   
 39  21  22  1   
 40  22  38  1   
 41  22  39  1   
 42  22  40  1   
@<TRIPOS>SUBSTRUCTURE
  1 ****   9 GROUP 4 **** **** 0

# MOE 2024.06 (io_trps.svl 2023.06)
