@<TRIPOS>MOLECULE
Pyrrolidine-1,2-dicarboxylic acid 2-[(4-methoxy-phenyl)-amide] 1-[(2-methoxy-phenyl)-amide]
50 52 1 0 0 
SMALL
USER_CHARGES


@<TRIPOS>ATOM
  1 O        1.5290    -0.2930    -1.4270 O.2   1 <1>  -0.5700 
  2 C        1.8720     0.4570    -0.5360 C.2   1 <1>   0.6900 
  3 N        2.6770    -0.0050     0.4730 N.am  1 <1>  -0.6600 
  4 N        1.3920     1.7270    -0.5630 N.am  1 <1>  -0.5470 
  5 C        3.6890    -1.0990     0.2720 C.3   1 <1>   0.2810 
  6 C        2.9360     0.7120     1.7420 C.3   1 <1>   0.1400 
  7 C        2.0670     2.9590    -0.5370 C.ar  1 <1>   0.1170 
  8 C        3.1390    -2.5480     0.2350 C.2   1 <1>   0.5690 
  9 C        4.6990    -0.8840     1.4160 C.3   1 <1>  -0.1600 
 10 C        4.4240     0.5090     1.9770 C.3   1 <1>  -0.1600 
 11 C        1.3310     4.1460    -0.4410 C.ar  1 <1>   0.0820 
 12 C        3.4530     3.0330    -0.6230 C.ar  1 <1>  -0.1500 
 13 O        3.8700    -3.4580     0.5580 O.2   1 <1>  -0.5700 
 14 N        1.8570    -2.7540    -0.1920 N.am  1 <1>  -0.5470 
 15 O       -0.0300     4.0350    -0.3910 O.3   1 <1>  -0.3630 
 16 C        1.9910     5.3710    -0.4060 C.ar  1 <1>  -0.1500 
 17 C        4.1030     4.2530    -0.5890 C.ar  1 <1>  -0.1500 
 18 C        1.0710    -3.9080    -0.3200 C.ar  1 <1>   0.1170 
 19 C       -0.8560     5.1750    -0.2820 C.3   1 <1>   0.0400 
 20 C        3.3730     5.4220    -0.4770 C.ar  1 <1>  -0.1500 
 21 C        1.3370    -5.0920     0.3590 C.ar  1 <1>  -0.1500 
 22 C       -0.0390    -3.8590    -1.1550 C.ar  1 <1>  -0.1500 
 23 C        0.5230    -6.2000     0.2060 C.ar  1 <1>  -0.1500 
 24 C       -0.8580    -4.9620    -1.3110 C.ar  1 <1>  -0.1500 
 25 C       -0.5850    -6.1400    -0.6350 C.ar  1 <1>   0.0820 
 26 O       -1.4380    -7.1780    -0.8440 O.3   1 <1>  -0.3630 
 27 C       -1.2270    -8.4230    -0.2170 C.3   1 <1>   0.0400 
 28 H        0.4670     1.7900    -0.9850 H     1 <1>   0.3700 
 29 H        4.1850    -0.9200    -0.6660 H     1 <1>   0.0800 
 30 H        2.3680     0.2430     2.5270 H     1 <1>   0.0800 
 31 H        2.6790     1.7550     1.6970 H     1 <1>   0.0800 
 32 H        5.7120    -0.9950     1.0710 H     1 <1>   0.0800 
 33 H        4.5270    -1.6090     2.1920 H     1 <1>   0.0800 
 34 H        4.6780     0.5890     3.0190 H     1 <1>   0.0800 
 35 H        4.9750     1.2490     1.4230 H     1 <1>   0.0800 
 36 H        4.0300     2.1320    -0.7240 H     1 <1>   0.1500 
 37 H        1.4350    -1.9030    -0.5870 H     1 <1>   0.3700 
 38 H        1.4530     6.2960    -0.3260 H     1 <1>   0.1500 
 39 H        5.1770     4.2940    -0.6530 H     1 <1>   0.1500 
 40 H       -1.8790     4.8450    -0.2550 H     1 <1>   0.0800 
 41 H       -0.6980     5.8050    -1.1400 H     1 <1>   0.0800 
 42 H       -0.6160     5.6940     0.6290 H     1 <1>   0.0800 
 43 H        3.8790     6.3720    -0.4500 H     1 <1>   0.1500 
 44 H        2.1860    -5.1520     1.0150 H     1 <1>   0.1500 
 45 H       -0.2600    -2.9510    -1.6880 H     1 <1>   0.1500 
 46 H        0.7670    -7.0930     0.7470 H     1 <1>   0.1500 
 47 H       -1.7130    -4.9190    -1.9600 H     1 <1>   0.1500 
 48 H       -2.0090    -9.0910    -0.5300 H     1 <1>   0.0800 
 49 H       -1.2670    -8.2880     0.8490 H     1 <1>   0.0800 
 50 H       -0.2710    -8.8100    -0.5220 H     1 <1>   0.0800 
@<TRIPOS>BOND
  1   1   2  2   
  2   2   3  am  
  3   2   4  am  
  4   3   5  1   
  5   3   6  1   
  6   4   7  1   
  7   4  28  1   
  8   5   8  1   
  9   5   9  1   
 10   5  29  1   
 11   6  10  1   
 12   6  30  1   
 13   6  31  1   
 14   7  11  ar  
 15   7  12  ar  
 16   8  13  2   
 17   8  14  am  
 18   9  10  1   
 19   9  32  1   
 20   9  33  1   
 21  10  34  1   
 22  10  35  1   
 23  11  15  1   
 24  11  16  ar  
 25  12  17  ar  
 26  12  36  1   
 27  14  18  1   
 28  14  37  1   
 29  15  19  1   
 30  16  20  ar  
 31  16  38  1   
 32  17  20  ar  
 33  17  39  1   
 34  18  21  ar  
 35  18  22  ar  
 36  19  40  1   
 37  19  41  1   
 38  19  42  1   
 39  20  43  1   
 40  21  23  ar  
 41  21  44  1   
 42  22  24  ar  
 43  22  45  1   
 44  23  25  ar  
 45  23  46  1   
 46  24  25  ar  
 47  24  47  1   
 48  25  26  1   
 49  26  27  1   
 50  27  48  1   
 51  27  49  1   
 52  27  50  1   
@<TRIPOS>SUBSTRUCTURE
  1 ****   2 GROUP 4 **** **** 0

# MOE 2024.06 (io_trps.svl 2023.06)
