@<TRIPOS>MOLECULE
NONAME
45 49 1 0 0 
SMALL
USER_CHARGES


@<TRIPOS>ATOM
  1 S       -0.2270    -0.1530     1.1120 S.3   1 <1>   0.1810 
  2 N       -1.7550     0.6060     1.0210 N.2   1 <1>  -0.5100 
  3 C        0.6120     1.1180     0.2580 C.ar  1 <1>   0.0400 
  4 C       -1.6240     1.7360     0.4140 C.2   1 <1>   0.2350 
  5 C        1.9440     1.2450    -0.0910 C.ar  1 <1>   0.4100 
  6 C       -0.2950     2.0810    -0.0480 C.ar  1 <1>   0.2560 
  7 C       -2.7590     2.6120     0.1940 C.ar  1 <1>   0.0540 
  8 N        2.3390     2.3320    -0.7260 N.ar  1 <1>  -0.6200 
  9 N        2.8890     0.2810     0.1900 N.pl3 1 <1>  -0.8380 
 10 N        0.1020     3.1760    -0.7070 N.ar  1 <1>  -0.5660 
 11 C       -3.9830     2.0850    -0.2280 C.ar  1 <1>  -0.1500 
 12 C       -2.6820     3.9930     0.4050 C.ar  1 <1>  -0.1500 
 13 C        1.3890     3.2250    -0.9970 C.ar  1 <1>   0.4700 
 14 C        4.3020     0.6960     0.4560 C.3   1 <1>   0.2090 
 15 C        2.7910    -1.0500    -0.4860 C.3   1 <1>   0.2090 
 16 C       -5.0850     2.8940    -0.4450 C.ar  1 <1>  -0.1500 
 17 C       -3.7720     4.8180     0.1920 C.ar  1 <1>  -0.1500 
 18 C        5.0580    -0.3860     1.2480 C.3   1 <1>   0.1400 
 19 C        3.5400    -2.1320     0.3110 C.3   1 <1>   0.1400 
 20 C       -4.9580     4.2520    -0.2320 C.ar  1 <1>   0.1900 
 21 N        4.9540    -1.7180     0.5730 N.am  1 <1>  -0.6600 
 22 F       -5.9900     5.0240    -0.4350 F     1 <1>  -0.1900 
 23 C        6.0120    -2.4670     0.1260 C.2   1 <1>   0.6300 
 24 O        5.8510    -3.5290    -0.4270 O.2   1 <1>  -0.5700 
 25 C        7.4430    -1.9720     0.3200 C.3   1 <1>  -0.1000 
 26 C        7.9800    -0.8140    -0.4750 C.3   1 <1>  -0.2000 
 27 C        8.4900    -2.1950    -0.7350 C.3   1 <1>  -0.2000 
 28 H       -4.0670     1.0230    -0.3850 H     1 <1>   0.1500 
 29 H       -1.7570     4.4260     0.7420 H     1 <1>   0.1500 
 30 H        1.7200     4.1040    -1.5250 H     1 <1>   0.1500 
 31 H        4.3070     1.6160     1.0150 H     1 <1>   0.0800 
 32 H        4.8030     0.8720    -0.4800 H     1 <1>   0.0800 
 33 H        3.2230    -0.9800    -1.4700 H     1 <1>   0.0800 
 34 H        1.7620    -1.3380    -0.5980 H     1 <1>   0.0800 
 35 H       -6.0240     2.4850    -0.7720 H     1 <1>   0.1500 
 36 H       -3.7080     5.8790     0.3520 H     1 <1>   0.1500 
 37 H        4.6260    -0.4590     2.2300 H     1 <1>   0.0800 
 38 H        6.0820    -0.0850     1.3650 H     1 <1>   0.0800 
 39 H        3.5100    -3.0570    -0.2380 H     1 <1>   0.0800 
 40 H        3.0390    -2.2900     1.2500 H     1 <1>   0.0800 
 41 H        7.7610    -2.0850     1.3390 H     1 <1>   0.1000 
 42 H        8.6310    -0.1070     0.0080 H     1 <1>   0.1000 
 43 H        7.3530    -0.3570    -1.2220 H     1 <1>   0.1000 
 44 H        8.1990    -2.6990    -1.6410 H     1 <1>   0.1000 
 45 H        9.4850    -2.4550    -0.4210 H     1 <1>   0.1000 
@<TRIPOS>BOND
  1   1   2  1   
  2   1   3  1   
  3   2   4  2   
  4   3   5  ar  
  5   3   6  ar  
  6   4   6  1   
  7   4   7  1   
  8   5   8  ar  
  9   5   9  1   
 10   6  10  ar  
 11   7  11  ar  
 12   7  12  ar  
 13   8  13  ar  
 14   9  14  1   
 15   9  15  1   
 16  10  13  ar  
 17  11  16  ar  
 18  11  28  1   
 19  12  17  ar  
 20  12  29  1   
 21  13  30  1   
 22  14  18  1   
 23  14  31  1   
 24  14  32  1   
 25  15  19  1   
 26  15  33  1   
 27  15  34  1   
 28  16  20  ar  
 29  16  35  1   
 30  17  20  ar  
 31  17  36  1   
 32  18  21  1   
 33  18  37  1   
 34  18  38  1   
 35  19  21  1   
 36  19  39  1   
 37  19  40  1   
 38  20  22  1   
 39  21  23  am  
 40  23  24  2   
 41  23  25  1   
 42  25  26  1   
 43  25  27  1   
 44  25  41  1   
 45  26  27  1   
 46  26  42  1   
 47  26  43  1   
 48  27  44  1   
 49  27  45  1   
@<TRIPOS>SUBSTRUCTURE
  1 ****   3 GROUP 4 **** **** 0

# MOE 2024.06 (io_trps.svl 2023.06)
