@<TRIPOS>MOLECULE
7762
34 34 1 0 0 
SMALL
USER_CHARGES


@<TRIPOS>ATOM
  1 S        0.1300     0.3400     0.2770 S.o2  1 <1>   1.4470 
  2 O        1.0080     1.4830     0.3160 O.2   1 <1>  -0.6500 
  3 O        0.3600    -0.7930     1.1380 O.2   1 <1>  -0.6500 
  4 N        0.4170    -0.2730    -1.2320 N.am  1 <1>  -0.9780 
  5 C       -1.6180     0.8210     0.2500 C.ar  1 <1>  -0.0090 
  6 C       -2.6260    -0.1340     0.3230 C.ar  1 <1>  -0.1500 
  7 C       -2.0030     2.1520     0.1430 C.ar  1 <1>  -0.1500 
  8 C       -3.9610     0.2260     0.2950 C.ar  1 <1>  -0.1500 
  9 C       -3.3370     2.5170     0.1150 C.ar  1 <1>  -0.1500 
 10 C       -4.3420     1.5580     0.1900 C.ar  1 <1>   0.1170 
 11 N       -5.7090     1.8660     0.1740 N.am  1 <1>  -0.5470 
 12 C       -6.3910     3.0050    -0.1230 C.2   1 <1>   0.7800 
 13 O       -5.8810     4.0480    -0.4780 O.2   1 <1>  -0.5700 
 14 O       -7.7120     2.9110    -0.0040 O.3   1 <1>  -0.4300 
 15 C       -8.5430     4.0160    -0.2860 C.3   1 <1>   0.1200 
 16 C       -9.9950     3.5970    -0.0590 C.3   1 <1>  -0.1600 
 17 C      -10.9570     4.7570    -0.3470 C.3   1 <1>  -0.1600 
 18 C      -12.4110     4.3360    -0.1190 C.3   1 <1>  -0.2400 
 19 H        1.0090     0.4330    -1.6630 H     1 <1>   0.4200 
 20 H        1.0200    -1.0710    -1.0480 H     1 <1>   0.4200 
 21 H       -2.3570    -1.1740     0.4030 H     1 <1>   0.1500 
 22 H       -1.2470     2.9190     0.0820 H     1 <1>   0.1500 
 23 H       -4.7130    -0.5400     0.3530 H     1 <1>   0.1500 
 24 H       -3.5860     3.5590     0.0380 H     1 <1>   0.1500 
 25 H       -6.3400     1.1030     0.4020 H     1 <1>   0.3700 
 26 H       -8.3810     4.3110    -1.3090 H     1 <1>   0.0800 
 27 H       -8.2670     4.8240     0.3710 H     1 <1>   0.0800 
 28 H      -10.1140     3.2810     0.9630 H     1 <1>   0.0800 
 29 H      -10.2280     2.7710    -0.7070 H     1 <1>   0.0800 
 30 H      -10.8380     5.0810    -1.3680 H     1 <1>   0.0800 
 31 H      -10.7250     5.5890     0.2960 H     1 <1>   0.0800 
 32 H      -12.6730     3.5190    -0.7690 H     1 <1>   0.0800 
 33 H      -13.0700     5.1610    -0.3260 H     1 <1>   0.0800 
 34 H      -12.5590     4.0290     0.9010 H     1 <1>   0.0800 
@<TRIPOS>BOND
  1   1   2  2   
  2   1   3  2   
  3   1   4  am  
  4   1   5  1   
  5   4  19  1   
  6   4  20  1   
  7   5   6  ar  
  8   5   7  ar  
  9   6   8  ar  
 10   6  21  1   
 11   7   9  ar  
 12   7  22  1   
 13   8  10  ar  
 14   8  23  1   
 15   9  10  ar  
 16   9  24  1   
 17  10  11  1   
 18  11  12  am  
 19  11  25  1   
 20  12  13  2   
 21  12  14  1   
 22  14  15  1   
 23  15  16  1   
 24  15  26  1   
 25  15  27  1   
 26  16  17  1   
 27  16  28  1   
 28  16  29  1   
 29  17  18  1   
 30  17  30  1   
 31  17  31  1   
 32  18  32  1   
 33  18  33  1   
 34  18  34  1   
@<TRIPOS>SUBSTRUCTURE
  1 ****  10 GROUP 4 **** **** 0

# MOE 2024.06 (io_trps.svl 2023.06)
