@<TRIPOS>MOLECULE
N-[2-(3-Cyano-5,7-dimethyl-quinolin-2-ylamino)-ethyl]-succinamic acid
44 45 1 0 0 
SMALL
USER_CHARGES


@<TRIPOS>ATOM
  1 O        1.9110     1.1280     0.7970 O.co2 1 <1>  -0.9000 
  2 C        3.0940     1.4260     0.6260 C.2   1 <1>   0.9060 
  3 O        3.4690     2.5570     0.3080 O.co2 1 <1>  -0.9000 
  4 C        4.1420     0.3580     0.7980 C.3   1 <1>  -0.2660 
  5 C        4.5520    -0.2390    -0.5630 C.3   1 <1>  -0.0990 
  6 C        5.7560    -1.1540    -0.4720 C.2   1 <1>   0.5690 
  7 O        5.6690    -2.3100    -0.8090 O.2   1 <1>  -0.5700 
  8 N        6.9240    -0.6260    -0.0300 N.am  1 <1>  -0.7300 
  9 C        8.1790    -1.3910     0.1780 C.3   1 <1>   0.1400 
 10 C        8.8610    -1.6960    -1.1600 C.3   1 <1>   0.2090 
 11 N       10.1370    -2.4350    -0.9390 N.pl3 1 <1>  -0.8690 
 12 C       11.3480    -1.8400    -0.6470 C.ar  1 <1>   0.4100 
 13 N       11.3230    -0.5580    -0.4050 N.ar  1 <1>  -0.6200 
 14 C       12.5400    -2.6090    -0.6100 C.ar  1 <1>   0.0730 
 15 C       12.4880     0.0630    -0.1100 C.ar  1 <1>   0.3100 
 16 C       12.4880    -4.0100    -0.8850 C.1   1 <1>   0.4840 
 17 C       13.7190    -1.9890    -0.3100 C.ar  1 <1>  -0.1500 
 18 C       13.7310    -0.6070    -0.0450 C.ar  1 <1>   0.0000 
 19 C       12.4530     1.4420     0.1450 C.ar  1 <1>  -0.1500 
 20 N       12.4410    -5.1290    -1.1050 N.1   1 <1>  -0.5570 
 21 C       14.8940     0.1330     0.2750 C.ar  1 <1>  -0.1430 
 22 C       13.5840     2.1500     0.4540 C.ar  1 <1>  -0.1430 
 23 C       14.8090     1.4810     0.5170 C.ar  1 <1>  -0.1500 
 24 C       16.2530    -0.5500     0.3560 C.3   1 <1>  -0.0970 
 25 C       13.5390     3.6420     0.7280 C.3   1 <1>  -0.0970 
 26 H        3.7470    -0.4100     1.4350 H     1 <1>   0.0800 
 27 H        4.9810     0.8130     1.2860 H     1 <1>   0.0800 
 28 H        4.7840     0.5600    -1.2440 H     1 <1>   0.0800 
 29 H        3.7200    -0.7830    -0.9720 H     1 <1>   0.0800 
 30 H        6.9340     0.3600     0.2430 H     1 <1>   0.3700 
 31 H        7.9460    -2.3170     0.6750 H     1 <1>   0.0800 
 32 H        8.8430    -0.8180     0.8000 H     1 <1>   0.0800 
 33 H        9.0630    -0.7740    -1.6770 H     1 <1>   0.0800 
 34 H        8.2050    -2.2950    -1.7680 H     1 <1>   0.0800 
 35 H       10.0960    -3.4400    -1.1450 H     1 <1>   0.4000 
 36 H       14.6360    -2.5490    -0.2750 H     1 <1>   0.1500 
 37 H       11.4960     1.9250     0.0860 H     1 <1>   0.1500 
 38 H       15.6890     2.0510     0.7620 H     1 <1>   0.1500 
 39 H       16.2370    -1.3160     1.1110 H     1 <1>   0.0800 
 40 H       17.0250     0.1540     0.6110 H     1 <1>   0.0800 
 41 H       16.5020    -0.9920    -0.5920 H     1 <1>   0.0800 
 42 H       12.5360     4.0190     0.6390 H     1 <1>   0.0800 
 43 H       14.1640     4.1630     0.0250 H     1 <1>   0.0800 
 44 H       13.8920     3.8420     1.7240 H     1 <1>   0.0800 
@<TRIPOS>BOND
  1   1   2  ar  
  2   2   3  ar  
  3   2   4  1   
  4   4   5  1   
  5   4  26  1   
  6   4  27  1   
  7   5   6  1   
  8   5  28  1   
  9   5  29  1   
 10   6   7  2   
 11   6   8  am  
 12   8   9  1   
 13   8  30  1   
 14   9  10  1   
 15   9  31  1   
 16   9  32  1   
 17  10  11  1   
 18  10  33  1   
 19  10  34  1   
 20  11  12  1   
 21  11  35  1   
 22  12  13  ar  
 23  12  14  ar  
 24  13  15  ar  
 25  14  16  1   
 26  14  17  ar  
 27  15  18  ar  
 28  15  19  ar  
 29  16  20  3   
 30  17  18  ar  
 31  17  36  1   
 32  18  21  ar  
 33  19  22  ar  
 34  19  37  1   
 35  21  23  ar  
 36  21  24  1   
 37  22  23  ar  
 38  22  25  1   
 39  23  38  1   
 40  24  39  1   
 41  24  40  1   
 42  24  41  1   
 43  25  42  1   
 44  25  43  1   
 45  25  44  1   
@<TRIPOS>SUBSTRUCTURE
  1 ****  13 GROUP 4 **** **** 0

# MOE 2024.06 (io_trps.svl 2023.06)
