@<TRIPOS>MOLECULE
[1,2,3]Thiadiazole-4-carboxylic acid (4-acetyl-phenyl)-cyclopentylcarbamoylmethyl-amide
46 48 1 0 0 
SMALL
USER_CHARGES


@<TRIPOS>ATOM
  1 S       -4.5680     1.0350     4.5220 S.3   1 <1>   0.1810 
  2 N       -5.3040     2.3620     3.7710 N.2   1 <1>  -0.2210 
  3 C       -4.7870     0.0360     3.1410 C.2   1 <1>  -0.1100 
  4 N       -5.6680     2.0710     2.6030 N.2   1 <1>  -0.2270 
  5 C       -5.3940     0.7680     2.1910 C.2   1 <1>   0.1410 
  6 C       -5.7830     0.2870     0.8750 C.2   1 <1>   0.7160 
  7 O       -6.0700    -0.8920     0.7500 O.2   1 <1>  -0.5700 
  8 N       -5.8550     1.1000    -0.2490 N.am  1 <1>  -0.4770 
  9 C       -5.2740     2.3660    -0.3470 C.ar  1 <1>   0.1170 
 10 C       -6.6790     0.6480    -1.4200 C.3   1 <1>   0.2010 
 11 C       -6.0540     3.5000    -0.5440 C.ar  1 <1>  -0.1500 
 12 C       -3.8980     2.5280    -0.2460 C.ar  1 <1>  -0.1500 
 13 C       -8.1730     0.7240    -1.1230 C.2   1 <1>   0.5690 
 14 C       -5.4780     4.7520    -0.6320 C.ar  1 <1>  -0.1500 
 15 C       -3.3260     3.7820    -0.3340 C.ar  1 <1>  -0.1500 
 16 O       -8.8440     1.5590    -1.6820 O.2   1 <1>  -0.5700 
 17 N       -8.6940    -0.1280    -0.2060 N.am  1 <1>  -0.7300 
 18 C       -4.0940     4.9350    -0.5270 C.ar  1 <1>   0.0860 
 19 C      -10.0310    -0.0350     0.3920 C.3   1 <1>   0.2200 
 20 C       -3.4560     6.2310    -0.6100 C.2   1 <1>   0.4230 
 21 C       -9.8990     0.6320     1.7560 C.3   1 <1>  -0.1600 
 22 C      -10.5050    -1.4410     0.7380 C.3   1 <1>  -0.1600 
 23 O       -2.2600     6.3770    -0.6370 O.2   1 <1>  -0.5700 
 24 C       -4.2900     7.4970    -0.6680 C.3   1 <1>  -0.1790 
 25 C       -9.4240    -0.4680     2.7130 C.3   1 <1>  -0.1600 
 26 C       -9.8080    -1.8000     2.0560 C.3   1 <1>  -0.1600 
 27 H       -4.4510    -0.9830     3.1740 H     1 <1>   0.1500 
 28 H       -6.4230    -0.3630    -1.6760 H     1 <1>   0.0800 
 29 H       -6.4650     1.2670    -2.2720 H     1 <1>   0.0800 
 30 H       -7.1240     3.4010    -0.6210 H     1 <1>   0.1500 
 31 H       -3.2720     1.6670    -0.0970 H     1 <1>   0.1500 
 32 H       -6.1250     5.5960    -0.7830 H     1 <1>   0.1500 
 33 H       -2.2570     3.8810    -0.2510 H     1 <1>   0.1500 
 34 H       -8.0640    -0.7770     0.2810 H     1 <1>   0.3700 
 35 H      -10.7090     0.4880    -0.2640 H     1 <1>   0.0800 
 36 H      -10.8730     0.9680     2.0660 H     1 <1>   0.0800 
 37 H       -9.2360     1.4790     1.7340 H     1 <1>   0.0800 
 38 H      -10.3000    -2.1460    -0.0490 H     1 <1>   0.0800 
 39 H      -11.5680    -1.4100     0.9020 H     1 <1>   0.0800 
 40 H       -4.8450     7.5280    -1.5870 H     1 <1>   0.0800 
 41 H       -3.6480     8.3590    -0.6260 H     1 <1>   0.0800 
 42 H       -4.9640     7.5320     0.1670 H     1 <1>   0.0800 
 43 H       -9.8820    -0.3580     3.6810 H     1 <1>   0.0800 
 44 H       -8.3540    -0.4150     2.8280 H     1 <1>   0.0800 
 45 H       -8.9170    -2.3720     1.8550 H     1 <1>   0.0800 
 46 H      -10.4570    -2.3800     2.6890 H     1 <1>   0.0800 
@<TRIPOS>BOND
  1   1   2  1   
  2   1   3  1   
  3   2   4  2   
  4   3   5  2   
  5   3  27  1   
  6   4   5  1   
  7   5   6  1   
  8   6   7  2   
  9   6   8  am  
 10   8   9  1   
 11   8  10  1   
 12   9  11  ar  
 13   9  12  ar  
 14  10  13  1   
 15  10  28  1   
 16  10  29  1   
 17  11  14  ar  
 18  11  30  1   
 19  12  15  ar  
 20  12  31  1   
 21  13  16  2   
 22  13  17  am  
 23  14  18  ar  
 24  14  32  1   
 25  15  18  ar  
 26  15  33  1   
 27  17  19  1   
 28  17  34  1   
 29  18  20  1   
 30  19  21  1   
 31  19  22  1   
 32  19  35  1   
 33  20  23  2   
 34  20  24  1   
 35  21  25  1   
 36  21  36  1   
 37  21  37  1   
 38  22  26  1   
 39  22  38  1   
 40  22  39  1   
 41  24  40  1   
 42  24  41  1   
 43  24  42  1   
 44  25  26  1   
 45  25  43  1   
 46  25  44  1   
 47  26  45  1   
 48  26  46  1   
@<TRIPOS>SUBSTRUCTURE
  1 ****   8 GROUP 4 **** **** 0

# MOE 2024.06 (io_trps.svl 2023.06)
