@<TRIPOS>MOLECULE
NONAME
40 42 1 0 0 
SMALL
USER_CHARGES


@<TRIPOS>ATOM
  1 CL       0.8890     2.6470    -2.7250 Cl    1 <1>  -0.1770 
  2 C        0.9300     2.6940    -0.9790 C.ar  1 <1>   0.1770 
  3 C        1.7590     1.8380    -0.2660 C.ar  1 <1>  -0.1440 
  4 C        0.1100     3.6050    -0.3370 C.ar  1 <1>  -0.1500 
  5 C        1.7520     1.9120     1.1200 C.ar  1 <1>  -0.1500 
  6 C        2.6660     0.8330    -0.9680 C.3   1 <1>   0.2390 
  7 C        0.1120     3.6680     1.0450 C.ar  1 <1>  -0.1500 
  8 C        0.9330     2.8220     1.7710 C.ar  1 <1>  -0.1500 
  9 N        4.0430     1.3480    -1.0660 N.pl3 1 <1>   0.3140 
 10 N        4.5300     1.9950    -2.1450 N.2   1 <1>  -0.4180 
 11 C        5.0190     1.1950    -0.1520 C.ar  1 <1>   0.1050 
 12 N        5.7670     2.2660    -1.9370 N.2   1 <1>  -0.2270 
 13 N        5.0230     0.6040     1.0550 N.ar  1 <1>  -0.5670 
 14 C        6.1050     1.7850    -0.7120 C.ar  1 <1>   0.2270 
 15 C        6.1860     0.6580     1.6610 C.ar  1 <1>   0.4700 
 16 C        7.2940     1.7760     0.0380 C.ar  1 <1>   0.4100 
 17 N        7.3290     1.2120     1.2270 N.ar  1 <1>  -0.6200 
 18 N        8.4470     2.3490    -0.4410 N.pl3 1 <1>  -0.8690 
 19 C        9.7220     2.4280     0.2960 C.3   1 <1>   0.2090 
 20 C       10.8240     2.8850    -0.6550 C.3   1 <1>  -0.1600 
 21 C       12.1640     2.9600     0.0720 C.3   1 <1>   0.1200 
 22 O       13.1160     3.3990    -0.8370 O.3   1 <1>  -0.5600 
 23 C       14.3980     3.5060    -0.3080 C.3   1 <1>   0.0400 
 24 H       -0.5200     4.2550    -0.9160 H     1 <1>   0.1500 
 25 H        2.3860     1.2660     1.7050 H     1 <1>   0.1500 
 26 H        2.3130     0.6110    -1.9570 H     1 <1>   0.0800 
 27 H        2.6880    -0.0850    -0.4110 H     1 <1>   0.0800 
 28 H       -0.5220     4.3740     1.5550 H     1 <1>   0.1500 
 29 H        0.9370     2.8720     2.8460 H     1 <1>   0.1500 
 30 H        6.2440     0.2010     2.6350 H     1 <1>   0.1500 
 31 H        8.4070     2.8350    -1.3420 H     1 <1>   0.4000 
 32 H        9.9600     1.4590     0.7020 H     1 <1>   0.0800 
 33 H        9.6160     3.1260     1.1100 H     1 <1>   0.0800 
 34 H       10.5820     3.8590    -1.0410 H     1 <1>   0.0800 
 35 H       10.9060     2.1850    -1.4670 H     1 <1>   0.0800 
 36 H       12.4550     1.9880     0.4350 H     1 <1>   0.0800 
 37 H       12.1170     3.6610     0.8880 H     1 <1>   0.0800 
 38 H       15.0530     3.8520    -1.0880 H     1 <1>   0.0800 
 39 H       14.7230     2.5400     0.0360 H     1 <1>   0.0800 
 40 H       14.3910     4.2160     0.5010 H     1 <1>   0.0800 
@<TRIPOS>BOND
  1   1   2  1   
  2   2   3  ar  
  3   2   4  ar  
  4   3   5  ar  
  5   3   6  1   
  6   4   7  ar  
  7   4  24  1   
  8   5   8  ar  
  9   5  25  1   
 10   6   9  1   
 11   6  26  1   
 12   6  27  1   
 13   7   8  ar  
 14   7  28  1   
 15   8  29  1   
 16   9  10  1   
 17   9  11  1   
 18  10  12  2   
 19  11  13  ar  
 20  11  14  ar  
 21  12  14  1   
 22  13  15  ar  
 23  14  16  ar  
 24  15  17  ar  
 25  15  30  1   
 26  16  17  ar  
 27  16  18  1   
 28  18  19  1   
 29  18  31  1   
 30  19  20  1   
 31  19  32  1   
 32  19  33  1   
 33  20  21  1   
 34  20  34  1   
 35  20  35  1   
 36  21  22  1   
 37  21  36  1   
 38  21  37  1   
 39  22  23  1   
 40  23  38  1   
 41  23  39  1   
 42  23  40  1   
@<TRIPOS>SUBSTRUCTURE
  1 ****  14 GROUP 4 **** **** 0

# MOE 2024.06 (io_trps.svl 2023.06)
