@<TRIPOS>MOLECULE
Thiophene-2-carboxylic acid cyclopentylcarbamoyl-pyridin-4-yl-methyl ester
41 43 1 0 0 
SMALL
USER_CHARGES


@<TRIPOS>ATOM
  1 S       -0.3940    -0.4030     0.2400 S.3   1 <1>  -0.0800 
  2 C       -2.1060     0.0290     0.3340 C.2   1 <1>  -0.0450 
  3 C       -0.5920    -1.7380     1.3530 C.2   1 <1>  -0.1100 
  4 C       -2.5880     1.1450    -0.4330 C.2   1 <1>   0.8050 
  5 C       -2.7220    -0.8370     1.1820 C.2   1 <1>  -0.1500 
  6 C       -1.8730    -1.8290     1.7540 C.2   1 <1>  -0.1500 
  7 O       -1.8910     1.8340    -1.1480 O.2   1 <1>  -0.5700 
  8 O       -3.8900     1.4150    -0.3420 O.3   1 <1>  -0.4300 
  9 C       -4.4670     2.5330    -1.0080 C.3   1 <1>   0.4040 
 10 C       -4.2910     3.7530    -0.1000 C.ar  1 <1>  -0.1440 
 11 C       -5.9370     2.2390    -1.3500 C.2   1 <1>   0.5690 
 12 C       -5.1620     4.0620     0.9290 C.ar  1 <1>  -0.1500 
 13 C       -3.2230     4.6150    -0.2640 C.ar  1 <1>  -0.1500 
 14 O       -6.4470     2.8060    -2.2890 O.2   1 <1>  -0.5700 
 15 N       -6.6400     1.3430    -0.6000 N.am  1 <1>  -0.7300 
 16 C       -4.9310     5.1810     1.7130 C.ar  1 <1>   0.1600 
 17 C       -3.0820     5.7060     0.5770 C.ar  1 <1>   0.1600 
 18 C       -8.0420     0.9510    -0.8080 C.3   1 <1>   0.2200 
 19 N       -3.9110     6.0090     1.5620 N.ar  1 <1>  -0.6200 
 20 C       -8.8070     1.1760     0.4900 C.3   1 <1>  -0.1600 
 21 C       -8.1020    -0.5600    -0.9910 C.3   1 <1>  -0.1600 
 22 C       -8.4940    -0.0370     1.3740 C.3   1 <1>  -0.1600 
 23 C       -8.0480    -1.1550     0.4210 C.3   1 <1>  -0.1600 
 24 H        0.2800    -2.3210     1.5940 H     1 <1>   0.1500 
 25 H       -3.7690    -0.8080     1.4290 H     1 <1>   0.1500 
 26 H       -2.2570    -2.5650     2.4390 H     1 <1>   0.1500 
 27 H       -3.9550     2.6890    -1.9420 H     1 <1>   0.0800 
 28 H       -6.0210     3.4510     1.1360 H     1 <1>   0.1500 
 29 H       -2.4930     4.4480    -1.0370 H     1 <1>   0.1500 
 30 H       -6.1680     0.8390     0.1510 H     1 <1>   0.3700 
 31 H       -5.6220     5.4060     2.5070 H     1 <1>   0.1500 
 32 H       -2.2420     6.3630     0.4310 H     1 <1>   0.1500 
 33 H       -8.4730     1.4850    -1.6400 H     1 <1>   0.0800 
 34 H       -9.8600     1.1810     0.2650 H     1 <1>   0.0800 
 35 H       -8.5540     2.1110     0.9570 H     1 <1>   0.0800 
 36 H       -7.3160    -0.9250    -1.6300 H     1 <1>   0.0800 
 37 H       -9.0490    -0.8100    -1.4380 H     1 <1>   0.0800 
 38 H       -9.3600    -0.3290     1.9440 H     1 <1>   0.0800 
 39 H       -7.6950     0.2010     2.0550 H     1 <1>   0.0800 
 40 H       -7.0410    -1.4540     0.6570 H     1 <1>   0.0800 
 41 H       -8.6900    -2.0160     0.4980 H     1 <1>   0.0800 
@<TRIPOS>BOND
  1   1   2  1   
  2   1   3  1   
  3   2   4  1   
  4   2   5  2   
  5   3   6  2   
  6   3  24  1   
  7   4   7  2   
  8   4   8  1   
  9   5   6  1   
 10   5  25  1   
 11   6  26  1   
 12   8   9  1   
 13   9  10  1   
 14   9  11  1   
 15   9  27  1   
 16  10  12  ar  
 17  10  13  ar  
 18  11  14  2   
 19  11  15  am  
 20  12  16  ar  
 21  12  28  1   
 22  13  17  ar  
 23  13  29  1   
 24  15  18  1   
 25  15  30  1   
 26  16  19  ar  
 27  16  31  1   
 28  17  19  ar  
 29  17  32  1   
 30  18  20  1   
 31  18  21  1   
 32  18  33  1   
 33  20  22  1   
 34  20  34  1   
 35  20  35  1   
 36  21  23  1   
 37  21  36  1   
 38  21  37  1   
 39  22  23  1   
 40  22  38  1   
 41  22  39  1   
 42  23  40  1   
 43  23  41  1   
@<TRIPOS>SUBSTRUCTURE
  1 ****   8 GROUP 4 **** **** 0

# MOE 2024.06 (io_trps.svl 2023.06)
