@<TRIPOS>MOLECULE
NONAME
59 62 1 0 0 
SMALL
USER_CHARGES


@<TRIPOS>ATOM
  1 O        4.2000    -3.8300    -0.7270 O.3   1 <1>  -0.2800 
  2 C        4.0480    -2.7920     0.0740 C.2   1 <1>  -0.0400 
  3 C        4.5600    -4.8590     0.0130 C.2   1 <1>  -0.0100 
  4 C        4.3080    -3.1450     1.3530 C.2   1 <1>  -0.1500 
  5 C        3.6290    -1.4690    -0.5460 C.3   1 <1>   0.2760 
  6 C        4.6460    -4.5040     1.3130 C.2   1 <1>  -0.1500 
  7 N        3.7100    -0.3560     0.4270 N.pl3 1 <1>   0.3140 
  8 N        2.7720    -0.1870     1.3380 N.2   1 <1>  -0.4180 
  9 C        4.5870     0.6350     0.5680 C.2   1 <1>   0.0060 
 10 N        3.0870     0.8610     2.0020 N.2   1 <1>   0.0000 
 11 N        4.2060     1.3900     1.5320 N.2   1 <1>  -0.3380 
 12 C        5.8170     0.8550    -0.3290 C.3   1 <1>   0.3700 
 13 N        6.4630    -0.4430    -0.6590 N.3   1 <1>  -0.8100 
 14 C        6.8300     1.9660     0.1170 C.3   1 <1>  -0.0800 
 15 C        7.2190    -1.0920     0.4380 C.3   1 <1>   0.1100 
 16 C        7.2650    -0.4320    -1.9070 C.3   1 <1>   0.1100 
 17 C        7.2310     2.0120     1.6090 C.3   1 <1>  -0.2400 
 18 C        6.3110     3.3590    -0.2790 C.3   1 <1>  -0.2400 
 19 C        7.6750    -2.5200     0.0800 C.3   1 <1>   0.2090 
 20 C        7.7090    -1.8470    -2.3290 C.3   1 <1>   0.2090 
 21 N        8.3950    -2.5720    -1.2240 N.pl3 1 <1>  -0.8380 
 22 C        9.7890    -2.6120    -1.2170 C.ar  1 <1>   0.1000 
 23 C       10.4690    -3.7810    -1.5580 C.ar  1 <1>  -0.1430 
 24 C       10.5250    -1.4840    -0.8670 C.ar  1 <1>  -0.1500 
 25 C       11.8540    -3.8000    -1.5460 C.ar  1 <1>  -0.1500 
 26 C        9.6990    -5.0350    -1.9440 C.3   1 <1>  -0.0970 
 27 C       11.9080    -1.5030    -0.8540 C.ar  1 <1>  -0.1430 
 28 C       12.5710    -2.6690    -1.1960 C.ar  1 <1>  -0.1500 
 29 C       12.7020    -0.2680    -0.4710 C.3   1 <1>  -0.0970 
 30 H        4.7360    -5.8070    -0.4650 H     1 <1>   0.1500 
 31 H        4.2690    -2.5380     2.2420 H     1 <1>   0.1500 
 32 H        2.6130    -1.5490    -0.8810 H     1 <1>   0.0800 
 33 H        4.2420    -1.2530    -1.3980 H     1 <1>   0.0800 
 34 H        4.9110    -5.1080     2.1620 H     1 <1>   0.1500 
 35 H        5.4010     1.2060    -1.2570 H     1 <1>   0.0800 
 36 H        7.7350     1.8210    -0.4410 H     1 <1>   0.0800 
 37 H        6.6090    -1.1360     1.3240 H     1 <1>   0.0800 
 38 H        8.0980    -0.5170     0.6630 H     1 <1>   0.0800 
 39 H        8.1460     0.1700    -1.7810 H     1 <1>   0.0800 
 40 H        6.6840    -0.0070    -2.7070 H     1 <1>   0.0800 
 41 H        7.4570     1.0420     2.0030 H     1 <1>   0.0800 
 42 H        6.4470     2.4360     2.2110 H     1 <1>   0.0800 
 43 H        8.1010     2.6310     1.7320 H     1 <1>   0.0800 
 44 H        5.3950     3.5850     0.2390 H     1 <1>   0.0800 
 45 H        6.1290     3.4110    -1.3380 H     1 <1>   0.0800 
 46 H        7.0360     4.1140    -0.0280 H     1 <1>   0.0800 
 47 H        6.8190    -3.1650     0.0240 H     1 <1>   0.0800 
 48 H        8.3180    -2.8960     0.8570 H     1 <1>   0.0800 
 49 H        8.3710    -1.7790    -3.1750 H     1 <1>   0.0800 
 50 H        6.8460    -2.4140    -2.6300 H     1 <1>   0.0800 
 51 H       10.0000    -0.5890    -0.6060 H     1 <1>   0.1500 
 52 H       12.3840    -4.6970    -1.8080 H     1 <1>   0.1500 
 53 H        9.0520    -5.3230    -1.1360 H     1 <1>   0.0800 
 54 H       10.3630    -5.8500    -2.1650 H     1 <1>   0.0800 
 55 H        9.0950    -4.8340    -2.8110 H     1 <1>   0.0800 
 56 H       13.6460    -2.7010    -1.1910 H     1 <1>   0.1500 
 57 H       12.0520     0.5180    -0.1320 H     1 <1>   0.0800 
 58 H       13.2560     0.0860    -1.3220 H     1 <1>   0.0800 
 59 H       13.3910    -0.5060     0.3190 H     1 <1>   0.0800 
@<TRIPOS>BOND
  1   1   2  1   
  2   1   3  1   
  3   2   4  2   
  4   2   5  1   
  5   3   6  2   
  6   3  30  1   
  7   4   6  1   
  8   4  31  1   
  9   5   7  1   
 10   5  32  1   
 11   5  33  1   
 12   6  34  1   
 13   7   8  1   
 14   7   9  1   
 15   8  10  2   
 16   9  11  2   
 17   9  12  1   
 18  10  11  1   
 19  12  13  1   
 20  12  14  1   
 21  12  35  1   
 22  13  15  1   
 23  13  16  1   
 24  14  17  1   
 25  14  18  1   
 26  14  36  1   
 27  15  19  1   
 28  15  37  1   
 29  15  38  1   
 30  16  20  1   
 31  16  39  1   
 32  16  40  1   
 33  17  41  1   
 34  17  42  1   
 35  17  43  1   
 36  18  44  1   
 37  18  45  1   
 38  18  46  1   
 39  19  21  1   
 40  19  47  1   
 41  19  48  1   
 42  20  21  1   
 43  20  49  1   
 44  20  50  1   
 45  21  22  1   
 46  22  23  ar  
 47  22  24  ar  
 48  23  25  ar  
 49  23  26  1   
 50  24  27  ar  
 51  24  51  1   
 52  25  28  ar  
 53  25  52  1   
 54  26  53  1   
 55  26  54  1   
 56  26  55  1   
 57  27  28  ar  
 58  27  29  1   
 59  28  56  1   
 60  29  57  1   
 61  29  58  1   
 62  29  59  1   
@<TRIPOS>SUBSTRUCTURE
  1 ****  15 GROUP 4 **** **** 0

# MOE 2024.06 (io_trps.svl 2023.06)
