@<TRIPOS>MOLECULE
1560
37 37 1 0 0 
SMALL
USER_CHARGES


@<TRIPOS>ATOM
  1 O       -0.2670     0.1600    -0.5310 O.2   1 <1>  -0.5700 
  2 C       -0.8130     1.2120    -0.2650 C.2   1 <1>   0.6340 
  3 O       -0.0540     2.2920    -0.0520 O.3   1 <1>  -0.4300 
  4 C       -2.2510     1.3570    -0.1640 C.ar  1 <1>   0.0860 
  5 C        1.3530     2.2340    -0.1300 C.3   1 <1>   0.1200 
  6 C       -2.8600     2.5760     0.1500 C.ar  1 <1>  -0.1500 
  7 C       -3.1040     0.2710    -0.3790 C.ar  1 <1>  -0.1500 
  8 C        1.9070     3.6310     0.1610 C.3   1 <1>  -0.1600 
  9 C       -4.2330     2.7010     0.2430 C.ar  1 <1>  -0.1500 
 10 C       -4.4770     0.3940    -0.2880 C.ar  1 <1>  -0.1500 
 11 C        3.4340     3.7190    -0.0100 C.3   1 <1>  -0.0800 
 12 C       -5.0710     1.6120     0.0220 C.ar  1 <1>   0.1170 
 13 C        4.1790     2.8230     0.9880 C.3   1 <1>  -0.2400 
 14 C        3.8920     5.1710     0.1670 C.3   1 <1>  -0.2400 
 15 N       -6.4670     1.6760     0.1070 N.am  1 <1>  -0.5470 
 16 C       -7.3270     2.7390     0.1350 C.2   1 <1>   0.5690 
 17 O       -6.9900     3.8920     0.0610 O.2   1 <1>  -0.5700 
 18 C       -8.7980     2.4290     0.2550 C.3   1 <1>  -0.1790 
 19 H        1.6240     1.9100    -1.1210 H     1 <1>   0.0800 
 20 H        1.7000     1.5150     0.5920 H     1 <1>   0.0800 
 21 H       -2.2470     3.4430     0.3260 H     1 <1>   0.1500 
 22 H       -2.6730    -0.6860    -0.6220 H     1 <1>   0.1500 
 23 H        1.6400     3.9110     1.1650 H     1 <1>   0.0800 
 24 H        1.4420     4.3230    -0.5180 H     1 <1>   0.0800 
 25 H       -4.6490     3.6600     0.4920 H     1 <1>   0.1500 
 26 H       -5.0940    -0.4680    -0.4630 H     1 <1>   0.1500 
 27 H        3.6900     3.4070    -1.0100 H     1 <1>   0.0800 
 28 H        3.9070     3.0730     1.9980 H     1 <1>   0.0800 
 29 H        5.2420     2.9500     0.8800 H     1 <1>   0.0800 
 30 H        3.9550     1.7850     0.8160 H     1 <1>   0.0800 
 31 H        3.6580     5.5250     1.1560 H     1 <1>   0.0800 
 32 H        3.4040     5.8090    -0.5490 H     1 <1>   0.0800 
 33 H        4.9540     5.2500     0.0170 H     1 <1>   0.0800 
 34 H       -6.9280     0.7700     0.1250 H     1 <1>   0.3700 
 35 H       -8.9820     1.8690     1.1530 H     1 <1>   0.0800 
 36 H       -9.1230     1.8650    -0.5980 H     1 <1>   0.0800 
 37 H       -9.3590     3.3450     0.2980 H     1 <1>   0.0800 
@<TRIPOS>BOND
  1   1   2  2   
  2   2   3  1   
  3   2   4  1   
  4   3   5  1   
  5   4   6  ar  
  6   4   7  ar  
  7   5   8  1   
  8   5  19  1   
  9   5  20  1   
 10   6   9  ar  
 11   6  21  1   
 12   7  10  ar  
 13   7  22  1   
 14   8  11  1   
 15   8  23  1   
 16   8  24  1   
 17   9  12  ar  
 18   9  25  1   
 19  10  12  ar  
 20  10  26  1   
 21  11  13  1   
 22  11  14  1   
 23  11  27  1   
 24  12  15  1   
 25  13  28  1   
 26  13  29  1   
 27  13  30  1   
 28  14  31  1   
 29  14  32  1   
 30  14  33  1   
 31  15  16  am  
 32  15  34  1   
 33  16  17  2   
 34  16  18  1   
 35  18  35  1   
 36  18  36  1   
 37  18  37  1   
@<TRIPOS>SUBSTRUCTURE
  1 ****   6 GROUP 4 **** **** 0

# MOE 2024.06 (io_trps.svl 2023.06)
