@<TRIPOS>MOLECULE
ka-01430
34 34 1 0 0 
SMALL
USER_CHARGES


@<TRIPOS>ATOM
  1 P       -6.8040     2.6420     0.7340 P.3   1 <1>   1.2420 
  2 O       -6.5150     2.9480     2.1380 O.2   1 <1>  -0.7000 
  3 O       -7.1910     3.9520    -0.1180 O.3   1 <1>  -0.5510 
  4 O       -8.1010     1.7010     0.5660 O.3   1 <1>  -0.5510 
  5 C       -5.4420     1.8440    -0.1970 C.3   1 <1>   0.3340 
  6 C       -7.9150     4.9930     0.4440 C.3   1 <1>   0.1200 
  7 C       -8.5580     1.2910    -0.6720 C.3   1 <1>   0.1200 
  8 N       -5.0230     0.4620     0.1460 N.3   1 <1>  -0.9900 
  9 C       -4.1420     2.6430    -0.2110 C.ar  1 <1>  -0.1430 
 10 C       -9.4030     4.6460     0.4670 C.3   1 <1>  -0.2400 
 11 C       -9.8730     0.5530    -0.4550 C.3   1 <1>  -0.2400 
 12 C       -3.5690     3.0180    -1.4190 C.ar  1 <1>  -0.1500 
 13 C       -3.5090     3.0000     0.9730 C.ar  1 <1>  -0.1500 
 14 C       -2.3870     3.7390    -1.4430 C.ar  1 <1>  -0.1500 
 15 C       -2.3280     3.7210     0.9490 C.ar  1 <1>  -0.1500 
 16 C       -1.7660     4.0910    -0.2590 C.ar  1 <1>  -0.1500 
 17 H       -5.7660     1.7910    -1.2200 H     1 <1>   0.0800 
 18 H       -7.7530     5.8620    -0.1690 H     1 <1>   0.0800 
 19 H       -7.5390     5.1920     1.4350 H     1 <1>   0.0800 
 20 H       -7.8250     0.6360    -1.1140 H     1 <1>   0.0800 
 21 H       -8.7070     2.1570    -1.2960 H     1 <1>   0.0800 
 22 H       -4.8090     0.4480     1.1510 H     1 <1>   0.3600 
 23 H       -4.1260     0.3010    -0.3270 H     1 <1>   0.3600 
 24 H       -9.7440     4.3940    -0.5200 H     1 <1>   0.0800 
 25 H       -9.9620     5.4950     0.8150 H     1 <1>   0.0800 
 26 H       -9.5930     3.8280     1.1390 H     1 <1>   0.0800 
 27 H       -9.7150    -0.3020     0.1780 H     1 <1>   0.0800 
 28 H      -10.2620     0.2150    -1.3980 H     1 <1>   0.0800 
 29 H      -10.5940     1.2080     0.0000 H     1 <1>   0.0800 
 30 H       -4.0350     2.7540    -2.3520 H     1 <1>   0.1500 
 31 H       -3.9300     2.7220     1.9250 H     1 <1>   0.1500 
 32 H       -1.9500     4.0270    -2.3840 H     1 <1>   0.1500 
 33 H       -1.8480     3.9940     1.8730 H     1 <1>   0.1500 
 34 H       -0.8480     4.6520    -0.2770 H     1 <1>   0.1500 
@<TRIPOS>BOND
  1   1   2  2   
  2   1   3  1   
  3   1   4  1   
  4   1   5  1   
  5   3   6  1   
  6   4   7  1   
  7   5   8  1   
  8   5   9  1   
  9   5  17  1   
 10   6  10  1   
 11   6  18  1   
 12   6  19  1   
 13   7  11  1   
 14   7  20  1   
 15   7  21  1   
 16   8  22  1   
 17   8  23  1   
 18   9  12  ar  
 19   9  13  ar  
 20  10  24  1   
 21  10  25  1   
 22  10  26  1   
 23  11  27  1   
 24  11  28  1   
 25  11  29  1   
 26  12  14  ar  
 27  12  30  1   
 28  13  15  ar  
 29  13  31  1   
 30  14  16  ar  
 31  14  32  1   
 32  15  16  ar  
 33  15  33  1   
 34  16  34  1   
@<TRIPOS>SUBSTRUCTURE
  1 ****   5 GROUP 4 **** **** 0

# MOE 2024.06 (io_trps.svl 2023.06)
