@<TRIPOS>MOLECULE
NONAME
37 41 1 0 0 
SMALL
USER_CHARGES


@<TRIPOS>ATOM
  1 S        0.0500    -0.2080    -0.0870 S.3   1 <1>  -0.0800 
  2 C        1.5080     0.7610    -0.2150 C.2   1 <1>   0.1660 
  3 C       -0.9390     1.2440    -0.0460 C.2   1 <1>  -0.1400 
  4 N        2.7470     0.1970    -0.2920 N.2   1 <1>  -0.5760 
  5 C        1.2210     2.0870    -0.2200 C.2   1 <1>  -0.0130 
  6 C       -0.1880     2.3550    -0.1140 C.2   1 <1>  -0.1810 
  7 C       -2.4450     1.1430     0.0570 C.3   1 <1>   0.0200 
  8 C        3.7480     0.9970    -0.3850 C.2   1 <1>   0.8690 
  9 C        2.3460     2.9550    -0.3340 C.2   1 <1>   0.6660 
 10 C       -0.8180     3.7400    -0.0830 C.3   1 <1>   0.0210 
 11 C       -3.0680     2.5150    -0.2770 C.3   1 <1>  -0.0800 
 12 N        3.5940     2.3710    -0.4230 N.pl3 1 <1>  -0.6690 
 13 C        5.1520     0.3950    -0.4450 C.3   1 <1>  -0.1000 
 14 N        2.3940     4.2510    -0.3790 N.2   1 <1>  -0.2600 
 15 C       -2.2850     3.6680     0.3890 C.3   1 <1>  -0.1600 
 16 C       -4.5450     2.5540     0.1340 C.3   1 <1>  -0.2400 
 17 C        4.4190     3.3980    -0.5440 C.cat 1 <1>   0.7360 
 18 C        5.5040    -0.9500     0.1320 C.3   1 <1>  -0.2000 
 19 C        6.0040     0.3000     0.7900 C.3   1 <1>  -0.2000 
 20 N        3.7220     4.5100    -0.5110 N.pl3 1 <1>  -0.3930 
 21 S        6.0250     3.4000    -0.7370 S.3   1 <1>  -0.9360 
 22 H       -2.7020     0.8440     1.0580 H     1 <1>   0.0800 
 23 H       -2.8130     0.3980    -0.6270 H     1 <1>   0.0800 
 24 H       -0.7770     4.1620    -1.0720 H     1 <1>   0.0800 
 25 H       -0.2690     4.3830     0.5830 H     1 <1>   0.0800 
 26 H       -3.0140     2.6520    -1.3440 H     1 <1>   0.0800 
 27 H        5.6460     0.6610    -1.3620 H     1 <1>   0.1000 
 28 H       -2.7650     4.6080     0.1790 H     1 <1>   0.0800 
 29 H       -2.2980     3.5260     1.4560 H     1 <1>   0.0800 
 30 H       -4.6470     2.4380     1.1990 H     1 <1>   0.0800 
 31 H       -5.0890     1.7640    -0.3520 H     1 <1>   0.0800 
 32 H       -4.9860     3.4930    -0.1520 H     1 <1>   0.0800 
 33 H        6.2080    -1.5690    -0.3970 H     1 <1>   0.1000 
 34 H        4.7430    -1.5250     0.6300 H     1 <1>   0.1000 
 35 H        5.5820     0.5970     1.7340 H     1 <1>   0.1000 
 36 H        7.0370     0.5900     0.6940 H     1 <1>   0.1000 
 37 H        4.1880     5.4160    -0.5950 H     1 <1>   0.4500 
@<TRIPOS>BOND
  1   1   2  1   
  2   1   3  1   
  3   2   4  1   
  4   2   5  2   
  5   3   6  2   
  6   3   7  1   
  7   4   8  2   
  8   5   6  1   
  9   5   9  1   
 10   6  10  1   
 11   7  11  1   
 12   7  22  1   
 13   7  23  1   
 14   8  12  1   
 15   8  13  1   
 16   9  12  1   
 17   9  14  2   
 18  10  15  1   
 19  10  24  1   
 20  10  25  1   
 21  11  15  1   
 22  11  16  1   
 23  11  26  1   
 24  12  17  ar  
 25  13  18  1   
 26  13  19  1   
 27  13  27  1   
 28  14  20  1   
 29  15  28  1   
 30  15  29  1   
 31  16  30  1   
 32  16  31  1   
 33  16  32  1   
 34  17  20  ar  
 35  17  21  1   
 36  18  19  1   
 37  18  33  1   
 38  18  34  1   
 39  19  35  1   
 40  19  36  1   
 41  20  37  1   
@<TRIPOS>SUBSTRUCTURE
  1 ****   5 GROUP 4 **** **** 0

# MOE 2024.06 (io_trps.svl 2023.06)
