@<TRIPOS>MOLECULE
NONAME
45 48 1 0 0 
SMALL
USER_CHARGES


@<TRIPOS>ATOM
  1 S        0.3810    -0.0310     0.8280 S.3   1 <1>  -0.3320 
  2 C       -1.3040     0.5740     0.7250 C.ar  1 <1>   0.4120 
  3 C        1.2480     1.2110     1.9070 C.3   1 <1>   0.1310 
  4 N       -1.5240     1.7030     1.3190 N.ar  1 <1>  -0.6200 
  5 C       -2.2570    -0.1840     0.0100 C.ar  1 <1>  -0.1430 
  6 C        2.7490     0.9640     1.9280 C.2   1 <1>   0.5690 
  7 C       -2.7850     2.1860     1.2470 C.ar  1 <1>   0.3100 
  8 C       -3.5310     0.3100    -0.1010 C.ar  1 <1>  -0.1440 
  9 C       -1.8450    -1.5160    -0.6240 C.3   1 <1>  -0.0160 
 10 O        3.2430     0.5490     2.9520 O.2   1 <1>  -0.5700 
 11 N        3.5180     1.2370     0.8270 N.am  1 <1>  -0.6600 
 12 C       -3.8300     1.5310     0.5540 C.ar  1 <1>   0.0000 
 13 C       -3.0550     3.4010     1.8980 C.ar  1 <1>  -0.1500 
 14 C       -4.6150    -0.4190    -0.8970 C.3   1 <1>  -0.0170 
 15 C       -3.0400    -2.3690    -1.0590 C.3   1 <1>  -0.1600 
 16 C        4.9760     1.0000     0.7990 C.3   1 <1>   0.1400 
 17 C        3.0290     1.7150    -0.4850 C.3   1 <1>   0.1400 
 18 C       -5.1100     2.1340     0.5700 C.ar  1 <1>  -0.1500 
 19 C       -4.3010     3.9640     1.8870 C.ar  1 <1>  -0.1500 
 20 C       -4.0570    -1.5140    -1.8120 C.3   1 <1>  -0.1600 
 21 C        5.3640     1.1310    -0.6700 C.3   1 <1>  -0.1600 
 22 C        4.2930     2.0370    -1.2730 C.3   1 <1>  -0.1600 
 23 C       -5.3410     3.3190     1.2150 C.ar  1 <1>  -0.1500 
 24 H        0.8350     1.1120     2.8940 H     1 <1>   0.0800 
 25 H        1.0340     2.1880     1.5200 H     1 <1>   0.0800 
 26 H       -1.2650    -2.0950     0.0740 H     1 <1>   0.0800 
 27 H       -1.2260    -1.3090    -1.4790 H     1 <1>   0.0800 
 28 H       -2.2410     3.8790     2.4120 H     1 <1>   0.1500 
 29 H       -5.1510     0.2800    -1.5140 H     1 <1>   0.0800 
 30 H       -5.3110    -0.8570    -0.2030 H     1 <1>   0.0800 
 31 H       -3.5080    -2.7970    -0.1880 H     1 <1>   0.0800 
 32 H       -2.6980    -3.1750    -1.6840 H     1 <1>   0.0800 
 33 H        5.2140     0.0240     1.1900 H     1 <1>   0.0800 
 34 H        5.4650     1.7550     1.3910 H     1 <1>   0.0800 
 35 H        2.3990     2.5820    -0.3770 H     1 <1>   0.0800 
 36 H        2.4820     0.9230    -0.9670 H     1 <1>   0.0800 
 37 H       -5.9290     1.6550     0.0670 H     1 <1>   0.1500 
 38 H       -4.4950     4.8960     2.3910 H     1 <1>   0.1500 
 39 H       -3.5790    -1.0590    -2.6630 H     1 <1>   0.0800 
 40 H       -4.8640    -2.1300    -2.1720 H     1 <1>   0.0800 
 41 H        5.3210     0.1580    -1.1280 H     1 <1>   0.0800 
 42 H        6.3550     1.5300    -0.7870 H     1 <1>   0.0800 
 43 H        4.5530     3.0680    -1.1100 H     1 <1>   0.0800 
 44 H        4.1600     1.8710    -2.3270 H     1 <1>   0.0800 
 45 H       -6.3200     3.7660     1.2160 H     1 <1>   0.1500 
@<TRIPOS>BOND
  1   1   2  1   
  2   1   3  1   
  3   2   4  ar  
  4   2   5  ar  
  5   3   6  1   
  6   3  24  1   
  7   3  25  1   
  8   4   7  ar  
  9   5   8  ar  
 10   5   9  1   
 11   6  10  2   
 12   6  11  am  
 13   7  12  ar  
 14   7  13  ar  
 15   8  12  ar  
 16   8  14  1   
 17   9  15  1   
 18   9  26  1   
 19   9  27  1   
 20  11  16  1   
 21  11  17  1   
 22  12  18  ar  
 23  13  19  ar  
 24  13  28  1   
 25  14  20  1   
 26  14  29  1   
 27  14  30  1   
 28  15  20  1   
 29  15  31  1   
 30  15  32  1   
 31  16  21  1   
 32  16  33  1   
 33  16  34  1   
 34  17  22  1   
 35  17  35  1   
 36  17  36  1   
 37  18  23  ar  
 38  18  37  1   
 39  19  23  ar  
 40  19  38  1   
 41  20  39  1   
 42  20  40  1   
 43  21  22  1   
 44  21  41  1   
 45  21  42  1   
 46  22  43  1   
 47  22  44  1   
 48  23  45  1   
@<TRIPOS>SUBSTRUCTURE
  1 ****   2 GROUP 4 **** **** 0

# MOE 2024.06 (io_trps.svl 2023.06)
