@<TRIPOS>MOLECULE
NONAME
48 50 1 0 0 
SMALL
USER_CHARGES


@<TRIPOS>ATOM
  1 S        0.0130     1.7020     1.6710 S.3   1 <1>  -0.2860 
  2 C        0.8920     1.1310     0.2170 C.2   1 <1>   0.2420 
  3 C       -1.2950     2.8350     0.9920 C.3   1 <1>   0.1310 
  4 N        0.8170     1.7320    -0.9180 N.2   1 <1>  -0.5650 
  5 N        1.6660     0.0180     0.2550 N.pl3 1 <1>   0.0480 
  6 C       -2.4050     2.0200     0.3470 C.2   1 <1>   0.5690 
  7 C        1.6070     0.9660    -1.7200 C.ar  1 <1>   0.2270 
  8 C        2.1450    -0.1000    -1.0160 C.ar  1 <1>  -0.1520 
  9 C        1.8120    -0.9450     1.3640 C.3   1 <1>   0.2390 
 10 O       -3.5140     2.0750     0.8240 O.2   1 <1>  -0.5700 
 11 N       -2.0940     1.2660    -0.7400 N.am  1 <1>  -0.7300 
 12 C        1.8980     1.1270    -3.0730 C.ar  1 <1>  -0.1500 
 13 C        2.9880    -1.0220    -1.6430 C.ar  1 <1>  -0.1500 
 14 C        0.6390    -1.9160     1.3810 C.ar  1 <1>  -0.1430 
 15 C       -2.8730     0.2450    -1.4320 C.3   1 <1>   0.3000 
 16 C        2.7260     0.2190    -3.6960 C.ar  1 <1>  -0.1500 
 17 C        3.2700    -0.8540    -2.9810 C.ar  1 <1>  -0.1500 
 18 C       -0.3440    -1.8090     2.3550 C.ar  1 <1>  -0.1500 
 19 C        0.5370    -2.9160     0.4240 C.ar  1 <1>  -0.1500 
 20 C       -4.0870     0.8900    -2.0970 C.3   1 <1>  -0.2400 
 21 C       -1.9490    -0.3520    -2.4920 C.3   1 <1>  -0.2400 
 22 C       -3.2840    -0.8430    -0.4410 C.3   1 <1>  -0.2400 
 23 C       -1.4090    -2.6920     2.3750 C.ar  1 <1>  -0.1500 
 24 C       -0.5280    -3.7990     0.4440 C.ar  1 <1>  -0.1500 
 25 C       -1.5020    -3.6890     1.4210 C.ar  1 <1>  -0.1500 
 26 H       -0.8290     3.4860     0.2770 H     1 <1>   0.0800 
 27 H       -1.6800     3.4050     1.8160 H     1 <1>   0.0800 
 28 H        1.8650    -0.4040     2.2910 H     1 <1>   0.0800 
 29 H        2.7310    -1.4850     1.2390 H     1 <1>   0.0800 
 30 H       -1.1120     1.2920    -1.0460 H     1 <1>   0.3700 
 31 H        1.4700     1.9600    -3.5990 H     1 <1>   0.1500 
 32 H        3.4070    -1.8450    -1.0920 H     1 <1>   0.1500 
 33 H        2.9610     0.3280    -4.7410 H     1 <1>   0.1500 
 34 H        3.9150    -1.5490    -3.4910 H     1 <1>   0.1500 
 35 H       -0.2920    -1.0350     3.1020 H     1 <1>   0.1500 
 36 H        1.2820    -3.0130    -0.3450 H     1 <1>   0.1500 
 37 H       -3.7780     1.6760    -2.7610 H     1 <1>   0.0800 
 38 H       -4.7480     1.2990    -1.3540 H     1 <1>   0.0800 
 39 H       -4.6330     0.1570    -2.6620 H     1 <1>   0.0800 
 40 H       -1.6250     0.4070    -3.1810 H     1 <1>   0.0800 
 41 H       -2.4650    -1.1140    -3.0460 H     1 <1>   0.0800 
 42 H       -1.0850    -0.7990    -2.0300 H     1 <1>   0.0800 
 43 H       -3.9520    -0.4470     0.3010 H     1 <1>   0.0800 
 44 H       -2.4160    -1.2450     0.0480 H     1 <1>   0.0800 
 45 H       -3.7880    -1.6410    -0.9530 H     1 <1>   0.0800 
 46 H       -2.1690    -2.6000     3.1320 H     1 <1>   0.1500 
 47 H       -0.6010    -4.5720    -0.3020 H     1 <1>   0.1500 
 48 H       -2.3310    -4.3740     1.4370 H     1 <1>   0.1500 
@<TRIPOS>BOND
  1   1   2  1   
  2   1   3  1   
  3   2   4  2   
  4   2   5  1   
  5   3   6  1   
  6   3  26  1   
  7   3  27  1   
  8   4   7  1   
  9   5   8  1   
 10   5   9  1   
 11   6  10  2   
 12   6  11  am  
 13   7   8  ar  
 14   7  12  ar  
 15   8  13  ar  
 16   9  14  1   
 17   9  28  1   
 18   9  29  1   
 19  11  15  1   
 20  11  30  1   
 21  12  16  ar  
 22  12  31  1   
 23  13  17  ar  
 24  13  32  1   
 25  14  18  ar  
 26  14  19  ar  
 27  15  20  1   
 28  15  21  1   
 29  15  22  1   
 30  16  17  ar  
 31  16  33  1   
 32  17  34  1   
 33  18  23  ar  
 34  18  35  1   
 35  19  24  ar  
 36  19  36  1   
 37  20  37  1   
 38  20  38  1   
 39  20  39  1   
 40  21  40  1   
 41  21  41  1   
 42  21  42  1   
 43  22  43  1   
 44  22  44  1   
 45  22  45  1   
 46  23  25  ar  
 47  23  46  1   
 48  24  25  ar  
 49  24  47  1   
 50  25  48  1   
@<TRIPOS>SUBSTRUCTURE
  1 ****   2 GROUP 4 **** **** 0

# MOE 2024.06 (io_trps.svl 2023.06)
