@<TRIPOS>MOLECULE
(3-Oxo-2,3-dihydro-benzo[1,4]oxazin-4-yl)-acetic acid cyclohexylcarbamoylmethyl ester
47 49 1 0 0 
SMALL
USER_CHARGES


@<TRIPOS>ATOM
  1 O        0.8740    -3.6240    -1.7320 O.2   1 <1>  -0.5700 
  2 C        1.3350    -3.8860    -0.6450 C.2   1 <1>   0.5690 
  3 N        2.0020    -2.9620     0.1220 N.am  1 <1>  -0.4770 
  4 C        1.1460    -5.2930    -0.0910 C.3   1 <1>   0.1810 
  5 C        2.6190    -3.3630     1.3340 C.ar  1 <1>   0.1170 
  6 C        2.1450    -1.5590    -0.3990 C.3   1 <1>   0.2010 
  7 O        2.1790    -5.6730     0.8090 O.3   1 <1>  -0.3630 
  8 C        2.6830    -4.7280     1.6460 C.ar  1 <1>   0.0830 
  9 C        3.1790    -2.4630     2.2390 C.ar  1 <1>  -0.1500 
 10 C        3.5440    -1.2800    -0.9270 C.2   1 <1>   0.6590 
 11 C        3.2750    -5.1670     2.8160 C.ar  1 <1>  -0.1500 
 12 C        3.7680    -2.9050     3.4120 C.ar  1 <1>  -0.1500 
 13 O        4.2800    -0.5010    -0.3800 O.2   1 <1>  -0.5700 
 14 O        3.9080    -1.9580    -2.0080 O.3   1 <1>  -0.4300 
 15 C        3.8170    -4.2560     3.7040 C.ar  1 <1>  -0.1500 
 16 C        5.2220    -1.8720    -2.5500 C.3   1 <1>   0.1810 
 17 C        6.2030    -2.8120    -1.8540 C.2   1 <1>   0.5690 
 18 O        7.3730    -2.7330    -2.1460 O.2   1 <1>  -0.5700 
 19 N        5.7500    -3.7180    -0.9460 N.am  1 <1>  -0.7300 
 20 C        6.5870    -4.6570    -0.1880 C.3   1 <1>   0.2200 
 21 C        5.9140    -6.0330    -0.1900 C.3   1 <1>  -0.1600 
 22 C        6.7630    -4.1220     1.2350 C.3   1 <1>  -0.1600 
 23 C        6.6900    -7.0310     0.6820 C.3   1 <1>  -0.1600 
 24 C        7.5350    -5.1160     2.1140 C.3   1 <1>  -0.1600 
 25 C        6.8680    -6.4980     2.1110 C.3   1 <1>  -0.1600 
 26 H        1.1350    -6.0040    -0.8970 H     1 <1>   0.0800 
 27 H        0.2140    -5.3440     0.4380 H     1 <1>   0.0800 
 28 H        1.9130    -0.8590     0.3810 H     1 <1>   0.0800 
 29 H        1.4480    -1.3810    -1.1970 H     1 <1>   0.0800 
 30 H        3.1710    -1.4060     2.0530 H     1 <1>   0.1500 
 31 H        3.3110    -6.2210     3.0280 H     1 <1>   0.1500 
 32 H        4.1940    -2.1930     4.0990 H     1 <1>   0.1500 
 33 H        4.2770    -4.5970     4.6160 H     1 <1>   0.1500 
 34 H        5.5720    -0.8580    -2.4740 H     1 <1>   0.0800 
 35 H        5.1640    -2.1400    -3.5880 H     1 <1>   0.0800 
 36 H        4.7560    -3.7370    -0.7120 H     1 <1>   0.3700 
 37 H        7.5550    -4.7370    -0.6560 H     1 <1>   0.0800 
 38 H        5.8650    -6.4040    -1.1980 H     1 <1>   0.0800 
 39 H        4.9120    -5.9450     0.1920 H     1 <1>   0.0800 
 40 H        5.7970    -3.9460     1.6700 H     1 <1>   0.0800 
 41 H        7.2950    -3.1880     1.1980 H     1 <1>   0.0800 
 42 H        7.6580    -7.2070     0.2450 H     1 <1>   0.0800 
 43 H        6.1640    -7.9700     0.7100 H     1 <1>   0.0800 
 44 H        7.5860    -4.7410     3.1210 H     1 <1>   0.0800 
 45 H        8.5430    -5.2060     1.7440 H     1 <1>   0.0800 
 46 H        7.4660    -7.1880     2.6810 H     1 <1>   0.0800 
 47 H        5.9050    -6.4280     2.5860 H     1 <1>   0.0800 
@<TRIPOS>BOND
  1   1   2  2   
  2   2   3  am  
  3   2   4  1   
  4   3   5  1   
  5   3   6  1   
  6   4   7  1   
  7   4  26  1   
  8   4  27  1   
  9   5   8  ar  
 10   5   9  ar  
 11   6  10  1   
 12   6  28  1   
 13   6  29  1   
 14   7   8  1   
 15   8  11  ar  
 16   9  12  ar  
 17   9  30  1   
 18  10  13  2   
 19  10  14  1   
 20  11  15  ar  
 21  11  31  1   
 22  12  15  ar  
 23  12  32  1   
 24  14  16  1   
 25  15  33  1   
 26  16  17  1   
 27  16  34  1   
 28  16  35  1   
 29  17  18  2   
 30  17  19  am  
 31  19  20  1   
 32  19  36  1   
 33  20  21  1   
 34  20  22  1   
 35  20  37  1   
 36  21  23  1   
 37  21  38  1   
 38  21  39  1   
 39  22  24  1   
 40  22  40  1   
 41  22  41  1   
 42  23  25  1   
 43  23  42  1   
 44  23  43  1   
 45  24  25  1   
 46  24  44  1   
 47  24  45  1   
 48  25  46  1   
 49  25  47  1   
@<TRIPOS>SUBSTRUCTURE
  1 ****   5 GROUP 4 **** **** 0

# MOE 2024.06 (io_trps.svl 2023.06)
