@<TRIPOS>MOLECULE
1-(1-Phenyl-1H-tetrazol-5-yl)-piperidine-4-carboxylic acid (2,6-diethyl-phenyl)-amide
58 61 1 0 0 
SMALL
USER_CHARGES


@<TRIPOS>ATOM
  1 O       -0.5440    -1.1050     0.9710 O.2   1 <1>  -0.5700 
  2 C       -0.3350    -1.5240    -0.1410 C.2   1 <1>   0.5690 
  3 N        0.9170    -1.6150    -0.6750 N.am  1 <1>  -0.5470 
  4 C       -1.5100    -1.9890    -0.9990 C.3   1 <1>  -0.0190 
  5 C        2.1340    -1.2300    -0.0940 C.ar  1 <1>   0.1170 
  6 C       -2.6570    -0.9590    -1.0090 C.3   1 <1>  -0.1600 
  7 C       -2.0260    -3.3590    -0.5200 C.3   1 <1>  -0.1600 
  8 C        2.7630    -0.0590    -0.5260 C.ar  1 <1>  -0.1440 
  9 C        2.7460    -2.0210     0.8850 C.ar  1 <1>  -0.1440 
 10 C       -3.8540    -1.4570    -1.8200 C.3   1 <1>   0.2090 
 11 C       -3.2340    -3.8270    -1.3340 C.3   1 <1>   0.2090 
 12 C        3.9900     0.3000     0.0070 C.ar  1 <1>  -0.1500 
 13 C        2.1380     0.8580    -1.5740 C.3   1 <1>  -0.0160 
 14 C        3.9720    -1.6400     1.4050 C.ar  1 <1>  -0.1500 
 15 C        2.1160    -3.3090     1.4100 C.3   1 <1>  -0.0170 
 16 N       -4.2840    -2.7770    -1.2890 N.pl3 1 <1>  -0.8220 
 17 C        4.5950    -0.4860     0.9690 C.ar  1 <1>  -0.1500 
 18 C        2.4970     0.4010    -2.9900 C.3   1 <1>  -0.2400 
 19 C        2.4090    -4.4860     0.4750 C.3   1 <1>  -0.2400 
 20 C       -5.6240    -3.1700    -1.4630 C.2   1 <1>   0.2700 
 21 N       -5.9780    -4.2290    -2.1030 N.2   1 <1>  -0.3380 
 22 N       -6.7260    -2.5310    -1.0150 N.pl3 1 <1>   0.5930 
 23 N       -7.3070    -4.2480    -2.0750 N.2   1 <1>   0.0000 
 24 N       -7.7720    -3.2430    -1.4370 N.2   1 <1>  -0.4180 
 25 C       -6.8420    -1.3420    -0.2350 C.ar  1 <1>  -0.0230 
 26 C       -7.8280    -0.4000    -0.5200 C.ar  1 <1>  -0.1500 
 27 C       -5.9720    -1.0910     0.8240 C.ar  1 <1>  -0.1500 
 28 C       -7.9340     0.7610     0.2240 C.ar  1 <1>  -0.1500 
 29 C       -6.0760     0.0710     1.5670 C.ar  1 <1>  -0.1500 
 30 C       -7.0570     0.9990     1.2670 C.ar  1 <1>  -0.1500 
 31 H        0.9890    -1.9110    -1.6440 H     1 <1>   0.3700 
 32 H       -1.1640    -2.1010    -2.0110 H     1 <1>   0.0800 
 33 H       -2.3080    -0.0300    -1.4210 H     1 <1>   0.0800 
 34 H       -2.9830    -0.7650    -0.0010 H     1 <1>   0.0800 
 35 H       -2.3150    -3.2940     0.5160 H     1 <1>   0.0800 
 36 H       -1.2430    -4.0920    -0.5940 H     1 <1>   0.0800 
 37 H       -3.5800    -1.5650    -2.8560 H     1 <1>   0.0800 
 38 H       -4.6570    -0.7440    -1.7560 H     1 <1>   0.0800 
 39 H       -3.6170    -4.7450    -0.9200 H     1 <1>   0.0800 
 40 H       -2.9530    -4.0080    -2.3580 H     1 <1>   0.0800 
 41 H        4.4830     1.1970    -0.3220 H     1 <1>   0.1500 
 42 H        2.4930     1.8640    -1.4280 H     1 <1>   0.0800 
 43 H        1.0690     0.8880    -1.4530 H     1 <1>   0.0800 
 44 H        4.4530    -2.2410     2.1550 H     1 <1>   0.1500 
 45 H        1.0550    -3.1870     1.5270 H     1 <1>   0.0800 
 46 H        2.5090    -3.5300     2.3870 H     1 <1>   0.0800 
 47 H        5.5470    -0.2000     1.3790 H     1 <1>   0.1500 
 48 H        3.5660     0.4040    -3.1170 H     1 <1>   0.0800 
 49 H        2.0620     1.0660    -3.7150 H     1 <1>   0.0800 
 50 H        2.1340    -0.5940    -3.1690 H     1 <1>   0.0800 
 51 H        1.9980    -4.2990    -0.5000 H     1 <1>   0.0800 
 52 H        1.9750    -5.3870     0.8680 H     1 <1>   0.0800 
 53 H        3.4710    -4.6250     0.3800 H     1 <1>   0.0800 
 54 H       -8.5190    -0.5760    -1.3270 H     1 <1>   0.1500 
 55 H       -5.2040    -1.8060     1.0710 H     1 <1>   0.1500 
 56 H       -8.7010     1.4810    -0.0070 H     1 <1>   0.1500 
 57 H       -5.3930     0.2530     2.3800 H     1 <1>   0.1500 
 58 H       -7.1390     1.9030     1.8460 H     1 <1>   0.1500 
@<TRIPOS>BOND
  1   1   2  2   
  2   2   3  am  
  3   2   4  1   
  4   3   5  1   
  5   3  31  1   
  6   4   6  1   
  7   4   7  1   
  8   4  32  1   
  9   5   8  ar  
 10   5   9  ar  
 11   6  10  1   
 12   6  33  1   
 13   6  34  1   
 14   7  11  1   
 15   7  35  1   
 16   7  36  1   
 17   8  12  ar  
 18   8  13  1   
 19   9  14  ar  
 20   9  15  1   
 21  10  16  1   
 22  10  37  1   
 23  10  38  1   
 24  11  16  1   
 25  11  39  1   
 26  11  40  1   
 27  12  17  ar  
 28  12  41  1   
 29  13  18  1   
 30  13  42  1   
 31  13  43  1   
 32  14  17  ar  
 33  14  44  1   
 34  15  19  1   
 35  15  45  1   
 36  15  46  1   
 37  16  20  1   
 38  17  47  1   
 39  18  48  1   
 40  18  49  1   
 41  18  50  1   
 42  19  51  1   
 43  19  52  1   
 44  19  53  1   
 45  20  21  2   
 46  20  22  1   
 47  21  23  1   
 48  22  24  1   
 49  22  25  1   
 50  23  24  2   
 51  25  26  ar  
 52  25  27  ar  
 53  26  28  ar  
 54  26  54  1   
 55  27  29  ar  
 56  27  55  1   
 57  28  30  ar  
 58  28  56  1   
 59  29  30  ar  
 60  29  57  1   
 61  30  58  1   
@<TRIPOS>SUBSTRUCTURE
  1 ****   4 GROUP 4 **** **** 0

# MOE 2024.06 (io_trps.svl 2023.06)
