@<TRIPOS>MOLECULE
Pyrrolidine-1,2-dicarboxylic acid 2-[(2,3-dimethyl-phenyl)-amide] 1-[(4-methoxy-phenyl)-amide]
52 54 1 0 0 
SMALL
USER_CHARGES


@<TRIPOS>ATOM
  1 O        2.6020    -0.9990    -1.2710 O.2   1 <1>  -0.5700 
  2 C        2.6960    -0.1200    -0.4370 C.2   1 <1>   0.6900 
  3 N        3.5160    -0.2920     0.6450 N.am  1 <1>  -0.6600 
  4 N        1.9350     0.9910    -0.6200 N.am  1 <1>  -0.5470 
  5 C        4.4740    -1.4360     0.7760 C.3   1 <1>   0.2810 
  6 C        3.5740     0.5810     1.8440 C.3   1 <1>   0.1400 
  7 C        2.2580     2.3300    -0.3850 C.ar  1 <1>   0.1170 
  8 C        3.7910    -2.7580     1.2160 C.2   1 <1>   0.5690 
  9 C        5.4850    -0.8920     1.7930 C.3   1 <1>  -0.1600 
 10 C        4.6430    -0.0390     2.7380 C.3   1 <1>  -0.1600 
 11 C        3.5090     2.8370    -0.7190 C.ar  1 <1>  -0.1500 
 12 C        1.3170     3.1790     0.1810 C.ar  1 <1>  -0.1500 
 13 O        4.2800    -3.4200     2.1040 O.2   1 <1>  -0.5700 
 14 N        2.6620    -3.1470     0.5460 N.am  1 <1>  -0.5470 
 15 C        3.8220     4.1630    -0.4810 C.ar  1 <1>  -0.1500 
 16 C        1.6250     4.5060     0.4200 C.ar  1 <1>  -0.1500 
 17 C        1.8010    -4.2510     0.6800 C.ar  1 <1>   0.1170 
 18 C        2.8760     5.0070     0.0950 C.ar  1 <1>   0.0820 
 19 C        1.0160    -4.6600    -0.4060 C.ar  1 <1>  -0.1430 
 20 C        1.6900    -4.9310     1.8870 C.ar  1 <1>  -0.1500 
 21 O        3.0960     6.3200     0.3670 O.3   1 <1>  -0.3630 
 22 C        0.1310    -5.7280    -0.2600 C.ar  1 <1>  -0.1430 
 23 C        1.1480    -3.9190    -1.7400 C.3   1 <1>  -0.0970 
 24 C        0.8230    -5.9940     2.0260 C.ar  1 <1>  -0.1500 
 25 C        4.3220     6.9340     0.0360 C.3   1 <1>   0.0400 
 26 C        0.0460    -6.3890     0.9560 C.ar  1 <1>  -0.1500 
 27 C       -0.7660    -6.2120    -1.3920 C.3   1 <1>  -0.0970 
 28 H        1.2220     0.8380    -1.3290 H     1 <1>   0.3700 
 29 H        4.9630    -1.6120    -0.1660 H     1 <1>   0.0800 
 30 H        2.6160     0.6180     2.3360 H     1 <1>   0.0800 
 31 H        3.8750     1.5730     1.5610 H     1 <1>   0.0800 
 32 H        6.1930    -0.2690     1.2750 H     1 <1>   0.0800 
 33 H        6.0270    -1.6660     2.3080 H     1 <1>   0.0800 
 34 H        4.1690    -0.6670     3.4730 H     1 <1>   0.0800 
 35 H        5.2260     0.7110     3.2440 H     1 <1>   0.0800 
 36 H        4.2390     2.1860    -1.1660 H     1 <1>   0.1500 
 37 H        0.3450     2.7990     0.4380 H     1 <1>   0.1500 
 38 H        2.4180    -2.5180    -0.2290 H     1 <1>   0.3700 
 39 H        4.7980     4.5190    -0.7490 H     1 <1>   0.1500 
 40 H        0.8980     5.1650     0.8610 H     1 <1>   0.1500 
 41 H        2.2800    -4.6280     2.7310 H     1 <1>   0.1500 
 42 H        2.1830    -3.7440    -1.9720 H     1 <1>   0.0800 
 43 H        0.6420    -2.9720    -1.6800 H     1 <1>   0.0800 
 44 H        0.7370    -4.4710    -2.5630 H     1 <1>   0.0800 
 45 H        0.7530    -6.5120     2.9670 H     1 <1>   0.1500 
 46 H        4.2650     7.9680     0.3270 H     1 <1>   0.0800 
 47 H        4.4730     6.8620    -1.0260 H     1 <1>   0.0800 
 48 H        5.1150     6.4470     0.5750 H     1 <1>   0.0800 
 49 H       -0.6280    -7.2180     1.0800 H     1 <1>   0.1500 
 50 H       -0.1680    -6.6410    -2.1750 H     1 <1>   0.0800 
 51 H       -1.3370    -5.3920    -1.7880 H     1 <1>   0.0800 
 52 H       -1.4560    -6.9610    -1.0470 H     1 <1>   0.0800 
@<TRIPOS>BOND
  1   1   2  2   
  2   2   3  am  
  3   2   4  am  
  4   3   5  1   
  5   3   6  1   
  6   4   7  1   
  7   4  28  1   
  8   5   8  1   
  9   5   9  1   
 10   5  29  1   
 11   6  10  1   
 12   6  30  1   
 13   6  31  1   
 14   7  11  ar  
 15   7  12  ar  
 16   8  13  2   
 17   8  14  am  
 18   9  10  1   
 19   9  32  1   
 20   9  33  1   
 21  10  34  1   
 22  10  35  1   
 23  11  15  ar  
 24  11  36  1   
 25  12  16  ar  
 26  12  37  1   
 27  14  17  1   
 28  14  38  1   
 29  15  18  ar  
 30  15  39  1   
 31  16  18  ar  
 32  16  40  1   
 33  17  19  ar  
 34  17  20  ar  
 35  18  21  1   
 36  19  22  ar  
 37  19  23  1   
 38  20  24  ar  
 39  20  41  1   
 40  21  25  1   
 41  22  26  ar  
 42  22  27  1   
 43  23  42  1   
 44  23  43  1   
 45  23  44  1   
 46  24  26  ar  
 47  24  45  1   
 48  25  46  1   
 49  25  47  1   
 50  25  48  1   
 51  26  49  1   
 52  27  50  1   
 53  27  51  1   
 54  27  52  1   
@<TRIPOS>SUBSTRUCTURE
  1 ****   2 GROUP 4 **** **** 0

# MOE 2024.06 (io_trps.svl 2023.06)
