@<TRIPOS>MOLECULE
NONAME
41 43 1 0 0 
SMALL
USER_CHARGES


@<TRIPOS>ATOM
  1 S        0.0320    -0.1660     0.3370 S.o2  1 <1>   1.4470 
  2 O       -0.0800    -0.7640     1.6500 O.2   1 <1>  -0.6500 
  3 O       -0.2940    -0.9510    -0.8330 O.2   1 <1>  -0.6500 
  4 N        1.6470     0.3240     0.1680 N.am  1 <1>  -0.8490 
  5 C       -0.8830     1.4020     0.2800 C.ar  1 <1>  -0.0090 
  6 C        2.1860     0.9410     1.3790 C.3   1 <1>   0.1960 
  7 C        2.4960    -0.7770    -0.3090 C.3   1 <1>   0.1960 
  8 C       -1.8920     1.6780     1.2010 C.ar  1 <1>  -0.1500 
  9 C       -0.5970     2.3580    -0.6950 C.ar  1 <1>  -0.1500 
 10 C        3.4950     1.6710     1.0520 C.3   1 <1>  -0.1600 
 11 C        3.9960    -0.4550    -0.2020 C.3   1 <1>  -0.1600 
 12 C       -2.5940     2.8720     1.1620 C.ar  1 <1>  -0.1500 
 13 C       -1.2880     3.5570    -0.7510 C.ar  1 <1>  -0.1500 
 14 C        4.2360     1.0510    -0.1400 C.3   1 <1>   0.2200 
 15 C       -2.2770     3.7920     0.1830 C.ar  1 <1>   0.1900 
 16 N        5.6790     1.3110    -0.0120 N.am  1 <1>  -0.7300 
 17 F       -2.9320     4.9200     0.1400 F     1 <1>  -0.1900 
 18 C        6.4190     2.1540    -0.7900 C.2   1 <1>   0.7150 
 19 O        5.8690     2.7760    -1.6790 O.2   1 <1>  -0.5700 
 20 C        7.8340     2.2930    -0.5410 C.2   1 <1>   0.0550 
 21 O        8.4280     1.6120     0.4380 O.3   1 <1>  -0.2800 
 22 C        8.7750     3.0550    -1.1660 C.2   1 <1>  -0.1500 
 23 C        9.7060     1.9180     0.4510 C.2   1 <1>  -0.0100 
 24 C        9.9880     2.8100    -0.5220 C.2   1 <1>  -0.1500 
 25 H        2.3610     0.1780     2.1210 H     1 <1>   0.0800 
 26 H        1.4820     1.6470     1.7890 H     1 <1>   0.0800 
 27 H        2.2510    -0.9690    -1.3420 H     1 <1>   0.0800 
 28 H        2.2850    -1.6750     0.2490 H     1 <1>   0.0800 
 29 H       -2.1290     0.9490     1.9590 H     1 <1>   0.1500 
 30 H        0.1770     2.1560    -1.4180 H     1 <1>   0.1500 
 31 H        4.1130     1.6620     1.9320 H     1 <1>   0.0800 
 32 H        3.2750     2.6970     0.8160 H     1 <1>   0.0800 
 33 H        4.5060    -0.8760    -1.0490 H     1 <1>   0.0800 
 34 H        4.3840    -0.9200     0.6870 H     1 <1>   0.0800 
 35 H       -3.3730     3.0870     1.8720 H     1 <1>   0.1500 
 36 H       -1.0670     4.2950    -1.5020 H     1 <1>   0.1500 
 37 H        3.8620     1.4920    -1.0500 H     1 <1>   0.0800 
 38 H        6.1760     0.8170     0.7290 H     1 <1>   0.3700 
 39 H        8.6220     3.7200    -1.9980 H     1 <1>   0.1500 
 40 H       10.3490     1.4590     1.1820 H     1 <1>   0.1500 
 41 H       10.9350     3.2560    -0.7730 H     1 <1>   0.1500 
@<TRIPOS>BOND
  1   1   2  2   
  2   1   3  2   
  3   1   4  am  
  4   1   5  1   
  5   4   6  1   
  6   4   7  1   
  7   5   8  ar  
  8   5   9  ar  
  9   6  10  1   
 10   6  25  1   
 11   6  26  1   
 12   7  11  1   
 13   7  27  1   
 14   7  28  1   
 15   8  12  ar  
 16   8  29  1   
 17   9  13  ar  
 18   9  30  1   
 19  10  14  1   
 20  10  31  1   
 21  10  32  1   
 22  11  14  1   
 23  11  33  1   
 24  11  34  1   
 25  12  15  ar  
 26  12  35  1   
 27  13  15  ar  
 28  13  36  1   
 29  14  16  1   
 30  14  37  1   
 31  15  17  1   
 32  16  18  am  
 33  16  38  1   
 34  18  19  2   
 35  18  20  1   
 36  20  21  1   
 37  20  22  2   
 38  21  23  1   
 39  22  24  1   
 40  22  39  1   
 41  23  24  2   
 42  23  40  1   
 43  24  41  1   
@<TRIPOS>SUBSTRUCTURE
  1 ****  10 GROUP 4 **** **** 0

# MOE 2024.06 (io_trps.svl 2023.06)
