@<TRIPOS>MOLECULE
NONAME
56 59 1 0 0 
SMALL
USER_CHARGES


@<TRIPOS>ATOM
  1 S       -0.2980    -0.9040    -0.1160 S.3   1 <1>   0.1810 
  2 N       -1.3560    -0.6800     1.1880 N.2   1 <1>  -0.2210 
  3 C       -1.5650    -0.7740    -1.2690 C.2   1 <1>  -0.1100 
  4 N       -2.5360    -0.5210     0.7840 N.2   1 <1>  -0.2270 
  5 C       -2.7110    -0.5620    -0.6000 C.2   1 <1>   0.1410 
  6 C       -4.0310    -0.4170    -1.1800 C.2   1 <1>   0.7160 
  7 O       -4.2380    -0.8070    -2.3160 O.2   1 <1>  -0.5700 
  8 N       -5.0610     0.1390    -0.4500 N.am  1 <1>  -0.2860 
  9 C       -4.9700     1.4430     0.0570 C.ar  1 <1>   0.1170 
 10 C       -6.3090    -0.5450    -0.3410 C.2   1 <1>   0.1230 
 11 C       -4.9130     2.5300    -0.8070 C.ar  1 <1>  -0.1500 
 12 C       -4.9470     1.6740     1.4270 C.ar  1 <1>  -0.1500 
 13 C       -6.3650    -1.7060     0.4110 C.2   1 <1>   0.1000 
 14 C       -7.4240     0.0640    -0.9970 C.2   1 <1>   0.6160 
 15 C       -4.8240     3.8180    -0.3130 C.ar  1 <1>  -0.1500 
 16 C       -4.8570     2.9630     1.9210 C.ar  1 <1>  -0.1500 
 17 N       -5.3080    -2.0650     1.2610 N.pl3 1 <1>  -0.6000 
 18 C       -7.4600    -2.6310     0.4060 C.2   1 <1>  -0.1500 
 19 O       -7.3040     0.6440    -2.0700 O.2   1 <1>  -0.5700 
 20 N       -8.6650     0.0850    -0.4050 N.am  1 <1>  -0.7300 
 21 C       -4.7950     4.0420     1.0540 C.ar  1 <1>  -0.1430 
 22 C       -5.3320    -3.1850     2.0670 C.2   1 <1>  -0.0500 
 23 C       -7.4910    -3.7390     1.1930 C.2   1 <1>  -0.1500 
 24 C       -9.7900     0.9130    -0.8660 C.3   1 <1>   0.2200 
 25 C       -4.6950     5.4560     1.5970 C.3   1 <1>  -0.0970 
 26 C       -6.4000    -4.0180     2.0520 C.2   1 <1>  -0.1500 
 27 C       -9.7400     2.2620    -0.1400 C.3   1 <1>  -0.1600 
 28 C      -11.0980     0.1710    -0.5740 C.3   1 <1>  -0.1600 
 29 C      -10.9570     3.1290    -0.4950 C.3   1 <1>  -0.1600 
 30 C      -12.3170     1.0350    -0.9320 C.3   1 <1>  -0.1600 
 31 C      -12.2700     2.3880    -0.2080 C.3   1 <1>  -0.1600 
 32 H       -1.3400    -0.8710    -2.3150 H     1 <1>   0.1500 
 33 H       -4.9530     2.3620    -1.8700 H     1 <1>   0.1500 
 34 H       -4.9950     0.8450     2.1090 H     1 <1>   0.1500 
 35 H       -4.7810     4.6460    -0.9990 H     1 <1>   0.1500 
 36 H       -4.8340     3.1230     2.9850 H     1 <1>   0.1500 
 37 H       -4.4810    -1.4530     1.3040 H     1 <1>   0.4000 
 38 H       -8.2790    -2.4430    -0.2640 H     1 <1>   0.1500 
 39 H       -8.7240    -0.2130     0.5680 H     1 <1>   0.3700 
 40 H       -4.4750    -3.3610     2.6980 H     1 <1>   0.1500 
 41 H       -8.3200    -4.4240     1.1800 H     1 <1>   0.1500 
 42 H       -9.7100     1.0790    -1.9280 H     1 <1>   0.0800 
 43 H       -3.6620     5.7220     1.7300 H     1 <1>   0.0800 
 44 H       -5.1980     5.5320     2.5440 H     1 <1>   0.0800 
 45 H       -5.1490     6.1540     0.9160 H     1 <1>   0.0800 
 46 H       -6.4430    -4.8960     2.6710 H     1 <1>   0.1500 
 47 H       -8.8400     2.7810    -0.4210 H     1 <1>   0.0800 
 48 H       -9.7240     2.1010     0.9240 H     1 <1>   0.0800 
 49 H      -11.1450    -0.0820     0.4700 H     1 <1>   0.0800 
 50 H      -11.1270    -0.7370    -1.1500 H     1 <1>   0.0800 
 51 H      -10.9150     3.3870    -1.5400 H     1 <1>   0.0800 
 52 H      -10.9260     4.0440     0.0710 H     1 <1>   0.0800 
 53 H      -13.2200     0.5140    -0.6650 H     1 <1>   0.0800 
 54 H      -12.3350     1.2020    -1.9960 H     1 <1>   0.0800 
 55 H      -13.1020     2.9940    -0.5230 H     1 <1>   0.0800 
 56 H      -12.3640     2.2280     0.8530 H     1 <1>   0.0800 
@<TRIPOS>BOND
  1   1   2  1   
  2   1   3  1   
  3   2   4  2   
  4   3   5  2   
  5   3  32  1   
  6   4   5  1   
  7   5   6  1   
  8   6   7  2   
  9   6   8  am  
 10   8   9  1   
 11   8  10  1   
 12   9  11  ar  
 13   9  12  ar  
 14  10  13  2   
 15  10  14  1   
 16  11  15  ar  
 17  11  33  1   
 18  12  16  ar  
 19  12  34  1   
 20  13  17  1   
 21  13  18  1   
 22  14  19  2   
 23  14  20  am  
 24  15  21  ar  
 25  15  35  1   
 26  16  21  ar  
 27  16  36  1   
 28  17  22  1   
 29  17  37  1   
 30  18  23  2   
 31  18  38  1   
 32  20  24  1   
 33  20  39  1   
 34  21  25  1   
 35  22  26  2   
 36  22  40  1   
 37  23  26  1   
 38  23  41  1   
 39  24  27  1   
 40  24  28  1   
 41  24  42  1   
 42  25  43  1   
 43  25  44  1   
 44  25  45  1   
 45  26  46  1   
 46  27  29  1   
 47  27  47  1   
 48  27  48  1   
 49  28  30  1   
 50  28  49  1   
 51  28  50  1   
 52  29  31  1   
 53  29  51  1   
 54  29  52  1   
 55  30  31  1   
 56  30  53  1   
 57  30  54  1   
 58  31  55  1   
 59  31  56  1   
@<TRIPOS>SUBSTRUCTURE
  1 ****  10 GROUP 4 **** **** 0

# MOE 2024.06 (io_trps.svl 2023.06)
