@<TRIPOS>MOLECULE
NONAME
57 59 1 0 0 
SMALL
USER_CHARGES


@<TRIPOS>ATOM
  1 O        0.6280    -0.0580     0.2480 O.2   1 <1>  -0.5700 
  2 C        1.3180     0.7820    -0.2980 C.2   1 <1>   0.6900 
  3 N        2.4530     0.4260    -0.9790 N.am  1 <1>  -0.6600 
  4 N        0.9620     2.0880    -0.2470 N.am  1 <1>  -0.7300 
  5 C        3.5780     1.3600    -1.2790 C.3   1 <1>   0.1400 
  6 C        2.7520    -1.0000    -1.2840 C.3   1 <1>   0.1400 
  7 C       -0.2380     2.6190     0.4160 C.3   1 <1>   0.2200 
  8 C        4.8190     0.9490    -0.4720 C.3   1 <1>  -0.0190 
  9 C        3.9910    -1.4460    -0.4980 C.3   1 <1>  -0.1600 
 10 C       -1.2580     3.0230    -0.6530 C.3   1 <1>  -0.1600 
 11 C        0.1660     3.8170     1.2810 C.3   1 <1>  -0.1600 
 12 C        5.9870     1.8810    -0.7630 C.2   1 <1>   0.5690 
 13 C        5.1910    -0.5200    -0.7520 C.3   1 <1>  -0.1600 
 14 C       -2.4900     3.6880    -0.0220 C.3   1 <1>  -0.1600 
 15 C       -1.0630     4.4840     1.9160 C.3   1 <1>  -0.1600 
 16 O        6.0880     2.3920    -1.8530 O.2   1 <1>  -0.5700 
 17 N        6.8910     2.1020     0.2230 N.am  1 <1>  -0.7300 
 18 C       -2.0890     4.8880     0.8480 C.3   1 <1>  -0.1600 
 19 C        8.0860     2.9530     0.1050 C.3   1 <1>   0.2200 
 20 C        9.3330     2.0830     0.2920 C.3   1 <1>  -0.1600 
 21 C        8.0140     4.0580     1.1640 C.3   1 <1>  -0.1600 
 22 C       10.6110     2.9350     0.2850 C.3   1 <1>  -0.1600 
 23 C        9.2900     4.9150     1.1580 C.3   1 <1>  -0.1600 
 24 C       10.5420     4.0470     1.3410 C.3   1 <1>  -0.1600 
 25 H        1.4290     2.7210    -0.8860 H     1 <1>   0.3700 
 26 H        3.3190     2.3740    -1.0330 H     1 <1>   0.0800 
 27 H        3.7950     1.3170    -2.3330 H     1 <1>   0.0800 
 28 H        2.9330    -1.1000    -2.3400 H     1 <1>   0.0800 
 29 H        1.9140    -1.6280    -1.0310 H     1 <1>   0.0800 
 30 H       -0.6710     1.8600     1.0490 H     1 <1>   0.0800 
 31 H        4.5700     1.0520     0.5690 H     1 <1>   0.0800 
 32 H        4.2430    -2.4530    -0.7790 H     1 <1>   0.0800 
 33 H        3.7460    -1.4510     0.5500 H     1 <1>   0.0800 
 34 H       -1.5660     2.1450    -1.1940 H     1 <1>   0.0800 
 35 H       -0.8040     3.7100    -1.3440 H     1 <1>   0.0800 
 36 H        0.6830     4.5410     0.6750 H     1 <1>   0.0800 
 37 H        0.8310     3.4840     2.0580 H     1 <1>   0.0800 
 38 H        6.0150    -0.8160    -0.1250 H     1 <1>   0.0800 
 39 H        5.5050    -0.6160    -1.7780 H     1 <1>   0.0800 
 40 H       -3.0100     2.9660     0.5860 H     1 <1>   0.0800 
 41 H       -3.1630     4.0110    -0.7970 H     1 <1>   0.0800 
 42 H       -0.7560     5.3550     2.4700 H     1 <1>   0.0800 
 43 H       -1.5220     3.7980     2.6080 H     1 <1>   0.0800 
 44 H        6.7820     1.6410     1.1260 H     1 <1>   0.3700 
 45 H       -2.9640     5.2950     1.3240 H     1 <1>   0.0800 
 46 H       -1.6680     5.6560     0.2210 H     1 <1>   0.0800 
 47 H        8.1170     3.4050    -0.8740 H     1 <1>   0.0800 
 48 H        9.3840     1.3610    -0.5040 H     1 <1>   0.0800 
 49 H        9.2700     1.5560     1.2280 H     1 <1>   0.0800 
 50 H        7.8940     3.6190     2.1380 H     1 <1>   0.0800 
 51 H        7.1650     4.6870     0.9630 H     1 <1>   0.0800 
 52 H       10.7370     3.3770    -0.6890 H     1 <1>   0.0800 
 53 H       11.4650     2.3080     0.4750 H     1 <1>   0.0800 
 54 H        9.2380     5.6460     1.9460 H     1 <1>   0.0800 
 55 H        9.3580     5.4440     0.2220 H     1 <1>   0.0800 
 56 H       11.4210     4.6640     1.2710 H     1 <1>   0.0800 
 57 H       10.5290     3.6050     2.3230 H     1 <1>   0.0800 
@<TRIPOS>BOND
  1   1   2  2   
  2   2   3  am  
  3   2   4  am  
  4   3   5  1   
  5   3   6  1   
  6   4   7  1   
  7   4  25  1   
  8   5   8  1   
  9   5  26  1   
 10   5  27  1   
 11   6   9  1   
 12   6  28  1   
 13   6  29  1   
 14   7  10  1   
 15   7  11  1   
 16   7  30  1   
 17   8  12  1   
 18   8  13  1   
 19   8  31  1   
 20   9  13  1   
 21   9  32  1   
 22   9  33  1   
 23  10  14  1   
 24  10  34  1   
 25  10  35  1   
 26  11  15  1   
 27  11  36  1   
 28  11  37  1   
 29  12  16  2   
 30  12  17  am  
 31  13  38  1   
 32  13  39  1   
 33  14  18  1   
 34  14  40  1   
 35  14  41  1   
 36  15  18  1   
 37  15  42  1   
 38  15  43  1   
 39  17  19  1   
 40  17  44  1   
 41  18  45  1   
 42  18  46  1   
 43  19  20  1   
 44  19  21  1   
 45  19  47  1   
 46  20  22  1   
 47  20  48  1   
 48  20  49  1   
 49  21  23  1   
 50  21  50  1   
 51  21  51  1   
 52  22  24  1   
 53  22  52  1   
 54  22  53  1   
 55  23  24  1   
 56  23  54  1   
 57  23  55  1   
 58  24  56  1   
 59  24  57  1   
@<TRIPOS>SUBSTRUCTURE
  1 ****   5 GROUP 4 **** **** 0

# MOE 2024.06 (io_trps.svl 2023.06)
