@<TRIPOS>MOLECULE
4836
42 44 1 0 0 
SMALL
USER_CHARGES


@<TRIPOS>ATOM
  1 S        0.7550    -0.7420     0.1110 S.3   1 <1>  -0.0800 
  2 C        1.5220     0.8470    -0.0120 C.2   1 <1>  -0.0450 
  3 C       -0.8440    -0.0460     0.2380 C.2   1 <1>  -0.1100 
  4 C        2.9560     0.9190    -0.1450 C.2   1 <1>   0.7150 
  5 C        0.5500     1.7970     0.0450 C.2   1 <1>  -0.1500 
  6 C       -0.7770     1.2960     0.1870 C.2   1 <1>  -0.1500 
  7 O        3.6340    -0.0810    -0.2800 O.2   1 <1>  -0.5700 
  8 N        3.5550     2.1560    -0.0990 N.am  1 <1>  -0.5470 
  9 C        4.8810     2.5540    -0.2900 C.ar  1 <1>   0.1170 
 10 C        5.3070     3.7570     0.2600 C.ar  1 <1>  -0.1500 
 11 C        5.8040     1.8160    -1.0250 C.ar  1 <1>  -0.1500 
 12 C        6.6040     4.2020     0.0890 C.ar  1 <1>  -0.1500 
 13 C        7.1000     2.2620    -1.1940 C.ar  1 <1>  -0.1500 
 14 C        7.5420     3.4680    -0.6430 C.ar  1 <1>   0.0860 
 15 C        8.9060     3.9220    -0.8300 C.2   1 <1>   0.6340 
 16 O        9.7310     3.3020    -1.4710 O.2   1 <1>  -0.5700 
 17 O        9.2600     5.0800    -0.2640 O.3   1 <1>  -0.4300 
 18 C       10.5650     5.6110    -0.3570 C.3   1 <1>   0.2000 
 19 C       11.4450     4.9620     0.7210 C.3   1 <1>  -0.1600 
 20 C       10.4650     7.1270    -0.1570 C.3   1 <1>  -0.1600 
 21 C       12.8370     5.6090     0.7630 C.3   1 <1>  -0.1600 
 22 C       11.8570     7.7750    -0.1180 C.3   1 <1>  -0.1600 
 23 C       12.7380     7.1280     0.9590 C.3   1 <1>  -0.1600 
 24 H       -1.6750    -0.7230     0.3380 H     1 <1>   0.1500 
 25 H        0.7140     2.8580    -0.0120 H     1 <1>   0.1500 
 26 H       -1.6220     1.9600     0.2430 H     1 <1>   0.1500 
 27 H        2.9200     2.8970     0.1820 H     1 <1>   0.3700 
 28 H        4.6200     4.3520     0.8330 H     1 <1>   0.1500 
 29 H        5.5120     0.8840    -1.4750 H     1 <1>   0.1500 
 30 H        6.8980     5.1370     0.5330 H     1 <1>   0.1500 
 31 H        7.7910     1.6660    -1.7660 H     1 <1>   0.1500 
 32 H       10.9590     5.4050    -1.3390 H     1 <1>   0.0800 
 33 H       11.5520     3.9110     0.5130 H     1 <1>   0.0800 
 34 H       10.9740     5.0760     1.6810 H     1 <1>   0.0800 
 35 H        9.9570     7.3300     0.7690 H     1 <1>   0.0800 
 36 H        9.8940     7.5550    -0.9630 H     1 <1>   0.0800 
 37 H       13.3530     5.4020    -0.1590 H     1 <1>   0.0800 
 38 H       13.4110     5.1780     1.5650 H     1 <1>   0.0800 
 39 H       11.7590     8.8290     0.0800 H     1 <1>   0.0800 
 40 H       12.3290     7.6630    -1.0790 H     1 <1>   0.0800 
 41 H       13.7240     7.5610     0.9250 H     1 <1>   0.0800 
 42 H       12.3220     7.3350     1.9310 H     1 <1>   0.0800 
@<TRIPOS>BOND
  1   1   2  1   
  2   1   3  1   
  3   2   4  1   
  4   2   5  2   
  5   3   6  2   
  6   3  24  1   
  7   4   7  2   
  8   4   8  am  
  9   5   6  1   
 10   5  25  1   
 11   6  26  1   
 12   8   9  1   
 13   8  27  1   
 14   9  10  ar  
 15   9  11  ar  
 16  10  12  ar  
 17  10  28  1   
 18  11  13  ar  
 19  11  29  1   
 20  12  14  ar  
 21  12  30  1   
 22  13  14  ar  
 23  13  31  1   
 24  14  15  1   
 25  15  16  2   
 26  15  17  1   
 27  17  18  1   
 28  18  19  1   
 29  18  20  1   
 30  18  32  1   
 31  19  21  1   
 32  19  33  1   
 33  19  34  1   
 34  20  22  1   
 35  20  35  1   
 36  20  36  1   
 37  21  23  1   
 38  21  37  1   
 39  21  38  1   
 40  22  23  1   
 41  22  39  1   
 42  22  40  1   
 43  23  41  1   
 44  23  42  1   
@<TRIPOS>SUBSTRUCTURE
  1 ****  12 GROUP 4 **** **** 0

# MOE 2024.06 (io_trps.svl 2023.06)
