@<TRIPOS>MOLECULE
N-Cyclopentyl-2-(4-phenyl-5-pyridin-3-yl-4H-[1,2,4]triazol-3-ylsulfanyl)-acetamide
48 51 1 0 0 
SMALL
USER_CHARGES


@<TRIPOS>ATOM
  1 S        0.2720    -0.2490     0.1680 S.3   1 <1>  -0.2860 
  2 C       -1.4520    -0.7510     0.1200 C.2   1 <1>   0.2420 
  3 C        1.1660    -1.8360     0.5560 C.3   1 <1>   0.1310 
  4 N       -1.8320    -1.9630     0.3090 N.2   1 <1>  -0.3380 
  5 N       -2.4520     0.1040    -0.1220 N.pl3 1 <1>   0.3260 
  6 C        2.6710    -1.6300     0.6400 C.2   1 <1>   0.5690 
  7 N       -3.1570    -1.9480     0.1890 N.2   1 <1>  -0.3380 
  8 C       -2.3820     1.4870    -0.4410 C.ar  1 <1>  -0.0230 
  9 C       -3.5270    -0.7220    -0.0620 C.2   1 <1>   0.1330 
 10 O        3.3380    -2.4880     1.1670 O.2   1 <1>  -0.5700 
 11 N        3.2300    -0.5060     0.1230 N.am  1 <1>  -0.7300 
 12 C       -1.8800     2.4020     0.4790 C.ar  1 <1>  -0.1500 
 13 C       -2.8270     1.9510    -1.6750 C.ar  1 <1>  -0.1500 
 14 C       -4.8980    -0.3130    -0.2610 C.ar  1 <1>   0.0530 
 15 C        4.6600    -0.1630     0.1380 C.3   1 <1>   0.2200 
 16 C       -1.8270     3.7500     0.1730 C.ar  1 <1>  -0.1500 
 17 C       -2.7750     3.2990    -1.9800 C.ar  1 <1>  -0.1500 
 18 C       -5.7850    -1.1440    -0.9490 C.ar  1 <1>   0.1600 
 19 C       -5.4080     0.8920     0.2070 C.ar  1 <1>  -0.1500 
 20 C        4.8360     1.1610     0.8710 C.3   1 <1>  -0.1600 
 21 C        5.0990     0.1630    -1.2840 C.3   1 <1>  -0.1600 
 22 C       -2.2760     4.1990    -1.0560 C.ar  1 <1>  -0.1500 
 23 N       -7.0540    -0.8780    -1.2170 N.ar  1 <1>  -0.6200 
 24 C       -6.7270     1.1870    -0.0560 C.ar  1 <1>  -0.1500 
 25 C        4.4870     2.2510    -0.1490 C.3   1 <1>  -0.1600 
 26 C        4.6640     1.6120    -1.5330 C.3   1 <1>  -0.1600 
 27 C       -7.4970     0.2820    -0.7640 C.ar  1 <1>   0.1600 
 28 H        0.9290    -2.5360    -0.2230 H     1 <1>   0.0800 
 29 H        0.7860    -2.1940     1.4940 H     1 <1>   0.0800 
 30 H        2.6270     0.2130    -0.2800 H     1 <1>   0.3700 
 31 H       -1.5260     2.0640     1.4390 H     1 <1>   0.1500 
 32 H       -3.2180     1.2600    -2.4040 H     1 <1>   0.1500 
 33 H        5.2400    -0.9590     0.5770 H     1 <1>   0.0800 
 34 H       -1.4360     4.4510     0.8910 H     1 <1>   0.1500 
 35 H       -3.1230     3.6500    -2.9370 H     1 <1>   0.1500 
 36 H       -5.4100    -2.0910    -1.3020 H     1 <1>   0.1500 
 37 H       -4.8000     1.5830     0.7650 H     1 <1>   0.1500 
 38 H        5.8710     1.2600     1.1480 H     1 <1>   0.0800 
 39 H        4.2360     1.2150     1.7630 H     1 <1>   0.0800 
 40 H        4.6910    -0.5250    -2.0030 H     1 <1>   0.0800 
 41 H        6.1730     0.1090    -1.3280 H     1 <1>   0.0800 
 42 H       -2.2350     5.2490    -1.2940 H     1 <1>   0.1500 
 43 H       -7.1610     2.1100     0.2850 H     1 <1>   0.1500 
 44 H        5.1250     3.1100    -0.0260 H     1 <1>   0.0800 
 45 H        3.4640     2.5580    -0.0200 H     1 <1>   0.0800 
 46 H        3.7260     1.6280    -2.0620 H     1 <1>   0.0800 
 47 H        5.4000     2.1370    -2.1180 H     1 <1>   0.0800 
 48 H       -8.5280     0.5220    -0.9670 H     1 <1>   0.1500 
@<TRIPOS>BOND
  1   1   2  1   
  2   1   3  1   
  3   2   4  2   
  4   2   5  1   
  5   3   6  1   
  6   3  28  1   
  7   3  29  1   
  8   4   7  1   
  9   5   8  1   
 10   5   9  1   
 11   6  10  2   
 12   6  11  am  
 13   7   9  2   
 14   8  12  ar  
 15   8  13  ar  
 16   9  14  1   
 17  11  15  1   
 18  11  30  1   
 19  12  16  ar  
 20  12  31  1   
 21  13  17  ar  
 22  13  32  1   
 23  14  18  ar  
 24  14  19  ar  
 25  15  20  1   
 26  15  21  1   
 27  15  33  1   
 28  16  22  ar  
 29  16  34  1   
 30  17  22  ar  
 31  17  35  1   
 32  18  23  ar  
 33  18  36  1   
 34  19  24  ar  
 35  19  37  1   
 36  20  25  1   
 37  20  38  1   
 38  20  39  1   
 39  21  26  1   
 40  21  40  1   
 41  21  41  1   
 42  22  42  1   
 43  23  27  ar  
 44  24  27  ar  
 45  24  43  1   
 46  25  26  1   
 47  25  44  1   
 48  25  45  1   
 49  26  46  1   
 50  26  47  1   
 51  27  48  1   
@<TRIPOS>SUBSTRUCTURE
  1 ****   2 GROUP 4 **** **** 0

# MOE 2024.06 (io_trps.svl 2023.06)
