@<TRIPOS>MOLECULE
2894
43 43 1 0 0 
SMALL
USER_CHARGES


@<TRIPOS>ATOM
  1 O       -0.4950    -0.1970     0.3300 O.2   1 <1>  -0.5700 
  2 C       -0.3450    -1.3700     0.0580 C.2   1 <1>   0.6340 
  3 O        0.8960    -1.8480    -0.0680 O.3   1 <1>  -0.4300 
  4 C       -1.4540    -2.2880    -0.1350 C.ar  1 <1>   0.0860 
  5 C        2.0290    -1.0250     0.1040 C.3   1 <1>   0.1200 
  6 C       -2.7730    -1.8430    -0.0400 C.ar  1 <1>  -0.1500 
  7 C       -1.2570    -3.6400    -0.4220 C.ar  1 <1>  -0.1500 
  8 C        3.2800    -1.8770    -0.1100 C.3   1 <1>  -0.1600 
  9 C       -3.8610    -2.6850    -0.2180 C.ar  1 <1>   0.1170 
 10 C       -2.3250    -4.4990    -0.6000 C.ar  1 <1>  -0.1500 
 11 C        4.5550    -1.0430     0.0630 C.3   1 <1>  -0.1600 
 12 N       -5.1510    -2.1470    -0.0920 N.am  1 <1>  -0.5470 
 13 C       -3.6190    -4.0250    -0.4970 C.ar  1 <1>  -0.1500 
 14 C        5.8060    -1.8990    -0.1520 C.3   1 <1>  -0.2400 
 15 C       -6.3730    -2.5870    -0.5340 C.2   1 <1>   0.5690 
 16 O       -6.5030    -3.6010    -1.1780 O.2   1 <1>  -0.5700 
 17 C       -7.6360    -1.7470    -0.2060 C.3   1 <1>   0.0610 
 18 C       -7.3290    -0.4780     0.6220 C.3   1 <1>  -0.2400 
 19 C       -8.6340    -2.6010     0.5980 C.3   1 <1>  -0.2400 
 20 C       -8.3160    -1.3000    -1.5130 C.3   1 <1>  -0.2400 
 21 H        2.0040    -0.6170     1.1000 H     1 <1>   0.0800 
 22 H        1.9790    -0.2240    -0.6150 H     1 <1>   0.0800 
 23 H       -2.9470    -0.8040     0.1770 H     1 <1>   0.1500 
 24 H       -0.2560    -4.0280    -0.5070 H     1 <1>   0.1500 
 25 H        3.2560    -2.2930    -1.1020 H     1 <1>   0.0800 
 26 H        3.2810    -2.6830     0.6030 H     1 <1>   0.0800 
 27 H       -2.1530    -5.5390    -0.8200 H     1 <1>   0.1500 
 28 H        4.5810    -0.6210     1.0530 H     1 <1>   0.0800 
 29 H        4.5560    -0.2320    -0.6460 H     1 <1>   0.0800 
 30 H       -5.1890    -1.2460     0.3800 H     1 <1>   0.3700 
 31 H       -4.4380    -4.7080    -0.6320 H     1 <1>   0.1500 
 32 H        5.8380    -2.7040     0.5610 H     1 <1>   0.0800 
 33 H        6.6890    -1.2970    -0.0270 H     1 <1>   0.0800 
 34 H        5.8130    -2.3140    -1.1450 H     1 <1>   0.0800 
 35 H       -6.8800    -0.7370     1.5650 H     1 <1>   0.0800 
 36 H       -8.2360     0.0630     0.8270 H     1 <1>   0.0800 
 37 H       -6.6680     0.1790     0.0840 H     1 <1>   0.0800 
 38 H       -8.9150    -3.4740     0.0350 H     1 <1>   0.0800 
 39 H       -9.5250    -2.0430     0.8250 H     1 <1>   0.0800 
 40 H       -8.1870    -2.9290     1.5200 H     1 <1>   0.0800 
 41 H       -7.6430    -0.7000    -2.1000 H     1 <1>   0.0800 
 42 H       -9.2030    -0.7260    -1.3110 H     1 <1>   0.0800 
 43 H       -8.5950    -2.1580    -2.1000 H     1 <1>   0.0800 
@<TRIPOS>BOND
  1   1   2  2   
  2   2   3  1   
  3   2   4  1   
  4   3   5  1   
  5   4   6  ar  
  6   4   7  ar  
  7   5   8  1   
  8   5  21  1   
  9   5  22  1   
 10   6   9  ar  
 11   6  23  1   
 12   7  10  ar  
 13   7  24  1   
 14   8  11  1   
 15   8  25  1   
 16   8  26  1   
 17   9  12  1   
 18   9  13  ar  
 19  10  13  ar  
 20  10  27  1   
 21  11  14  1   
 22  11  28  1   
 23  11  29  1   
 24  12  15  am  
 25  12  30  1   
 26  13  31  1   
 27  14  32  1   
 28  14  33  1   
 29  14  34  1   
 30  15  16  2   
 31  15  17  1   
 32  17  18  1   
 33  17  19  1   
 34  17  20  1   
 35  18  35  1   
 36  18  36  1   
 37  18  37  1   
 38  19  38  1   
 39  19  39  1   
 40  19  40  1   
 41  20  41  1   
 42  20  42  1   
 43  20  43  1   
@<TRIPOS>SUBSTRUCTURE
  1 ****   6 GROUP 4 **** **** 0

# MOE 2024.06 (io_trps.svl 2023.06)
