@<TRIPOS>MOLECULE
NONAME
56 59 1 0 0 
SMALL
USER_CHARGES


@<TRIPOS>ATOM
  1 F       -1.0810     0.4530    -1.7220 F     1 <1>  -0.1900 
  2 C       -2.1790     0.4610    -1.0100 C.ar  1 <1>   0.1900 
  3 C       -2.9100    -0.7060    -0.8990 C.ar  1 <1>  -0.1500 
  4 C       -2.5670     1.6360    -0.3950 C.ar  1 <1>  -0.1500 
  5 C       -4.0710    -0.6900    -0.1470 C.ar  1 <1>  -0.1500 
  6 C       -3.7300     1.6330     0.3550 C.ar  1 <1>  -0.1500 
  7 C       -4.4980     0.4770     0.4870 C.ar  1 <1>   0.1000 
  8 N       -5.6680     0.5250     1.2450 N.pl3 1 <1>  -0.8380 
  9 C       -6.7960     1.3840     0.7830 C.3   1 <1>   0.2090 
 10 C       -6.1280    -0.6320     2.0690 C.3   1 <1>   0.2090 
 11 C       -7.8950     0.5500     0.0990 C.3   1 <1>   0.1100 
 12 C       -7.2550    -1.4200     1.3720 C.3   1 <1>   0.1100 
 13 N       -8.3910    -0.5590     0.9540 N.3   1 <1>  -0.8100 
 14 C       -9.4790    -1.3420     0.3110 C.3   1 <1>   0.5130 
 15 C      -10.6140    -0.4210    -0.1560 C.ar  1 <1>  -0.1430 
 16 C      -10.0230    -2.4510     1.2270 C.2   1 <1>   0.0060 
 17 C      -10.7570    -0.1070    -1.5020 C.ar  1 <1>  -0.1500 
 18 C      -11.5090     0.1260     0.7520 C.ar  1 <1>  -0.1500 
 19 N      -10.1950    -2.3510     2.4970 N.2   1 <1>  -0.3380 
 20 N      -10.3820    -3.6690     0.8330 N.pl3 1 <1>   0.3140 
 21 C      -11.7830     0.7170    -1.9300 C.ar  1 <1>  -0.1500 
 22 C      -12.5350     0.9500     0.3240 C.ar  1 <1>  -0.1500 
 23 N      -10.6630    -3.5220     2.8980 N.2   1 <1>   0.0000 
 24 N      -10.7760    -4.3240     1.9060 N.2   1 <1>  -0.4180 
 25 C      -10.3780    -4.3710    -0.4850 C.3   1 <1>   0.1760 
 26 C      -12.6810     1.2470    -1.0200 C.ar  1 <1>  -0.1430 
 27 C      -11.1760    -3.6250    -1.5630 C.3   1 <1>  -0.2400 
 28 C       -8.9490    -4.6870    -0.9520 C.3   1 <1>  -0.2400 
 29 C      -13.8080     2.1500    -1.4860 C.3   1 <1>  -0.0970 
 30 H       -2.5730    -1.6000    -1.3910 H     1 <1>   0.1500 
 31 H       -1.9710     2.5240    -0.4990 H     1 <1>   0.1500 
 32 H       -4.6510    -1.5870    -0.0550 H     1 <1>   0.1500 
 33 H       -4.0540     2.5270     0.8530 H     1 <1>   0.1500 
 34 H       -6.4330     2.1250     0.0930 H     1 <1>   0.0800 
 35 H       -7.2190     1.8960     1.6300 H     1 <1>   0.0800 
 36 H       -6.4960    -0.2630     3.0110 H     1 <1>   0.0800 
 37 H       -5.2990    -1.2850     2.2760 H     1 <1>   0.0800 
 38 H       -7.5040     0.1570    -0.8230 H     1 <1>   0.0800 
 39 H       -8.7030     1.2200    -0.1370 H     1 <1>   0.0800 
 40 H       -7.5970    -2.1700     2.0630 H     1 <1>   0.0800 
 41 H       -6.8470    -1.9230     0.5140 H     1 <1>   0.0800 
 42 H       -9.0570    -1.8050    -0.5590 H     1 <1>   0.0800 
 43 H      -10.0690    -0.4950    -2.2310 H     1 <1>   0.1500 
 44 H      -11.4070    -0.0850     1.8030 H     1 <1>   0.1500 
 45 H      -11.8800     0.9480    -2.9770 H     1 <1>   0.1500 
 46 H      -13.2180     1.3590     1.0480 H     1 <1>   0.1500 
 47 H      -10.8770    -5.3120    -0.3230 H     1 <1>   0.0800 
 48 H      -11.3690    -4.2870    -2.3880 H     1 <1>   0.0800 
 49 H      -10.6320    -2.7840    -1.9430 H     1 <1>   0.0800 
 50 H      -12.1220    -3.2950    -1.1690 H     1 <1>   0.0800 
 51 H       -8.4300    -5.2430    -0.1900 H     1 <1>   0.0800 
 52 H       -8.9840    -5.2940    -1.8390 H     1 <1>   0.0800 
 53 H       -8.3950    -3.7960    -1.1780 H     1 <1>   0.0800 
 54 H      -13.4880     3.1760    -1.4540 H     1 <1>   0.0800 
 55 H      -14.6680     2.0350    -0.8500 H     1 <1>   0.0800 
 56 H      -14.0960     1.9060    -2.4920 H     1 <1>   0.0800 
@<TRIPOS>BOND
  1   1   2  1   
  2   2   3  ar  
  3   2   4  ar  
  4   3   5  ar  
  5   3  30  1   
  6   4   6  ar  
  7   4  31  1   
  8   5   7  ar  
  9   5  32  1   
 10   6   7  ar  
 11   6  33  1   
 12   7   8  1   
 13   8   9  1   
 14   8  10  1   
 15   9  11  1   
 16   9  34  1   
 17   9  35  1   
 18  10  12  1   
 19  10  36  1   
 20  10  37  1   
 21  11  13  1   
 22  11  38  1   
 23  11  39  1   
 24  12  13  1   
 25  12  40  1   
 26  12  41  1   
 27  13  14  1   
 28  14  15  1   
 29  14  16  1   
 30  14  42  1   
 31  15  17  ar  
 32  15  18  ar  
 33  16  19  2   
 34  16  20  1   
 35  17  21  ar  
 36  17  43  1   
 37  18  22  ar  
 38  18  44  1   
 39  19  23  1   
 40  20  24  1   
 41  20  25  1   
 42  21  26  ar  
 43  21  45  1   
 44  22  26  ar  
 45  22  46  1   
 46  23  24  2   
 47  25  27  1   
 48  25  28  1   
 49  25  47  1   
 50  26  29  1   
 51  27  48  1   
 52  27  49  1   
 53  27  50  1   
 54  28  51  1   
 55  28  52  1   
 56  28  53  1   
 57  29  54  1   
 58  29  55  1   
 59  29  56  1   
@<TRIPOS>SUBSTRUCTURE
  1 ****  13 GROUP 4 **** **** 0

# MOE 2024.06 (io_trps.svl 2023.06)
