@<TRIPOS>MOLECULE
N-[3-(3-Cyano-7,8-dimethyl-quinolin-2-ylamino)-propyl]-4-ethoxy-benzamide
56 58 1 0 0 
SMALL
USER_CHARGES


@<TRIPOS>ATOM
  1 O       -0.0640     1.3560     2.9820 O.2   1 <1>  -0.5700 
  2 C        0.0880     1.6330     1.8080 C.2   1 <1>   0.5440 
  3 N        1.3560     1.6270     1.2950 N.am  1 <1>  -0.7300 
  4 C       -1.0510     1.9500     0.9650 C.ar  1 <1>   0.0860 
  5 C        2.5930     1.3710     2.0620 C.3   1 <1>   0.1400 
  6 C       -0.9420     2.8030    -0.1370 C.ar  1 <1>  -0.1500 
  7 C       -2.3100     1.4090     1.2280 C.ar  1 <1>  -0.1500 
  8 C        3.5050     2.5880     1.9410 C.3   1 <1>  -0.1600 
  9 C       -2.0290     3.0910    -0.9440 C.ar  1 <1>  -0.1500 
 10 C       -3.4000     1.6910     0.4270 C.ar  1 <1>  -0.1500 
 11 C        4.7810     2.3890     2.7540 C.3   1 <1>   0.2090 
 12 C       -3.2720     2.5300    -0.6660 C.ar  1 <1>   0.0830 
 13 N        5.6630     3.5580     2.5430 N.pl3 1 <1>  -0.8690 
 14 O       -4.3840     2.7540    -1.4020 O.3   1 <1>  -0.3630 
 15 C        6.5910     3.6750     1.5260 C.ar  1 <1>   0.4100 
 16 C       -4.3770     3.6050    -2.5240 C.3   1 <1>   0.1200 
 17 N        6.7400     2.6390     0.7460 N.ar  1 <1>  -0.6200 
 18 C        7.3230     4.8780     1.3580 C.ar  1 <1>   0.0730 
 19 C       -5.7880     3.6340    -3.1030 C.3   1 <1>  -0.2400 
 20 C        7.6380     2.6990    -0.2720 C.ar  1 <1>   0.3100 
 21 C        7.0950     5.9730     2.2470 C.1   1 <1>   0.4840 
 22 C        8.2290     4.9610     0.3420 C.ar  1 <1>  -0.1500 
 23 C        8.4080     3.8580    -0.5070 C.ar  1 <1>   0.0000 
 24 C        7.8120     1.5790    -1.1240 C.ar  1 <1>  -0.1430 
 25 N        6.8940     6.8430     2.9580 N.1   1 <1>  -0.5570 
 26 C        9.3200     3.8740    -1.5730 C.ar  1 <1>  -0.1500 
 27 C        8.7150     1.6230    -2.1670 C.ar  1 <1>  -0.1430 
 28 C        6.9630     0.3360    -0.8380 C.3   1 <1>  -0.0970 
 29 C        9.4690     2.7830    -2.3820 C.ar  1 <1>  -0.1500 
 30 C        8.9480     0.4550    -3.1180 C.3   1 <1>  -0.0970 
 31 H        1.4840     1.7650     0.2920 H     1 <1>   0.3700 
 32 H        3.0810     0.4960     1.6680 H     1 <1>   0.0800 
 33 H        2.3560     1.1910     3.0980 H     1 <1>   0.0800 
 34 H        0.0060     3.2580    -0.3610 H     1 <1>   0.1500 
 35 H       -2.4270     0.7570     2.0770 H     1 <1>   0.1500 
 36 H        2.9880     3.4580     2.3040 H     1 <1>   0.0800 
 37 H        3.7700     2.7310     0.9080 H     1 <1>   0.0800 
 38 H       -1.8940     3.7510    -1.7790 H     1 <1>   0.1500 
 39 H       -4.3620     1.2620     0.6460 H     1 <1>   0.1500 
 40 H        5.2840     1.4870     2.4460 H     1 <1>   0.0800 
 41 H        4.5480     2.3020     3.8020 H     1 <1>   0.0800 
 42 H        5.4390     4.3790     3.1150 H     1 <1>   0.4000 
 43 H       -3.6780     3.2150    -3.2430 H     1 <1>   0.0800 
 44 H       -4.0760     4.5880    -2.2040 H     1 <1>   0.0800 
 45 H       -6.0840     2.6450    -3.4030 H     1 <1>   0.0800 
 46 H       -5.8160     4.2770    -3.9640 H     1 <1>   0.0800 
 47 H       -6.4800     4.0100    -2.3710 H     1 <1>   0.0800 
 48 H        8.8080     5.8520     0.1750 H     1 <1>   0.1500 
 49 H        9.9050     4.7600    -1.7470 H     1 <1>   0.1500 
 50 H        7.1640    -0.0130     0.1600 H     1 <1>   0.0800 
 51 H        7.1520    -0.4730    -1.5150 H     1 <1>   0.0800 
 52 H        5.9200     0.5900    -0.9050 H     1 <1>   0.0800 
 53 H       10.1740     2.8150    -3.1950 H     1 <1>   0.1500 
 54 H        8.0320     0.2020    -3.6210 H     1 <1>   0.0800 
 55 H        9.3000    -0.4010    -2.5710 H     1 <1>   0.0800 
 56 H        9.6810     0.6980    -3.8660 H     1 <1>   0.0800 
@<TRIPOS>BOND
  1   1   2  2   
  2   2   3  am  
  3   2   4  1   
  4   3   5  1   
  5   3  31  1   
  6   4   6  ar  
  7   4   7  ar  
  8   5   8  1   
  9   5  32  1   
 10   5  33  1   
 11   6   9  ar  
 12   6  34  1   
 13   7  10  ar  
 14   7  35  1   
 15   8  11  1   
 16   8  36  1   
 17   8  37  1   
 18   9  12  ar  
 19   9  38  1   
 20  10  12  ar  
 21  10  39  1   
 22  11  13  1   
 23  11  40  1   
 24  11  41  1   
 25  12  14  1   
 26  13  15  1   
 27  13  42  1   
 28  14  16  1   
 29  15  17  ar  
 30  15  18  ar  
 31  16  19  1   
 32  16  43  1   
 33  16  44  1   
 34  17  20  ar  
 35  18  21  1   
 36  18  22  ar  
 37  19  45  1   
 38  19  46  1   
 39  19  47  1   
 40  20  23  ar  
 41  20  24  ar  
 42  21  25  3   
 43  22  23  ar  
 44  22  48  1   
 45  23  26  ar  
 46  24  27  ar  
 47  24  28  1   
 48  26  29  ar  
 49  26  49  1   
 50  27  29  ar  
 51  27  30  1   
 52  28  50  1   
 53  28  51  1   
 54  28  52  1   
 55  29  53  1   
 56  30  54  1   
 57  30  55  1   
 58  30  56  1   
@<TRIPOS>SUBSTRUCTURE
  1 ****   8 GROUP 4 **** **** 0

# MOE 2024.06 (io_trps.svl 2023.06)
