@<TRIPOS>MOLECULE
NONAME
60 64 1 0 0 
SMALL
USER_CHARGES


@<TRIPOS>ATOM
  1 F        0.8860    -2.6170    -2.1020 F     1 <1>  -0.1900 
  2 C       -0.1830    -3.2660    -1.7260 C.ar  1 <1>   0.1900 
  3 C       -1.3690    -2.5730    -1.5850 C.ar  1 <1>  -0.1500 
  4 C       -0.0870    -4.6220    -1.4800 C.ar  1 <1>  -0.1500 
  5 C       -2.4990    -3.2670    -1.1850 C.ar  1 <1>  -0.1500 
  6 C       -1.2240    -5.3060    -1.0800 C.ar  1 <1>  -0.1500 
  7 C       -2.4320    -4.6330    -0.9320 C.ar  1 <1>  -0.1430 
  8 C       -3.6760    -5.3860    -0.4930 C.3   1 <1>   0.2840 
  9 N       -4.0510    -4.9110     0.8540 N.am  1 <1>  -0.7300 
 10 C       -5.2740    -4.7830     1.4180 C.2   1 <1>   0.5690 
 11 O       -5.3740    -4.2210     2.4770 O.2   1 <1>  -0.5700 
 12 C       -6.5110    -5.3260     0.7270 C.3   1 <1>  -0.0190 
 13 C       -7.8150    -5.1320     1.5460 C.3   1 <1>   0.3380 
 14 C       -6.5110    -6.8630     0.6490 C.3   1 <1>  -0.0190 
 15 O       -7.9990    -6.3940     2.1570 O.3   1 <1>  -0.5600 
 16 C       -8.9120    -5.2070     0.5160 C.2   1 <1>  -0.2880 
 17 C       -6.3360    -7.8300    -0.4770 C.2   1 <1>   0.5690 
 18 C       -7.9340    -7.2010     1.0390 C.3   1 <1>   0.4180 
 19 C       -8.9560    -6.4810     0.1590 C.2   1 <1>  -0.2880 
 20 O       -5.6180    -7.6270    -1.4260 O.2   1 <1>  -0.5700 
 21 N       -7.0540    -8.9580    -0.2060 N.am  1 <1>  -0.5090 
 22 C       -7.9430    -8.7360     1.0010 C.3   1 <1>   0.2810 
 23 C       -6.8510   -10.2710    -0.8530 C.3   1 <1>   0.0490 
 24 C       -9.3550    -9.3140     0.9090 C.2   1 <1>   0.5690 
 25 C       -7.0900   -11.5440    -0.0970 C.3   1 <1>  -0.2000 
 26 C       -5.6950   -11.0870    -0.3680 C.3   1 <1>  -0.2000 
 27 O       -9.9510    -9.5190     1.9380 O.2   1 <1>  -0.5700 
 28 N       -9.8810    -9.6060    -0.3180 N.am  1 <1>  -0.7300 
 29 C      -11.1970   -10.1460    -0.6580 C.3   1 <1>   0.3000 
 30 C      -11.2480   -10.2280    -2.1820 C.3   1 <1>  -0.2400 
 31 C      -12.2880    -9.2000    -0.1570 C.3   1 <1>  -0.2400 
 32 C      -11.3470   -11.5450    -0.0610 C.3   1 <1>  -0.2400 
 33 H       -1.4040    -1.5170    -1.7840 H     1 <1>   0.1500 
 34 H        0.8540    -5.1260    -1.6010 H     1 <1>   0.1500 
 35 H       -3.4310    -2.7410    -1.0680 H     1 <1>   0.1500 
 36 H       -1.1600    -6.3630    -0.8870 H     1 <1>   0.1500 
 37 H       -3.4790    -6.4430    -0.4580 H     1 <1>   0.0800 
 38 H       -4.4730    -5.2090    -1.1940 H     1 <1>   0.0800 
 39 H       -3.2730    -4.5100     1.3830 H     1 <1>   0.3700 
 40 H       -6.6010    -4.8700    -0.2420 H     1 <1>   0.0800 
 41 H       -7.8750    -4.3270     2.2590 H     1 <1>   0.0800 
 42 H       -5.8620    -7.2250     1.4290 H     1 <1>   0.0800 
 43 H       -9.4490    -4.3320     0.1940 H     1 <1>   0.1500 
 44 H       -9.5580    -6.9880    -0.5730 H     1 <1>   0.1500 
 45 H       -7.4530    -9.1270     1.8740 H     1 <1>   0.0800 
 46 H       -7.0250   -10.2430    -1.9170 H     1 <1>   0.1000 
 47 H       -7.4550   -12.4010    -0.6350 H     1 <1>   0.1000 
 48 H       -7.4420   -11.5210     0.9190 H     1 <1>   0.1000 
 49 H       -5.1010   -10.7140     0.4480 H     1 <1>   0.1000 
 50 H       -5.1110   -11.6330    -1.0880 H     1 <1>   0.1000 
 51 H       -9.2670    -9.5040    -1.1260 H     1 <1>   0.3700 
 52 H      -11.1270    -9.2530    -2.6190 H     1 <1>   0.0800 
 53 H      -12.1990   -10.6190    -2.4970 H     1 <1>   0.0800 
 54 H      -10.4800   -10.8830    -2.5530 H     1 <1>   0.0800 
 55 H      -12.1380    -8.2100    -0.5460 H     1 <1>   0.0800 
 56 H      -12.2900    -9.1560     0.9170 H     1 <1>   0.0800 
 57 H      -13.2540    -9.5490    -0.4730 H     1 <1>   0.0800 
 58 H      -10.5480   -12.1840    -0.3890 H     1 <1>   0.0800 
 59 H      -12.2810   -11.9800    -0.3680 H     1 <1>   0.0800 
 60 H      -11.3420   -11.5010     1.0130 H     1 <1>   0.0800 
@<TRIPOS>BOND
  1   1   2  1   
  2   2   3  ar  
  3   2   4  ar  
  4   3   5  ar  
  5   3  33  1   
  6   4   6  ar  
  7   4  34  1   
  8   5   7  ar  
  9   5  35  1   
 10   6   7  ar  
 11   6  36  1   
 12   7   8  1   
 13   8   9  1   
 14   8  37  1   
 15   8  38  1   
 16   9  10  am  
 17   9  39  1   
 18  10  11  2   
 19  10  12  1   
 20  12  13  1   
 21  12  14  1   
 22  12  40  1   
 23  13  15  1   
 24  13  16  1   
 25  13  41  1   
 26  14  17  1   
 27  14  18  1   
 28  14  42  1   
 29  15  18  1   
 30  16  19  2   
 31  16  43  1   
 32  17  20  2   
 33  17  21  am  
 34  18  19  1   
 35  18  22  1   
 36  19  44  1   
 37  21  22  1   
 38  21  23  1   
 39  22  24  1   
 40  22  45  1   
 41  23  25  1   
 42  23  26  1   
 43  23  46  1   
 44  24  27  2   
 45  24  28  am  
 46  25  26  1   
 47  25  47  1   
 48  25  48  1   
 49  26  49  1   
 50  26  50  1   
 51  28  29  1   
 52  28  51  1   
 53  29  30  1   
 54  29  31  1   
 55  29  32  1   
 56  30  52  1   
 57  30  53  1   
 58  30  54  1   
 59  31  55  1   
 60  31  56  1   
 61  31  57  1   
 62  32  58  1   
 63  32  59  1   
 64  32  60  1   
@<TRIPOS>SUBSTRUCTURE
  1 ****  14 GROUP 4 **** **** 0

# MOE 2024.06 (io_trps.svl 2023.06)
