@<TRIPOS>MOLECULE
Furan-2-carboxylic acid cyclopentylcarbamoyl-pyridin-2-yl-methyl ester
41 43 1 0 0 
SMALL
USER_CHARGES


@<TRIPOS>ATOM
  1 O       -0.2350    -1.2500    -1.2680 O.2   1 <1>  -0.5700 
  2 C       -0.5700    -1.6860    -0.1860 C.2   1 <1>   0.8050 
  3 O       -1.8270    -1.5070     0.2160 O.3   1 <1>  -0.4300 
  4 C        0.3010    -2.3930     0.7210 C.2   1 <1>   0.0550 
  5 C       -2.7870    -0.8340    -0.5980 C.3   1 <1>   0.4040 
  6 O        1.5980    -2.5470     0.4670 O.3   1 <1>  -0.2800 
  7 C        0.0270    -2.9970     1.9140 C.2   1 <1>  -0.1500 
  8 C       -2.6800     0.6870    -0.4170 C.ar  1 <1>   0.1660 
  9 C       -4.2130    -1.3130    -0.2790 C.2   1 <1>   0.5690 
 10 C        2.1500    -3.2200     1.4490 C.2   1 <1>  -0.0100 
 11 C        1.2270    -3.5310     2.3840 C.2   1 <1>  -0.1500 
 12 N       -3.1120     1.4300    -1.4330 N.ar  1 <1>  -0.6200 
 13 C       -2.1750     1.2280     0.7610 C.ar  1 <1>  -0.1500 
 14 O       -4.3740    -2.3710     0.2890 O.2   1 <1>  -0.5700 
 15 N       -5.2690    -0.5330    -0.6620 N.am  1 <1>  -0.7300 
 16 C       -3.0110     2.7410    -1.2800 C.ar  1 <1>   0.1600 
 17 C       -2.0850     2.5950     0.9080 C.ar  1 <1>  -0.1500 
 18 C       -6.7190    -0.7540    -0.4660 C.3   1 <1>   0.2200 
 19 C       -2.5150     3.3650    -0.1490 C.ar  1 <1>  -0.1500 
 20 C       -7.0930    -0.7210     1.0200 C.3   1 <1>  -0.1600 
 21 C       -7.1870    -2.1090    -1.0090 C.3   1 <1>  -0.1600 
 22 C       -8.0980    -1.8550     1.2150 C.3   1 <1>  -0.1600 
 23 C       -7.6700    -2.9100     0.2010 C.3   1 <1>  -0.1600 
 24 H       -2.5930    -1.0840    -1.6260 H     1 <1>   0.0800 
 25 H       -0.9250    -3.0630     2.4120 H     1 <1>   0.1500 
 26 H        3.2040    -3.4360     1.4080 H     1 <1>   0.1500 
 27 H        1.3580    -4.0750     3.3030 H     1 <1>   0.1500 
 28 H       -1.8540     0.5920     1.5660 H     1 <1>   0.1500 
 29 H       -5.0320     0.3680    -1.0980 H     1 <1>   0.3700 
 30 H       -3.3430     3.3550    -2.1010 H     1 <1>   0.1500 
 31 H       -1.6950     3.0400     1.8080 H     1 <1>   0.1500 
 32 H       -7.2580     0.0240    -0.9820 H     1 <1>   0.0800 
 33 H       -2.4660     4.4380    -0.1010 H     1 <1>   0.1500 
 34 H       -7.5140     0.2280     1.3010 H     1 <1>   0.0800 
 35 H       -6.2280    -0.9200     1.6290 H     1 <1>   0.0800 
 36 H       -6.4140    -2.6330    -1.5430 H     1 <1>   0.0800 
 37 H       -8.0180    -1.9470    -1.6720 H     1 <1>   0.0800 
 38 H       -9.0890    -1.5080     0.9780 H     1 <1>   0.0800 
 39 H       -8.0850    -2.2360     2.2220 H     1 <1>   0.0800 
 40 H       -6.8440    -3.4740     0.6040 H     1 <1>   0.0800 
 41 H       -8.4700    -3.5860    -0.0480 H     1 <1>   0.0800 
@<TRIPOS>BOND
  1   1   2  2   
  2   2   3  1   
  3   2   4  1   
  4   3   5  1   
  5   4   6  1   
  6   4   7  2   
  7   5   8  1   
  8   5   9  1   
  9   5  24  1   
 10   6  10  1   
 11   7  11  1   
 12   7  25  1   
 13   8  12  ar  
 14   8  13  ar  
 15   9  14  2   
 16   9  15  am  
 17  10  11  2   
 18  10  26  1   
 19  11  27  1   
 20  12  16  ar  
 21  13  17  ar  
 22  13  28  1   
 23  15  18  1   
 24  15  29  1   
 25  16  19  ar  
 26  16  30  1   
 27  17  19  ar  
 28  17  31  1   
 29  18  20  1   
 30  18  21  1   
 31  18  32  1   
 32  19  33  1   
 33  20  22  1   
 34  20  34  1   
 35  20  35  1   
 36  21  23  1   
 37  21  36  1   
 38  21  37  1   
 39  22  23  1   
 40  22  38  1   
 41  22  39  1   
 42  23  40  1   
 43  23  41  1   
@<TRIPOS>SUBSTRUCTURE
  1 ****   5 GROUP 4 **** **** 0

# MOE 2024.06 (io_trps.svl 2023.06)
