@<TRIPOS>MOLECULE
4-Ethyl-8-methyl-7,8,9,10-tetrahydro-6-thia-1,2,3a,5-tetraaza-cyclopenta[c]fluor
36 39 1 0 0 
SMALL
USER_CHARGES


@<TRIPOS>ATOM
  1 S        0.0500    -0.1900     0.1750 S.3   1 <1>  -0.0800 
  2 C        1.5960     0.6370     0.0830 C.2   1 <1>   0.1660 
  3 C       -0.8010     1.3460     0.1200 C.2   1 <1>  -0.1400 
  4 N        2.7790    -0.0410     0.0770 N.2   1 <1>  -0.5760 
  5 C        1.4350     1.9820     0.0200 C.2   1 <1>  -0.0130 
  6 C        0.0520     2.3810     0.0520 C.2   1 <1>  -0.1810 
  7 C       -2.3130     1.3870     0.1560 C.3   1 <1>   0.0200 
  8 C        3.8580     0.6550     0.0030 C.2   1 <1>   0.8080 
  9 C        2.6390     2.7370    -0.0660 C.2   1 <1>   0.6660 
 10 C       -0.4470     3.8180     0.0070 C.3   1 <1>   0.0210 
 11 C       -2.7900     2.7960    -0.2530 C.3   1 <1>  -0.0800 
 12 N        3.8330     2.0400    -0.0700 N.pl3 1 <1>  -0.6690 
 13 C        5.2090    -0.0660    -0.0060 C.3   1 <1>  -0.0990 
 14 N        2.8070     4.0230    -0.1460 N.2   1 <1>  -0.2600 
 15 C       -1.9340     3.8980     0.4100 C.3   1 <1>  -0.1600 
 16 C       -4.2740     2.9860     0.0860 C.3   1 <1>  -0.2400 
 17 C        4.7520     2.9890    -0.1570 C.cat 1 <1>   0.7360 
 18 C        5.1600    -1.6060     0.0810 C.3   1 <1>  -0.2400 
 19 N        4.1570     4.1580    -0.2020 N.pl3 1 <1>  -0.3930 
 20 S        6.3630     2.8440    -0.2080 S.3   1 <1>  -0.9360 
 21 H       -2.6400     1.1510     1.1530 H     1 <1>   0.0800 
 22 H       -2.7170     0.6530    -0.5190 H     1 <1>   0.0800 
 23 H       -0.3230     4.1970    -0.9930 H     1 <1>   0.0800 
 24 H        0.1290     4.4320     0.6760 H     1 <1>   0.0800 
 25 H       -2.6760     2.8870    -1.3210 H     1 <1>   0.0800 
 26 H        5.7870     0.2980     0.8230 H     1 <1>   0.0800 
 27 H        5.7250     0.2030    -0.9100 H     1 <1>   0.0800 
 28 H       -2.3150     4.8690     0.1470 H     1 <1>   0.0800 
 29 H       -2.0070     3.7970     1.4800 H     1 <1>   0.0800 
 30 H       -4.4330     2.9190     1.1480 H     1 <1>   0.0800 
 31 H       -4.8670     2.2300    -0.3990 H     1 <1>   0.0800 
 32 H       -4.6130     3.9490    -0.2520 H     1 <1>   0.0800 
 33 H        4.6780    -1.9170     0.9920 H     1 <1>   0.0800 
 34 H        6.1580    -2.0060     0.0670 H     1 <1>   0.0800 
 35 H        4.6160    -2.0130    -0.7540 H     1 <1>   0.0800 
 36 H        4.7070     5.0180    -0.2720 H     1 <1>   0.4500 
@<TRIPOS>BOND
  1   1   2  1   
  2   1   3  1   
  3   2   4  1   
  4   2   5  2   
  5   3   6  2   
  6   3   7  1   
  7   4   8  2   
  8   5   6  1   
  9   5   9  1   
 10   6  10  1   
 11   7  11  1   
 12   7  21  1   
 13   7  22  1   
 14   8  12  1   
 15   8  13  1   
 16   9  12  1   
 17   9  14  2   
 18  10  15  1   
 19  10  23  1   
 20  10  24  1   
 21  11  15  1   
 22  11  16  1   
 23  11  25  1   
 24  12  17  ar  
 25  13  18  1   
 26  13  26  1   
 27  13  27  1   
 28  14  19  1   
 29  15  28  1   
 30  15  29  1   
 31  16  30  1   
 32  16  31  1   
 33  16  32  1   
 34  17  19  ar  
 35  17  20  1   
 36  18  33  1   
 37  18  34  1   
 38  18  35  1   
 39  19  36  1   
@<TRIPOS>SUBSTRUCTURE
  1 ****   5 GROUP 4 **** **** 0

# MOE 2024.06 (io_trps.svl 2023.06)
