@<TRIPOS>MOLECULE
11209
50 52 1 0 0 
SMALL
USER_CHARGES


@<TRIPOS>ATOM
  1 S       -1.7870     0.8560     0.8860 S.3   1 <1>  -0.0800 
  2 C       -2.8090    -0.2110     1.8340 C.2   1 <1>   0.1040 
  3 C       -1.2940    -0.4640    -0.1500 C.2   1 <1>  -0.1400 
  4 N       -3.5350     0.4070     2.8370 N.am  1 <1>  -0.4940 
  5 C       -2.7060    -1.5080     1.4020 C.2   1 <1>  -0.0860 
  6 C       -1.8460    -1.6190     0.2470 C.2   1 <1>  -0.1810 
  7 C       -0.3740    -0.2160    -1.3230 C.3   1 <1>   0.0200 
  8 C       -4.8400     0.2670     3.2210 C.2   1 <1>   0.5690 
  9 C       -3.3190    -2.6460     2.0360 C.2   1 <1>   0.7160 
 10 C       -1.5670    -2.9130    -0.5070 C.3   1 <1>   0.0210 
 11 C       -0.4240    -1.4350    -2.2670 C.3   1 <1>  -0.0800 
 12 O       -5.2030     0.7930     4.2430 O.2   1 <1>  -0.5700 
 13 C       -5.8650    -0.5090     2.3940 C.3   1 <1>   0.1810 
 14 O       -3.7320    -3.6110     1.4280 O.2   1 <1>  -0.5700 
 15 N       -3.4510    -2.7000     3.3800 N.am  1 <1>  -0.8000 
 16 C       -0.3740    -2.7580    -1.4730 C.3   1 <1>  -0.1600 
 17 C        0.7110    -1.3740    -3.2960 C.3   1 <1>  -0.2400 
 18 O       -5.7810    -0.1650     1.0220 O.3   1 <1>  -0.3630 
 19 C       -6.6470    -0.6650     0.1010 C.ar  1 <1>   0.0820 
 20 C       -6.5260    -0.2240    -1.2160 C.ar  1 <1>  -0.1440 
 21 C       -7.6380    -1.5890     0.4290 C.ar  1 <1>  -0.1500 
 22 C       -7.4000    -0.7040    -2.1790 C.ar  1 <1>  -0.1500 
 23 C       -5.4460     0.7680    -1.6370 C.3   1 <1>  -0.0170 
 24 C       -8.5030    -2.0590    -0.5420 C.ar  1 <1>  -0.1500 
 25 C       -8.3850    -1.6160    -1.8460 C.ar  1 <1>  -0.1500 
 26 C       -4.2270     0.0230    -2.1840 C.3   1 <1>  -0.2400 
 27 H       -3.0930     1.2110     3.2840 H     1 <1>   0.3700 
 28 H        0.6240    -0.0630    -0.9530 H     1 <1>   0.0800 
 29 H       -0.6840     0.6680    -1.8530 H     1 <1>   0.0800 
 30 H       -2.4500    -3.1820    -1.0610 H     1 <1>   0.0800 
 31 H       -1.3550    -3.7080     0.1860 H     1 <1>   0.0800 
 32 H       -1.3620    -1.4050    -2.7970 H     1 <1>   0.0800 
 33 H       -6.8510    -0.2550     2.7380 H     1 <1>   0.0800 
 34 H       -5.7110    -1.5650     2.4930 H     1 <1>   0.0800 
 35 H       -3.7660    -3.5710     3.8050 H     1 <1>   0.3700 
 36 H       -3.0210    -2.0060     3.9910 H     1 <1>   0.3700 
 37 H       -0.3650    -3.5950    -2.1500 H     1 <1>   0.0800 
 38 H        0.5380    -2.7880    -0.9020 H     1 <1>   0.0800 
 39 H        1.6690    -1.4190    -2.8080 H     1 <1>   0.0800 
 40 H        0.6530    -0.4600    -3.8610 H     1 <1>   0.0800 
 41 H        0.6360    -2.1990    -3.9810 H     1 <1>   0.0800 
 42 H       -7.7550    -1.9570     1.4290 H     1 <1>   0.1500 
 43 H       -7.3130    -0.3700    -3.1980 H     1 <1>   0.1500 
 44 H       -5.1490     1.3800    -0.8040 H     1 <1>   0.0800 
 45 H       -5.8350     1.4270    -2.3930 H     1 <1>   0.0800 
 46 H       -9.2660    -2.7720    -0.2850 H     1 <1>   0.1500 
 47 H       -9.0570    -1.9820    -2.6030 H     1 <1>   0.1500 
 48 H       -3.8640    -0.6640    -1.4420 H     1 <1>   0.0800 
 49 H       -3.4440     0.7180    -2.4270 H     1 <1>   0.0800 
 50 H       -4.4920    -0.5320    -3.0650 H     1 <1>   0.0800 
@<TRIPOS>BOND
  1   1   2  1   
  2   1   3  1   
  3   2   4  1   
  4   2   5  2   
  5   3   6  2   
  6   3   7  1   
  7   4   8  am  
  8   4  27  1   
  9   5   6  1   
 10   5   9  1   
 11   6  10  1   
 12   7  11  1   
 13   7  28  1   
 14   7  29  1   
 15   8  12  2   
 16   8  13  1   
 17   9  14  2   
 18   9  15  am  
 19  10  16  1   
 20  10  30  1   
 21  10  31  1   
 22  11  16  1   
 23  11  17  1   
 24  11  32  1   
 25  13  18  1   
 26  13  33  1   
 27  13  34  1   
 28  15  35  1   
 29  15  36  1   
 30  16  37  1   
 31  16  38  1   
 32  17  39  1   
 33  17  40  1   
 34  17  41  1   
 35  18  19  1   
 36  19  20  ar  
 37  19  21  ar  
 38  20  22  ar  
 39  20  23  1   
 40  21  24  ar  
 41  21  42  1   
 42  22  25  ar  
 43  22  43  1   
 44  23  26  1   
 45  23  44  1   
 46  23  45  1   
 47  24  25  ar  
 48  24  46  1   
 49  25  47  1   
 50  26  48  1   
 51  26  49  1   
 52  26  50  1   
@<TRIPOS>SUBSTRUCTURE
  1 ****   5 GROUP 4 **** **** 0

# MOE 2024.06 (io_trps.svl 2023.06)
