@<TRIPOS>MOLECULE
NONAME
46 49 1 0 0 
SMALL
USER_CHARGES


@<TRIPOS>ATOM
  1 S       -0.1620    -0.1840    -0.7850 S.o2  1 <1>   1.4470 
  2 O       -0.1620     0.0530    -2.2130 O.2   1 <1>  -0.6500 
  3 O        0.0710     0.9250     0.1130 O.2   1 <1>  -0.6500 
  4 N       -1.6840    -0.8290    -0.4040 N.am  1 <1>  -0.8490 
  5 C        0.9880    -1.5300    -0.3740 C.ar  1 <1>  -0.0090 
  6 C       -2.0940    -1.8690    -1.3550 C.3   1 <1>   0.1960 
  7 C       -2.6930     0.2280    -0.2910 C.3   1 <1>   0.1960 
  8 C        2.0180    -1.8860    -1.2350 C.ar  1 <1>  -0.1500 
  9 C        0.8760    -2.2300     0.8200 C.ar  1 <1>  -0.1500 
 10 C       -3.4010    -2.5170    -0.8980 C.3   1 <1>  -0.1600 
 11 C       -4.0280    -0.3530     0.1820 C.3   1 <1>  -0.1600 
 12 C        2.9010    -2.9050    -0.9210 C.ar  1 <1>  -0.1500 
 13 C        1.7540    -3.2510     1.1420 C.ar  1 <1>  -0.1500 
 14 C       -4.5130    -1.4690    -0.7520 C.3   1 <1>   0.1000 
 15 C        2.7800    -3.6060     0.2730 C.ar  1 <1>  -0.1440 
 16 C       -5.8200    -2.0720    -0.2420 C.2   1 <1>   0.0060 
 17 C        3.7620    -4.7360     0.6290 C.3   1 <1>   1.1640 
 18 N       -5.9400    -3.2290     0.3150 N.2   1 <1>  -0.5650 
 19 N       -6.9970    -1.4010    -0.3490 N.pl3 1 <1>   0.0330 
 20 F        3.2190    -5.6640     1.4080 F     1 <1>  -0.3400 
 21 F        4.8270    -4.2820     1.2750 F     1 <1>  -0.3400 
 22 F        4.2190    -5.3750    -0.4420 F     1 <1>  -0.3400 
 23 C       -7.2670    -3.3400     0.5990 C.ar  1 <1>   0.2270 
 24 C       -7.9440    -2.2070     0.1910 C.ar  1 <1>  -0.1520 
 25 C       -7.9630    -4.3840     1.2060 C.ar  1 <1>  -0.1500 
 26 C       -9.3230    -2.0790     0.3730 C.ar  1 <1>  -0.1500 
 27 C       -9.3240    -4.2690     1.3900 C.ar  1 <1>  -0.1500 
 28 C      -10.0030    -3.1160     0.9730 C.ar  1 <1>  -0.1500 
 29 H       -1.3320    -2.6290    -1.4140 H     1 <1>   0.0800 
 30 H       -2.2210    -1.4430    -2.3380 H     1 <1>   0.0800 
 31 H       -2.8140     0.7200    -1.2420 H     1 <1>   0.0800 
 32 H       -2.3690     0.9640     0.4270 H     1 <1>   0.0800 
 33 H        2.1320    -1.3550    -2.1670 H     1 <1>   0.1500 
 34 H        0.0880    -1.9680     1.5070 H     1 <1>   0.1500 
 35 H       -3.2350    -3.0110     0.0440 H     1 <1>   0.0800 
 36 H       -3.7030    -3.2630    -1.6100 H     1 <1>   0.0800 
 37 H       -4.7580     0.4340     0.2270 H     1 <1>   0.0800 
 38 H       -3.9060    -0.7450     1.1770 H     1 <1>   0.0800 
 39 H        3.6880    -3.1460    -1.6180 H     1 <1>   0.1500 
 40 H        1.6290    -3.7660     2.0810 H     1 <1>   0.1500 
 41 H       -4.7000    -1.0480    -1.7250 H     1 <1>   0.0800 
 42 H       -7.1520    -0.4750    -0.7520 H     1 <1>   0.2700 
 43 H       -7.4160    -5.2550     1.5150 H     1 <1>   0.1500 
 44 H       -9.8350    -1.1900     0.0490 H     1 <1>   0.1500 
 45 H       -9.8770    -5.0650     1.8560 H     1 <1>   0.1500 
 46 H      -11.0660    -3.0510     1.1280 H     1 <1>   0.1500 
@<TRIPOS>BOND
  1   1   2  2   
  2   1   3  2   
  3   1   4  am  
  4   1   5  1   
  5   4   6  1   
  6   4   7  1   
  7   5   8  ar  
  8   5   9  ar  
  9   6  10  1   
 10   6  29  1   
 11   6  30  1   
 12   7  11  1   
 13   7  31  1   
 14   7  32  1   
 15   8  12  ar  
 16   8  33  1   
 17   9  13  ar  
 18   9  34  1   
 19  10  14  1   
 20  10  35  1   
 21  10  36  1   
 22  11  14  1   
 23  11  37  1   
 24  11  38  1   
 25  12  15  ar  
 26  12  39  1   
 27  13  15  ar  
 28  13  40  1   
 29  14  16  1   
 30  14  41  1   
 31  15  17  1   
 32  16  18  2   
 33  16  19  1   
 34  17  20  1   
 35  17  21  1   
 36  17  22  1   
 37  18  23  1   
 38  19  24  1   
 39  19  42  1   
 40  23  24  ar  
 41  23  25  ar  
 42  24  26  ar  
 43  25  27  ar  
 44  25  43  1   
 45  26  28  ar  
 46  26  44  1   
 47  27  28  ar  
 48  27  45  1   
 49  28  46  1   
@<TRIPOS>SUBSTRUCTURE
  1 ****   6 GROUP 4 **** **** 0

# MOE 2024.06 (io_trps.svl 2023.06)
