@<TRIPOS>MOLECULE
NONAME
46 48 1 0 0 
SMALL
USER_CHARGES


@<TRIPOS>ATOM
  1 F       -1.9610     2.8440     0.4330 F     1 <1>  -0.1900 
  2 C       -0.7320     3.0810     0.0740 C.ar  1 <1>   0.1900 
  3 C        0.0180     3.9820     0.8030 C.ar  1 <1>  -0.1500 
  4 C       -0.2170     2.4280    -1.0280 C.ar  1 <1>  -0.1500 
  5 C        1.3240     4.2290     0.4180 C.ar  1 <1>  -0.1500 
  6 C        1.0910     2.6850    -1.3970 C.ar  1 <1>  -0.1500 
  7 C        1.8990     3.5790    -0.6840 C.ar  1 <1>   0.0860 
  8 C        3.2660     3.8000    -1.1090 C.2   1 <1>   0.4230 
  9 O        3.6120     3.6840    -2.2570 O.2   1 <1>  -0.5700 
 10 C        4.3590     4.1800    -0.1020 C.3   1 <1>  -0.0190 
 11 C        4.8400     5.6230    -0.3510 C.3   1 <1>  -0.1600 
 12 C        5.5480     3.2020    -0.1910 C.3   1 <1>  -0.1600 
 13 C        6.0330     6.0010     0.5260 C.3   1 <1>   0.3430 
 14 C        6.7200     3.6280     0.6910 C.3   1 <1>   0.3430 
 15 N        7.1290     5.0160     0.3290 N.4   1 <1>  -0.9590 
 16 C        8.3730     5.4270     1.0370 C.3   1 <1>   0.4860 
 17 C        9.4960     4.4970     0.6270 C.ar  1 <1>  -0.1430 
 18 C       10.0470     4.5790    -0.6450 C.ar  1 <1>  -0.1500 
 19 C        9.9780     3.5490     1.5170 C.ar  1 <1>  -0.1500 
 20 C       11.0570     3.7120    -1.0220 C.ar  1 <1>  -0.1500 
 21 C       10.9890     2.6850     1.1360 C.ar  1 <1>  -0.1500 
 22 C       11.5320     2.7610    -0.1350 C.ar  1 <1>  -0.1430 
 23 C       12.6410     1.8120    -0.5540 C.3   1 <1>  -0.0970 
 24 H       -0.4240     4.4780     1.6500 H     1 <1>   0.1500 
 25 H       -0.8300     1.7370    -1.5800 H     1 <1>   0.1500 
 26 H        1.8890     4.9470     0.9830 H     1 <1>   0.1500 
 27 H        1.5010     2.1850    -2.2600 H     1 <1>   0.1500 
 28 H        3.9650     4.1130     0.8960 H     1 <1>   0.0800 
 29 H        4.0330     6.3080    -0.1610 H     1 <1>   0.0800 
 30 H        5.1180     5.7400    -1.3860 H     1 <1>   0.0800 
 31 H        5.8950     3.1260    -1.2080 H     1 <1>   0.0800 
 32 H        5.2260     2.2190     0.1050 H     1 <1>   0.0800 
 33 H        5.7330     6.0130     1.5610 H     1 <1>   0.0800 
 34 H        6.3720     6.9900     0.2590 H     1 <1>   0.0800 
 35 H        7.5420     2.9450     0.5390 H     1 <1>   0.0800 
 36 H        6.4310     3.5860     1.7290 H     1 <1>   0.0800 
 37 H        7.3660     4.9890    -0.6710 H     1 <1>   0.4500 
 38 H        8.2300     5.3820     2.1050 H     1 <1>   0.0800 
 39 H        8.6370     6.4380     0.7700 H     1 <1>   0.0800 
 40 H        9.7060     5.3120    -1.3550 H     1 <1>   0.1500 
 41 H        9.5800     3.4690     2.5150 H     1 <1>   0.1500 
 42 H       11.4780     3.7800    -2.0110 H     1 <1>   0.1500 
 43 H       11.3560     1.9510     1.8330 H     1 <1>   0.1500 
 44 H       13.3110     2.2970    -1.2420 H     1 <1>   0.0800 
 45 H       12.2200     0.9460    -1.0330 H     1 <1>   0.0800 
 46 H       13.2100     1.4930     0.3010 H     1 <1>   0.0800 
@<TRIPOS>BOND
  1   1   2  1   
  2   2   3  ar  
  3   2   4  ar  
  4   3   5  ar  
  5   3  24  1   
  6   4   6  ar  
  7   4  25  1   
  8   5   7  ar  
  9   5  26  1   
 10   6   7  ar  
 11   6  27  1   
 12   7   8  1   
 13   8   9  2   
 14   8  10  1   
 15  10  11  1   
 16  10  12  1   
 17  10  28  1   
 18  11  13  1   
 19  11  29  1   
 20  11  30  1   
 21  12  14  1   
 22  12  31  1   
 23  12  32  1   
 24  13  15  1   
 25  13  33  1   
 26  13  34  1   
 27  14  15  1   
 28  14  35  1   
 29  14  36  1   
 30  15  16  1   
 31  15  37  1   
 32  16  17  1   
 33  16  38  1   
 34  16  39  1   
 35  17  18  ar  
 36  17  19  ar  
 37  18  20  ar  
 38  18  40  1   
 39  19  21  ar  
 40  19  41  1   
 41  20  22  ar  
 42  20  42  1   
 43  21  22  ar  
 44  21  43  1   
 45  22  23  1   
 46  23  44  1   
 47  23  45  1   
 48  23  46  1   
@<TRIPOS>SUBSTRUCTURE
  1 ****  12 GROUP 4 **** **** 0

# MOE 2024.06 (io_trps.svl 2023.06)
