@<TRIPOS>MOLECULE
13459
35 36 1 0 0 
SMALL
USER_CHARGES


@<TRIPOS>ATOM
  1 O        1.7860     1.1820     0.9590 O.2   1 <1>  -0.5700 
  2 C        2.4500     0.1670     0.8430 C.2   1 <1>   0.8410 
  3 N        3.2240     0.0350    -0.2660 N.am  1 <1>  -0.5390 
  4 N        2.4530    -0.8140     1.8060 N.2   1 <1>  -0.2110 
  5 C        4.0080    -1.0490    -0.4230 C.2   1 <1>   0.2090 
  6 N        3.1600    -1.8780     1.6550 N.2   1 <1>  -0.1710 
  7 N        4.8170    -1.0130    -1.5250 N.pl3 1 <1>  -0.8690 
  8 C        3.9200    -2.0250     0.5490 C.2   1 <1>   0.0330 
  9 C        6.2920    -1.2000    -1.5200 C.3   1 <1>   0.2090 
 10 C        4.6380    -3.3620     0.4550 C.3   1 <1>  -0.1020 
 11 C        6.9100    -0.6440    -0.2180 C.3   1 <1>   0.3430 
 12 N        8.4080    -0.7450    -0.1540 N.4   1 <1>  -0.9590 
 13 C        8.8940    -2.1740    -0.1280 C.3   1 <1>   0.3430 
 14 C        8.9170    -0.0080     1.0580 C.3   1 <1>   0.3430 
 15 C       10.4140    -2.2550     0.1090 C.3   1 <1>   0.1200 
 16 C       10.4360    -0.1890     1.2420 C.3   1 <1>   0.1200 
 17 O       10.7580    -1.5490     1.2640 O.3   1 <1>  -0.5600 
 18 H        3.1560     0.7900    -0.9410 H     1 <1>   0.3700 
 19 H        4.4370    -0.5980    -2.3880 H     1 <1>   0.4000 
 20 H        6.7040    -0.6720    -2.3630 H     1 <1>   0.0800 
 21 H        6.5100    -2.2470    -1.6280 H     1 <1>   0.0800 
 22 H        3.9600    -4.1520     0.7280 H     1 <1>   0.0800 
 23 H        5.4730    -3.3850     1.1310 H     1 <1>   0.0800 
 24 H        4.9730    -3.5560    -0.5460 H     1 <1>   0.0800 
 25 H        6.4830    -1.1730     0.6180 H     1 <1>   0.0800 
 26 H        6.6210     0.3910    -0.1340 H     1 <1>   0.0800 
 27 H        8.8170    -0.2840    -0.9790 H     1 <1>   0.4500 
 28 H        8.6560    -2.6660    -1.0560 H     1 <1>   0.0800 
 29 H        8.4030    -2.7110     0.6670 H     1 <1>   0.0800 
 30 H        8.4270    -0.3800     1.9440 H     1 <1>   0.0800 
 31 H        8.6930     1.0430     0.9750 H     1 <1>   0.0800 
 32 H       10.9650    -1.8520    -0.7240 H     1 <1>   0.0800 
 33 H       10.7140    -3.2790     0.2530 H     1 <1>   0.0800 
 34 H       10.7500     0.2350     2.1800 H     1 <1>   0.0800 
 35 H       10.9880     0.2870     0.4500 H     1 <1>   0.0800 
@<TRIPOS>BOND
  1   1   2  2   
  2   2   3  am  
  3   2   4  1   
  4   3   5  1   
  5   3  18  1   
  6   4   6  2   
  7   5   7  1   
  8   5   8  2   
  9   6   8  1   
 10   7   9  1   
 11   7  19  1   
 12   8  10  1   
 13   9  11  1   
 14   9  20  1   
 15   9  21  1   
 16  10  22  1   
 17  10  23  1   
 18  10  24  1   
 19  11  12  1   
 20  11  25  1   
 21  11  26  1   
 22  12  13  1   
 23  12  14  1   
 24  12  27  1   
 25  13  15  1   
 26  13  28  1   
 27  13  29  1   
 28  14  16  1   
 29  14  30  1   
 30  14  31  1   
 31  15  17  1   
 32  15  32  1   
 33  15  33  1   
 34  16  17  1   
 35  16  34  1   
 36  16  35  1   
@<TRIPOS>SUBSTRUCTURE
  1 ****  11 GROUP 4 **** **** 0

# MOE 2024.06 (io_trps.svl 2023.06)
