@<TRIPOS>MOLECULE
NONAME
49 51 1 0 0 
SMALL
USER_CHARGES


@<TRIPOS>ATOM
  1 O        0.8180     0.2820     1.3350 O.2   1 <1>  -0.5700 
  2 C        0.4290     1.2490     0.7230 C.2   1 <1>   0.5690 
  3 N        1.2580     1.9550    -0.1040 N.am  1 <1>  -0.5470 
  4 C       -1.0470     1.6980     0.8850 C.3   1 <1>   0.0610 
  5 C        2.6330     1.7610    -0.3500 C.ar  1 <1>   0.1170 
  6 C       -1.3770     2.9900     0.1050 C.3   1 <1>  -0.2400 
  7 C       -1.3560     1.9550     2.3720 C.3   1 <1>  -0.2400 
  8 C       -1.9830     0.5870     0.3750 C.3   1 <1>  -0.2400 
  9 C        3.1800     0.5580    -0.8790 C.ar  1 <1>   0.1670 
 10 C        3.4800     2.8130    -0.0790 C.ar  1 <1>  -0.1500 
 11 N        4.4580     0.3630    -1.1250 N.ar  1 <1>  -0.5670 
 12 C        2.2840    -0.6200    -1.2230 C.3   1 <1>  -0.0970 
 13 C        4.8270     2.6250    -0.3320 C.ar  1 <1>   0.2270 
 14 C        5.2460     1.4090    -0.8340 C.ar  1 <1>   0.1050 
 15 N        5.8830     3.4680    -0.1660 N.2   1 <1>  -0.5650 
 16 N        6.5910     1.5110    -0.9680 N.pl3 1 <1>   0.0480 
 17 C        6.9000     2.7740    -0.5460 C.2   1 <1>   0.0060 
 18 C        7.4700     0.4480    -1.5010 C.3   1 <1>   0.2390 
 19 C        8.3170     3.3140    -0.5170 C.3   1 <1>  -0.0600 
 20 C        8.5030     0.0130    -0.4700 C.ar  1 <1>  -0.1440 
 21 C        9.8580     0.0730    -0.7600 C.ar  1 <1>  -0.1500 
 22 C        8.0930    -0.4500     0.7720 C.ar  1 <1>  -0.1500 
 23 C       10.7920    -0.3200     0.1830 C.ar  1 <1>  -0.1500 
 24 C        9.0260    -0.8420     1.7150 C.ar  1 <1>  -0.1500 
 25 C       10.3770    -0.7770     1.4210 C.ar  1 <1>  -0.1500 
 26 H        0.8640     2.8150    -0.4800 H     1 <1>   0.3700 
 27 H       -1.2200     2.8520    -0.9500 H     1 <1>   0.0800 
 28 H       -0.7690     3.8090     0.4480 H     1 <1>   0.0800 
 29 H       -2.4080     3.2620     0.2520 H     1 <1>   0.0800 
 30 H       -0.7140     2.7270     2.7590 H     1 <1>   0.0800 
 31 H       -1.1870     1.0620     2.9480 H     1 <1>   0.0800 
 32 H       -2.3790     2.2570     2.5070 H     1 <1>   0.0800 
 33 H       -1.7970     0.3870    -0.6650 H     1 <1>   0.0800 
 34 H       -3.0150     0.8670     0.4930 H     1 <1>   0.0800 
 35 H       -1.8140    -0.3230     0.9250 H     1 <1>   0.0800 
 36 H        3.1450     3.7500     0.3200 H     1 <1>   0.1500 
 37 H        1.3200    -0.2890    -1.5580 H     1 <1>   0.0800 
 38 H        2.1640    -1.2420    -0.3550 H     1 <1>   0.0800 
 39 H        2.7280    -1.2080    -2.0060 H     1 <1>   0.0800 
 40 H        7.9520     0.8200    -2.3850 H     1 <1>   0.0800 
 41 H        6.8680    -0.3990    -1.7780 H     1 <1>   0.0800 
 42 H        8.3040     4.3530    -0.2380 H     1 <1>   0.0800 
 43 H        8.7730     3.2230    -1.4840 H     1 <1>   0.0800 
 44 H        8.9000     2.7750     0.2070 H     1 <1>   0.0800 
 45 H       10.1980     0.4250    -1.7190 H     1 <1>   0.1500 
 46 H        7.0430    -0.5040     1.0110 H     1 <1>   0.1500 
 47 H       11.8430    -0.2710    -0.0450 H     1 <1>   0.1500 
 48 H        8.6990    -1.1970     2.6770 H     1 <1>   0.1500 
 49 H       11.1020    -1.0820     2.1550 H     1 <1>   0.1500 
@<TRIPOS>BOND
  1   1   2  2   
  2   2   3  am  
  3   2   4  1   
  4   3   5  1   
  5   3  26  1   
  6   4   6  1   
  7   4   7  1   
  8   4   8  1   
  9   5   9  ar  
 10   5  10  ar  
 11   6  27  1   
 12   6  28  1   
 13   6  29  1   
 14   7  30  1   
 15   7  31  1   
 16   7  32  1   
 17   8  33  1   
 18   8  34  1   
 19   8  35  1   
 20   9  11  ar  
 21   9  12  1   
 22  10  13  ar  
 23  10  36  1   
 24  11  14  ar  
 25  12  37  1   
 26  12  38  1   
 27  12  39  1   
 28  13  14  ar  
 29  13  15  1   
 30  14  16  1   
 31  15  17  2   
 32  16  17  1   
 33  16  18  1   
 34  17  19  1   
 35  18  20  1   
 36  18  40  1   
 37  18  41  1   
 38  19  42  1   
 39  19  43  1   
 40  19  44  1   
 41  20  21  ar  
 42  20  22  ar  
 43  21  23  ar  
 44  21  45  1   
 45  22  24  ar  
 46  22  46  1   
 47  23  25  ar  
 48  23  47  1   
 49  24  25  ar  
 50  24  48  1   
 51  25  49  1   
@<TRIPOS>SUBSTRUCTURE
  1 ****  14 GROUP 4 **** **** 0

# MOE 2024.06 (io_trps.svl 2023.06)
