@<TRIPOS>MOLECULE
NONAME
37 40 1 0 0 
SMALL
USER_CHARGES


@<TRIPOS>ATOM
  1 S       -0.2110    -0.6800    -0.3200 S.3   1 <1>  -0.3320 
  2 C        1.5620    -0.7730    -0.1160 C.ar  1 <1>   0.7220 
  3 C       -0.8750    -2.0250     0.7870 C.3   1 <1>   0.1310 
  4 N        2.0090    -1.7280     0.7340 N.ar  1 <1>  -0.3100 
  5 N        2.2580     0.0910    -0.8070 N.ar  1 <1>  -0.5670 
  6 C       -2.3940    -2.0990     0.7440 C.2   1 <1>   0.5690 
  7 N        3.2870    -1.8630     0.9400 N.ar  1 <1>  -0.2560 
  8 C        3.5670    -0.0600    -0.5860 C.ar  1 <1>   0.1050 
  9 O       -2.9370    -2.9370     1.4230 O.2   1 <1>  -0.5700 
 10 N       -3.0910    -1.2360    -0.0440 N.am  1 <1>  -0.5790 
 11 C        4.0800    -1.0180     0.2710 C.ar  1 <1>   0.2560 
 12 N        4.6010     0.6590    -1.1300 N.pl3 1 <1>   0.0480 
 13 C       -4.5510    -1.1840    -0.1910 C.3   1 <1>   0.0490 
 14 C        5.4930    -0.8830     0.2540 C.ar  1 <1>   0.0000 
 15 C        5.7860     0.1610    -0.6200 C.ar  1 <1>  -0.1520 
 16 C        4.4780     1.7720    -2.0910 C.3   1 <1>   0.0160 
 17 C       -5.1070    -0.8230    -1.5270 C.3   1 <1>  -0.2000 
 18 C       -5.1870     0.1510    -0.3900 C.3   1 <1>  -0.2000 
 19 C        6.5280    -1.5570     0.9040 C.ar  1 <1>  -0.1500 
 20 C        7.1090     0.5410    -0.8530 C.ar  1 <1>  -0.1500 
 21 C        7.8320    -1.1800     0.6720 C.ar  1 <1>  -0.1500 
 22 C        8.1220    -0.1320    -0.2050 C.ar  1 <1>  -0.1500 
 23 H       -0.5450    -1.8120     1.7870 H     1 <1>   0.0800 
 24 H       -0.4520    -2.9550     0.4530 H     1 <1>   0.0800 
 25 H       -2.5680    -0.5510    -0.5940 H     1 <1>   0.3700 
 26 H       -5.0670    -1.9220     0.4040 H     1 <1>   0.1000 
 27 H        3.4410     1.9470    -2.3150 H     1 <1>   0.0800 
 28 H        5.0000     1.5180    -2.9950 H     1 <1>   0.0800 
 29 H        4.9050     2.6600    -1.6630 H     1 <1>   0.0800 
 30 H       -6.0150    -1.3010    -1.8530 H     1 <1>   0.1000 
 31 H       -4.4280    -0.6280    -2.3380 H     1 <1>   0.1000 
 32 H       -4.5630     1.0270    -0.4050 H     1 <1>   0.1000 
 33 H       -6.1480     0.3340     0.0570 H     1 <1>   0.1000 
 34 H        6.2900    -2.3620     1.5770 H     1 <1>   0.1500 
 35 H        7.3320     1.3480    -1.5280 H     1 <1>   0.1500 
 36 H        8.6400    -1.6910     1.1670 H     1 <1>   0.1500 
 37 H        9.1490     0.1450    -0.3710 H     1 <1>   0.1500 
@<TRIPOS>BOND
  1   1   2  1   
  2   1   3  1   
  3   2   4  ar  
  4   2   5  ar  
  5   3   6  1   
  6   3  23  1   
  7   3  24  1   
  8   4   7  ar  
  9   5   8  ar  
 10   6   9  2   
 11   6  10  am  
 12   7  11  ar  
 13   8  11  ar  
 14   8  12  1   
 15  10  13  1   
 16  10  25  1   
 17  11  14  1   
 18  12  15  1   
 19  12  16  1   
 20  13  17  1   
 21  13  18  1   
 22  13  26  1   
 23  14  15  ar  
 24  14  19  ar  
 25  15  20  ar  
 26  16  27  1   
 27  16  28  1   
 28  16  29  1   
 29  17  18  1   
 30  17  30  1   
 31  17  31  1   
 32  18  32  1   
 33  18  33  1   
 34  19  21  ar  
 35  19  34  1   
 36  20  22  ar  
 37  20  35  1   
 38  21  22  ar  
 39  21  36  1   
 40  22  37  1   
@<TRIPOS>SUBSTRUCTURE
  1 ****   2 GROUP 4 **** **** 0

# MOE 2024.06 (io_trps.svl 2023.06)
