@<TRIPOS>MOLECULE
NONAME
56 59 1 0 0 
SMALL
USER_CHARGES


@<TRIPOS>ATOM
  1 S       -0.3320    -0.3440    -0.5390 S.3   1 <1>  -0.2860 
  2 C        0.7970     0.8010     0.2430 C.2   1 <1>   0.2420 
  3 C       -1.8700    -0.1760     0.4880 C.3   1 <1>   0.1310 
  4 N        0.4350     1.5620     1.2130 N.2   1 <1>  -0.5650 
  5 N        2.0900     0.9100    -0.1570 N.pl3 1 <1>   0.0480 
  6 C       -3.0300    -0.9040    -0.1710 C.2   1 <1>   0.5690 
  7 C        1.5740     2.2520     1.4980 C.ar  1 <1>   0.2270 
  8 C        2.6110     1.8660     0.6620 C.ar  1 <1>  -0.1520 
  9 C        2.7950     0.1530    -1.2120 C.3   1 <1>   0.1570 
 10 O       -3.3020    -2.0050     0.2500 O.2   1 <1>  -0.5700 
 11 N       -3.7520    -0.3190    -1.1840 N.am  1 <1>  -0.6600 
 12 C        1.7880     3.2300     2.4670 C.ar  1 <1>  -0.1500 
 13 C        3.8790     2.4400     0.7770 C.ar  1 <1>  -0.1500 
 14 C        3.9640    -0.6290    -0.6430 C.2   1 <1>   0.5690 
 15 C       -3.4410     0.9960    -1.8080 C.3   1 <1>   0.1400 
 16 C       -4.9460    -0.9930    -1.7530 C.3   1 <1>   0.1400 
 17 C        3.0370     3.8020     2.5840 C.ar  1 <1>  -0.1500 
 18 C        4.0800     3.4050     1.7390 C.ar  1 <1>  -0.1500 
 19 O        5.0750    -0.2860    -0.9760 O.2   1 <1>  -0.5700 
 20 N        3.7690    -1.6930     0.1970 N.am  1 <1>  -0.6600 
 21 C       -4.3220     2.1100    -1.2330 C.3   1 <1>  -0.1600 
 22 C       -6.2050    -0.6770    -0.9360 C.3   1 <1>  -0.1600 
 23 C        2.4720    -2.2040     0.7000 C.3   1 <1>   0.1400 
 24 C        4.8970    -2.4390     0.7950 C.3   1 <1>   0.1400 
 25 C       -5.8400     1.8620    -1.3320 C.3   1 <1>  -0.1600 
 26 C       -6.3260     0.7550    -0.3820 C.3   1 <1>  -0.1600 
 27 C        2.8220    -3.4870     1.4430 C.3   1 <1>  -0.1600 
 28 C        4.2670    -3.2890     1.8920 C.3   1 <1>  -0.1600 
 29 H       -2.0800     0.8710     0.5980 H     1 <1>   0.0800 
 30 H       -1.6540    -0.6020     1.4490 H     1 <1>   0.0800 
 31 H        3.1620     0.8490    -1.9420 H     1 <1>   0.0800 
 32 H        2.1220    -0.5250    -1.6980 H     1 <1>   0.0800 
 33 H        0.9710     3.5150     3.1030 H     1 <1>   0.1500 
 34 H        4.6820     2.1310     0.1280 H     1 <1>   0.1500 
 35 H       -3.5960     0.9280    -2.8710 H     1 <1>   0.0800 
 36 H       -2.4060     1.2480    -1.6590 H     1 <1>   0.0800 
 37 H       -4.7880    -2.0580    -1.7720 H     1 <1>   0.0800 
 38 H       -5.0890    -0.6710    -2.7700 H     1 <1>   0.0800 
 39 H        3.2210     4.5580     3.3270 H     1 <1>   0.1500 
 40 H        5.0480     3.8640     1.8490 H     1 <1>   0.1500 
 41 H       -4.0930     3.0150    -1.7670 H     1 <1>   0.0800 
 42 H       -4.0500     2.2790    -0.2060 H     1 <1>   0.0800 
 43 H       -6.2490    -1.3650    -0.1100 H     1 <1>   0.0800 
 44 H       -7.0570    -0.8860    -1.5580 H     1 <1>   0.0800 
 45 H        1.7840    -2.3960    -0.1060 H     1 <1>   0.0800 
 46 H        2.0490    -1.4880     1.3850 H     1 <1>   0.0800 
 47 H        5.6390    -1.7640     1.1890 H     1 <1>   0.0800 
 48 H        5.3440    -3.0630     0.0400 H     1 <1>   0.0800 
 49 H       -6.1250     1.6420    -2.3460 H     1 <1>   0.0800 
 50 H       -6.3360     2.7760    -1.0530 H     1 <1>   0.0800 
 51 H       -5.7800     0.8200     0.5440 H     1 <1>   0.0800 
 52 H       -7.3610     0.9300    -0.1440 H     1 <1>   0.0800 
 53 H        2.7620    -4.3160     0.7590 H     1 <1>   0.0800 
 54 H        2.1560    -3.6660     2.2680 H     1 <1>   0.0800 
 55 H        4.2910    -2.7370     2.8160 H     1 <1>   0.0800 
 56 H        4.7890    -4.2200     2.0260 H     1 <1>   0.0800 
@<TRIPOS>BOND
  1   1   2  1   
  2   1   3  1   
  3   2   4  2   
  4   2   5  1   
  5   3   6  1   
  6   3  29  1   
  7   3  30  1   
  8   4   7  1   
  9   5   8  1   
 10   5   9  1   
 11   6  10  2   
 12   6  11  am  
 13   7   8  ar  
 14   7  12  ar  
 15   8  13  ar  
 16   9  14  1   
 17   9  31  1   
 18   9  32  1   
 19  11  15  1   
 20  11  16  1   
 21  12  17  ar  
 22  12  33  1   
 23  13  18  ar  
 24  13  34  1   
 25  14  19  2   
 26  14  20  am  
 27  15  21  1   
 28  15  35  1   
 29  15  36  1   
 30  16  22  1   
 31  16  37  1   
 32  16  38  1   
 33  17  18  ar  
 34  17  39  1   
 35  18  40  1   
 36  20  23  1   
 37  20  24  1   
 38  21  25  1   
 39  21  41  1   
 40  21  42  1   
 41  22  26  1   
 42  22  43  1   
 43  22  44  1   
 44  23  27  1   
 45  23  45  1   
 46  23  46  1   
 47  24  28  1   
 48  24  47  1   
 49  24  48  1   
 50  25  26  1   
 51  25  49  1   
 52  25  50  1   
 53  26  51  1   
 54  26  52  1   
 55  27  28  1   
 56  27  53  1   
 57  27  54  1   
 58  28  55  1   
 59  28  56  1   
@<TRIPOS>SUBSTRUCTURE
  1 ****   2 GROUP 4 **** **** 0

# MOE 2024.06 (io_trps.svl 2023.06)
