@<TRIPOS>MOLECULE
Isobutyl-(5-o-tolyl-[1,3,4]thiadiazol-2-yl)-amine
34 35 1 0 0 
SMALL
USER_CHARGES


@<TRIPOS>ATOM
  1 S       -0.1030    -0.3980     0.1470 S.3   1 <1>  -0.0800 
  2 C       -1.3590     0.6580     0.6790 C.2   1 <1>   0.4620 
  3 C        1.0440     0.8450     0.5640 C.2   1 <1>   0.3250 
  4 N       -0.9050     1.7840     1.1050 N.2   1 <1>  -0.3380 
  5 N       -2.6490     0.2180     0.5990 N.pl3 1 <1>  -0.8530 
  6 N        0.4490     1.8830     1.0400 N.2   1 <1>  -0.3380 
  7 C        2.4470     0.5890     0.3400 C.ar  1 <1>   0.0530 
  8 C       -3.8360     1.0150     0.9760 C.3   1 <1>   0.2090 
  9 C        3.3170     1.5390    -0.2190 C.ar  1 <1>  -0.1440 
 10 C        2.9880    -0.6530     0.6870 C.ar  1 <1>  -0.1500 
 11 C       -4.7770     1.1810    -0.2290 C.3   1 <1>  -0.0800 
 12 C        4.6560     1.2380    -0.4110 C.ar  1 <1>  -0.1500 
 13 C        2.8220     2.9190    -0.6390 C.3   1 <1>  -0.0970 
 14 C        4.3220    -0.9480     0.4910 C.ar  1 <1>  -0.1500 
 15 C       -5.9570     2.0870     0.1450 C.3   1 <1>  -0.2400 
 16 C       -5.3080    -0.1650    -0.7480 C.3   1 <1>  -0.2400 
 17 C        5.1620     0.0010    -0.0600 C.ar  1 <1>  -0.1500 
 18 H       -2.8410    -0.7050     0.2060 H     1 <1>   0.4000 
 19 H       -3.5220     1.9850     1.3250 H     1 <1>   0.0800 
 20 H       -4.3510     0.5220     1.7830 H     1 <1>   0.0800 
 21 H        2.3540    -1.4020     1.1260 H     1 <1>   0.1500 
 22 H       -4.2240     1.6650    -1.0170 H     1 <1>   0.0800 
 23 H        5.3210     1.9690    -0.8380 H     1 <1>   0.1500 
 24 H        1.9460     2.8300    -1.2550 H     1 <1>   0.0800 
 25 H        3.5720     3.4490    -1.1980 H     1 <1>   0.0800 
 26 H        2.5750     3.5000     0.2320 H     1 <1>   0.0800 
 27 H        4.7100    -1.9130     0.7680 H     1 <1>   0.1500 
 28 H       -6.5430     1.6450     0.9320 H     1 <1>   0.0800 
 29 H       -6.5930     2.2440    -0.7090 H     1 <1>   0.0800 
 30 H       -5.6010     3.0460     0.4780 H     1 <1>   0.0800 
 31 H       -5.8260    -0.6950     0.0310 H     1 <1>   0.0800 
 32 H       -4.5030    -0.7790    -1.1090 H     1 <1>   0.0800 
 33 H       -5.9910    -0.0050    -1.5650 H     1 <1>   0.0800 
 34 H        6.2030    -0.2220    -0.2140 H     1 <1>   0.1500 
@<TRIPOS>BOND
  1   1   2  1   
  2   1   3  1   
  3   2   4  2   
  4   2   5  1   
  5   3   6  2   
  6   3   7  1   
  7   4   6  1   
  8   5   8  1   
  9   5  18  1   
 10   7   9  ar  
 11   7  10  ar  
 12   8  11  1   
 13   8  19  1   
 14   8  20  1   
 15   9  12  ar  
 16   9  13  1   
 17  10  14  ar  
 18  10  21  1   
 19  11  15  1   
 20  11  16  1   
 21  11  22  1   
 22  12  17  ar  
 23  12  23  1   
 24  13  24  1   
 25  13  25  1   
 26  13  26  1   
 27  14  17  ar  
 28  14  27  1   
 29  15  28  1   
 30  15  29  1   
 31  15  30  1   
 32  16  31  1   
 33  16  32  1   
 34  16  33  1   
 35  17  34  1   
@<TRIPOS>SUBSTRUCTURE
  1 ****   3 GROUP 4 **** **** 0

# MOE 2024.06 (io_trps.svl 2023.06)
