@<TRIPOS>MOLECULE
5-(3,4-Dimethoxy-phenyl)-4-(tetrahydro-furan-2-ylmethyl)-4H-[1,2,4]triazole-3-th
41 43 1 0 0 
SMALL
USER_CHARGES


@<TRIPOS>ATOM
  1 S       -0.3120     1.5890     0.0850 S.3   1 <1>  -0.9360 
  2 C       -1.7650     1.4080    -0.6110 C.cat 1 <1>   0.7360 
  3 N       -2.1350     1.9460    -1.7490 N.pl3 1 <1>  -0.3930 
  4 N       -2.7420     0.6530    -0.1670 N.pl3 1 <1>  -0.7640 
  5 N       -3.3790     1.5160    -2.1010 N.2   1 <1>  -0.2600 
  6 C       -3.7280     0.7260    -1.1310 C.2   1 <1>   0.6120 
  7 C       -2.5900    -0.3230     0.9350 C.3   1 <1>   0.3540 
  8 C       -4.9800     0.0100    -1.0400 C.ar  1 <1>   0.0410 
  9 C       -1.9620    -1.6370     0.4330 C.3   1 <1>   0.2000 
 10 C       -5.8220     0.1650     0.0610 C.ar  1 <1>  -0.1500 
 11 C       -5.3900    -0.8560    -2.0550 C.ar  1 <1>  -0.1500 
 12 O       -2.7660    -2.2420    -0.5330 O.3   1 <1>  -0.5600 
 13 C       -1.8090    -2.7080     1.5060 C.3   1 <1>  -0.1600 
 14 C       -7.0180    -0.5210     0.1580 C.ar  1 <1>   0.0830 
 15 C       -6.5790    -1.5560    -1.9640 C.ar  1 <1>  -0.1500 
 16 C       -2.4340    -3.5860    -0.6480 C.3   1 <1>   0.1200 
 17 C       -1.8760    -4.0040     0.7110 C.3   1 <1>  -0.1600 
 18 O       -7.7810    -0.2840     1.2540 O.3   1 <1>  -0.3630 
 19 C       -7.3930    -1.4120    -0.8540 C.ar  1 <1>   0.0830 
 20 C       -9.0330     0.3290     1.0280 C.3   1 <1>   0.0400 
 21 O       -8.5230    -2.1550    -0.8060 O.3   1 <1>  -0.3630 
 22 C       -8.5950    -3.1320     0.2090 C.3   1 <1>   0.0400 
 23 H       -1.5090     2.5600    -2.2690 H     1 <1>   0.4500 
 24 H       -3.5450    -0.5300     1.3820 H     1 <1>   0.0800 
 25 H       -1.9560     0.0990     1.6960 H     1 <1>   0.0800 
 26 H       -1.0050    -1.4310    -0.0170 H     1 <1>   0.0800 
 27 H       -5.5460     0.8390     0.8520 H     1 <1>   0.1500 
 28 H       -4.7610    -0.9900    -2.9180 H     1 <1>   0.1500 
 29 H       -2.6310    -2.6590     2.1990 H     1 <1>   0.0800 
 30 H       -0.8830    -2.6000     2.0420 H     1 <1>   0.0800 
 31 H       -6.8800    -2.2270    -2.7500 H     1 <1>   0.1500 
 32 H       -1.6910    -3.6820    -1.4220 H     1 <1>   0.0800 
 33 H       -3.3190    -4.1380    -0.9150 H     1 <1>   0.0800 
 34 H       -2.5180    -4.7250     1.1860 H     1 <1>   0.0800 
 35 H       -0.8990    -4.4350     0.5840 H     1 <1>   0.0800 
 36 H       -9.4720     0.5580     1.9820 H     1 <1>   0.0800 
 37 H       -8.8810     1.2340     0.4660 H     1 <1>   0.0800 
 38 H       -9.6700    -0.3450     0.4850 H     1 <1>   0.0800 
 39 H       -9.4890    -3.7090     0.0570 H     1 <1>   0.0800 
 40 H       -7.7300    -3.7680     0.1410 H     1 <1>   0.0800 
 41 H       -8.6300    -2.6500     1.1690 H     1 <1>   0.0800 
@<TRIPOS>BOND
  1   1   2  1   
  2   2   3  ar  
  3   2   4  ar  
  4   3   5  1   
  5   3  23  1   
  6   4   6  1   
  7   4   7  1   
  8   5   6  2   
  9   6   8  1   
 10   7   9  1   
 11   7  24  1   
 12   7  25  1   
 13   8  10  ar  
 14   8  11  ar  
 15   9  12  1   
 16   9  13  1   
 17   9  26  1   
 18  10  14  ar  
 19  10  27  1   
 20  11  15  ar  
 21  11  28  1   
 22  12  16  1   
 23  13  17  1   
 24  13  29  1   
 25  13  30  1   
 26  14  18  1   
 27  14  19  ar  
 28  15  19  ar  
 29  15  31  1   
 30  16  17  1   
 31  16  32  1   
 32  16  33  1   
 33  17  34  1   
 34  17  35  1   
 35  18  20  1   
 36  19  21  1   
 37  20  36  1   
 38  20  37  1   
 39  20  38  1   
 40  21  22  1   
 41  22  39  1   
 42  22  40  1   
 43  22  41  1   
@<TRIPOS>SUBSTRUCTURE
  1 ****   8 GROUP 4 **** **** 0

# MOE 2024.06 (io_trps.svl 2023.06)
