@<TRIPOS>MOLECULE
NONAME
61 65 1 0 0 
SMALL
USER_CHARGES


@<TRIPOS>ATOM
  1 CL      -0.6150     1.6840     1.8400 Cl    1 <1>  -0.1770 
  2 C       -2.0030     2.4990     1.1660 C.ar  1 <1>   0.1770 
  3 C       -2.4440     2.1580    -0.0970 C.ar  1 <1>  -0.1500 
  4 C       -2.6420     3.4750     1.9040 C.ar  1 <1>  -0.1500 
  5 C       -3.5490     2.8040    -0.6260 C.ar  1 <1>  -0.1500 
  6 C       -3.7450     4.1170     1.3680 C.ar  1 <1>  -0.1500 
  7 C       -4.2190     3.7870     0.1000 C.ar  1 <1>  -0.1430 
  8 C       -5.4590     4.5310    -0.4350 C.3   1 <1>   0.5140 
  9 N       -6.7060     3.7180    -0.3060 N.3   1 <1>  -0.8100 
 10 C       -5.3530     5.0850    -1.8570 C.2   1 <1>   0.0060 
 11 C       -6.7100     2.4790    -1.1260 C.3   1 <1>   0.1100 
 12 C       -7.0310     3.3980     1.1090 C.3   1 <1>   0.1100 
 13 N       -4.4630     4.8070    -2.7360 N.2   1 <1>  -0.3380 
 14 N       -6.2220     5.9440    -2.3730 N.pl3 1 <1>   0.3140 
 15 C       -8.0800     1.7600    -1.0920 C.3   1 <1>   0.3430 
 16 C       -8.2940     2.5120     1.2540 C.3   1 <1>   0.3430 
 17 N       -4.7870     5.5000    -3.8170 N.2   1 <1>   0.0000 
 18 N       -5.8510     6.1850    -3.6120 N.2   1 <1>  -0.4180 
 19 C       -7.4510     6.5460    -1.8150 C.3   1 <1>   0.2760 
 20 N       -9.0010     2.3560    -0.0590 N.4   1 <1>  -0.9590 
 21 C       -7.1830     7.2610    -0.5050 C.2   1 <1>  -0.0400 
 22 C      -10.3410     1.7200     0.0680 C.3   1 <1>   0.4230 
 23 O       -7.7120     6.7800     0.6060 O.3   1 <1>  -0.2800 
 24 C       -6.4560     8.3690    -0.2430 C.2   1 <1>  -0.1500 
 25 C      -10.2430     0.2240     0.4110 C.3   1 <1>  -0.1600 
 26 C      -11.1520     1.9400    -1.2150 C.3   1 <1>  -0.1600 
 27 C       -7.3420     7.5710     1.5950 C.2   1 <1>  -0.0100 
 28 C       -6.5600     8.5710     1.1380 C.2   1 <1>  -0.1500 
 29 C      -11.6440    -0.3910     0.5480 C.3   1 <1>  -0.1600 
 30 C      -12.5550     1.3300    -1.0830 C.3   1 <1>  -0.1600 
 31 C      -12.4790    -0.1590    -0.7190 C.3   1 <1>  -0.1600 
 32 H       -1.9240     1.4030    -0.6580 H     1 <1>   0.1500 
 33 H       -2.2730     3.7270     2.8820 H     1 <1>   0.1500 
 34 H       -3.8710     2.5370    -1.6170 H     1 <1>   0.1500 
 35 H       -4.2290     4.8810     1.9520 H     1 <1>   0.1500 
 36 H       -5.5720     5.3900     0.2000 H     1 <1>   0.0800 
 37 H       -5.9650     1.7950    -0.7580 H     1 <1>   0.0800 
 38 H       -6.4630     2.7050    -2.1500 H     1 <1>   0.0800 
 39 H       -7.1860     4.3150     1.6530 H     1 <1>   0.0800 
 40 H       -6.2070     2.8840     1.5750 H     1 <1>   0.0800 
 41 H       -7.9160     0.7150    -0.8870 H     1 <1>   0.0800 
 42 H       -8.5310     1.8330    -2.0670 H     1 <1>   0.0800 
 43 H       -8.9520     2.9570     1.9810 H     1 <1>   0.0800 
 44 H       -8.0010     1.5450     1.6260 H     1 <1>   0.0800 
 45 H       -8.1780     5.7700    -1.6710 H     1 <1>   0.0800 
 46 H       -7.8400     7.2490    -2.5290 H     1 <1>   0.0800 
 47 H       -9.1370     3.3250    -0.3760 H     1 <1>   0.4500 
 48 H      -10.8740     2.2050     0.8700 H     1 <1>   0.0800 
 49 H       -5.8990     8.9940    -0.9220 H     1 <1>   0.1500 
 50 H       -9.7190     0.0850     1.3390 H     1 <1>   0.0800 
 51 H       -9.7220    -0.3070    -0.3640 H     1 <1>   0.0800 
 52 H      -10.6630     1.4770    -2.0540 H     1 <1>   0.0800 
 53 H      -11.2510     2.9930    -1.4100 H     1 <1>   0.0800 
 54 H       -7.6790     7.3570     2.5940 H     1 <1>   0.1500 
 55 H       -6.1010     9.3750     1.6880 H     1 <1>   0.1500 
 56 H      -12.1520     0.0440     1.3920 H     1 <1>   0.0800 
 57 H      -11.5600    -1.4500     0.7300 H     1 <1>   0.0800 
 58 H      -13.0900     1.4430    -2.0110 H     1 <1>   0.0800 
 59 H      -13.1100     1.8540    -0.3230 H     1 <1>   0.0800 
 60 H      -13.4750    -0.5410    -0.5660 H     1 <1>   0.0800 
 61 H      -12.0470    -0.7080    -1.5390 H     1 <1>   0.0800 
@<TRIPOS>BOND
  1   1   2  1   
  2   2   3  ar  
  3   2   4  ar  
  4   3   5  ar  
  5   3  32  1   
  6   4   6  ar  
  7   4  33  1   
  8   5   7  ar  
  9   5  34  1   
 10   6   7  ar  
 11   6  35  1   
 12   7   8  1   
 13   8   9  1   
 14   8  10  1   
 15   8  36  1   
 16   9  11  1   
 17   9  12  1   
 18  10  13  2   
 19  10  14  1   
 20  11  15  1   
 21  11  37  1   
 22  11  38  1   
 23  12  16  1   
 24  12  39  1   
 25  12  40  1   
 26  13  17  1   
 27  14  18  1   
 28  14  19  1   
 29  15  20  1   
 30  15  41  1   
 31  15  42  1   
 32  16  20  1   
 33  16  43  1   
 34  16  44  1   
 35  17  18  2   
 36  19  21  1   
 37  19  45  1   
 38  19  46  1   
 39  20  22  1   
 40  20  47  1   
 41  21  23  1   
 42  21  24  2   
 43  22  25  1   
 44  22  26  1   
 45  22  48  1   
 46  23  27  1   
 47  24  28  1   
 48  24  49  1   
 49  25  29  1   
 50  25  50  1   
 51  25  51  1   
 52  26  30  1   
 53  26  52  1   
 54  26  53  1   
 55  27  28  2   
 56  27  54  1   
 57  28  55  1   
 58  29  31  1   
 59  29  56  1   
 60  29  57  1   
 61  30  31  1   
 62  30  58  1   
 63  30  59  1   
 64  31  60  1   
 65  31  61  1   
@<TRIPOS>SUBSTRUCTURE
  1 ****   9 GROUP 4 **** **** 0

# MOE 2024.06 (io_trps.svl 2023.06)
