@<TRIPOS>MOLECULE
NONAME
53 56 1 0 0 
SMALL
USER_CHARGES


@<TRIPOS>ATOM
  1 F       -1.3130     0.0920    -0.2500 F     1 <1>  -0.1900 
  2 C       -2.1260    -0.9270    -0.1980 C.ar  1 <1>   0.1900 
  3 C       -3.4480    -0.7480    -0.5550 C.ar  1 <1>  -0.1500 
  4 C       -1.6380    -2.1520     0.2120 C.ar  1 <1>  -0.1500 
  5 C       -4.3020    -1.8360    -0.4980 C.ar  1 <1>  -0.1500 
  6 C       -2.5060    -3.2290     0.2640 C.ar  1 <1>  -0.1500 
  7 C       -3.8520    -3.0950    -0.0910 C.ar  1 <1>   0.0540 
  8 C       -4.7580    -4.2260    -0.0400 C.2   1 <1>   0.2350 
  9 N       -6.0320    -4.1370     0.2720 N.2   1 <1>  -0.7070 
 10 C       -4.3940    -5.5510    -0.3160 C.2   1 <1>  -0.1500 
 11 N       -6.4950    -5.4130     0.2160 N.pl3 1 <1>   0.5610 
 12 C       -5.5110    -6.2870    -0.1480 C.2   1 <1>  -0.0680 
 13 C       -7.7880    -5.8190     0.4880 C.cat 1 <1>   0.3950 
 14 N       -5.8250    -7.6420    -0.2660 N.pl3 1 <1>  -0.5840 
 15 N       -8.6480    -4.8480     0.8550 N.pl3 1 <1>  -0.1460 
 16 C       -8.0600    -7.1920     0.3560 C.2   1 <1>  -0.1360 
 17 C       -7.0760    -8.0810    -0.0190 C.2   1 <1>  -0.0380 
 18 C      -10.0920    -4.9200     1.2100 C.3   1 <1>   0.1860 
 19 C       -7.3310    -9.5690    -0.1700 C.3   1 <1>  -0.1020 
 20 C      -10.9090    -3.8940     0.3990 C.3   1 <1>  -0.1600 
 21 C      -12.4040    -3.9430     0.7630 C.3   1 <1>   0.3430 
 22 N      -13.2030    -3.0160    -0.0910 N.4   1 <1>  -0.9590 
 23 C      -12.9610    -1.5550     0.2160 C.3   1 <1>   0.3430 
 24 C      -14.6790    -3.3150     0.0450 C.3   1 <1>   0.3430 
 25 C      -13.9030    -0.6360    -0.5870 C.3   1 <1>   0.1200 
 26 C      -15.5440    -2.3180    -0.7490 C.3   1 <1>   0.1200 
 27 O      -15.2310    -1.0100    -0.3740 O.3   1 <1>  -0.5600 
 28 H       -3.7930     0.2210    -0.8690 H     1 <1>   0.1500 
 29 H       -0.6030    -2.2530     0.4850 H     1 <1>   0.1500 
 30 H       -5.3330    -1.7110    -0.7740 H     1 <1>   0.1500 
 31 H       -2.1320    -4.1830     0.5910 H     1 <1>   0.1500 
 32 H       -3.4160    -5.8870    -0.6070 H     1 <1>   0.1500 
 33 H       -5.0780    -8.2980    -0.5470 H     1 <1>   0.4000 
 34 H       -8.2220    -3.9080     0.9290 H     1 <1>   0.4000 
 35 H       -9.0470    -7.5680     0.5530 H     1 <1>   0.1500 
 36 H      -10.1940    -4.7190     2.2650 H     1 <1>   0.0800 
 37 H      -10.4630    -5.9130     1.0230 H     1 <1>   0.0800 
 38 H       -6.7000   -10.1210     0.5030 H     1 <1>   0.0800 
 39 H       -7.1160    -9.8790    -1.1770 H     1 <1>   0.0800 
 40 H       -8.3550    -9.8130     0.0480 H     1 <1>   0.0800 
 41 H      -10.8000    -4.1120    -0.6500 H     1 <1>   0.0800 
 42 H      -10.5290    -2.9080     0.5990 H     1 <1>   0.0800 
 43 H      -12.5410    -3.6850     1.8020 H     1 <1>   0.0800 
 44 H      -12.7660    -4.9500     0.6220 H     1 <1>   0.0800 
 45 H      -12.9690    -3.1650    -1.0830 H     1 <1>   0.4500 
 46 H      -11.9420    -1.2900    -0.0090 H     1 <1>   0.0800 
 47 H      -13.1300    -1.3690     1.2640 H     1 <1>   0.0800 
 48 H      -14.9710    -3.2570     1.0810 H     1 <1>   0.0800 
 49 H      -14.8890    -4.3140    -0.3020 H     1 <1>   0.0800 
 50 H      -13.6930    -0.6800    -1.6420 H     1 <1>   0.0800 
 51 H      -13.7960     0.3840    -0.2600 H     1 <1>   0.0800 
 52 H      -16.5870    -2.4770    -0.5330 H     1 <1>   0.0800 
 53 H      -15.3960    -2.4220    -1.8100 H     1 <1>   0.0800 
@<TRIPOS>BOND
  1   1   2  1   
  2   2   3  ar  
  3   2   4  ar  
  4   3   5  ar  
  5   3  28  1   
  6   4   6  ar  
  7   4  29  1   
  8   5   7  ar  
  9   5  30  1   
 10   6   7  ar  
 11   6  31  1   
 12   7   8  1   
 13   8   9  2   
 14   8  10  1   
 15   9  11  1   
 16  10  12  2   
 17  10  32  1   
 18  11  12  1   
 19  11  13  ar  
 20  12  14  1   
 21  13  15  ar  
 22  13  16  1   
 23  14  17  1   
 24  14  33  1   
 25  15  18  1   
 26  15  34  1   
 27  16  17  2   
 28  16  35  1   
 29  17  19  1   
 30  18  20  1   
 31  18  36  1   
 32  18  37  1   
 33  19  38  1   
 34  19  39  1   
 35  19  40  1   
 36  20  21  1   
 37  20  41  1   
 38  20  42  1   
 39  21  22  1   
 40  21  43  1   
 41  21  44  1   
 42  22  23  1   
 43  22  24  1   
 44  22  45  1   
 45  23  25  1   
 46  23  46  1   
 47  23  47  1   
 48  24  26  1   
 49  24  48  1   
 50  24  49  1   
 51  25  27  1   
 52  25  50  1   
 53  25  51  1   
 54  26  27  1   
 55  26  52  1   
 56  26  53  1   
@<TRIPOS>SUBSTRUCTURE
  1 ****  15 GROUP 4 **** **** 0

# MOE 2024.06 (io_trps.svl 2023.06)
