@<TRIPOS>MOLECULE
Furan-2-carboxylic acid [(benzo[1,3]dioxol-5-yl-cyclopentylcarbamoylmethyl-carbamoyl)-methyl]-amide
53 56 1 0 0 
SMALL
USER_CHARGES


@<TRIPOS>ATOM
  1 O        0.3000    -0.2050     0.3220 O.2   1 <1>  -0.5700 
  2 C        0.0940    -1.3270    -0.1030 C.2   1 <1>   0.7150 
  3 N        1.1530    -2.0070    -0.6300 N.am  1 <1>  -0.7300 
  4 C       -1.2120    -1.9500    -0.0600 C.2   1 <1>   0.0550 
  5 C        2.5760    -1.5610    -0.5750 C.3   1 <1>   0.2010 
  6 O       -2.2640    -1.3190     0.4560 O.3   1 <1>  -0.2800 
  7 C       -1.6220    -3.1800    -0.4840 C.2   1 <1>  -0.1500 
  8 C        3.5600    -2.7390    -0.6060 C.2   1 <1>   0.5690 
  9 C       -3.3160    -2.1000     0.3740 C.2   1 <1>  -0.0100 
 10 C       -2.9850    -3.2750    -0.2010 C.2   1 <1>  -0.1500 
 11 O        3.1310    -3.8390    -0.8830 O.2   1 <1>  -0.5700 
 12 N        4.8940    -2.5260    -0.3440 N.am  1 <1>  -0.4770 
 13 C        5.4480    -1.2500    -0.1710 C.ar  1 <1>   0.1170 
 14 C        5.8270    -3.7060    -0.3040 C.3   1 <1>   0.2010 
 15 C        6.0420    -0.6000    -1.2500 C.ar  1 <1>  -0.1500 
 16 C        5.4160    -0.6320     1.0820 C.ar  1 <1>  -0.1500 
 17 C        6.9720    -3.5840     0.7020 C.2   1 <1>   0.5690 
 18 C        6.5920     0.6470    -1.0360 C.ar  1 <1>   0.0830 
 19 C        5.9670     0.6270     1.2750 C.ar  1 <1>  -0.1500 
 20 O        6.8940    -4.1830     1.7480 O.2   1 <1>  -0.5700 
 21 N        8.0580    -2.8250     0.3910 N.am  1 <1>  -0.7300 
 22 O        7.2190     1.4350    -1.9150 O.3   1 <1>  -0.3620 
 23 C        6.5560     1.2440     0.1900 C.ar  1 <1>   0.0830 
 24 C        9.2410    -2.6360     1.2450 C.3   1 <1>   0.2200 
 25 C        7.5950     2.6170    -1.2080 C.3   1 <1>   0.4000 
 26 O        7.1580     2.4390     0.1380 O.3   1 <1>  -0.3630 
 27 C        9.3570    -1.1610     1.6070 C.3   1 <1>  -0.1600 
 28 C       10.4890    -2.8880     0.4090 C.3   1 <1>  -0.1600 
 29 C       10.0130    -0.4820     0.3980 C.3   1 <1>  -0.1600 
 30 C       10.7330    -1.5940    -0.3760 C.3   1 <1>  -0.1600 
 31 H        1.0490    -2.9930    -0.8820 H     1 <1>   0.3700 
 32 H        2.7320    -0.9930     0.3250 H     1 <1>   0.0800 
 33 H        2.7730    -0.9210    -1.4160 H     1 <1>   0.0800 
 34 H       -1.0360    -3.9530    -0.9490 H     1 <1>   0.1500 
 35 H       -4.2600    -1.7440     0.7480 H     1 <1>   0.1500 
 36 H       -3.6160    -4.1210    -0.4100 H     1 <1>   0.1500 
 37 H        6.2430    -3.8510    -1.2830 H     1 <1>   0.0800 
 38 H        5.2750    -4.5930    -0.0500 H     1 <1>   0.0800 
 39 H        6.0770    -1.0490    -2.2250 H     1 <1>   0.1500 
 40 H        4.9630    -1.1470     1.9120 H     1 <1>   0.1500 
 41 H        5.9480     1.1140     2.2340 H     1 <1>   0.1500 
 42 H        8.0500    -2.2280    -0.4360 H     1 <1>   0.3700 
 43 H        9.1930    -3.2700     2.1160 H     1 <1>   0.0800 
 44 H        7.1000     3.4690    -1.6390 H     1 <1>   0.0800 
 45 H        8.6650     2.7250    -1.2290 H     1 <1>   0.0800 
 46 H       10.0130    -1.0710     2.4550 H     1 <1>   0.0800 
 47 H        8.4070    -0.7290     1.8650 H     1 <1>   0.0800 
 48 H       10.3870    -3.7500    -0.2270 H     1 <1>   0.0800 
 49 H       11.3160    -3.0520     1.0770 H     1 <1>   0.0800 
 50 H       10.6980     0.2850     0.7160 H     1 <1>   0.0800 
 51 H        9.2600    -0.0360    -0.2260 H     1 <1>   0.0800 
 52 H       10.3120    -1.6780    -1.3640 H     1 <1>   0.0800 
 53 H       11.7870    -1.3920    -0.4650 H     1 <1>   0.0800 
@<TRIPOS>BOND
  1   1   2  2   
  2   2   3  am  
  3   2   4  1   
  4   3   5  1   
  5   3  31  1   
  6   4   6  1   
  7   4   7  2   
  8   5   8  1   
  9   5  32  1   
 10   5  33  1   
 11   6   9  1   
 12   7  10  1   
 13   7  34  1   
 14   8  11  2   
 15   8  12  am  
 16   9  10  2   
 17   9  35  1   
 18  10  36  1   
 19  12  13  1   
 20  12  14  1   
 21  13  15  ar  
 22  13  16  ar  
 23  14  17  1   
 24  14  37  1   
 25  14  38  1   
 26  15  18  ar  
 27  15  39  1   
 28  16  19  ar  
 29  16  40  1   
 30  17  20  2   
 31  17  21  am  
 32  18  22  1   
 33  18  23  ar  
 34  19  23  ar  
 35  19  41  1   
 36  21  24  1   
 37  21  42  1   
 38  22  25  1   
 39  23  26  1   
 40  24  27  1   
 41  24  28  1   
 42  24  43  1   
 43  25  26  1   
 44  25  44  1   
 45  25  45  1   
 46  27  29  1   
 47  27  46  1   
 48  27  47  1   
 49  28  30  1   
 50  28  48  1   
 51  28  49  1   
 52  29  30  1   
 53  29  50  1   
 54  29  51  1   
 55  30  52  1   
 56  30  53  1   
@<TRIPOS>SUBSTRUCTURE
  1 ****  13 GROUP 4 **** **** 0

# MOE 2024.06 (io_trps.svl 2023.06)
