@<TRIPOS>MOLECULE
N-Cyclopentyl-2-[3-(3-methoxy-propyl)-2,4-dioxo-3,4-dihydro-2H-thieno[3,2-d]pyri
48 50 1 0 0 
SMALL
USER_CHARGES


@<TRIPOS>ATOM
  1 S        0.8650    -0.9060     2.7180 S.3   1 <1>  -0.0800 
  2 C        2.1860    -1.2210     1.5840 C.2   1 <1>  -0.0450 
  3 C       -0.1020    -2.1910     2.0120 C.2   1 <1>  -0.1100 
  4 C        3.4350    -0.5490     1.5480 C.2   1 <1>   0.7150 
  5 C        1.8480    -2.2250     0.7410 C.2   1 <1>   0.0630 
  6 C        0.5540    -2.7830     0.9960 C.2   1 <1>  -0.1500 
  7 O        3.7100     0.3740     2.2980 O.2   1 <1>  -0.5700 
  8 N        4.3570    -0.9940     0.6130 N.am  1 <1>  -0.4200 
  9 N        2.7710    -2.6000    -0.2350 N.am  1 <1>  -0.4230 
 10 C        4.0450    -2.0450    -0.2390 C.2   1 <1>   0.6900 
 11 C        5.6810    -0.3200     0.5030 C.3   1 <1>   0.1400 
 12 C        2.4220    -3.6460    -1.2480 C.3   1 <1>   0.2010 
 13 O        4.8970    -2.5010    -0.9840 O.2   1 <1>  -0.5700 
 14 C        5.6120     0.7980    -0.5400 C.3   1 <1>  -0.1600 
 15 C        2.8270    -5.0370    -0.7830 C.2   1 <1>   0.5690 
 16 C        6.9540     1.5140    -0.6600 C.3   1 <1>   0.1200 
 17 O        1.9680    -5.8580    -0.5690 O.2   1 <1>  -0.5700 
 18 N        4.1470    -5.3010    -0.6180 N.am  1 <1>  -0.7300 
 19 O        6.8220     2.4900    -1.6370 O.3   1 <1>  -0.5600 
 20 C        4.7290    -6.5350    -0.0760 C.3   1 <1>   0.2200 
 21 C        7.9730     3.2410    -1.8490 C.3   1 <1>   0.0400 
 22 C        5.3470    -6.2200     1.2790 C.3   1 <1>  -0.1600 
 23 C        5.9330    -6.9160    -0.9270 C.3   1 <1>  -0.1600 
 24 C        6.7000    -5.5680     0.9740 C.3   1 <1>  -0.1600 
 25 C        7.0850    -6.0300    -0.4380 C.3   1 <1>  -0.1600 
 26 H       -1.0710    -2.3730     2.4440 H     1 <1>   0.1500 
 27 H        0.1670    -3.6070     0.4210 H     1 <1>   0.1500 
 28 H        6.4330    -1.0380     0.2220 H     1 <1>   0.0800 
 29 H        5.9660     0.0870     1.4590 H     1 <1>   0.0800 
 30 H        2.9230    -3.4340    -2.1750 H     1 <1>   0.0800 
 31 H        1.3670    -3.6310    -1.4450 H     1 <1>   0.0800 
 32 H        4.8640     1.5150    -0.2490 H     1 <1>   0.0800 
 33 H        5.3560     0.3810    -1.4980 H     1 <1>   0.0800 
 34 H        7.7290     0.8290    -0.9610 H     1 <1>   0.0800 
 35 H        7.2190     1.9900     0.2700 H     1 <1>   0.0800 
 36 H        4.8240    -4.5420    -0.7720 H     1 <1>   0.3700 
 37 H        3.9890    -7.3180    -0.0250 H     1 <1>   0.0800 
 38 H        7.7640     3.9600    -2.6210 H     1 <1>   0.0800 
 39 H        8.7700     2.5910    -2.1650 H     1 <1>   0.0800 
 40 H        8.2350     3.7530    -0.9390 H     1 <1>   0.0800 
 41 H        5.5140    -7.1460     1.8010 H     1 <1>   0.0800 
 42 H        4.7090    -5.5960     1.8820 H     1 <1>   0.0800 
 43 H        5.7390    -6.8050    -1.9800 H     1 <1>   0.0800 
 44 H        6.1760    -7.9460    -0.7300 H     1 <1>   0.0800 
 45 H        7.4400    -5.8560     1.7010 H     1 <1>   0.0800 
 46 H        6.5990    -4.4960     0.9870 H     1 <1>   0.0800 
 47 H        7.1870    -5.1730    -1.0830 H     1 <1>   0.0800 
 48 H        8.0140    -6.5750    -0.4360 H     1 <1>   0.0800 
@<TRIPOS>BOND
  1   1   2  1   
  2   1   3  1   
  3   2   4  1   
  4   2   5  2   
  5   3   6  2   
  6   3  26  1   
  7   4   7  2   
  8   4   8  am  
  9   5   6  1   
 10   5   9  1   
 11   6  27  1   
 12   8  10  am  
 13   8  11  1   
 14   9  10  am  
 15   9  12  1   
 16  10  13  2   
 17  11  14  1   
 18  11  28  1   
 19  11  29  1   
 20  12  15  1   
 21  12  30  1   
 22  12  31  1   
 23  14  16  1   
 24  14  32  1   
 25  14  33  1   
 26  15  17  2   
 27  15  18  am  
 28  16  19  1   
 29  16  34  1   
 30  16  35  1   
 31  18  20  1   
 32  18  36  1   
 33  19  21  1   
 34  20  22  1   
 35  20  23  1   
 36  20  37  1   
 37  21  38  1   
 38  21  39  1   
 39  21  40  1   
 40  22  24  1   
 41  22  41  1   
 42  22  42  1   
 43  23  25  1   
 44  23  43  1   
 45  23  44  1   
 46  24  25  1   
 47  24  45  1   
 48  24  46  1   
 49  25  47  1   
 50  25  48  1   
@<TRIPOS>SUBSTRUCTURE
  1 ****  10 GROUP 4 **** **** 0

# MOE 2024.06 (io_trps.svl 2023.06)
