@<TRIPOS>MOLECULE
NONAME
53 56 1 0 0 
SMALL
USER_CHARGES


@<TRIPOS>ATOM
  1 O       -1.1160    -2.2130    -1.7540 O.2   1 <1>  -0.5700 
  2 C       -0.8430    -2.7750    -0.7220 C.2   1 <1>   0.5690 
  3 N        0.4330    -3.1050    -0.4150 N.am  1 <1>  -0.7300 
  4 C       -1.9550    -3.1310     0.2610 C.3   1 <1>  -0.0190 
  5 C        1.5840    -2.8370    -1.2880 C.3   1 <1>   0.2840 
  6 C       -2.8420    -4.2560    -0.3060 C.3   1 <1>  -0.1600 
  7 C       -2.8070    -1.8950     0.6110 C.3   1 <1>  -0.1600 
  8 C        2.7940    -3.5160    -0.6760 C.ar  1 <1>  -0.1440 
  9 C       -4.0230    -4.5810     0.6110 C.3   1 <1>   0.2090 
 10 C       -3.9810    -2.2560     1.5210 C.3   1 <1>   0.2090 
 11 C        3.5620    -2.8550     0.2710 C.ar  1 <1>  -0.1500 
 12 C        3.1380    -4.8070    -1.0490 C.ar  1 <1>  -0.1500 
 13 N       -4.7870    -3.3310     0.8780 N.pl3 1 <1>  -0.8380 
 14 C        4.6600    -3.4780     0.8360 C.ar  1 <1>  -0.1500 
 15 C        4.2370    -5.4330    -0.4850 C.ar  1 <1>  -0.1500 
 16 C       -6.0540    -3.1240     0.4050 C.2   1 <1>   0.4790 
 17 C        5.0060    -4.7670     0.4650 C.ar  1 <1>   0.0820 
 18 N       -7.0230    -4.0810     0.5440 N.pl3 1 <1>  -0.3220 
 19 C       -6.4420    -1.9670    -0.2290 C.2   1 <1>  -0.1360 
 20 O        6.0970    -5.3040     1.0670 O.3   1 <1>  -0.3620 
 21 N       -7.0120    -5.3090     1.1700 N.2   1 <1>  -0.2600 
 22 C       -8.2550    -3.8370     0.0750 C.cat 1 <1>   0.9620 
 23 C       -7.7460    -1.8270    -0.6890 C.2   1 <1>   0.3750 
 24 C        6.5490    -6.6000     0.7450 C.3   1 <1>   0.0400 
 25 C       -8.2090    -5.7470     1.0390 C.2   1 <1>   0.5030 
 26 N       -8.6690    -2.7450    -0.5500 N.2   1 <1>  -0.6120 
 27 N       -9.0080    -4.8780     0.3680 N.pl3 1 <1>  -0.7000 
 28 C       -8.1630    -0.5550    -1.3980 C.3   1 <1>  -0.1790 
 29 H        0.6740    -3.5950     0.4470 H     1 <1>   0.3700 
 30 H       -1.5020    -3.4890     1.1680 H     1 <1>   0.0800 
 31 H        1.7420    -1.7740    -1.3610 H     1 <1>   0.0800 
 32 H        1.3870    -3.2210    -2.2750 H     1 <1>   0.0800 
 33 H       -2.2500    -5.1430    -0.4500 H     1 <1>   0.0800 
 34 H       -3.2240    -3.9620    -1.2690 H     1 <1>   0.0800 
 35 H       -3.1880    -1.4500    -0.2910 H     1 <1>   0.0800 
 36 H       -2.1900    -1.1610     1.0990 H     1 <1>   0.0800 
 37 H       -3.6720    -4.9920     1.5430 H     1 <1>   0.0800 
 38 H       -4.6450    -5.3160     0.1300 H     1 <1>   0.0800 
 39 H       -4.5870    -1.3860     1.7080 H     1 <1>   0.0800 
 40 H       -3.6130    -2.6120     2.4690 H     1 <1>   0.0800 
 41 H        3.3070    -1.8530     0.5720 H     1 <1>   0.1500 
 42 H        2.5480    -5.3310    -1.7810 H     1 <1>   0.1500 
 43 H        5.2580    -2.9690     1.5700 H     1 <1>   0.1500 
 44 H        4.4780    -6.4310    -0.7960 H     1 <1>   0.1500 
 45 H       -5.7310    -1.1780    -0.3820 H     1 <1>   0.1500 
 46 H        7.4230    -6.8050     1.3370 H     1 <1>   0.0800 
 47 H        6.8000    -6.6320    -0.3010 H     1 <1>   0.0800 
 48 H        5.7750    -7.3090     0.9790 H     1 <1>   0.0800 
 49 H       -8.5620    -6.6960     1.4160 H     1 <1>   0.1500 
 50 H       -9.9930    -4.9420     0.1250 H     1 <1>   0.4500 
 51 H       -7.3430     0.1350    -1.4810 H     1 <1>   0.0800 
 52 H       -8.9590    -0.0790    -0.8540 H     1 <1>   0.0800 
 53 H       -8.5160    -0.7890    -2.3870 H     1 <1>   0.0800 
@<TRIPOS>BOND
  1   1   2  2   
  2   2   3  am  
  3   2   4  1   
  4   3   5  1   
  5   3  29  1   
  6   4   6  1   
  7   4   7  1   
  8   4  30  1   
  9   5   8  1   
 10   5  31  1   
 11   5  32  1   
 12   6   9  1   
 13   6  33  1   
 14   6  34  1   
 15   7  10  1   
 16   7  35  1   
 17   7  36  1   
 18   8  11  ar  
 19   8  12  ar  
 20   9  13  1   
 21   9  37  1   
 22   9  38  1   
 23  10  13  1   
 24  10  39  1   
 25  10  40  1   
 26  11  14  ar  
 27  11  41  1   
 28  12  15  ar  
 29  12  42  1   
 30  13  16  1   
 31  14  17  ar  
 32  14  43  1   
 33  15  17  ar  
 34  15  44  1   
 35  16  18  1   
 36  16  19  2   
 37  17  20  1   
 38  18  21  1   
 39  18  22  ar  
 40  19  23  1   
 41  19  45  1   
 42  20  24  1   
 43  21  25  2   
 44  22  26  1   
 45  22  27  ar  
 46  23  26  2   
 47  23  28  1   
 48  24  46  1   
 49  24  47  1   
 50  24  48  1   
 51  25  27  1   
 52  25  49  1   
 53  27  50  1   
 54  28  51  1   
 55  28  52  1   
 56  28  53  1   
@<TRIPOS>SUBSTRUCTURE
  1 ****   4 GROUP 4 **** **** 0

# MOE 2024.06 (io_trps.svl 2023.06)
