@<TRIPOS>MOLECULE
9285
34 34 1 0 0 
SMALL
USER_CHARGES


@<TRIPOS>ATOM
  1 O        0.5910    -1.1510    -0.0520 O.2   1 <1>  -0.5700 
  2 C        0.1300    -2.2730    -0.0010 C.2   1 <1>   0.7800 
  3 O       -1.1870    -2.4570     0.0080 O.3   1 <1>  -0.4300 
  4 N        0.8660    -3.4170     0.0490 N.am  1 <1>  -0.5470 
  5 C       -2.0700    -1.3570    -0.0410 C.3   1 <1>   0.1200 
  6 C        2.2400    -3.6670     0.0610 C.ar  1 <1>   0.1170 
  7 C       -3.5030    -1.8900    -0.0160 C.3   1 <1>  -0.1600 
  8 C        2.6770    -4.9870     0.0620 C.ar  1 <1>  -0.1500 
  9 C        3.2110    -2.6700     0.0740 C.ar  1 <1>  -0.1500 
 10 C       -4.5200    -0.7430    -0.0670 C.3   1 <1>  -0.1600 
 11 C        4.0230    -5.2950     0.0740 C.ar  1 <1>  -0.1500 
 12 C        4.5570    -2.9800     0.0860 C.ar  1 <1>  -0.1500 
 13 C       -5.9540    -1.2780    -0.0420 C.3   1 <1>  -0.2400 
 14 C        5.0090    -4.3050     0.0860 C.ar  1 <1>   0.0860 
 15 C        6.4110    -4.6680     0.0990 C.2   1 <1>   0.4230 
 16 O        6.7960    -5.8090     0.1030 O.2   1 <1>  -0.5700 
 17 C        7.4840    -3.5960     0.1070 C.3   1 <1>  -0.1790 
 18 H        0.2660    -4.2370     0.0750 H     1 <1>   0.3700 
 19 H       -1.8780    -0.8070    -0.9460 H     1 <1>   0.0800 
 20 H       -1.8770    -0.7280     0.8120 H     1 <1>   0.0800 
 21 H       -3.6510    -2.4590     0.8850 H     1 <1>   0.0800 
 22 H       -3.6520    -2.5370    -0.8630 H     1 <1>   0.0800 
 23 H        1.9570    -5.7850     0.0530 H     1 <1>   0.1500 
 24 H        2.9220    -1.6350     0.0750 H     1 <1>   0.1500 
 25 H       -4.3730    -0.1670    -0.9650 H     1 <1>   0.0800 
 26 H       -4.3720    -0.0890     0.7770 H     1 <1>   0.0800 
 27 H        4.3280    -6.3280     0.0750 H     1 <1>   0.1500 
 28 H        5.2610    -2.1680     0.0950 H     1 <1>   0.1500 
 29 H       -6.1330    -1.9170    -0.8890 H     1 <1>   0.0800 
 30 H       -6.6530    -0.4600    -0.0780 H     1 <1>   0.0800 
 31 H       -6.1320    -1.8390     0.8590 H     1 <1>   0.0800 
 32 H        7.3890    -2.9870     0.9860 H     1 <1>   0.0800 
 33 H        7.4000    -2.9840    -0.7720 H     1 <1>   0.0800 
 34 H        8.4570    -4.0540     0.1120 H     1 <1>   0.0800 
@<TRIPOS>BOND
  1   1   2  2   
  2   2   3  1   
  3   2   4  am  
  4   3   5  1   
  5   4   6  1   
  6   4  18  1   
  7   5   7  1   
  8   5  19  1   
  9   5  20  1   
 10   6   8  ar  
 11   6   9  ar  
 12   7  10  1   
 13   7  21  1   
 14   7  22  1   
 15   8  11  ar  
 16   8  23  1   
 17   9  12  ar  
 18   9  24  1   
 19  10  13  1   
 20  10  25  1   
 21  10  26  1   
 22  11  14  ar  
 23  11  27  1   
 24  12  14  ar  
 25  12  28  1   
 26  13  29  1   
 27  13  30  1   
 28  13  31  1   
 29  14  15  1   
 30  15  16  2   
 31  15  17  1   
 32  17  32  1   
 33  17  33  1   
 34  17  34  1   
@<TRIPOS>SUBSTRUCTURE
  1 ****   4 GROUP 4 **** **** 0

# MOE 2024.06 (io_trps.svl 2023.06)
