@<TRIPOS>MOLECULE
N-(2-Morpholin-4-yl-phenyl)-2-(2-propyl-quinazolin-4-ylsulfanyl)-acetamide
56 59 1 0 0 
SMALL
USER_CHARGES


@<TRIPOS>ATOM
  1 S        0.2790     1.3390     0.2750 S.3   1 <1>  -0.3320 
  2 C        0.2860    -0.3550     0.8480 C.ar  1 <1>   0.4120 
  3 C       -0.0220     1.2320    -1.5630 C.3   1 <1>   0.1310 
  4 N       -0.1630    -1.2350     0.0220 N.ar  1 <1>  -0.6200 
  5 C        0.7540    -0.6400     2.1440 C.ar  1 <1>   0.0000 
  6 C       -1.5030     1.1850    -1.9140 C.2   1 <1>   0.5690 
  7 C       -0.1890    -2.5010     0.4680 C.ar  1 <1>   0.4770 
  8 C        0.7020    -1.9950     2.4900 C.ar  1 <1>   0.3100 
  9 C        1.2510     0.2850     3.0860 C.ar  1 <1>  -0.1500 
 10 O       -1.8930     1.9070    -2.8010 O.2   1 <1>  -0.5700 
 11 N       -2.3170     0.3290    -1.2340 N.am  1 <1>  -0.5470 
 12 N        0.2130    -2.9130     1.6270 N.ar  1 <1>  -0.6200 
 13 C       -0.7660    -3.5180    -0.5020 C.3   1 <1>  -0.0170 
 14 C        1.1450    -2.3940     3.7580 C.ar  1 <1>  -0.1500 
 15 C        1.6760    -0.1280     4.3210 C.ar  1 <1>  -0.1500 
 16 C       -3.6860     0.0320    -1.3350 C.ar  1 <1>   0.1170 
 17 C        0.1900    -3.8140    -1.6690 C.3   1 <1>  -0.1600 
 18 C        1.6240    -1.4820     4.6630 C.ar  1 <1>  -0.1500 
 19 C       -4.3360    -0.4770    -0.1990 C.ar  1 <1>   0.1000 
 20 C       -4.3950     0.2020    -2.5160 C.ar  1 <1>  -0.1500 
 21 C       -0.4050    -4.8440    -2.6360 C.3   1 <1>  -0.2400 
 22 N       -3.6320    -0.6220     1.0140 N.pl3 1 <1>  -0.8380 
 23 C       -5.6880    -0.7950    -0.2910 C.ar  1 <1>  -0.1500 
 24 C       -5.7380    -0.1250    -2.5890 C.ar  1 <1>  -0.1500 
 25 C       -3.6630     0.6060     1.8670 C.3   1 <1>   0.2090 
 26 C       -3.8660    -1.8600     1.8230 C.3   1 <1>   0.2090 
 27 C       -6.3840    -0.6250    -1.4740 C.ar  1 <1>  -0.1500 
 28 C       -2.7930     0.4450     3.1260 C.3   1 <1>   0.1200 
 29 C       -2.9830    -1.8860     3.0830 C.3   1 <1>   0.1200 
 30 O       -3.1400    -0.7130     3.8330 O.3   1 <1>  -0.5600 
 31 H        0.4810     0.3580    -1.9310 H     1 <1>   0.0800 
 32 H        0.4230     2.1070    -1.9970 H     1 <1>   0.0800 
 33 H        1.2960     1.3290     2.8290 H     1 <1>   0.1500 
 34 H       -1.8900    -0.1580    -0.4350 H     1 <1>   0.3700 
 35 H       -1.6960    -3.1350    -0.8820 H     1 <1>   0.0800 
 36 H       -0.9770    -4.4290     0.0290 H     1 <1>   0.0800 
 37 H        1.0960    -3.4400     4.0010 H     1 <1>   0.1500 
 38 H        2.0540     0.5790     5.0410 H     1 <1>   0.1500 
 39 H        1.1220    -4.1860    -1.2780 H     1 <1>   0.0800 
 40 H        0.3940    -2.9020    -2.2040 H     1 <1>   0.0800 
 41 H        1.9610    -1.7950     5.6360 H     1 <1>   0.1500 
 42 H       -3.8990     0.5890    -3.3870 H     1 <1>   0.1500 
 43 H       -0.5960    -5.7730    -2.1280 H     1 <1>   0.0800 
 44 H        0.2830    -5.0310    -3.4420 H     1 <1>   0.0800 
 45 H       -1.3280    -4.4790    -3.0530 H     1 <1>   0.0800 
 46 H       -6.2110    -1.1670     0.5680 H     1 <1>   0.1500 
 47 H       -6.2740     0.0120    -3.5120 H     1 <1>   0.1500 
 48 H       -4.6780     0.8100     2.1630 H     1 <1>   0.0800 
 49 H       -3.3090     1.4450     1.2940 H     1 <1>   0.0800 
 50 H       -3.6510    -2.7230     1.2180 H     1 <1>   0.0800 
 51 H       -4.8940    -1.9110     2.1320 H     1 <1>   0.0800 
 52 H       -7.4290    -0.8770    -1.5260 H     1 <1>   0.1500 
 53 H       -2.9340     1.2850     3.7820 H     1 <1>   0.0800 
 54 H       -1.7540     0.3880     2.8580 H     1 <1>   0.0800 
 55 H       -1.9500    -1.9830     2.8130 H     1 <1>   0.0800 
 56 H       -3.2540    -2.7160     3.7100 H     1 <1>   0.0800 
@<TRIPOS>BOND
  1   1   2  1   
  2   1   3  1   
  3   2   4  ar  
  4   2   5  ar  
  5   3   6  1   
  6   3  31  1   
  7   3  32  1   
  8   4   7  ar  
  9   5   8  ar  
 10   5   9  ar  
 11   6  10  2   
 12   6  11  am  
 13   7  12  ar  
 14   7  13  1   
 15   8  12  ar  
 16   8  14  ar  
 17   9  15  ar  
 18   9  33  1   
 19  11  16  1   
 20  11  34  1   
 21  13  17  1   
 22  13  35  1   
 23  13  36  1   
 24  14  18  ar  
 25  14  37  1   
 26  15  18  ar  
 27  15  38  1   
 28  16  19  ar  
 29  16  20  ar  
 30  17  21  1   
 31  17  39  1   
 32  17  40  1   
 33  18  41  1   
 34  19  22  1   
 35  19  23  ar  
 36  20  24  ar  
 37  20  42  1   
 38  21  43  1   
 39  21  44  1   
 40  21  45  1   
 41  22  25  1   
 42  22  26  1   
 43  23  27  ar  
 44  23  46  1   
 45  24  27  ar  
 46  24  47  1   
 47  25  28  1   
 48  25  48  1   
 49  25  49  1   
 50  26  29  1   
 51  26  50  1   
 52  26  51  1   
 53  27  52  1   
 54  28  30  1   
 55  28  53  1   
 56  28  54  1   
 57  29  30  1   
 58  29  55  1   
 59  29  56  1   
@<TRIPOS>SUBSTRUCTURE
  1 ****   4 GROUP 4 **** **** 0

# MOE 2024.06 (io_trps.svl 2023.06)
