@<TRIPOS>MOLECULE
NONAME
56 59 1 0 0 
SMALL
USER_CHARGES


@<TRIPOS>ATOM
  1 F       -1.8380     0.5300    -1.2020 F     1 <1>  -0.1900 
  2 C       -1.1190     1.0000    -0.2200 C.ar  1 <1>   0.1900 
  3 C       -1.6640     1.9700     0.6180 C.ar  1 <1>   0.0860 
  4 C        0.1540     0.4900    -0.0540 C.ar  1 <1>  -0.1500 
  5 C       -2.9970     2.4850     0.4180 C.2   1 <1>   0.5440 
  6 C       -0.8570     2.4170     1.6660 C.ar  1 <1>  -0.1500 
  7 C        0.9300     0.9540     0.9930 C.ar  1 <1>  -0.1500 
  8 O       -3.2960     3.0770    -0.5990 O.2   1 <1>  -0.5700 
  9 N       -3.9470     2.3350     1.3900 N.am  1 <1>  -0.7300 
 10 C        0.4210     1.9170     1.8510 C.ar  1 <1>  -0.1500 
 11 C       -5.3920     2.6650     1.3560 C.3   1 <1>   0.2200 
 12 C       -6.0700     2.1190     0.0270 C.3   1 <1>  -0.1600 
 13 C       -5.5760     4.1910     1.6720 C.3   1 <1>  -0.1600 
 14 C       -6.3720     3.1580    -1.1160 C.3   1 <1>   0.4230 
 15 C       -6.4380     4.7040     0.5530 C.3   1 <1>   0.4230 
 16 N       -5.7080     4.3690    -0.6820 N.4   1 <1>  -0.9590 
 17 C       -7.8880     3.5210    -1.3530 C.3   1 <1>  -0.1600 
 18 C       -7.6030     5.6230     0.2710 C.3   1 <1>  -0.1600 
 19 C       -5.4250     5.3950    -1.7280 C.3   1 <1>   0.4860 
 20 C       -8.3890     4.9560    -0.9070 C.3   1 <1>  -0.1600 
 21 C       -4.7050     6.5930    -1.1260 C.ar  1 <1>  -0.1430 
 22 C       -5.2850     7.8540    -1.1880 C.ar  1 <1>  -0.1500 
 23 C       -3.4620     6.4540    -0.5220 C.ar  1 <1>  -0.1500 
 24 C       -4.6500     8.9520    -0.6330 C.ar  1 <1>  -0.1500 
 25 C       -2.8270     7.5500     0.0330 C.ar  1 <1>  -0.1500 
 26 C       -3.4150     8.8020    -0.0120 C.ar  1 <1>   0.0830 
 27 O       -2.7270     9.8190     0.5630 O.3   1 <1>  -0.3630 
 28 C       -3.2120    11.1430     0.5370 C.3   1 <1>   0.0400 
 29 H        0.5290    -0.2580    -0.7310 H     1 <1>   0.1500 
 30 H       -1.2320     3.1700     2.3390 H     1 <1>   0.1500 
 31 H        1.9260     0.5700     1.1410 H     1 <1>   0.1500 
 32 H       -3.6590     1.8360     2.2370 H     1 <1>   0.3700 
 33 H        1.0290     2.2770     2.6650 H     1 <1>   0.1500 
 34 H       -5.8420     2.1180     2.1700 H     1 <1>   0.0800 
 35 H       -6.9940     1.6440     0.3030 H     1 <1>   0.0800 
 36 H       -5.4640     1.3300    -0.3850 H     1 <1>   0.0800 
 37 H       -4.6460     4.7330     1.7140 H     1 <1>   0.0800 
 38 H       -6.0950     4.3150     2.6050 H     1 <1>   0.0800 
 39 H       -5.9300     2.8050    -2.0350 H     1 <1>   0.0800 
 40 H       -7.1380     3.9070     0.7240 H     1 <1>   0.0800 
 41 H       -4.7620     4.0470    -0.3990 H     1 <1>   0.4500 
 42 H       -8.5000     2.7840    -0.8650 H     1 <1>   0.0800 
 43 H       -8.0920     3.4060    -2.4030 H     1 <1>   0.0800 
 44 H       -7.2910     6.6260     0.0540 H     1 <1>   0.0800 
 45 H       -8.2290     5.6610     1.1460 H     1 <1>   0.0800 
 46 H       -6.3390     5.7220    -2.1900 H     1 <1>   0.0800 
 47 H       -4.8000     4.9630    -2.4920 H     1 <1>   0.0800 
 48 H       -9.4340     4.8990    -0.6500 H     1 <1>   0.0800 
 49 H       -8.3340     5.6140    -1.7580 H     1 <1>   0.0800 
 50 H       -6.2370     7.9970    -1.6690 H     1 <1>   0.1500 
 51 H       -2.9670     5.5020    -0.4810 H     1 <1>   0.1500 
 52 H       -5.1260     9.9120    -0.6940 H     1 <1>   0.1500 
 53 H       -1.8660     7.4440     0.5040 H     1 <1>   0.1500 
 54 H       -2.4970    11.7700     1.0370 H     1 <1>   0.0800 
 55 H       -4.1550    11.1800     1.0530 H     1 <1>   0.0800 
 56 H       -3.3190    11.4560    -0.4870 H     1 <1>   0.0800 
@<TRIPOS>BOND
  1   1   2  1   
  2   2   3  ar  
  3   2   4  ar  
  4   3   5  1   
  5   3   6  ar  
  6   4   7  ar  
  7   4  29  1   
  8   5   8  2   
  9   5   9  am  
 10   6  10  ar  
 11   6  30  1   
 12   7  10  ar  
 13   7  31  1   
 14   9  11  1   
 15   9  32  1   
 16  10  33  1   
 17  11  12  1   
 18  11  13  1   
 19  11  34  1   
 20  12  14  1   
 21  12  35  1   
 22  12  36  1   
 23  13  15  1   
 24  13  37  1   
 25  13  38  1   
 26  14  16  1   
 27  14  17  1   
 28  14  39  1   
 29  15  16  1   
 30  15  18  1   
 31  15  40  1   
 32  16  19  1   
 33  16  41  1   
 34  17  20  1   
 35  17  42  1   
 36  17  43  1   
 37  18  20  1   
 38  18  44  1   
 39  18  45  1   
 40  19  21  1   
 41  19  46  1   
 42  19  47  1   
 43  20  48  1   
 44  20  49  1   
 45  21  22  ar  
 46  21  23  ar  
 47  22  24  ar  
 48  22  50  1   
 49  23  25  ar  
 50  23  51  1   
 51  24  26  ar  
 52  24  52  1   
 53  25  26  ar  
 54  25  53  1   
 55  26  27  1   
 56  27  28  1   
 57  28  54  1   
 58  28  55  1   
 59  28  56  1   
@<TRIPOS>SUBSTRUCTURE
  1 ****   8 GROUP 4 **** **** 0

# MOE 2024.06 (io_trps.svl 2023.06)
