@<TRIPOS>MOLECULE
ka-04572
32 34 1 0 0 
SMALL
USER_CHARGES


@<TRIPOS>ATOM
  1 O        0.4510     0.2200    -0.2090 O.2   1 <1>  -0.5700 
  2 C        1.4890     0.8540    -0.1730 C.2   1 <1>   0.6900 
  3 N        2.6920     0.2040     0.0650 N.am  1 <1>  -0.4690 
  4 N        1.4820     2.2210    -0.3420 N.am  1 <1>  -0.4200 
  5 C        3.9010     0.8630    -0.1040 C.2   1 <1>   0.2180 
  6 C        2.6050    -1.0880     0.8150 C.3   1 <1>   0.0600 
  7 C        2.6530     2.9470    -0.2130 C.2   1 <1>   0.6160 
  8 C        0.1890     2.9330    -0.5730 C.3   1 <1>   0.0600 
  9 N        5.0940     0.1560    -0.2490 N.am  1 <1>  -0.4690 
 10 C        3.8970     2.2500    -0.1190 C.2   1 <1>   0.0590 
 11 O        2.5830     4.1650    -0.1940 O.2   1 <1>  -0.5700 
 12 C        6.3320     0.7880    -0.0940 C.2   1 <1>   0.7160 
 13 C        5.1240    -1.2210    -0.8390 C.3   1 <1>   0.0600 
 14 C        5.1600     2.8910    -0.0410 C.2   1 <1>   0.0950 
 15 O        7.3510     0.1060    -0.0540 O.2   1 <1>  -0.5700 
 16 C        6.3360     2.2170    -0.0050 C.2   1 <1>   0.1410 
 17 O        5.4330     4.1690     0.0290 O.3   1 <1>  -0.2800 
 18 N        7.3520     3.1240     0.0980 N.2   1 <1>  -0.5650 
 19 C        6.7440     4.2490     0.1110 C.2   1 <1>   0.2980 
 20 C        7.3770     5.6150     0.2100 C.3   1 <1>  -0.0600 
 21 H        1.7810    -1.0580     1.5080 H     1 <1>   0.0800 
 22 H        3.5050    -1.2630     1.3780 H     1 <1>   0.0800 
 23 H        2.4420    -1.8970     0.1260 H     1 <1>   0.0800 
 24 H       -0.5150     2.2900    -1.0720 H     1 <1>   0.0800 
 25 H        0.3460     3.8030    -1.1870 H     1 <1>   0.0800 
 26 H       -0.2230     3.2410     0.3720 H     1 <1>   0.0800 
 27 H        4.2110    -1.4290    -1.3680 H     1 <1>   0.0800 
 28 H        5.2680    -1.9470    -0.0590 H     1 <1>   0.0800 
 29 H        5.9370    -1.3050    -1.5410 H     1 <1>   0.0800 
 30 H        7.1220     6.1940    -0.6580 H     1 <1>   0.0800 
 31 H        8.4450     5.5190     0.2700 H     1 <1>   0.0800 
 32 H        7.0170     6.1160     1.0890 H     1 <1>   0.0800 
@<TRIPOS>BOND
  1   1   2  2   
  2   2   3  am  
  3   2   4  am  
  4   3   5  1   
  5   3   6  1   
  6   4   7  am  
  7   4   8  1   
  8   5   9  1   
  9   5  10  2   
 10   6  21  1   
 11   6  22  1   
 12   6  23  1   
 13   7  10  1   
 14   7  11  2   
 15   8  24  1   
 16   8  25  1   
 17   8  26  1   
 18   9  12  am  
 19   9  13  1   
 20  10  14  1   
 21  12  15  2   
 22  12  16  1   
 23  13  27  1   
 24  13  28  1   
 25  13  29  1   
 26  14  16  2   
 27  14  17  1   
 28  16  18  1   
 29  17  19  1   
 30  18  19  2   
 31  19  20  1   
 32  20  30  1   
 33  20  31  1   
 34  20  32  1   
@<TRIPOS>SUBSTRUCTURE
  1 ****  10 GROUP 4 **** **** 0

# MOE 2024.06 (io_trps.svl 2023.06)
