@<TRIPOS>MOLECULE
NONAME
55 58 1 0 0 
SMALL
USER_CHARGES


@<TRIPOS>ATOM
  1 F       -1.2860     2.3150     2.7760 F     1 <1>  -0.1900 
  2 C       -0.7660     2.0430     1.6090 C.ar  1 <1>   0.1900 
  3 C       -1.5620     2.0780     0.4590 C.ar  1 <1>   0.0860 
  4 C        0.5810     1.7330     1.5940 C.ar  1 <1>  -0.1500 
  5 C       -2.9820     2.3990     0.4540 C.2   1 <1>   0.5440 
  6 C       -0.9030     1.7810    -0.7390 C.ar  1 <1>  -0.1500 
  7 C        1.1920     1.4430     0.3890 C.ar  1 <1>  -0.1500 
  8 O       -3.5340     2.7240    -0.5800 O.2   1 <1>  -0.5700 
  9 N       -3.7490     2.3510     1.5860 N.am  1 <1>  -0.7300 
 10 C        0.4460     1.4690    -0.7760 C.ar  1 <1>  -0.1500 
 11 C       -5.1990     2.5750     1.7910 C.3   1 <1>   0.2200 
 12 C       -6.0610     1.7880     0.7120 C.3   1 <1>  -0.1600 
 13 C       -5.4600     4.1160     1.9190 C.3   1 <1>  -0.1600 
 14 C       -6.6360     2.6150    -0.4970 C.3   1 <1>   0.4230 
 15 C       -6.5350     4.4000     0.9090 C.3   1 <1>   0.4230 
 16 N       -6.0020     3.9100    -0.3740 N.4   1 <1>  -0.9590 
 17 C       -8.1930     2.8600    -0.5070 C.3   1 <1>  -0.1600 
 18 C       -7.7970     5.2060     0.7080 C.3   1 <1>  -0.1600 
 19 C       -5.9820     4.7730    -1.5900 C.3   1 <1>   0.4860 
 20 C       -8.7200     4.3210    -0.1960 C.3   1 <1>  -0.1600 
 21 C       -5.2630     6.0820    -1.3070 C.ar  1 <1>  -0.1430 
 22 C       -3.9370     6.1030    -0.8970 C.ar  1 <1>  -0.1500 
 23 C       -5.9320     7.2870    -1.4730 C.ar  1 <1>  -0.1500 
 24 C       -3.3020     7.3030    -0.6320 C.ar  1 <1>  -0.1500 
 25 C       -5.2960     8.4860    -1.2090 C.ar  1 <1>  -0.1500 
 26 C       -3.9790     8.5010    -0.7820 C.ar  1 <1>  -0.1430 
 27 C       -3.2810     9.8180    -0.4930 C.3   1 <1>  -0.0970 
 28 H        1.1440     1.7200     2.5120 H     1 <1>   0.1500 
 29 H       -1.4570     1.7930    -1.6620 H     1 <1>   0.1500 
 30 H        2.2410     1.2000     0.3560 H     1 <1>   0.1500 
 31 H       -3.2390     2.1560     2.4570 H     1 <1>   0.3700 
 32 H        0.9200     1.2440    -1.7180 H     1 <1>   0.1500 
 33 H       -5.4350     2.1320     2.7460 H     1 <1>   0.0800 
 34 H       -6.8840     1.3270     1.2260 H     1 <1>   0.0800 
 35 H       -5.4810     0.9700     0.3210 H     1 <1>   0.0800 
 36 H       -4.5860     4.7150     1.7250 H     1 <1>   0.0800 
 37 H       -5.8280     4.3470     2.9030 H     1 <1>   0.0800 
 38 H       -6.3310     2.1430    -1.4190 H     1 <1>   0.0800 
 39 H       -7.1330     3.6080     1.3200 H     1 <1>   0.0800 
 40 H       -5.0000     3.6840    -0.2190 H     1 <1>   0.4500 
 41 H       -8.6540     2.1800     0.1880 H     1 <1>   0.0800 
 42 H       -8.5660     2.5680    -1.4730 H     1 <1>   0.0800 
 43 H       -7.6030     6.1740     0.2880 H     1 <1>   0.0800 
 44 H       -8.2660     5.3560     1.6650 H     1 <1>   0.0800 
 45 H       -6.9840     4.9790    -1.9210 H     1 <1>   0.0800 
 46 H       -5.4660     4.2580    -2.3840 H     1 <1>   0.0800 
 47 H       -9.6980     4.2540     0.2520 H     1 <1>   0.0800 
 48 H       -8.8630     4.8360    -1.1300 H     1 <1>   0.0800 
 49 H       -3.3780     5.1930    -0.7820 H     1 <1>   0.1500 
 50 H       -6.9550     7.3080    -1.8090 H     1 <1>   0.1500 
 51 H       -2.2740     7.3020    -0.3130 H     1 <1>   0.1500 
 52 H       -5.8280     9.4130    -1.3390 H     1 <1>   0.1500 
 53 H       -2.5210     9.6850     0.2560 H     1 <1>   0.0800 
 54 H       -3.9860    10.5470    -0.1340 H     1 <1>   0.0800 
 55 H       -2.8230    10.1910    -1.3910 H     1 <1>   0.0800 
@<TRIPOS>BOND
  1   1   2  1   
  2   2   3  ar  
  3   2   4  ar  
  4   3   5  1   
  5   3   6  ar  
  6   4   7  ar  
  7   4  28  1   
  8   5   8  2   
  9   5   9  am  
 10   6  10  ar  
 11   6  29  1   
 12   7  10  ar  
 13   7  30  1   
 14   9  11  1   
 15   9  31  1   
 16  10  32  1   
 17  11  12  1   
 18  11  13  1   
 19  11  33  1   
 20  12  14  1   
 21  12  34  1   
 22  12  35  1   
 23  13  15  1   
 24  13  36  1   
 25  13  37  1   
 26  14  16  1   
 27  14  17  1   
 28  14  38  1   
 29  15  16  1   
 30  15  18  1   
 31  15  39  1   
 32  16  19  1   
 33  16  40  1   
 34  17  20  1   
 35  17  41  1   
 36  17  42  1   
 37  18  20  1   
 38  18  43  1   
 39  18  44  1   
 40  19  21  1   
 41  19  45  1   
 42  19  46  1   
 43  20  47  1   
 44  20  48  1   
 45  21  22  ar  
 46  21  23  ar  
 47  22  24  ar  
 48  22  49  1   
 49  23  25  ar  
 50  23  50  1   
 51  24  26  ar  
 52  24  51  1   
 53  25  26  ar  
 54  25  52  1   
 55  26  27  1   
 56  27  53  1   
 57  27  54  1   
 58  27  55  1   
@<TRIPOS>SUBSTRUCTURE
  1 ****   8 GROUP 4 **** **** 0

# MOE 2024.06 (io_trps.svl 2023.06)
