@<TRIPOS>MOLECULE
NONAME
26 26 1 0 0 
SMALL
USER_CHARGES


@<TRIPOS>ATOM
  1 O        0.3130     0.3280    -1.5380 O.2   1 <1>  -0.5700 
  2 C        0.0240     1.3640    -0.9890 C.2   1 <1>   0.6590 
  3 O        0.8860     2.0120    -0.2140 O.3   1 <1>  -0.4300 
  4 C       -1.3530     2.0120    -1.1730 C.3   1 <1>   0.1710 
  5 C        2.1720     1.5020     0.0410 C.3   1 <1>   0.1200 
  6 N       -2.3290     1.7460    -0.0810 N.3   1 <1>  -0.8100 
  7 C        2.8950     2.4800     0.9620 C.3   1 <1>  -0.2400 
  8 C       -2.6240     0.3260     0.0820 C.3   1 <1>   0.1100 
  9 C       -3.6120     2.3980    -0.3000 C.3   1 <1>   0.1100 
 10 C       -3.9400     0.2910     0.8500 C.3   1 <1>  -0.1600 
 11 C       -4.5710     1.6660     0.6300 C.3   1 <1>  -0.1600 
 12 H       -1.7590     1.6630    -2.1050 H     1 <1>   0.0800 
 13 H       -1.2050     3.0730    -1.2520 H     1 <1>   0.0800 
 14 H        2.6910     1.3970    -0.8970 H     1 <1>   0.0800 
 15 H        2.0680     0.5370     0.5080 H     1 <1>   0.0800 
 16 H        2.9820     3.4410     0.4870 H     1 <1>   0.0800 
 17 H        3.8810     2.1130     1.1790 H     1 <1>   0.0800 
 18 H        2.3560     2.5830     1.8870 H     1 <1>   0.0800 
 19 H       -1.8340    -0.1730     0.6190 H     1 <1>   0.0800 
 20 H       -2.7530    -0.1380    -0.8820 H     1 <1>   0.0800 
 21 H       -3.9260     2.2620    -1.3220 H     1 <1>   0.0800 
 22 H       -3.5560     3.4490    -0.0720 H     1 <1>   0.0800 
 23 H       -3.7440     0.1340     1.8960 H     1 <1>   0.0800 
 24 H       -4.5680    -0.5040     0.4880 H     1 <1>   0.0800 
 25 H       -5.5530     1.5990     0.1970 H     1 <1>   0.0800 
 26 H       -4.6340     2.1950     1.5640 H     1 <1>   0.0800 
@<TRIPOS>BOND
  1   1   2  2   
  2   2   3  1   
  3   2   4  1   
  4   3   5  1   
  5   4   6  1   
  6   4  12  1   
  7   4  13  1   
  8   5   7  1   
  9   5  14  1   
 10   5  15  1   
 11   6   8  1   
 12   6   9  1   
 13   7  16  1   
 14   7  17  1   
 15   7  18  1   
 16   8  10  1   
 17   8  19  1   
 18   8  20  1   
 19   9  11  1   
 20   9  21  1   
 21   9  22  1   
 22  10  11  1   
 23  10  23  1   
 24  10  24  1   
 25  11  25  1   
 26  11  26  1   
@<TRIPOS>SUBSTRUCTURE
  1 ****   4 GROUP 4 **** **** 0

# MOE 2024.06 (io_trps.svl 2023.06)
