@<TRIPOS>MOLECULE
Piperidine-1,4-dicarboxylic acid 4-[(benzo[1,3]dioxol-5-ylmethyl)-amide] 1-benzylamide
54 57 1 0 0 
SMALL
USER_CHARGES


@<TRIPOS>ATOM
  1 O        0.1100     0.2420    -1.1200 O.2   1 <1>  -0.5700 
  2 C        0.0490     1.4580    -1.1290 C.2   1 <1>   0.6900 
  3 N        1.1440     2.2190    -1.4430 N.am  1 <1>  -0.6600 
  4 N       -1.1140     2.0620    -0.8030 N.am  1 <1>  -0.7300 
  5 C        1.0990     3.6710    -1.7640 C.3   1 <1>   0.1400 
  6 C        2.5000     1.6140    -1.5170 C.3   1 <1>   0.1400 
  7 C       -2.2810     1.3480    -0.2720 C.3   1 <1>   0.2840 
  8 C        2.0130     4.4290    -0.8000 C.3   1 <1>  -0.1600 
  9 C        3.4380     2.3540    -0.5590 C.3   1 <1>  -0.1600 
 10 C       -3.1850     2.3670     0.3980 C.ar  1 <1>  -0.1440 
 11 C        3.4530     3.8720    -0.8280 C.3   1 <1>  -0.0190 
 12 C       -2.9250     2.7820     1.6950 C.ar  1 <1>  -0.1500 
 13 C       -4.2710     2.8980    -0.2820 C.ar  1 <1>  -0.1500 
 14 C        4.3850     4.5840     0.1520 C.2   1 <1>   0.5690 
 15 C       -3.7440     3.7140     2.3090 C.ar  1 <1>  -0.1500 
 16 C       -5.0910     3.8300     0.3310 C.ar  1 <1>  -0.1500 
 17 O        3.9400     5.1600     1.1160 O.2   1 <1>  -0.5700 
 18 N        5.7170     4.5400    -0.0870 N.am  1 <1>  -0.7300 
 19 C       -4.8280     4.2380     1.6270 C.ar  1 <1>  -0.1500 
 20 C        6.7390     5.0670     0.8280 C.3   1 <1>   0.2840 
 21 C        8.0050     4.2580     0.6190 C.ar  1 <1>  -0.1440 
 22 C        8.1330     3.0110     1.2220 C.ar  1 <1>  -0.1500 
 23 C        9.0350     4.7560    -0.1810 C.ar  1 <1>  -0.1500 
 24 C        9.2950     2.2970     1.0060 C.ar  1 <1>   0.0820 
 25 C       10.1970     4.0220    -0.3870 C.ar  1 <1>  -0.1500 
 26 O        9.6290     1.0920     1.4800 O.3   1 <1>  -0.3620 
 27 C       10.2990     2.7890     0.2240 C.ar  1 <1>   0.0820 
 28 C       10.9320     0.8030     0.9770 C.3   1 <1>   0.4000 
 29 O       11.3110     1.9170     0.1710 O.3   1 <1>  -0.3620 
 30 H       -1.0890     3.0500    -0.5700 H     1 <1>   0.3700 
 31 H        0.0970     4.0560    -1.6980 H     1 <1>   0.0800 
 32 H        1.4370     3.8120    -2.7770 H     1 <1>   0.0800 
 33 H        2.8630     1.6880    -2.5280 H     1 <1>   0.0800 
 34 H        2.4680     0.5710    -1.2510 H     1 <1>   0.0800 
 35 H       -1.9610     0.6060     0.4400 H     1 <1>   0.0800 
 36 H       -2.7930     0.8520    -1.0770 H     1 <1>   0.0800 
 37 H        1.6090     4.3480     0.1950 H     1 <1>   0.0800 
 38 H        2.0250     5.4720    -1.0620 H     1 <1>   0.0800 
 39 H        4.4300     1.9530    -0.6600 H     1 <1>   0.0800 
 40 H        3.1140     2.1700     0.4510 H     1 <1>   0.0800 
 41 H        3.8440     4.0340    -1.8160 H     1 <1>   0.0800 
 42 H       -2.0820     2.3810     2.2310 H     1 <1>   0.1500 
 43 H       -4.4810     2.5890    -1.2910 H     1 <1>   0.1500 
 44 H       -3.5380     4.0320     3.3160 H     1 <1>   0.1500 
 45 H       -5.9330     4.2380    -0.2010 H     1 <1>   0.1500 
 46 H        6.0940     4.0100    -0.8730 H     1 <1>   0.3700 
 47 H       -5.4660     4.9620     2.1030 H     1 <1>   0.1500 
 48 H        6.4020     4.9790     1.8480 H     1 <1>   0.0800 
 49 H        6.9110     6.1080     0.6140 H     1 <1>   0.0800 
 50 H        7.3560     2.5990     1.8410 H     1 <1>   0.1500 
 51 H        8.9350     5.7200    -0.6500 H     1 <1>   0.1500 
 52 H       11.0000     4.3920    -0.9990 H     1 <1>   0.1500 
 53 H       10.8980    -0.0860     0.3730 H     1 <1>   0.0800 
 54 H       11.6210     0.7010     1.7970 H     1 <1>   0.0800 
@<TRIPOS>BOND
  1   1   2  2   
  2   2   3  am  
  3   2   4  am  
  4   3   5  1   
  5   3   6  1   
  6   4   7  1   
  7   4  30  1   
  8   5   8  1   
  9   5  31  1   
 10   5  32  1   
 11   6   9  1   
 12   6  33  1   
 13   6  34  1   
 14   7  10  1   
 15   7  35  1   
 16   7  36  1   
 17   8  11  1   
 18   8  37  1   
 19   8  38  1   
 20   9  11  1   
 21   9  39  1   
 22   9  40  1   
 23  10  12  ar  
 24  10  13  ar  
 25  11  14  1   
 26  11  41  1   
 27  12  15  ar  
 28  12  42  1   
 29  13  16  ar  
 30  13  43  1   
 31  14  17  2   
 32  14  18  am  
 33  15  19  ar  
 34  15  44  1   
 35  16  19  ar  
 36  16  45  1   
 37  18  20  1   
 38  18  46  1   
 39  19  47  1   
 40  20  21  1   
 41  20  48  1   
 42  20  49  1   
 43  21  22  ar  
 44  21  23  ar  
 45  22  24  ar  
 46  22  50  1   
 47  23  25  ar  
 48  23  51  1   
 49  24  26  1   
 50  24  27  ar  
 51  25  27  ar  
 52  25  52  1   
 53  26  28  1   
 54  27  29  1   
 55  28  29  1   
 56  28  53  1   
 57  28  54  1   
@<TRIPOS>SUBSTRUCTURE
  1 ****   9 GROUP 4 **** **** 0

# MOE 2024.06 (io_trps.svl 2023.06)
