@<TRIPOS>MOLECULE
NONAME
46 47 1 0 0 
SMALL
USER_CHARGES


@<TRIPOS>ATOM
  1 O        3.5840     1.1830    -0.8820 O.2   1 <1>  -0.5700 
  2 C        2.5740     1.8450    -0.7780 C.2   1 <1>   0.5690 
  3 N        2.2310     2.5360     0.3650 N.am  1 <1>  -0.4770 
  4 C        1.6470     1.9610    -1.9820 C.3   1 <1>   0.1810 
  5 C        1.0980     3.3910     0.3380 C.ar  1 <1>   0.1170 
  6 C        3.1360     2.4720     1.5720 C.3   1 <1>   0.2010 
  7 O        1.0700     3.2570    -2.0610 O.3   1 <1>  -0.3630 
  8 C        0.5670     3.7650    -0.9060 C.ar  1 <1>   0.0830 
  9 C        0.4770     3.8880     1.4820 C.ar  1 <1>  -0.1500 
 10 C        4.5930     2.8150     1.2650 C.2   1 <1>   0.5690 
 11 C       -0.4920     4.6490    -0.9970 C.ar  1 <1>  -0.1500 
 12 C       -0.5920     4.7650     1.3900 C.ar  1 <1>  -0.1500 
 13 O        5.4750     2.2150     1.8340 O.2   1 <1>  -0.5700 
 14 N        4.8880     3.7450     0.3130 N.am  1 <1>  -0.7300 
 15 C       -1.0720     5.1540     0.1520 C.ar  1 <1>  -0.1500 
 16 C        6.2160     3.8260    -0.3400 C.3   1 <1>   0.1400 
 17 C        6.5310     2.4790    -1.0310 C.3   1 <1>   0.3430 
 18 N        7.9760     2.0770    -0.9590 N.4   1 <1>  -0.9590 
 19 C        8.1850     0.8990    -1.8420 C.3   1 <1>   0.3430 
 20 C        8.3680     1.7790     0.4500 C.3   1 <1>   0.3430 
 21 C        9.6740     0.6740    -2.0780 C.3   1 <1>  -0.2400 
 22 C        9.5550     2.6580     0.8190 C.3   1 <1>  -0.2400 
 23 H        0.8500     1.2460    -1.8970 H     1 <1>   0.0800 
 24 H        2.1900     1.7830    -2.8920 H     1 <1>   0.0800 
 25 H        3.0990     1.4760     1.9740 H     1 <1>   0.0800 
 26 H        2.8130     3.1500     2.3350 H     1 <1>   0.0800 
 27 H        0.8010     3.6000     2.4630 H     1 <1>   0.1500 
 28 H       -0.8650     4.9330    -1.9660 H     1 <1>   0.1500 
 29 H       -1.0550     5.1460     2.2840 H     1 <1>   0.1500 
 30 H        4.1090     4.2240    -0.1530 H     1 <1>   0.3700 
 31 H       -1.8980     5.8410     0.0830 H     1 <1>   0.1500 
 32 H        6.9440     4.0500     0.4180 H     1 <1>   0.0800 
 33 H        6.2130     4.6220    -1.0640 H     1 <1>   0.0800 
 34 H        6.2200     2.5430    -2.0600 H     1 <1>   0.0800 
 35 H        5.9400     1.7070    -0.5630 H     1 <1>   0.0800 
 36 H        8.5620     2.8480    -1.3010 H     1 <1>   0.4500 
 37 H        7.7070     1.0720    -2.7940 H     1 <1>   0.0800 
 38 H        7.7410     0.0200    -1.4010 H     1 <1>   0.0800 
 39 H        8.6320     0.7390     0.5570 H     1 <1>   0.0800 
 40 H        7.5520     1.9830     1.1230 H     1 <1>   0.0800 
 41 H       10.1360     1.5530    -2.4900 H     1 <1>   0.0800 
 42 H        9.8000    -0.1280    -2.7840 H     1 <1>   0.0800 
 43 H       10.1750     0.3880    -1.1710 H     1 <1>   0.0800 
 44 H       10.4010     2.4550     0.1880 H     1 <1>   0.0800 
 45 H        9.8420     2.4480     1.8350 H     1 <1>   0.0800 
 46 H        9.2970     3.7000     0.7590 H     1 <1>   0.0800 
@<TRIPOS>BOND
  1   1   2  2   
  2   2   3  am  
  3   2   4  1   
  4   3   5  1   
  5   3   6  1   
  6   4   7  1   
  7   4  23  1   
  8   4  24  1   
  9   5   8  ar  
 10   5   9  ar  
 11   6  10  1   
 12   6  25  1   
 13   6  26  1   
 14   7   8  1   
 15   8  11  ar  
 16   9  12  ar  
 17   9  27  1   
 18  10  13  2   
 19  10  14  am  
 20  11  15  ar  
 21  11  28  1   
 22  12  15  ar  
 23  12  29  1   
 24  14  16  1   
 25  14  30  1   
 26  15  31  1   
 27  16  17  1   
 28  16  32  1   
 29  16  33  1   
 30  17  18  1   
 31  17  34  1   
 32  17  35  1   
 33  18  19  1   
 34  18  20  1   
 35  18  36  1   
 36  19  21  1   
 37  19  37  1   
 38  19  38  1   
 39  20  22  1   
 40  20  39  1   
 41  20  40  1   
 42  21  41  1   
 43  21  42  1   
 44  21  43  1   
 45  22  44  1   
 46  22  45  1   
 47  22  46  1   
@<TRIPOS>SUBSTRUCTURE
  1 ****  14 GROUP 4 **** **** 0

# MOE 2024.06 (io_trps.svl 2023.06)
