@<TRIPOS>MOLECULE
ka-06710
20 21 1 0 0 
SMALL
USER_CHARGES


@<TRIPOS>ATOM
  1 O        0.0660    -0.2540     0.0230 O.3   1 <1>  -0.5600 
  2 C        1.1660    -0.9200     0.5510 C.3   1 <1>   0.6240 
  3 C        0.4150     1.0680    -0.1650 C.3   1 <1>   0.1200 
  4 O        2.2660    -0.2700     0.0040 O.3   1 <1>  -0.5600 
  5 C        1.1510    -2.3980     0.1630 C.ar  1 <1>  -0.1440 
  6 C        1.9330     1.0570    -0.1790 C.3   1 <1>   0.1200 
  7 C       -0.0260    -3.1040    -0.0070 C.ar  1 <1>  -0.1500 
  8 C        2.3140    -3.1210    -0.0280 C.ar  1 <1>  -0.1500 
  9 C        0.0150    -4.4460    -0.3450 C.ar  1 <1>   0.1600 
 10 C        2.2470    -4.4630    -0.3640 C.ar  1 <1>   0.1600 
 11 N        1.1240    -5.1450    -0.5240 N.ar  1 <1>  -0.6200 
 12 H        1.1760    -0.7900     1.6200 H     1 <1>   0.0800 
 13 H        0.0290     1.6560     0.6490 H     1 <1>   0.0800 
 14 H        0.0050     1.4090    -1.1000 H     1 <1>   0.0800 
 15 H        2.3430     1.6390     0.6290 H     1 <1>   0.0800 
 16 H        2.3320     1.3920    -1.1200 H     1 <1>   0.0800 
 17 H       -0.9760    -2.6150     0.1160 H     1 <1>   0.1500 
 18 H        3.2740    -2.6470     0.0790 H     1 <1>   0.1500 
 19 H       -0.9150    -4.9720    -0.4740 H     1 <1>   0.1500 
 20 H        3.1660    -5.0030    -0.5100 H     1 <1>   0.1500 
@<TRIPOS>BOND
  1   1   2  1   
  2   1   3  1   
  3   2   4  1   
  4   2   5  1   
  5   2  12  1   
  6   3   6  1   
  7   3  13  1   
  8   3  14  1   
  9   4   6  1   
 10   5   7  ar  
 11   5   8  ar  
 12   6  15  1   
 13   6  16  1   
 14   7   9  ar  
 15   7  17  1   
 16   8  10  ar  
 17   8  18  1   
 18   9  11  ar  
 19   9  19  1   
 20  10  11  ar  
 21  10  20  1   
@<TRIPOS>SUBSTRUCTURE
  1 ****   5 GROUP 4 **** **** 0

# MOE 2024.06 (io_trps.svl 2023.06)
