@<TRIPOS>MOLECULE
NONAME
61 65 1 0 0 
SMALL
USER_CHARGES


@<TRIPOS>ATOM
  1 O        1.1210    -1.2320     2.7860 O.2   1 <1>  -0.5700 
  2 C        1.6210    -1.1610     1.6760 C.2   1 <1>   0.6900 
  3 N        2.2280    -0.0040     1.2670 N.am  1 <1>  -0.6600 
  4 N        1.5330    -2.2270     0.8280 N.am  1 <1>  -0.6600 
  5 C        2.0700     0.5000    -0.1290 C.3   1 <1>   0.1400 
  6 C        2.5380     1.0850     2.2370 C.3   1 <1>   0.1400 
  7 C        2.7850    -2.8080     0.2740 C.3   1 <1>   0.2200 
  8 C        0.2780    -3.0300     0.8120 C.3   1 <1>   0.2780 
  9 C        1.1000     1.6940    -0.1620 C.3   1 <1>   0.1200 
 10 C        1.5310     2.2350     2.0830 C.3   1 <1>   0.1200 
 11 C        2.7080    -2.9800    -1.2560 C.3   1 <1>  -0.1600 
 12 C        3.1530    -4.1160     0.9880 C.3   1 <1>  -0.1600 
 13 C       -0.8000    -2.2660     0.0510 C.2   1 <1>  -0.0930 
 14 O        1.4880     2.6790     0.7550 O.3   1 <1>  -0.5600 
 15 C        3.5750    -4.1400    -1.7820 C.3   1 <1>  -0.1600 
 16 C        4.5290    -4.6360     0.5300 C.3   1 <1>  -0.1600 
 17 C       -1.2160    -2.7430    -1.2260 C.2   1 <1>   0.1410 
 18 C       -1.3720    -1.1350     0.5410 C.2   1 <1>  -0.1780 
 19 C        4.8480    -4.3100    -0.9430 C.3   1 <1>  -0.1600 
 20 N       -0.8690    -3.7950    -1.8960 N.2   1 <1>  -0.3380 
 21 N       -2.1240    -2.0580    -1.9280 N.pl3 1 <1>   0.5930 
 22 C       -2.3410    -0.3970    -0.2090 C.ar  1 <1>   0.0280 
 23 N       -1.5610    -3.7490    -3.0210 N.2   1 <1>   0.0000 
 24 N       -2.3210    -2.7110    -3.0590 N.2   1 <1>  -0.4180 
 25 C       -2.7200    -0.8660    -1.4730 C.ar  1 <1>  -0.0230 
 26 C       -2.9130     0.7840     0.2640 C.ar  1 <1>  -0.1500 
 27 C       -3.6520    -0.1500    -2.2230 C.ar  1 <1>  -0.1500 
 28 C       -3.8320     1.4910    -0.4830 C.ar  1 <1>  -0.1430 
 29 C       -4.2080     1.0180    -1.7430 C.ar  1 <1>  -0.1430 
 30 C       -4.4190     2.7760     0.0830 C.3   1 <1>  -0.0970 
 31 C       -5.2200     1.7680    -2.5990 C.3   1 <1>  -0.0970 
 32 H        1.6890    -0.2720    -0.7720 H     1 <1>   0.0800 
 33 H        3.0290     0.8070    -0.5070 H     1 <1>   0.0800 
 34 H        3.5310     1.4530     2.0510 H     1 <1>   0.0800 
 35 H        2.5090     0.7100     3.2460 H     1 <1>   0.0800 
 36 H        3.5900    -2.1190     0.4750 H     1 <1>   0.0800 
 37 H       -0.0490    -3.2050     1.8220 H     1 <1>   0.0800 
 38 H        0.4470    -3.9870     0.3520 H     1 <1>   0.0800 
 39 H        0.1010     1.3750     0.0790 H     1 <1>   0.0800 
 40 H        1.0920     2.1400    -1.1400 H     1 <1>   0.0800 
 41 H        1.8200     3.0670     2.7000 H     1 <1>   0.0800 
 42 H        0.5460     1.9130     2.3740 H     1 <1>   0.0800 
 43 H        3.0450    -2.0660    -1.7090 H     1 <1>   0.0800 
 44 H        1.6980    -3.1480    -1.5750 H     1 <1>   0.0800 
 45 H        2.4180    -4.8680     0.7650 H     1 <1>   0.0800 
 46 H        3.1660    -3.9600     2.0530 H     1 <1>   0.0800 
 47 H        3.8300    -3.9630    -2.8120 H     1 <1>   0.0800 
 48 H        3.0070    -5.0550    -1.7410 H     1 <1>   0.0800 
 49 H        4.5560    -5.7020     0.6750 H     1 <1>   0.0800 
 50 H        5.2990    -4.2090     1.1500 H     1 <1>   0.0800 
 51 H       -1.1020    -0.7470     1.5100 H     1 <1>   0.1500 
 52 H        5.4140    -3.3950    -0.9890 H     1 <1>   0.0800 
 53 H        5.4610    -5.0910    -1.3590 H     1 <1>   0.0800 
 54 H       -2.6190     1.1410     1.2350 H     1 <1>   0.1500 
 55 H       -3.9360    -0.5230    -3.1930 H     1 <1>   0.1500 
 56 H       -4.0180     2.9880     1.0580 H     1 <1>   0.0800 
 57 H       -5.4870     2.6870     0.1710 H     1 <1>   0.0800 
 58 H       -4.1870     3.6040    -0.5620 H     1 <1>   0.0800 
 59 H       -5.3880     1.2610    -3.5320 H     1 <1>   0.0800 
 60 H       -4.8600     2.7580    -2.8150 H     1 <1>   0.0800 
 61 H       -6.1590     1.8400    -2.0820 H     1 <1>   0.0800 
@<TRIPOS>BOND
  1   1   2  2   
  2   2   3  am  
  3   2   4  am  
  4   3   5  1   
  5   3   6  1   
  6   4   7  1   
  7   4   8  1   
  8   5   9  1   
  9   5  32  1   
 10   5  33  1   
 11   6  10  1   
 12   6  34  1   
 13   6  35  1   
 14   7  11  1   
 15   7  12  1   
 16   7  36  1   
 17   8  13  1   
 18   8  37  1   
 19   8  38  1   
 20   9  14  1   
 21   9  39  1   
 22   9  40  1   
 23  10  14  1   
 24  10  41  1   
 25  10  42  1   
 26  11  15  1   
 27  11  43  1   
 28  11  44  1   
 29  12  16  1   
 30  12  45  1   
 31  12  46  1   
 32  13  17  1   
 33  13  18  2   
 34  15  19  1   
 35  15  47  1   
 36  15  48  1   
 37  16  19  1   
 38  16  49  1   
 39  16  50  1   
 40  17  20  2   
 41  17  21  1   
 42  18  22  1   
 43  18  51  1   
 44  19  52  1   
 45  19  53  1   
 46  20  23  1   
 47  21  24  1   
 48  21  25  1   
 49  22  25  ar  
 50  22  26  ar  
 51  23  24  2   
 52  25  27  ar  
 53  26  28  ar  
 54  26  54  1   
 55  27  29  ar  
 56  27  55  1   
 57  28  29  ar  
 58  28  30  1   
 59  29  31  1   
 60  30  56  1   
 61  30  57  1   
 62  30  58  1   
 63  31  59  1   
 64  31  60  1   
 65  31  61  1   
@<TRIPOS>SUBSTRUCTURE
  1 ****  13 GROUP 4 **** **** 0

# MOE 2024.06 (io_trps.svl 2023.06)
