@<TRIPOS>MOLECULE
NONAME
47 50 1 0 0 
SMALL
USER_CHARGES


@<TRIPOS>ATOM
  1 S       -0.4830    -0.0220    -0.1420 S.o2  1 <1>   1.3330 
  2 O        0.4770     0.3160    -1.1710 O.2   1 <1>  -0.6500 
  3 O       -0.1680     0.2220     1.2500 O.2   1 <1>  -0.6500 
  4 N       -1.8880     0.8700    -0.4680 N.am  1 <1>  -0.8490 
  5 C       -1.0490    -1.7130    -0.3890 C.3   1 <1>   0.0890 
  6 C       -2.7710     1.0340     0.6910 C.3   1 <1>   0.1960 
  7 C       -1.6130     2.1600    -1.1230 C.3   1 <1>   0.1960 
  8 C        0.0080    -2.7750    -0.1140 C.ar  1 <1>  -0.1440 
  9 C       -4.1890     1.4050     0.2170 C.3   1 <1>   0.1000 
 10 C       -2.8520     3.0800    -1.1530 C.3   1 <1>  -0.1600 
 11 C        1.0630    -2.9500    -0.9950 C.ar  1 <1>  -0.1500 
 12 C       -0.0750    -3.5740     1.0170 C.ar  1 <1>  -0.1500 
 13 C       -4.9890     0.1310    -0.0080 C.2   1 <1>   0.2980 
 14 C       -4.1700     2.2930    -1.0510 C.3   1 <1>  -0.1600 
 15 C        2.0230    -3.9170    -0.7530 C.ar  1 <1>  -0.1500 
 16 C        0.8850    -4.5410     1.2600 C.ar  1 <1>  -0.1500 
 17 O       -4.5460    -0.7570    -0.8610 O.3   1 <1>  -0.0190 
 18 N       -6.0670    -0.1790     0.5860 N.2   1 <1>  -0.5650 
 19 C        1.9340    -4.7140     0.3750 C.ar  1 <1>  -0.1500 
 20 N       -5.4120    -1.7160    -0.8010 N.2   1 <1>  -0.4100 
 21 C       -6.3170    -1.3760     0.0460 C.2   1 <1>   0.4620 
 22 C       -7.4770    -2.1690     0.4050 C.ar  1 <1>   0.0540 
 23 C       -8.4210    -1.7510     1.3350 C.ar  1 <1>  -0.1500 
 24 C       -7.7320    -3.4140    -0.1550 C.ar  1 <1>  -0.1500 
 25 C       -9.5060    -2.5490     1.6410 C.ar  1 <1>   0.1600 
 26 C       -8.8480    -4.1370     0.2180 C.ar  1 <1>   0.1600 
 27 N       -9.7430    -3.7350     1.1050 N.ar  1 <1>  -0.6200 
 28 H       -1.3820    -1.8210    -1.4020 H     1 <1>   0.0800 
 29 H       -1.8960    -1.8950     0.2420 H     1 <1>   0.0800 
 30 H       -2.3780     1.8070     1.3310 H     1 <1>   0.0800 
 31 H       -2.8130     0.1250     1.2690 H     1 <1>   0.0800 
 32 H       -1.2930     1.9630    -2.1330 H     1 <1>   0.0800 
 33 H       -0.8060     2.6650    -0.6170 H     1 <1>   0.0800 
 34 H       -4.6610     1.9490     1.0150 H     1 <1>   0.0800 
 35 H       -2.8370     3.6610    -2.0580 H     1 <1>   0.0800 
 36 H       -2.7870     3.7720    -0.3320 H     1 <1>   0.0800 
 37 H        1.1490    -2.3320    -1.8740 H     1 <1>   0.1500 
 38 H       -0.8820    -3.4490     1.7180 H     1 <1>   0.1500 
 39 H       -5.0130     2.9630    -1.0430 H     1 <1>   0.0800 
 40 H       -4.2530     1.6740    -1.9280 H     1 <1>   0.0800 
 41 H        2.8400    -4.0470    -1.4410 H     1 <1>   0.1500 
 42 H        0.8170    -5.1580     2.1390 H     1 <1>   0.1500 
 43 H        2.6810    -5.4650     0.5640 H     1 <1>   0.1500 
 44 H       -8.3110    -0.7990     1.8220 H     1 <1>   0.1500 
 45 H       -7.0580    -3.8220    -0.8870 H     1 <1>   0.1500 
 46 H      -10.2200    -2.1960     2.3660 H     1 <1>   0.1500 
 47 H       -9.0180    -5.0990    -0.2360 H     1 <1>   0.1500 
@<TRIPOS>BOND
  1   1   2  2   
  2   1   3  2   
  3   1   4  am  
  4   1   5  1   
  5   4   6  1   
  6   4   7  1   
  7   5   8  1   
  8   5  28  1   
  9   5  29  1   
 10   6   9  1   
 11   6  30  1   
 12   6  31  1   
 13   7  10  1   
 14   7  32  1   
 15   7  33  1   
 16   8  11  ar  
 17   8  12  ar  
 18   9  13  1   
 19   9  14  1   
 20   9  34  1   
 21  10  14  1   
 22  10  35  1   
 23  10  36  1   
 24  11  15  ar  
 25  11  37  1   
 26  12  16  ar  
 27  12  38  1   
 28  13  17  1   
 29  13  18  2   
 30  14  39  1   
 31  14  40  1   
 32  15  19  ar  
 33  15  41  1   
 34  16  19  ar  
 35  16  42  1   
 36  17  20  1   
 37  18  21  1   
 38  19  43  1   
 39  20  21  2   
 40  21  22  1   
 41  22  23  ar  
 42  22  24  ar  
 43  23  25  ar  
 44  23  44  1   
 45  24  26  ar  
 46  24  45  1   
 47  25  27  ar  
 48  25  46  1   
 49  26  27  ar  
 50  26  47  1   
@<TRIPOS>SUBSTRUCTURE
  1 ****  17 GROUP 4 **** **** 0

# MOE 2024.06 (io_trps.svl 2023.06)
