@<TRIPOS>MOLECULE
NONAME
60 63 1 0 0 
SMALL
USER_CHARGES


@<TRIPOS>ATOM
  1 F        0.5570    -2.6110    -2.1460 F     1 <1>  -0.1900 
  2 C       -0.4940    -3.2600    -1.7220 C.ar  1 <1>   0.1900 
  3 C       -1.6920    -2.5840    -1.6010 C.ar  1 <1>  -0.1500 
  4 C       -0.3680    -4.6000    -1.4080 C.ar  1 <1>  -0.1500 
  5 C       -2.8020    -3.2790    -1.1500 C.ar  1 <1>  -0.1500 
  6 C       -1.4850    -5.2840    -0.9580 C.ar  1 <1>  -0.1500 
  7 C       -2.7040    -4.6280    -0.8280 C.ar  1 <1>  -0.1430 
  8 C       -3.9270    -5.3820    -0.3340 C.3   1 <1>   0.2840 
  9 N       -4.3150    -4.8280     0.9790 N.am  1 <1>  -0.7300 
 10 C       -5.5410    -4.7030     1.5370 C.2   1 <1>   0.5690 
 11 O       -5.6550    -4.0820     2.5610 O.2   1 <1>  -0.5700 
 12 C       -6.7630    -5.3210     0.8820 C.3   1 <1>  -0.0190 
 13 C       -8.0720    -5.1080     1.6890 C.3   1 <1>   0.3380 
 14 C       -6.7270    -6.8600     0.8970 C.3   1 <1>  -0.0190 
 15 O       -8.2260    -6.3330     2.3770 O.3   1 <1>  -0.5600 
 16 C       -9.1670    -5.2700     0.6670 C.2   1 <1>  -0.2880 
 17 C       -6.5210    -7.8950    -0.1640 C.2   1 <1>   0.5690 
 18 C       -8.1420    -7.2060     1.3100 C.3   1 <1>   0.4180 
 19 C       -9.1790    -6.5640     0.3880 C.2   1 <1>  -0.2880 
 20 O       -5.7620    -7.7640    -1.0920 O.2   1 <1>  -0.5700 
 21 N       -7.2380    -9.0090     0.1520 N.am  1 <1>  -0.6600 
 22 C       -8.1090    -8.7410     1.3640 C.3   1 <1>   0.2810 
 23 C       -6.9360   -10.3660    -0.3410 C.3   1 <1>   0.2780 
 24 C       -9.5090    -9.3600     1.3700 C.2   1 <1>   0.5690 
 25 C       -7.6400   -10.5740    -1.6650 C.2   1 <1>  -0.2880 
 26 O      -10.0180    -9.5810     2.4430 O.2   1 <1>  -0.5700 
 27 N      -10.1240    -9.6660     0.1900 N.am  1 <1>  -0.7300 
 28 C       -8.4910   -11.5660    -1.9450 C.2   1 <1>  -0.3000 
 29 C      -11.5190   -10.0530    -0.0450 C.3   1 <1>   0.3000 
 30 C      -11.7440   -10.0040    -1.5550 C.3   1 <1>  -0.2400 
 31 C      -12.4660    -9.0590     0.6310 C.3   1 <1>  -0.2400 
 32 C      -11.7400   -11.4730     0.4710 C.3   1 <1>  -0.2400 
 33 H       -1.7500    -1.5410    -1.8540 H     1 <1>   0.1500 
 34 H        0.5820    -5.0910    -1.5160 H     1 <1>   0.1500 
 35 H       -3.7430    -2.7660    -1.0480 H     1 <1>   0.1500 
 36 H       -1.3980    -6.3280    -0.7120 H     1 <1>   0.1500 
 37 H       -3.7000    -6.4290    -0.2260 H     1 <1>   0.0800 
 38 H       -4.7290    -5.2770    -1.0440 H     1 <1>   0.0800 
 39 H       -3.5480    -4.3740     1.4810 H     1 <1>   0.3700 
 40 H       -6.8650    -4.9280    -0.1130 H     1 <1>   0.0800 
 41 H       -8.1500    -4.2620     2.3510 H     1 <1>   0.0800 
 42 H       -6.0710    -7.1550     1.6990 H     1 <1>   0.0800 
 43 H       -9.7230    -4.4290     0.2920 H     1 <1>   0.1500 
 44 H       -9.7630    -7.1300    -0.3150 H     1 <1>   0.1500 
 45 H       -7.5850    -9.0580     2.2470 H     1 <1>   0.0800 
 46 H       -7.2540   -11.1020     0.3780 H     1 <1>   0.0800 
 47 H       -5.8730   -10.4640    -0.4840 H     1 <1>   0.0800 
 48 H       -7.3620    -9.8230    -2.3880 H     1 <1>   0.1500 
 49 H       -9.5510    -9.6580    -0.6590 H     1 <1>   0.3700 
 50 H       -8.9660   -11.6950    -2.9030 H     1 <1>   0.1500 
 51 H       -8.7840   -12.3330    -1.2480 H     1 <1>   0.1500 
 52 H      -11.5470    -9.0170    -1.9340 H     1 <1>   0.0800 
 53 H      -12.7660   -10.2510    -1.7820 H     1 <1>   0.0800 
 54 H      -11.1150   -10.7110    -2.0600 H     1 <1>   0.0800 
 55 H      -12.2470    -8.0550     0.3170 H     1 <1>   0.0800 
 56 H      -12.3840    -9.1160     1.7010 H     1 <1>   0.0800 
 57 H      -13.4840    -9.2830     0.3720 H     1 <1>   0.0800 
 58 H      -11.0610   -12.1580     0.0000 H     1 <1>   0.0800 
 59 H      -12.7460   -11.7910     0.2620 H     1 <1>   0.0800 
 60 H      -11.5940   -11.5120     1.5360 H     1 <1>   0.0800 
@<TRIPOS>BOND
  1   1   2  1   
  2   2   3  ar  
  3   2   4  ar  
  4   3   5  ar  
  5   3  33  1   
  6   4   6  ar  
  7   4  34  1   
  8   5   7  ar  
  9   5  35  1   
 10   6   7  ar  
 11   6  36  1   
 12   7   8  1   
 13   8   9  1   
 14   8  37  1   
 15   8  38  1   
 16   9  10  am  
 17   9  39  1   
 18  10  11  2   
 19  10  12  1   
 20  12  13  1   
 21  12  14  1   
 22  12  40  1   
 23  13  15  1   
 24  13  16  1   
 25  13  41  1   
 26  14  17  1   
 27  14  18  1   
 28  14  42  1   
 29  15  18  1   
 30  16  19  2   
 31  16  43  1   
 32  17  20  2   
 33  17  21  am  
 34  18  19  1   
 35  18  22  1   
 36  19  44  1   
 37  21  22  1   
 38  21  23  1   
 39  22  24  1   
 40  22  45  1   
 41  23  25  1   
 42  23  46  1   
 43  23  47  1   
 44  24  26  2   
 45  24  27  am  
 46  25  28  2   
 47  25  48  1   
 48  27  29  1   
 49  27  49  1   
 50  28  50  1   
 51  28  51  1   
 52  29  30  1   
 53  29  31  1   
 54  29  32  1   
 55  30  52  1   
 56  30  53  1   
 57  30  54  1   
 58  31  55  1   
 59  31  56  1   
 60  31  57  1   
 61  32  58  1   
 62  32  59  1   
 63  32  60  1   
@<TRIPOS>SUBSTRUCTURE
  1 ****  14 GROUP 4 **** **** 0

# MOE 2024.06 (io_trps.svl 2023.06)
