@<TRIPOS>MOLECULE
5101
46 48 1 0 0 
SMALL
USER_CHARGES


@<TRIPOS>ATOM
  1 S        0.1130    -0.3720    -1.1430 S.3   1 <1>  -0.0800 
  2 C        1.0460     1.1100    -1.2440 C.2   1 <1>   0.1040 
  3 C       -1.0360     0.3650    -0.0540 C.2   1 <1>  -0.1400 
  4 N        2.1960     1.0020    -2.0040 N.am  1 <1>  -0.4940 
  5 C        0.4490     2.1200    -0.5250 C.2   1 <1>  -0.0860 
  6 C       -0.7190     1.6440     0.1890 C.2   1 <1>  -0.1810 
  7 C       -2.1990    -0.4410     0.4800 C.3   1 <1>   0.0200 
  8 C        3.4280     1.6000    -1.9370 C.2   1 <1>   0.5440 
  9 C        0.8660     3.4980    -0.5160 C.2   1 <1>   0.8060 
 10 C       -1.5750     2.4790     1.1380 C.3   1 <1>   0.0210 
 11 C       -3.2370     0.5210     1.0910 C.3   1 <1>  -0.0800 
 12 O        4.1280     1.4650    -2.9180 O.2   1 <1>  -0.5700 
 13 C        3.9120     2.3210    -0.7740 C.ar  1 <1>   0.0860 
 14 O        0.6760     4.2660     0.4080 O.2   1 <1>  -0.5700 
 15 O        1.4810     3.9710    -1.6080 O.3   1 <1>  -0.4300 
 16 C       -2.5520     1.6030     1.9500 C.3   1 <1>  -0.1600 
 17 C       -4.2760    -0.2510     1.9150 C.3   1 <1>  -0.2400 
 18 C        4.7550     3.4240    -0.9280 C.ar  1 <1>  -0.1500 
 19 C        3.5790     1.9540     0.5330 C.ar  1 <1>  -0.1500 
 20 C        1.9250     5.3110    -1.6940 C.3   1 <1>   0.0400 
 21 C        5.2220     4.1440     0.1550 C.ar  1 <1>  -0.1500 
 22 C        4.0380     2.6700     1.6220 C.ar  1 <1>  -0.1500 
 23 C        4.8600     3.7710     1.4460 C.ar  1 <1>   0.0830 
 24 O        5.2660     4.4190     2.5600 O.3   1 <1>  -0.3620 
 25 C        6.0900     5.5610     2.4980 C.3   1 <1>   0.0400 
 26 H        2.1630     0.3260    -2.7680 H     1 <1>   0.3700 
 27 H       -1.8310    -1.1250     1.2250 H     1 <1>   0.0800 
 28 H       -2.6500    -1.0080    -0.3150 H     1 <1>   0.0800 
 29 H       -2.1260     3.2000     0.5610 H     1 <1>   0.0800 
 30 H       -0.9490     3.0120     1.8310 H     1 <1>   0.0800 
 31 H       -3.7480     1.0150     0.2810 H     1 <1>   0.0800 
 32 H       -3.2920     2.2390     2.4040 H     1 <1>   0.0800 
 33 H       -2.0030     1.1220     2.7410 H     1 <1>   0.0800 
 34 H       -3.8090    -0.7480     2.7470 H     1 <1>   0.0800 
 35 H       -4.7650    -0.9890     1.3030 H     1 <1>   0.0800 
 36 H       -5.0250     0.4220     2.2940 H     1 <1>   0.0800 
 37 H        5.0430     3.7150    -1.9240 H     1 <1>   0.1500 
 38 H        2.9530     1.0960     0.7010 H     1 <1>   0.1500 
 39 H        1.0740     5.9660    -1.6150 H     1 <1>   0.0800 
 40 H        2.4120     5.4470    -2.6430 H     1 <1>   0.0800 
 41 H        2.6160     5.5010    -0.8910 H     1 <1>   0.0800 
 42 H        5.8660     4.9850    -0.0200 H     1 <1>   0.1500 
 43 H        3.7640     2.3810     2.6200 H     1 <1>   0.1500 
 44 H        6.2690     5.8990     3.5030 H     1 <1>   0.0800 
 45 H        5.5830     6.3280     1.9400 H     1 <1>   0.0800 
 46 H        7.0220     5.2950     2.0310 H     1 <1>   0.0800 
@<TRIPOS>BOND
  1   1   2  1   
  2   1   3  1   
  3   2   4  1   
  4   2   5  2   
  5   3   6  2   
  6   3   7  1   
  7   4   8  am  
  8   4  26  1   
  9   5   6  1   
 10   5   9  1   
 11   6  10  1   
 12   7  11  1   
 13   7  27  1   
 14   7  28  1   
 15   8  12  2   
 16   8  13  1   
 17   9  14  2   
 18   9  15  1   
 19  10  16  1   
 20  10  29  1   
 21  10  30  1   
 22  11  16  1   
 23  11  17  1   
 24  11  31  1   
 25  13  18  ar  
 26  13  19  ar  
 27  15  20  1   
 28  16  32  1   
 29  16  33  1   
 30  17  34  1   
 31  17  35  1   
 32  17  36  1   
 33  18  21  ar  
 34  18  37  1   
 35  19  22  ar  
 36  19  38  1   
 37  20  39  1   
 38  20  40  1   
 39  20  41  1   
 40  21  23  ar  
 41  21  42  1   
 42  22  23  ar  
 43  22  43  1   
 44  23  24  1   
 45  24  25  1   
 46  25  44  1   
 47  25  45  1   
 48  25  46  1   
@<TRIPOS>SUBSTRUCTURE
  1 ****   5 GROUP 4 **** **** 0

# MOE 2024.06 (io_trps.svl 2023.06)
