@<TRIPOS>MOLECULE
ka-01512
37 38 1 0 0 
SMALL
USER_CHARGES


@<TRIPOS>ATOM
  1 P       -0.3040    -0.0150     1.1640 P.3   1 <1>   0.9000 
  2 O       -0.7140     0.2240     2.5820 O.co2 1 <1>  -0.9500 
  3 O        1.1040     0.2670     0.7430 O.co2 1 <1>  -0.9500 
  4 C       -0.5930    -1.7710     0.7880 C.3   1 <1>  -0.0800 
  5 C       -1.4120     0.9420     0.0800 C.3   1 <1>  -0.0800 
  6 C       -0.1640    -2.2020    -0.6320 C.3   1 <1>  -0.1600 
  7 C       -2.0190    -2.2950     1.0580 C.3   1 <1>  -0.1600 
  8 C       -0.8350     2.3340    -0.2600 C.3   1 <1>  -0.1600 
  9 C       -2.8360     1.1500     0.6460 C.3   1 <1>  -0.1600 
 10 C       -0.2590    -3.7220    -0.8290 C.3   1 <1>  -0.1600 
 11 C       -2.1120    -3.8180     0.8880 C.3   1 <1>  -0.1600 
 12 C       -1.7260     3.1260    -1.2280 C.3   1 <1>  -0.1600 
 13 C       -3.7480     1.9190    -0.3200 C.3   1 <1>  -0.1600 
 14 C       -1.6700    -4.2390    -0.5190 C.3   1 <1>  -0.1600 
 15 C       -3.1450     3.2830    -0.6720 C.3   1 <1>  -0.1600 
 16 H        0.0470    -2.3110     1.4590 H     1 <1>   0.0800 
 17 H       -1.5060     0.4300    -0.8570 H     1 <1>   0.0800 
 18 H        0.8530    -1.8860    -0.7950 H     1 <1>   0.0800 
 19 H       -0.7790    -1.7070    -1.3620 H     1 <1>   0.0800 
 20 H       -2.7040    -1.8330     0.3730 H     1 <1>   0.0800 
 21 H       -2.3050    -2.0220     2.0600 H     1 <1>   0.0800 
 22 H        0.1410     2.2090    -0.6960 H     1 <1>   0.0800 
 23 H       -0.7040     2.8840     0.6570 H     1 <1>   0.0800 
 24 H       -2.7550     1.6920     1.5740 H     1 <1>   0.0800 
 25 H       -3.2860     0.2060     0.8810 H     1 <1>   0.0800 
 26 H        0.4480    -4.2040    -0.1760 H     1 <1>   0.0800 
 27 H        0.0050    -3.9700    -1.8420 H     1 <1>   0.0800 
 28 H       -3.1240    -4.1380     1.0610 H     1 <1>   0.0800 
 29 H       -1.4830    -4.2940     1.6200 H     1 <1>   0.0800 
 30 H       -1.7650     2.6110    -2.1720 H     1 <1>   0.0800 
 31 H       -1.2930     4.0960    -1.3970 H     1 <1>   0.0800 
 32 H       -4.7130     2.0590     0.1340 H     1 <1>   0.0800 
 33 H       -3.8820     1.3420    -1.2180 H     1 <1>   0.0800 
 34 H       -1.6880    -5.3120    -0.5990 H     1 <1>   0.0800 
 35 H       -2.3600    -3.8400    -1.2420 H     1 <1>   0.0800 
 36 H       -3.7660     3.7820    -1.3940 H     1 <1>   0.0800 
 37 H       -3.1080     3.8920     0.2160 H     1 <1>   0.0800 
@<TRIPOS>BOND
  1   1   2  ar  
  2   1   3  ar  
  3   1   4  1   
  4   1   5  1   
  5   4   6  1   
  6   4   7  1   
  7   4  16  1   
  8   5   8  1   
  9   5   9  1   
 10   5  17  1   
 11   6  10  1   
 12   6  18  1   
 13   6  19  1   
 14   7  11  1   
 15   7  20  1   
 16   7  21  1   
 17   8  12  1   
 18   8  22  1   
 19   8  23  1   
 20   9  13  1   
 21   9  24  1   
 22   9  25  1   
 23  10  14  1   
 24  10  26  1   
 25  10  27  1   
 26  11  14  1   
 27  11  28  1   
 28  11  29  1   
 29  12  15  1   
 30  12  30  1   
 31  12  31  1   
 32  13  15  1   
 33  13  32  1   
 34  13  33  1   
 35  14  34  1   
 36  14  35  1   
 37  15  36  1   
 38  15  37  1   
@<TRIPOS>SUBSTRUCTURE
  1 ****   5 GROUP 4 **** **** 0

# MOE 2024.06 (io_trps.svl 2023.06)
