@<TRIPOS>MOLECULE
NONAME
43 46 1 0 0 
SMALL
USER_CHARGES


@<TRIPOS>ATOM
  1 BR      -0.3150    -0.3470    -1.4030 Br    1 <1>  -0.1110 
  2 C       -2.1140    -0.6020    -0.7770 C.ar  1 <1>   0.1110 
  3 C       -2.7080    -1.8380    -0.9340 C.ar  1 <1>  -0.1500 
  4 C       -2.7720     0.4550    -0.1810 C.ar  1 <1>  -0.1500 
  5 C       -4.0040    -2.0140    -0.4820 C.ar  1 <1>  -0.1500 
  6 C       -4.0670     0.2610     0.2640 C.ar  1 <1>  -0.1500 
  7 C       -4.7170    -0.9690     0.1200 C.ar  1 <1>   0.0860 
  8 C       -6.0830    -1.1410     0.5850 C.2   1 <1>   0.5440 
  9 O       -6.5250    -0.4670     1.4950 O.2   1 <1>  -0.5700 
 10 N       -6.9260    -2.0470    -0.0020 N.am  1 <1>  -0.7300 
 11 C       -8.3090    -2.2700     0.4420 C.3   1 <1>   0.2200 
 12 C       -8.7200    -3.7370     0.2360 C.3   1 <1>  -0.1600 
 13 C       -9.2490    -1.2590    -0.2370 C.3   1 <1>  -0.1600 
 14 C      -10.2510    -3.9450     0.2050 C.3   1 <1>   0.4230 
 15 C      -10.7140    -1.7300    -0.2960 C.3   1 <1>   0.4230 
 16 N      -10.9070    -2.7430     0.7750 N.4   1 <1>  -0.8520 
 17 C      -10.7720    -3.9760    -1.2330 C.3   1 <1>  -0.1600 
 18 C      -10.9930    -2.5060    -1.5930 C.3   1 <1>  -0.1600 
 19 C      -12.3020    -3.0080     1.2120 C.3   1 <1>   0.2960 
 20 C      -13.4990    -2.3110     0.6410 C.3   1 <1>  -0.2000 
 21 C      -12.9640    -1.9100     1.9780 C.3   1 <1>  -0.2000 
 22 H       -2.1620    -2.6420    -1.3970 H     1 <1>   0.1500 
 23 H       -2.2800     1.4050    -0.0680 H     1 <1>   0.1500 
 24 H       -4.4630    -2.9800    -0.5900 H     1 <1>   0.1500 
 25 H       -4.5920     1.0760     0.7350 H     1 <1>   0.1500 
 26 H       -6.6290    -2.5060    -0.8640 H     1 <1>   0.3700 
 27 H       -8.3500    -2.0800     1.5040 H     1 <1>   0.0800 
 28 H       -8.3160    -4.3150     1.0480 H     1 <1>   0.0800 
 29 H       -8.2790    -4.1230    -0.6660 H     1 <1>   0.0800 
 30 H       -8.8960    -1.0210    -1.2250 H     1 <1>   0.0800 
 31 H       -9.2110    -0.3430     0.3260 H     1 <1>   0.0800 
 32 H      -10.5200    -4.8450     0.7370 H     1 <1>   0.0800 
 33 H      -11.3810    -0.8900    -0.1880 H     1 <1>   0.0800 
 34 H      -10.3860    -2.4430     1.6060 H     1 <1>   0.4500 
 35 H      -11.7090    -4.5060    -1.2590 H     1 <1>   0.0800 
 36 H      -10.0970    -4.4670    -1.9120 H     1 <1>   0.0800 
 37 H      -10.3550    -2.1930    -2.4020 H     1 <1>   0.0800 
 38 H      -12.0100    -2.3490    -1.9060 H     1 <1>   0.0800 
 39 H      -12.4370    -4.0100     1.5940 H     1 <1>   0.1000 
 40 H      -14.4360    -2.8410     0.6180 H     1 <1>   0.1000 
 41 H      -13.4320    -1.5900    -0.1520 H     1 <1>   0.1000 
 42 H      -12.4950    -0.9450     2.0630 H     1 <1>   0.1000 
 43 H      -13.5550    -2.1550     2.8440 H     1 <1>   0.1000 
@<TRIPOS>BOND
  1   1   2  1   
  2   2   3  ar  
  3   2   4  ar  
  4   3   5  ar  
  5   3  22  1   
  6   4   6  ar  
  7   4  23  1   
  8   5   7  ar  
  9   5  24  1   
 10   6   7  ar  
 11   6  25  1   
 12   7   8  1   
 13   8   9  2   
 14   8  10  am  
 15  10  11  1   
 16  10  26  1   
 17  11  12  1   
 18  11  13  1   
 19  11  27  1   
 20  12  14  1   
 21  12  28  1   
 22  12  29  1   
 23  13  15  1   
 24  13  30  1   
 25  13  31  1   
 26  14  16  1   
 27  14  17  1   
 28  14  32  1   
 29  15  16  1   
 30  15  18  1   
 31  15  33  1   
 32  16  19  1   
 33  16  34  1   
 34  17  18  1   
 35  17  35  1   
 36  17  36  1   
 37  18  37  1   
 38  18  38  1   
 39  19  20  1   
 40  19  21  1   
 41  19  39  1   
 42  20  21  1   
 43  20  40  1   
 44  20  41  1   
 45  21  42  1   
 46  21  43  1   
@<TRIPOS>SUBSTRUCTURE
  1 ****  10 GROUP 4 **** **** 0

# MOE 2024.06 (io_trps.svl 2023.06)
