@<TRIPOS>MOLECULE
NONAME
48 51 1 0 0 
SMALL
USER_CHARGES


@<TRIPOS>ATOM
  1 CL       0.1000    -2.2420    -1.8160 Cl    1 <1>  -0.1770 
  2 C        1.1320    -0.9000    -1.3770 C.ar  1 <1>   0.1770 
  3 C        1.7490    -0.8780    -0.1320 C.ar  1 <1>  -0.0230 
  4 C        1.3260     0.1100    -2.3000 C.ar  1 <1>  -0.1500 
  5 N        1.5370    -1.9220     0.8020 N.pl3 1 <1>   0.3260 
  6 C        2.5860     0.1910     0.1720 C.ar  1 <1>  -0.1500 
  7 C        2.1600     1.1690    -1.9830 C.ar  1 <1>  -0.1500 
  8 C        0.4760    -2.1360     1.5850 C.2   1 <1>   0.2420 
  9 C        2.3690    -2.9140     1.2020 C.2   1 <1>   0.1330 
 10 C        2.7880     1.2060    -0.7490 C.ar  1 <1>  -0.1500 
 11 S       -0.9880    -1.1010     1.5230 S.3   1 <1>  -0.2860 
 12 N        0.6040    -3.1380     2.3790 N.2   1 <1>  -0.3380 
 13 N        1.8150    -3.6350     2.1400 N.2   1 <1>  -0.3380 
 14 C        3.6970    -3.1340     0.6820 C.ar  1 <1>   0.0530 
 15 C       -2.1650    -1.9390     2.6940 C.3   1 <1>   0.1310 
 16 C        4.0380    -3.0240    -0.6600 C.ar  1 <1>  -0.1500 
 17 C        4.7470    -3.4850     1.5180 C.ar  1 <1>  -0.1500 
 18 C       -3.6040    -1.6040     2.3320 C.2   1 <1>   0.5690 
 19 C        5.3400    -3.2340    -1.0700 C.ar  1 <1>   0.1600 
 20 C        6.0160    -3.6760     1.0100 C.ar  1 <1>   0.1600 
 21 O       -4.2070    -0.8910     3.1020 O.2   1 <1>  -0.5700 
 22 N       -4.1970    -2.1070     1.1960 N.am  1 <1>  -0.6600 
 23 N        6.3410    -3.5510    -0.2660 N.ar  1 <1>  -0.6200 
 24 C       -3.5350    -3.0060     0.2060 C.3   1 <1>   0.1400 
 25 C       -5.5800    -1.7120     0.8090 C.3   1 <1>   0.1400 
 26 C       -3.4770    -2.3100    -1.1570 C.3   1 <1>  -0.1600 
 27 C       -5.5510    -1.0070    -0.5510 C.3   1 <1>  -0.1600 
 28 C       -4.8710    -1.8690    -1.6250 C.3   1 <1>  -0.1600 
 29 H        0.8320     0.0680    -3.2550 H     1 <1>   0.1500 
 30 H        3.0800     0.2370     1.1280 H     1 <1>   0.1500 
 31 H        2.3190     1.9630    -2.6940 H     1 <1>   0.1500 
 32 H        3.4370     2.0310    -0.5050 H     1 <1>   0.1500 
 33 H       -1.9300    -1.5860     3.6800 H     1 <1>   0.0800 
 34 H       -1.9990    -2.9980     2.6390 H     1 <1>   0.0800 
 35 H        3.2940    -2.7840    -1.3950 H     1 <1>   0.1500 
 36 H        4.5690    -3.6110     2.5710 H     1 <1>   0.1500 
 37 H        5.5760    -3.1380    -2.1170 H     1 <1>   0.1500 
 38 H        6.8100    -3.9470     1.6870 H     1 <1>   0.1500 
 39 H       -4.1090    -3.9140     0.1240 H     1 <1>   0.0800 
 40 H       -2.5410    -3.2730     0.5140 H     1 <1>   0.0800 
 41 H       -6.0110    -1.0540     1.5450 H     1 <1>   0.0800 
 42 H       -6.1940    -2.5950     0.7530 H     1 <1>   0.0800 
 43 H       -3.0480    -2.9800    -1.8810 H     1 <1>   0.0800 
 44 H       -2.8320    -1.4520    -1.0820 H     1 <1>   0.0800 
 45 H       -5.0220    -0.0760    -0.4430 H     1 <1>   0.0800 
 46 H       -6.5570    -0.7770    -0.8540 H     1 <1>   0.0800 
 47 H       -5.4750    -2.7390    -1.8180 H     1 <1>   0.0800 
 48 H       -4.7880    -1.3100    -2.5410 H     1 <1>   0.0800 
@<TRIPOS>BOND
  1   1   2  1   
  2   2   3  ar  
  3   2   4  ar  
  4   3   5  1   
  5   3   6  ar  
  6   4   7  ar  
  7   4  29  1   
  8   5   8  1   
  9   5   9  1   
 10   6  10  ar  
 11   6  30  1   
 12   7  10  ar  
 13   7  31  1   
 14   8  11  1   
 15   8  12  2   
 16   9  13  2   
 17   9  14  1   
 18  10  32  1   
 19  11  15  1   
 20  12  13  1   
 21  14  16  ar  
 22  14  17  ar  
 23  15  18  1   
 24  15  33  1   
 25  15  34  1   
 26  16  19  ar  
 27  16  35  1   
 28  17  20  ar  
 29  17  36  1   
 30  18  21  2   
 31  18  22  am  
 32  19  23  ar  
 33  19  37  1   
 34  20  23  ar  
 35  20  38  1   
 36  22  24  1   
 37  22  25  1   
 38  24  26  1   
 39  24  39  1   
 40  24  40  1   
 41  25  27  1   
 42  25  41  1   
 43  25  42  1   
 44  26  28  1   
 45  26  43  1   
 46  26  44  1   
 47  27  28  1   
 48  27  45  1   
 49  27  46  1   
 50  28  47  1   
 51  28  48  1   
@<TRIPOS>SUBSTRUCTURE
  1 ****   5 GROUP 4 **** **** 0

# MOE 2024.06 (io_trps.svl 2023.06)
