@<TRIPOS>MOLECULE
NONAME
62 66 1 0 0 
SMALL
USER_CHARGES


@<TRIPOS>ATOM
  1 O        4.2470     0.2100     2.4300 O.3   1 <1>  -0.3630 
  2 C        4.9220     0.8570     1.4760 C.ar  1 <1>   0.0830 
  3 C        2.8610     0.3580     2.1220 C.3   1 <1>   0.4000 
  4 C        4.0570     1.4030     0.5750 C.ar  1 <1>   0.0830 
  5 C        6.2890     0.9970     1.3440 C.ar  1 <1>  -0.1500 
  6 O        2.7970     1.1250     0.9210 O.3   1 <1>  -0.3630 
  7 C        4.5100     2.1260    -0.5100 C.ar  1 <1>  -0.1500 
  8 C        6.7740     1.7110     0.2510 C.ar  1 <1>  -0.1440 
  9 C        5.8830     2.2760    -0.6630 C.ar  1 <1>  -0.1500 
 10 C        8.2770     1.8600     0.0540 C.3   1 <1>   0.2390 
 11 N        8.7010     1.4700    -1.3100 N.pl3 1 <1>   0.3140 
 12 N        9.4150     2.2930    -2.0490 N.2   1 <1>  -0.4180 
 13 C        8.4890     0.3730    -2.0270 C.2   1 <1>   0.0060 
 14 N        9.6120     1.7050    -3.1710 N.2   1 <1>   0.0000 
 15 N        9.0390     0.5100    -3.1780 N.2   1 <1>  -0.3380 
 16 C        7.7010    -0.8610    -1.5620 C.3   1 <1>   0.3700 
 17 N        8.5660    -1.9270    -0.9970 N.3   1 <1>  -0.8100 
 18 C        6.8080    -1.4160    -2.6880 C.3   1 <1>  -0.1600 
 19 C        9.6760    -2.3490    -1.8960 C.3   1 <1>   0.1100 
 20 C        9.0900    -1.5920     0.3430 C.3   1 <1>   0.1100 
 21 C        5.9120    -2.5830    -2.2430 C.3   1 <1>  -0.2400 
 22 C       10.5450    -3.4800    -1.3070 C.3   1 <1>   0.2090 
 23 C        9.8730    -2.7550     0.9770 C.3   1 <1>   0.2090 
 24 N       10.9810    -3.2100     0.0950 N.pl3 1 <1>  -0.8380 
 25 C       12.2490    -2.6680     0.3210 C.ar  1 <1>   0.1000 
 26 C       13.1990    -3.3680     1.0660 C.ar  1 <1>  -0.1430 
 27 C       12.5870    -1.4160    -0.1830 C.ar  1 <1>  -0.1500 
 28 C       14.4470    -2.8100     1.2920 C.ar  1 <1>  -0.1500 
 29 C       12.8760    -4.7440     1.6310 C.3   1 <1>  -0.0970 
 30 C       13.8330    -0.8590     0.0390 C.ar  1 <1>  -0.1430 
 31 C       14.7640    -1.5630     0.7820 C.ar  1 <1>  -0.1500 
 32 C       14.1850     0.5070    -0.5230 C.3   1 <1>  -0.0970 
 33 H        2.3690     0.8900     2.9160 H     1 <1>   0.0800 
 34 H        2.4220    -0.6090     1.9570 H     1 <1>   0.0800 
 35 H        6.9350     0.5530     2.0790 H     1 <1>   0.1500 
 36 H        3.8120     2.5530    -1.2070 H     1 <1>   0.1500 
 37 H        6.2510     2.8380    -1.5080 H     1 <1>   0.1500 
 38 H        8.8150     1.2590     0.7620 H     1 <1>   0.0800 
 39 H        8.5520     2.8870     0.2140 H     1 <1>   0.0800 
 40 H        7.0200    -0.5640    -0.7880 H     1 <1>   0.0800 
 41 H        7.4120    -1.7180    -3.5240 H     1 <1>   0.0800 
 42 H        6.1770    -0.6160    -3.0340 H     1 <1>   0.0800 
 43 H       10.3160    -1.5140    -2.1110 H     1 <1>   0.0800 
 44 H        9.2730    -2.6920    -2.8310 H     1 <1>   0.0800 
 45 H        8.2710    -1.3430     0.9940 H     1 <1>   0.0800 
 46 H        9.7480    -0.7450     0.2780 H     1 <1>   0.0800 
 47 H        6.5130    -3.4210    -1.9340 H     1 <1>   0.0800 
 48 H        5.2830    -2.8960    -3.0560 H     1 <1>   0.0800 
 49 H        5.2880    -2.2840    -1.4190 H     1 <1>   0.0800 
 50 H       11.4120    -3.6220    -1.9280 H     1 <1>   0.0800 
 51 H        9.9790    -4.3950    -1.3200 H     1 <1>   0.0800 
 52 H        9.2060    -3.5800     1.1550 H     1 <1>   0.0800 
 53 H       10.2790    -2.4440     1.9240 H     1 <1>   0.0800 
 54 H       11.8610    -0.8730    -0.7540 H     1 <1>   0.1500 
 55 H       15.1830    -3.3450     1.8650 H     1 <1>   0.1500 
 56 H       12.5830    -5.4000     0.8320 H     1 <1>   0.0800 
 57 H       12.0610    -4.6660     2.3270 H     1 <1>   0.0800 
 58 H       13.7240    -5.1690     2.1350 H     1 <1>   0.0800 
 59 H       15.7390    -1.1450     0.9640 H     1 <1>   0.1500 
 60 H       13.3910     0.8840    -1.1430 H     1 <1>   0.0800 
 61 H       15.0780     0.4380    -1.1180 H     1 <1>   0.0800 
 62 H       14.3540     1.2000     0.2810 H     1 <1>   0.0800 
@<TRIPOS>BOND
  1   1   2  1   
  2   1   3  1   
  3   2   4  ar  
  4   2   5  ar  
  5   3   6  1   
  6   3  33  1   
  7   3  34  1   
  8   4   6  1   
  9   4   7  ar  
 10   5   8  ar  
 11   5  35  1   
 12   7   9  ar  
 13   7  36  1   
 14   8   9  ar  
 15   8  10  1   
 16   9  37  1   
 17  10  11  1   
 18  10  38  1   
 19  10  39  1   
 20  11  12  1   
 21  11  13  1   
 22  12  14  2   
 23  13  15  2   
 24  13  16  1   
 25  14  15  1   
 26  16  17  1   
 27  16  18  1   
 28  16  40  1   
 29  17  19  1   
 30  17  20  1   
 31  18  21  1   
 32  18  41  1   
 33  18  42  1   
 34  19  22  1   
 35  19  43  1   
 36  19  44  1   
 37  20  23  1   
 38  20  45  1   
 39  20  46  1   
 40  21  47  1   
 41  21  48  1   
 42  21  49  1   
 43  22  24  1   
 44  22  50  1   
 45  22  51  1   
 46  23  24  1   
 47  23  52  1   
 48  23  53  1   
 49  24  25  1   
 50  25  26  ar  
 51  25  27  ar  
 52  26  28  ar  
 53  26  29  1   
 54  27  30  ar  
 55  27  54  1   
 56  28  31  ar  
 57  28  55  1   
 58  29  56  1   
 59  29  57  1   
 60  29  58  1   
 61  30  31  ar  
 62  30  32  1   
 63  31  59  1   
 64  32  60  1   
 65  32  61  1   
 66  32  62  1   
@<TRIPOS>SUBSTRUCTURE
  1 ****  20 GROUP 4 **** **** 0

# MOE 2024.06 (io_trps.svl 2023.06)
