@<TRIPOS>MOLECULE
NONAME
47 49 1 0 0 
SMALL
USER_CHARGES


@<TRIPOS>ATOM
  1 CL       0.9830    -4.4930    -2.0820 Cl    1 <1>  -0.1770 
  2 C       -0.5710    -4.3930    -1.3030 C.ar  1 <1>   0.1770 
  3 C       -1.4260    -5.4760    -1.3450 C.ar  1 <1>  -0.1500 
  4 C       -0.9340    -3.2310    -0.6520 C.ar  1 <1>  -0.1500 
  5 C       -2.6580    -5.3900    -0.7220 C.ar  1 <1>  -0.1500 
  6 C       -2.1700    -3.1530    -0.0340 C.ar  1 <1>  -0.1500 
  7 C       -3.0650    -4.2320    -0.0480 C.ar  1 <1>   0.0860 
  8 C       -4.3680    -4.1890     0.5870 C.2   1 <1>   0.4230 
  9 O       -5.2430    -4.9900     0.3610 O.2   1 <1>  -0.5700 
 10 C       -4.7140    -3.0980     1.5890 C.3   1 <1>   0.1310 
 11 S       -5.4330    -1.6130     0.7280 S.3   1 <1>  -0.3220 
 12 C       -6.9630    -2.1190    -0.0110 C.cat 1 <1>   0.8920 
 13 N       -7.3630    -3.3700    -0.1280 N.pl3 1 <1>  -0.7000 
 14 N       -7.8400    -1.2720    -0.5210 N.pl3 1 <1>  -0.7640 
 15 C       -8.5650    -3.3460    -0.7530 C.2   1 <1>   0.4260 
 16 C       -8.8940    -2.0560    -1.0090 C.2   1 <1>   0.2770 
 17 C       -7.7750     0.2100    -0.5860 C.3   1 <1>   0.3540 
 18 N       -9.3550    -4.4250    -1.1000 N.am  1 <1>  -0.4360 
 19 C      -10.1390    -1.7870    -1.6690 C.2   1 <1>   0.7030 
 20 C       -8.5510     0.8040     0.5920 C.3   1 <1>  -0.1600 
 21 C      -10.5730    -4.1710    -1.7140 C.2   1 <1>   0.6900 
 22 C       -8.9200    -5.8220    -0.7980 C.3   1 <1>   0.0600 
 23 O      -10.4870    -0.6460    -1.9190 O.2   1 <1>  -0.5700 
 24 N      -10.9430    -2.8650    -2.0180 N.am  1 <1>  -0.4200 
 25 C       -8.5050     2.3370     0.5830 C.3   1 <1>  -0.2400 
 26 O      -11.3190    -5.0910    -1.9790 O.2   1 <1>  -0.5700 
 27 C      -12.2550    -2.6280    -2.7000 C.3   1 <1>   0.0600 
 28 H       -1.1260    -6.3720    -1.8590 H     1 <1>   0.1500 
 29 H       -0.2500    -2.4000    -0.6370 H     1 <1>   0.1500 
 30 H       -3.3190    -6.2410    -0.7590 H     1 <1>   0.1500 
 31 H       -2.4250    -2.2300     0.4550 H     1 <1>   0.1500 
 32 H       -3.8460    -2.7690     2.1300 H     1 <1>   0.0800 
 33 H       -5.4500    -3.4480     2.2900 H     1 <1>   0.0800 
 34 H       -6.8120    -4.2020     0.1310 H     1 <1>   0.4500 
 35 H       -8.2000     0.5530    -1.5160 H     1 <1>   0.0800 
 36 H       -6.7500     0.5390    -0.5490 H     1 <1>   0.0800 
 37 H       -8.1310     0.4500     1.5170 H     1 <1>   0.0800 
 38 H       -9.5800     0.4920     0.5390 H     1 <1>   0.0800 
 39 H       -9.1550    -6.0630     0.2240 H     1 <1>   0.0800 
 40 H       -7.8610    -5.9290    -0.9550 H     1 <1>   0.0800 
 41 H       -9.4250    -6.5240    -1.4410 H     1 <1>   0.0800 
 42 H       -7.4910     2.6920     0.6570 H     1 <1>   0.0800 
 43 H       -9.0600     2.7260     1.4200 H     1 <1>   0.0800 
 44 H       -8.9440     2.7250    -0.3200 H     1 <1>   0.0800 
 45 H      -12.2610    -1.6810    -3.2120 H     1 <1>   0.0800 
 46 H      -13.0470    -2.6390    -1.9720 H     1 <1>   0.0800 
 47 H      -12.4410    -3.4010    -3.4270 H     1 <1>   0.0800 
@<TRIPOS>BOND
  1   1   2  1   
  2   2   3  ar  
  3   2   4  ar  
  4   3   5  ar  
  5   3  28  1   
  6   4   6  ar  
  7   4  29  1   
  8   5   7  ar  
  9   5  30  1   
 10   6   7  ar  
 11   6  31  1   
 12   7   8  1   
 13   8   9  2   
 14   8  10  1   
 15  10  11  1   
 16  10  32  1   
 17  10  33  1   
 18  11  12  1   
 19  12  13  ar  
 20  12  14  ar  
 21  13  15  1   
 22  13  34  1   
 23  14  16  1   
 24  14  17  1   
 25  15  16  2   
 26  15  18  1   
 27  16  19  1   
 28  17  20  1   
 29  17  35  1   
 30  17  36  1   
 31  18  21  am  
 32  18  22  1   
 33  19  23  2   
 34  19  24  am  
 35  20  25  1   
 36  20  37  1   
 37  20  38  1   
 38  21  24  am  
 39  21  26  2   
 40  22  39  1   
 41  22  40  1   
 42  22  41  1   
 43  24  27  1   
 44  25  42  1   
 45  25  43  1   
 46  25  44  1   
 47  27  45  1   
 48  27  46  1   
 49  27  47  1   
@<TRIPOS>SUBSTRUCTURE
  1 ****  13 GROUP 4 **** **** 0

# MOE 2024.06 (io_trps.svl 2023.06)
