@<TRIPOS>MOLECULE
NONAME
39 40 1 0 0 
SMALL
USER_CHARGES


@<TRIPOS>ATOM
  1 O        0.1020    -0.9830    -1.7690 O.2   1 <1>  -0.5700 
  2 C       -0.1170    -1.6670    -0.8040 C.2   1 <1>   0.4230 
  3 C       -1.3070    -2.4600    -0.6750 C.ar  1 <1>   0.0860 
  4 C        0.9000    -1.6000     0.3180 C.3   1 <1>  -0.1790 
  5 C       -1.3820    -3.7650    -0.1950 C.ar  1 <1>   0.1660 
  6 C       -2.5210    -1.9120    -1.0520 C.ar  1 <1>   0.1600 
  7 N       -2.5200    -4.3940    -0.0490 N.ar  1 <1>  -0.6200 
  8 C       -0.1530    -4.5790     0.1750 C.3   1 <1>  -0.0960 
  9 N       -3.6690    -2.5250    -0.9240 N.ar  1 <1>  -0.6200 
 10 C       -3.6320    -3.7530    -0.4100 C.ar  1 <1>   0.7200 
 11 N       -4.8240    -4.4090    -0.2450 N.pl3 1 <1>  -0.8380 
 12 C       -4.8750    -5.8760     0.0420 C.3   1 <1>   0.2090 
 13 C       -6.1310    -3.6920    -0.3600 C.3   1 <1>   0.2090 
 14 C       -6.1680    -6.4950    -0.5120 C.3   1 <1>  -0.0800 
 15 C       -7.2030    -4.3720     0.5060 C.3   1 <1>  -0.0800 
 16 C       -7.4270    -5.8430     0.0960 C.3   1 <1>  -0.1600 
 17 C       -6.1920    -8.0160    -0.3050 C.3   1 <1>  -0.2400 
 18 C       -8.5260    -3.5940     0.4720 C.3   1 <1>  -0.2400 
 19 H        1.2340    -0.5850     0.4340 H     1 <1>   0.0800 
 20 H        0.4680    -1.9240     1.2470 H     1 <1>   0.0800 
 21 H        1.7500    -2.2120     0.0790 H     1 <1>   0.0800 
 22 H       -2.5290    -0.9190    -1.4700 H     1 <1>   0.1500 
 23 H       -0.3640    -5.6290     0.0700 H     1 <1>   0.0800 
 24 H        0.6730    -4.3460    -0.4710 H     1 <1>   0.0800 
 25 H        0.1190    -4.3910     1.1970 H     1 <1>   0.0800 
 26 H       -4.8200    -6.0260     1.1070 H     1 <1>   0.0800 
 27 H       -4.0300    -6.3660    -0.4120 H     1 <1>   0.0800 
 28 H       -6.4370    -3.6860    -1.3920 H     1 <1>   0.0800 
 29 H       -6.0170    -2.6710    -0.0370 H     1 <1>   0.0800 
 30 H       -6.1690    -6.3100    -1.5730 H     1 <1>   0.0800 
 31 H       -6.8390    -4.3530     1.5190 H     1 <1>   0.0800 
 32 H       -7.7420    -6.3860     0.9710 H     1 <1>   0.0800 
 33 H       -8.2190    -5.9120    -0.6290 H     1 <1>   0.0800 
 34 H       -6.1600    -8.2580     0.7430 H     1 <1>   0.0800 
 35 H       -5.3460    -8.4710    -0.7890 H     1 <1>   0.0800 
 36 H       -7.0890    -8.4340    -0.7280 H     1 <1>   0.0800 
 37 H       -8.9180    -3.5550    -0.5290 H     1 <1>   0.0800 
 38 H       -8.3740    -2.5870     0.8210 H     1 <1>   0.0800 
 39 H       -9.2520    -4.0670     1.1090 H     1 <1>   0.0800 
@<TRIPOS>BOND
  1   1   2  2   
  2   2   3  1   
  3   2   4  1   
  4   3   5  ar  
  5   3   6  ar  
  6   4  19  1   
  7   4  20  1   
  8   4  21  1   
  9   5   7  ar  
 10   5   8  1   
 11   6   9  ar  
 12   6  22  1   
 13   7  10  ar  
 14   8  23  1   
 15   8  24  1   
 16   8  25  1   
 17   9  10  ar  
 18  10  11  1   
 19  11  12  1   
 20  11  13  1   
 21  12  14  1   
 22  12  26  1   
 23  12  27  1   
 24  13  15  1   
 25  13  28  1   
 26  13  29  1   
 27  14  16  1   
 28  14  17  1   
 29  14  30  1   
 30  15  16  1   
 31  15  18  1   
 32  15  31  1   
 33  16  32  1   
 34  16  33  1   
 35  17  34  1   
 36  17  35  1   
 37  17  36  1   
 38  18  37  1   
 39  18  38  1   
 40  18  39  1   
@<TRIPOS>SUBSTRUCTURE
  1 ****  10 GROUP 4 **** **** 0

# MOE 2024.06 (io_trps.svl 2023.06)
