@<TRIPOS>MOLECULE
1-(1-Phenyl-1H-tetrazol-5-yl)-piperidine-4-carboxylic acid (1,1-dimethyl-propyl)-amide
51 53 1 0 0 
SMALL
USER_CHARGES


@<TRIPOS>ATOM
  1 O       -0.8250    -0.7750    -0.2330 O.2   1 <1>  -0.5700 
  2 C       -0.4540    -1.9100    -0.0490 C.2   1 <1>   0.5690 
  3 N        0.8580    -2.2740    -0.0190 N.am  1 <1>  -0.7300 
  4 C       -1.5030    -3.0040     0.1540 C.3   1 <1>  -0.0190 
  5 C        2.0620    -1.4470    -0.1930 C.3   1 <1>   0.3000 
  6 C       -2.0880    -3.4370    -1.2080 C.3   1 <1>  -0.1600 
  7 C       -2.6070    -2.5720     1.1470 C.3   1 <1>  -0.1600 
  8 C        3.2570    -2.4170    -0.0550 C.3   1 <1>  -0.1600 
  9 C        2.0300    -0.8080    -1.5850 C.3   1 <1>  -0.2400 
 10 C        2.0930    -0.3770     0.9030 C.3   1 <1>  -0.2400 
 11 C       -3.4970    -4.0140    -1.0730 C.3   1 <1>   0.2090 
 12 C       -3.8160    -1.9740     0.4280 C.3   1 <1>   0.2090 
 13 C        4.6600    -1.7980    -0.1980 C.3   1 <1>  -0.2400 
 14 N       -4.4200    -2.9920    -0.4920 N.pl3 1 <1>  -0.8220 
 15 C       -5.7730    -3.3550    -0.3330 C.2   1 <1>   0.2700 
 16 N       -6.1810    -4.5760    -0.3270 N.2   1 <1>  -0.3380 
 17 N       -6.8330    -2.5340    -0.1660 N.pl3 1 <1>   0.5930 
 18 N       -7.4950    -4.5270    -0.1330 N.2   1 <1>   0.0000 
 19 N       -7.9030    -3.3200    -0.0300 N.2   1 <1>  -0.4180 
 20 C       -6.9090    -1.1110    -0.1670 C.ar  1 <1>  -0.0230 
 21 C       -6.2080    -0.3550    -1.1050 C.ar  1 <1>  -0.1500 
 22 C       -7.6920    -0.4430     0.7720 C.ar  1 <1>  -0.1500 
 23 C       -6.2780     1.0260    -1.0960 C.ar  1 <1>  -0.1500 
 24 C       -7.7630     0.9390     0.7800 C.ar  1 <1>  -0.1500 
 25 C       -7.0550     1.6750    -0.1530 C.ar  1 <1>  -0.1500 
 26 H        1.0780    -3.2550     0.1350 H     1 <1>   0.3700 
 27 H       -1.0100    -3.8520     0.5930 H     1 <1>   0.0800 
 28 H       -1.4410    -4.1630    -1.6670 H     1 <1>   0.0800 
 29 H       -2.1420    -2.5900    -1.8720 H     1 <1>   0.0800 
 30 H       -2.2150    -1.8540     1.8460 H     1 <1>   0.0800 
 31 H       -2.9420    -3.4220     1.7130 H     1 <1>   0.0800 
 32 H        3.1640    -3.1860    -0.8020 H     1 <1>   0.0800 
 33 H        3.2060    -2.8900     0.9100 H     1 <1>   0.0800 
 34 H        2.0030    -1.5650    -2.3470 H     1 <1>   0.0800 
 35 H        2.8970    -0.1960    -1.7400 H     1 <1>   0.0800 
 36 H        1.1690    -0.1740    -1.6930 H     1 <1>   0.0800 
 37 H        2.1110    -0.8330     1.8750 H     1 <1>   0.0800 
 38 H        1.2330     0.2640     0.8340 H     1 <1>   0.0800 
 39 H        2.9620     0.2450     0.7990 H     1 <1>   0.0800 
 40 H       -3.4790    -4.8830    -0.4370 H     1 <1>   0.0800 
 41 H       -3.8660    -4.3110    -2.0400 H     1 <1>   0.0800 
 42 H       -3.5110    -1.1130    -0.1440 H     1 <1>   0.0800 
 43 H       -4.5390    -1.6530     1.1580 H     1 <1>   0.0800 
 44 H        4.7920    -1.3510    -1.1660 H     1 <1>   0.0800 
 45 H        5.4050    -2.5650    -0.0840 H     1 <1>   0.0800 
 46 H        4.8350    -1.0530     0.5580 H     1 <1>   0.0800 
 47 H       -5.6010    -0.8500    -1.8450 H     1 <1>   0.1500 
 48 H       -8.2510    -1.0070     1.5000 H     1 <1>   0.1500 
 49 H       -5.7270     1.5970    -1.8240 H     1 <1>   0.1500 
 50 H       -8.3710     1.4430     1.5120 H     1 <1>   0.1500 
 51 H       -7.1090     2.7500    -0.1470 H     1 <1>   0.1500 
@<TRIPOS>BOND
  1   1   2  2   
  2   2   3  am  
  3   2   4  1   
  4   3   5  1   
  5   3  26  1   
  6   4   6  1   
  7   4   7  1   
  8   4  27  1   
  9   5   8  1   
 10   5   9  1   
 11   5  10  1   
 12   6  11  1   
 13   6  28  1   
 14   6  29  1   
 15   7  12  1   
 16   7  30  1   
 17   7  31  1   
 18   8  13  1   
 19   8  32  1   
 20   8  33  1   
 21   9  34  1   
 22   9  35  1   
 23   9  36  1   
 24  10  37  1   
 25  10  38  1   
 26  10  39  1   
 27  11  14  1   
 28  11  40  1   
 29  11  41  1   
 30  12  14  1   
 31  12  42  1   
 32  12  43  1   
 33  13  44  1   
 34  13  45  1   
 35  13  46  1   
 36  14  15  1   
 37  15  16  2   
 38  15  17  1   
 39  16  18  1   
 40  17  19  1   
 41  17  20  1   
 42  18  19  2   
 43  20  21  ar  
 44  20  22  ar  
 45  21  23  ar  
 46  21  47  1   
 47  22  24  ar  
 48  22  48  1   
 49  23  25  ar  
 50  23  49  1   
 51  24  25  ar  
 52  24  50  1   
 53  25  51  1   
@<TRIPOS>SUBSTRUCTURE
  1 ****  12 GROUP 4 **** **** 0

# MOE 2024.06 (io_trps.svl 2023.06)
