@<TRIPOS>MOLECULE
ka-03982
36 37 1 0 0 
SMALL
USER_CHARGES


@<TRIPOS>ATOM
  1 O       -0.5540     1.0270    -1.8070 O.2   1 <1>  -0.5700 
  2 C       -1.5050     1.3660    -1.0730 C.2   1 <1>   0.6160 
  3 N       -2.5270     0.4270    -0.8520 N.am  1 <1>  -0.4770 
  4 C       -1.5630     2.6340    -0.4810 C.2   1 <1>  -0.1240 
  5 C       -3.6480     0.7830    -0.0660 C.ar  1 <1>   0.1170 
  6 C       -2.3810    -0.9460    -1.4250 C.3   1 <1>   0.1400 
  7 C       -2.6360     3.0070     0.3220 C.2   1 <1>  -0.1780 
  8 C       -0.4250     3.6280    -0.7130 C.3   1 <1>  -0.0220 
  9 C       -3.7080     2.0600     0.5250 C.ar  1 <1>   0.0280 
 10 C       -4.7210    -0.0940     0.1530 C.ar  1 <1>  -0.1500 
 11 C       -1.9140    -1.9600    -0.3660 C.3   1 <1>  -0.1600 
 12 O       -2.6920     4.1300     0.8640 O.3   1 <1>  -0.8500 
 13 C        0.6980     3.4110     0.3050 C.3   1 <1>  -0.2400 
 14 C       -4.8150     2.3970     1.3020 C.ar  1 <1>  -0.1500 
 15 C       -5.8070     0.2620     0.9250 C.ar  1 <1>  -0.1500 
 16 C       -0.5330    -1.6260     0.2180 C.3   1 <1>  -0.1600 
 17 C       -5.8560     1.5170     1.5060 C.ar  1 <1>  -0.1500 
 18 C       -0.0600    -2.7160     1.1840 C.3   1 <1>  -0.2400 
 19 H       -1.6780    -0.9420    -2.2390 H     1 <1>   0.0800 
 20 H       -3.3190    -1.2550    -1.8460 H     1 <1>   0.0800 
 21 H       -0.8020     4.6310    -0.6190 H     1 <1>   0.0800 
 22 H       -0.0410     3.5220    -1.7110 H     1 <1>   0.0800 
 23 H       -4.7210    -1.0720    -0.2790 H     1 <1>   0.1500 
 24 H       -1.8710    -2.9290    -0.8300 H     1 <1>   0.0800 
 25 H       -2.6350    -2.0100     0.4290 H     1 <1>   0.0800 
 26 H        0.2980     3.5330     1.2970 H     1 <1>   0.0800 
 27 H        1.4820     4.1280     0.1510 H     1 <1>   0.0800 
 28 H        1.0960     2.4180     0.2090 H     1 <1>   0.0800 
 29 H       -4.8310     3.3790     1.7420 H     1 <1>   0.1500 
 30 H       -6.6160    -0.4280     1.0800 H     1 <1>   0.1500 
 31 H       -0.5820    -0.6870     0.7450 H     1 <1>   0.0800 
 32 H        0.1820    -1.5160    -0.5800 H     1 <1>   0.0800 
 33 H       -6.6950     1.8090     2.1110 H     1 <1>   0.1500 
 34 H       -0.7530    -2.8170     2.0000 H     1 <1>   0.0800 
 35 H        0.9040    -2.4540     1.5840 H     1 <1>   0.0800 
 36 H        0.0240    -3.6600     0.6760 H     1 <1>   0.0800 
@<TRIPOS>BOND
  1   1   2  2   
  2   2   3  am  
  3   2   4  1   
  4   3   5  1   
  5   3   6  1   
  6   4   7  2   
  7   4   8  1   
  8   5   9  ar  
  9   5  10  ar  
 10   6  11  1   
 11   6  19  1   
 12   6  20  1   
 13   7   9  1   
 14   7  12  1   
 15   8  13  1   
 16   8  21  1   
 17   8  22  1   
 18   9  14  ar  
 19  10  15  ar  
 20  10  23  1   
 21  11  16  1   
 22  11  24  1   
 23  11  25  1   
 24  13  26  1   
 25  13  27  1   
 26  13  28  1   
 27  14  17  ar  
 28  14  29  1   
 29  15  17  ar  
 30  15  30  1   
 31  16  18  1   
 32  16  31  1   
 33  16  32  1   
 34  17  33  1   
 35  18  34  1   
 36  18  35  1   
 37  18  36  1   
@<TRIPOS>SUBSTRUCTURE
  1 ****   3 GROUP 4 **** **** 0

# MOE 2024.06 (io_trps.svl 2023.06)
