@<TRIPOS>MOLECULE
NONAME
43 43 1 0 0 
SMALL
USER_CHARGES


@<TRIPOS>ATOM
  1 O        0.2510     1.6250     1.0980 O.2   1 <1>  -0.5700 
  2 C        1.3810     1.7950     0.7210 C.2   1 <1>   0.5690 
  3 N        2.1140     0.9860    -0.0920 N.am  1 <1>  -0.4200 
  4 C        2.1530     3.0310     1.1010 C.3   1 <1>  -0.0990 
  5 C        1.8050    -0.2570    -0.5860 C.2   1 <1>   0.7800 
  6 C        3.4550     1.5650    -0.3520 C.3   1 <1>   0.2810 
  7 C        3.3390     3.0230     0.1300 C.3   1 <1>  -0.1600 
  8 O        2.5460    -0.8110    -1.3720 O.2   1 <1>  -0.5700 
  9 O        0.6830    -0.8400    -0.1730 O.3   1 <1>  -0.4300 
 10 C        4.5540     0.7890     0.3830 C.2   1 <1>   0.6590 
 11 C        0.1860    -2.1130    -0.5160 C.3   1 <1>   0.2800 
 12 O        4.5570     0.6940     1.5850 O.2   1 <1>  -0.5700 
 13 O        5.4800     0.2440    -0.3980 O.3   1 <1>  -0.4300 
 14 C        1.1680    -3.2010    -0.0640 C.3   1 <1>  -0.2400 
 15 C       -0.1090    -2.1780    -2.0190 C.3   1 <1>  -0.2400 
 16 C       -1.1210    -2.2530     0.2640 C.3   1 <1>  -0.2400 
 17 C        6.5340    -0.6110    -0.0170 C.3   1 <1>   0.2800 
 18 C        7.2500    -0.9740    -1.3170 C.3   1 <1>  -0.2400 
 19 C        5.9630    -1.8800     0.6240 C.3   1 <1>  -0.2400 
 20 C        7.5020     0.1290     0.9130 C.3   1 <1>  -0.2400 
 21 H        1.5480     3.9130     0.9960 H     1 <1>   0.0800 
 22 H        2.4850     2.9300     2.1190 H     1 <1>   0.0800 
 23 H        3.6620     1.5410    -1.4080 H     1 <1>   0.0800 
 24 H        4.2460     3.3740     0.5940 H     1 <1>   0.0800 
 25 H        3.1200     3.6520    -0.7150 H     1 <1>   0.0800 
 26 H        0.7260    -4.1710    -0.1990 H     1 <1>   0.0800 
 27 H        1.4070    -3.0770     0.9770 H     1 <1>   0.0800 
 28 H        2.0730    -3.1730    -0.6410 H     1 <1>   0.0800 
 29 H       -0.6120    -3.0970    -2.2530 H     1 <1>   0.0800 
 30 H        0.7980    -2.1480    -2.5950 H     1 <1>   0.0800 
 31 H       -0.7420    -1.3590    -2.3100 H     1 <1>   0.0800 
 32 H       -0.9330    -2.1800     1.3200 H     1 <1>   0.0800 
 33 H       -1.5800    -3.2040     0.0630 H     1 <1>   0.0800 
 34 H       -1.8080    -1.4760    -0.0200 H     1 <1>   0.0800 
 35 H        6.5710    -1.4690    -1.9900 H     1 <1>   0.0800 
 36 H        8.0730    -1.6370    -1.1190 H     1 <1>   0.0800 
 37 H        7.6340    -0.0900    -1.7940 H     1 <1>   0.0800 
 38 H        6.7500    -2.5920     0.7940 H     1 <1>   0.0800 
 39 H        5.2310    -2.3290    -0.0240 H     1 <1>   0.0800 
 40 H        5.5090    -1.6650     1.5740 H     1 <1>   0.0800 
 41 H        8.3660    -0.4820     1.1020 H     1 <1>   0.0800 
 42 H        7.0430     0.3430     1.8600 H     1 <1>   0.0800 
 43 H        7.8300     1.0480     0.4600 H     1 <1>   0.0800 
@<TRIPOS>BOND
  1   1   2  2   
  2   2   3  am  
  3   2   4  1   
  4   3   5  am  
  5   3   6  1   
  6   4   7  1   
  7   4  21  1   
  8   4  22  1   
  9   5   8  2   
 10   5   9  1   
 11   6   7  1   
 12   6  10  1   
 13   6  23  1   
 14   7  24  1   
 15   7  25  1   
 16   9  11  1   
 17  10  12  2   
 18  10  13  1   
 19  11  14  1   
 20  11  15  1   
 21  11  16  1   
 22  13  17  1   
 23  14  26  1   
 24  14  27  1   
 25  14  28  1   
 26  15  29  1   
 27  15  30  1   
 28  15  31  1   
 29  16  32  1   
 30  16  33  1   
 31  16  34  1   
 32  17  18  1   
 33  17  19  1   
 34  17  20  1   
 35  18  35  1   
 36  18  36  1   
 37  18  37  1   
 38  19  38  1   
 39  19  39  1   
 40  19  40  1   
 41  20  41  1   
 42  20  42  1   
 43  20  43  1   
@<TRIPOS>SUBSTRUCTURE
  1 ****   5 GROUP 4 **** **** 0

# MOE 2024.06 (io_trps.svl 2023.06)
