@<TRIPOS>MOLECULE
NONAME
43 46 1 0 0 
SMALL
USER_CHARGES


@<TRIPOS>ATOM
  1 S       -0.0990     0.0560     0.0050 S.3   1 <1>  -0.3320 
  2 C        1.5870    -0.5180    -0.1180 C.ar  1 <1>   0.7220 
  3 C       -1.0090    -0.8910    -1.3130 C.3   1 <1>   0.1310 
  4 N        1.8210    -1.4750    -1.0510 N.ar  1 <1>  -0.3100 
  5 N        2.4380     0.0320     0.7100 N.ar  1 <1>  -0.5670 
  6 C       -2.4930    -0.5470    -1.3060 C.2   1 <1>   0.5690 
  7 N        3.0220    -1.9530    -1.2020 N.ar  1 <1>  -0.2560 
  8 C        3.6600    -0.4670     0.5380 C.ar  1 <1>   0.1050 
  9 O       -2.8880     0.0210    -2.2970 O.2   1 <1>  -0.5700 
 10 N       -3.3120    -0.9020    -0.2480 N.am  1 <1>  -0.6600 
 11 C        3.9600    -1.4420    -0.3970 C.ar  1 <1>   0.2560 
 12 N        4.7940    -0.1300     1.2170 N.pl3 1 <1>   0.0330 
 13 C       -4.7660    -0.5650    -0.0830 C.3   1 <1>   0.2200 
 14 C       -2.8670    -1.8220     0.8410 C.3   1 <1>   0.1400 
 15 C        5.3510    -1.7160    -0.2830 C.ar  1 <1>   0.0000 
 16 C        5.8420    -0.8860     0.7270 C.ar  1 <1>  -0.1520 
 17 C       -5.5820    -1.8540    -0.2550 C.3   1 <1>  -0.1600 
 18 C       -5.3090     0.5520    -0.9770 C.3   1 <1>  -0.2400 
 19 C       -3.6320    -3.1460     0.7190 C.3   1 <1>  -0.1600 
 20 C        6.2170    -2.5860    -0.9460 C.ar  1 <1>  -0.1500 
 21 C        7.1890    -0.9040     1.0970 C.ar  1 <1>  -0.1500 
 22 C       -5.1520    -2.9280     0.7580 C.3   1 <1>  -0.1600 
 23 C        7.5390    -2.5880    -0.5660 C.ar  1 <1>   0.1900 
 24 C        8.0430    -1.7650     0.4410 C.ar  1 <1>  -0.1500 
 25 F        8.3710    -3.3960    -1.1730 F     1 <1>  -0.1900 
 26 H       -0.8560    -1.9390    -1.1420 H     1 <1>   0.0800 
 27 H       -0.5710    -0.6140    -2.2540 H     1 <1>   0.0800 
 28 H        4.8360     0.5710     1.9610 H     1 <1>   0.2700 
 29 H       -4.8980    -0.2240     0.9310 H     1 <1>   0.0800 
 30 H       -3.0750    -1.3660     1.7950 H     1 <1>   0.0800 
 31 H       -1.8130    -2.0170     0.8040 H     1 <1>   0.0800 
 32 H       -5.4460    -2.2200    -1.2580 H     1 <1>   0.0800 
 33 H       -6.6270    -1.6410    -0.1210 H     1 <1>   0.0800 
 34 H       -5.3540     0.2350    -2.0030 H     1 <1>   0.0800 
 35 H       -4.6870     1.4260    -0.8970 H     1 <1>   0.0800 
 36 H       -6.3030     0.8150    -0.6680 H     1 <1>   0.0800 
 37 H       -3.3410    -3.8020     1.5200 H     1 <1>   0.0800 
 38 H       -3.3590    -3.6190    -0.2080 H     1 <1>   0.0800 
 39 H        5.8570    -3.2320    -1.7260 H     1 <1>   0.1500 
 40 H        7.5500    -0.2570     1.8780 H     1 <1>   0.1500 
 41 H       -5.6600    -3.8530     0.5460 H     1 <1>   0.0800 
 42 H       -5.4370    -2.6130     1.7470 H     1 <1>   0.0800 
 43 H        9.0880    -1.8160     0.6890 H     1 <1>   0.1500 
@<TRIPOS>BOND
  1   1   2  1   
  2   1   3  1   
  3   2   4  ar  
  4   2   5  ar  
  5   3   6  1   
  6   3  26  1   
  7   3  27  1   
  8   4   7  ar  
  9   5   8  ar  
 10   6   9  2   
 11   6  10  am  
 12   7  11  ar  
 13   8  11  ar  
 14   8  12  1   
 15  10  13  1   
 16  10  14  1   
 17  11  15  1   
 18  12  16  1   
 19  12  28  1   
 20  13  17  1   
 21  13  18  1   
 22  13  29  1   
 23  14  19  1   
 24  14  30  1   
 25  14  31  1   
 26  15  16  ar  
 27  15  20  ar  
 28  16  21  ar  
 29  17  22  1   
 30  17  32  1   
 31  17  33  1   
 32  18  34  1   
 33  18  35  1   
 34  18  36  1   
 35  19  22  1   
 36  19  37  1   
 37  19  38  1   
 38  20  23  ar  
 39  20  39  1   
 40  21  24  ar  
 41  21  40  1   
 42  22  41  1   
 43  22  42  1   
 44  23  24  ar  
 45  23  25  1   
 46  24  43  1   
@<TRIPOS>SUBSTRUCTURE
  1 ****   2 GROUP 4 **** **** 0

# MOE 2024.06 (io_trps.svl 2023.06)
