@<TRIPOS>MOLECULE
NONAME
58 61 1 0 0 
SMALL
USER_CHARGES


@<TRIPOS>ATOM
  1 S       -0.2800     0.7280     1.6490 S.o2  1 <1>   1.4470 
  2 O        0.2760    -0.5950     1.4660 O.2   1 <1>  -0.6500 
  3 O       -0.4200     1.2710     2.9830 O.2   1 <1>  -0.6500 
  4 N        0.6970     1.8050     0.7770 N.am  1 <1>  -0.8490 
  5 C       -1.8680     0.8150     0.7720 C.ar  1 <1>  -0.0090 
  6 C        2.1180     1.6240     1.1150 C.3   1 <1>   0.1960 
  7 C        0.2990     3.2020     0.9850 C.3   1 <1>   0.1960 
  8 C       -3.0240     1.2580     1.4040 C.ar  1 <1>  -0.1500 
  9 C       -1.9650     0.4490    -0.5650 C.ar  1 <1>  -0.1500 
 10 C        3.0030     2.4750     0.1950 C.3   1 <1>  -0.0190 
 11 C        1.0970     4.1200     0.0540 C.3   1 <1>  -0.1600 
 12 C       -4.2290     1.3310     0.7280 C.ar  1 <1>  -0.1500 
 13 C       -3.1660     0.5180    -1.2490 C.ar  1 <1>  -0.1500 
 14 C        4.4650     2.2650     0.5550 C.2   1 <1>   0.5690 
 15 C        2.6070     3.9610     0.2760 C.3   1 <1>  -0.1600 
 16 C       -4.3210     0.9590    -0.6090 C.ar  1 <1>  -0.0230 
 17 O        4.8200     2.4290     1.6970 O.2   1 <1>  -0.5700 
 18 N        5.3300     1.8960    -0.4240 N.am  1 <1>  -0.7300 
 19 N       -5.5670     1.0280    -1.3000 N.pl3 1 <1>   0.5930 
 20 C        6.7650     1.6350    -0.2290 C.3   1 <1>   0.2200 
 21 N       -6.4970     1.9500    -1.0990 N.2   1 <1>  -0.4180 
 22 C       -6.0460     0.2230    -2.2380 C.2   1 <1>   0.0360 
 23 C        7.5680     2.5710    -1.1380 C.3   1 <1>  -0.1600 
 24 C        7.0480     0.1660    -0.5560 C.3   1 <1>  -0.1600 
 25 N       -7.4680     1.6860    -1.8960 N.2   1 <1>   0.0000 
 26 N       -7.2020     0.6040    -2.6190 N.2   1 <1>  -0.3380 
 27 C        9.0720     2.2680    -1.0540 C.3   1 <1>  -0.1600 
 28 C        8.5510    -0.1400    -0.4720 C.3   1 <1>  -0.1600 
 29 C        9.3650     0.7940    -1.3830 C.3   1 <1>  -0.0800 
 30 C       10.8630     0.5040    -1.2430 C.3   1 <1>  -0.2400 
 31 H        2.3950     0.5890     0.9940 H     1 <1>   0.0800 
 32 H        2.2870     1.8930     2.1470 H     1 <1>   0.0800 
 33 H        0.4700     3.4860     2.0120 H     1 <1>   0.0800 
 34 H       -0.7510     3.3200     0.7750 H     1 <1>   0.0800 
 35 H       -2.9800     1.5490     2.4410 H     1 <1>   0.1500 
 36 H       -1.0780     0.1050    -1.0740 H     1 <1>   0.1500 
 37 H        2.8480     2.1290    -0.8100 H     1 <1>   0.0800 
 38 H        0.8130     5.1420     0.2320 H     1 <1>   0.0800 
 39 H        0.8490     3.8820    -0.9660 H     1 <1>   0.0800 
 40 H       -5.1060     1.6810     1.2490 H     1 <1>   0.1500 
 41 H       -3.1910     0.2300    -2.2860 H     1 <1>   0.1500 
 42 H        3.1520     4.5280    -0.4580 H     1 <1>   0.0800 
 43 H        2.8650     4.3430     1.2500 H     1 <1>   0.0800 
 44 H        4.9980     1.7660    -1.3780 H     1 <1>   0.3700 
 45 H        7.0350     1.8250     0.7970 H     1 <1>   0.0800 
 46 H       -5.5140    -0.6320    -2.6070 H     1 <1>   0.1500 
 47 H        7.3950     3.5900    -0.8380 H     1 <1>   0.0800 
 48 H        7.2440     2.4540    -2.1570 H     1 <1>   0.0800 
 49 H        6.7010    -0.0580    -1.5490 H     1 <1>   0.0800 
 50 H        6.5200    -0.4600     0.1420 H     1 <1>   0.0800 
 51 H        9.4200     2.4910    -0.0600 H     1 <1>   0.0800 
 52 H        9.6020     2.9050    -1.7400 H     1 <1>   0.0800 
 53 H        8.7210    -1.1640    -0.7570 H     1 <1>   0.0800 
 54 H        8.8760    -0.0230     0.5480 H     1 <1>   0.0800 
 55 H        9.0800     0.6090    -2.4050 H     1 <1>   0.0800 
 56 H       11.1920     0.6770    -0.2330 H     1 <1>   0.0800 
 57 H       11.4290     1.1390    -1.9020 H     1 <1>   0.0800 
 58 H       11.0700    -0.5200    -1.5000 H     1 <1>   0.0800 
@<TRIPOS>BOND
  1   1   2  2   
  2   1   3  2   
  3   1   4  am  
  4   1   5  1   
  5   4   6  1   
  6   4   7  1   
  7   5   8  ar  
  8   5   9  ar  
  9   6  10  1   
 10   6  31  1   
 11   6  32  1   
 12   7  11  1   
 13   7  33  1   
 14   7  34  1   
 15   8  12  ar  
 16   8  35  1   
 17   9  13  ar  
 18   9  36  1   
 19  10  14  1   
 20  10  15  1   
 21  10  37  1   
 22  11  15  1   
 23  11  38  1   
 24  11  39  1   
 25  12  16  ar  
 26  12  40  1   
 27  13  16  ar  
 28  13  41  1   
 29  14  17  2   
 30  14  18  am  
 31  15  42  1   
 32  15  43  1   
 33  16  19  1   
 34  18  20  1   
 35  18  44  1   
 36  19  21  1   
 37  19  22  1   
 38  20  23  1   
 39  20  24  1   
 40  20  45  1   
 41  21  25  2   
 42  22  26  2   
 43  22  46  1   
 44  23  27  1   
 45  23  47  1   
 46  23  48  1   
 47  24  28  1   
 48  24  49  1   
 49  24  50  1   
 50  25  26  1   
 51  27  29  1   
 52  27  51  1   
 53  27  52  1   
 54  28  29  1   
 55  28  53  1   
 56  28  54  1   
 57  29  30  1   
 58  29  55  1   
 59  30  56  1   
 60  30  57  1   
 61  30  58  1   
@<TRIPOS>SUBSTRUCTURE
  1 ****   4 GROUP 4 **** **** 0

# MOE 2024.06 (io_trps.svl 2023.06)
