@<TRIPOS>MOLECULE
N-{1-[(2,4-Dimethoxy-phenylcarbamoyl)-methyl]-piperidin-4-yl}-3-fluoro-benzamide
56 58 1 0 0 
SMALL
USER_CHARGES


@<TRIPOS>ATOM
  1 F        3.6790    -2.1120     4.4060 F     1 <1>  -0.1900 
  2 C        3.1520    -2.5720     3.3040 C.ar  1 <1>   0.1900 
  3 C        3.9700    -2.7610     2.2090 C.ar  1 <1>  -0.1500 
  4 C        1.8000    -2.8480     3.2800 C.ar  1 <1>  -0.1500 
  5 C        3.4340    -3.2570     1.0190 C.ar  1 <1>   0.0860 
  6 C        1.2520    -3.3310     2.1050 C.ar  1 <1>  -0.1500 
  7 C        4.2580    -3.4850    -0.1570 C.2   1 <1>   0.5440 
  8 C        2.0620    -3.5280     0.9970 C.ar  1 <1>  -0.1500 
  9 O        3.7720    -3.4460    -1.2700 O.2   1 <1>  -0.5700 
 10 N        5.5900    -3.7620    -0.0320 N.am  1 <1>  -0.7300 
 11 C        6.5210    -4.0060    -1.1470 C.3   1 <1>   0.2200 
 12 C        7.0240    -5.4460    -1.0760 C.3   1 <1>  -0.1600 
 13 C        7.6850    -3.0210    -1.0550 C.3   1 <1>  -0.1600 
 14 C        8.1030    -5.6890    -2.1330 C.3   1 <1>   0.1100 
 15 C        8.7330    -3.3420    -2.1200 C.3   1 <1>   0.1100 
 16 N        9.2000    -4.7300    -1.9450 N.3   1 <1>  -0.8100 
 17 C       10.3400    -5.0370    -2.8620 C.3   1 <1>   0.1710 
 18 C       11.6600    -4.3670    -2.4680 C.2   1 <1>   0.5690 
 19 O       12.5280    -4.2470    -3.3000 O.2   1 <1>  -0.5700 
 20 N       11.7630    -3.9330    -1.1800 N.am  1 <1>  -0.5470 
 21 C       12.7350    -3.2100    -0.4660 C.ar  1 <1>   0.1170 
 22 C       12.3710    -2.6160     0.7470 C.ar  1 <1>   0.0830 
 23 C       14.0420    -3.0700    -0.9190 C.ar  1 <1>  -0.1500 
 24 O       11.0770    -2.7760     1.1610 O.3   1 <1>  -0.3630 
 25 C       13.3120    -1.8960     1.4760 C.ar  1 <1>  -0.1500 
 26 C       14.9740    -2.3520    -0.1910 C.ar  1 <1>  -0.1500 
 27 C       10.6280    -2.2190     2.3770 C.3   1 <1>   0.0400 
 28 C       14.6100    -1.7600     1.0140 C.ar  1 <1>   0.0830 
 29 O       15.4610    -1.0380     1.7910 O.3   1 <1>  -0.3620 
 30 C       16.8000    -0.8320     1.4000 C.3   1 <1>   0.0400 
 31 H        5.0120    -2.5150     2.2850 H     1 <1>   0.1500 
 32 H        1.1960    -2.6860     4.1550 H     1 <1>   0.1500 
 33 H        0.2000    -3.5520     2.0500 H     1 <1>   0.1500 
 34 H        1.6260    -3.9020     0.0850 H     1 <1>   0.1500 
 35 H        5.9880    -3.9130     0.8940 H     1 <1>   0.3700 
 36 H        6.0150    -3.8580    -2.0870 H     1 <1>   0.0800 
 37 H        6.2040    -6.1200    -1.2470 H     1 <1>   0.0800 
 38 H        7.4420    -5.6490    -0.1070 H     1 <1>   0.0800 
 39 H        8.1510    -3.0770    -0.0870 H     1 <1>   0.0800 
 40 H        7.3210    -2.0210    -1.2070 H     1 <1>   0.0800 
 41 H        7.6850    -5.5830    -3.1210 H     1 <1>   0.0800 
 42 H        8.4770    -6.6940    -2.0260 H     1 <1>   0.0800 
 43 H        9.5550    -2.6540    -2.0180 H     1 <1>   0.0800 
 44 H        8.3100    -3.2160    -3.1040 H     1 <1>   0.0800 
 45 H       10.0910    -4.7470    -3.8680 H     1 <1>   0.0800 
 46 H       10.5210    -6.0970    -2.8610 H     1 <1>   0.0800 
 47 H       10.8830    -4.0580    -0.6640 H     1 <1>   0.3700 
 48 H       14.3390    -3.5240    -1.8460 H     1 <1>   0.1500 
 49 H       13.0690    -1.4260     2.4090 H     1 <1>   0.1500 
 50 H       15.9710    -2.2680    -0.5790 H     1 <1>   0.1500 
 51 H        9.5910    -2.4750     2.5000 H     1 <1>   0.0800 
 52 H       10.7390    -1.1500     2.3340 H     1 <1>   0.0800 
 53 H       11.2040    -2.6340     3.1850 H     1 <1>   0.0800 
 54 H       17.2800    -0.2360     2.1540 H     1 <1>   0.0800 
 55 H       16.8140    -0.3110     0.4590 H     1 <1>   0.0800 
 56 H       17.2920    -1.7860     1.3200 H     1 <1>   0.0800 
@<TRIPOS>BOND
  1   1   2  1   
  2   2   3  ar  
  3   2   4  ar  
  4   3   5  ar  
  5   3  31  1   
  6   4   6  ar  
  7   4  32  1   
  8   5   7  1   
  9   5   8  ar  
 10   6   8  ar  
 11   6  33  1   
 12   7   9  2   
 13   7  10  am  
 14   8  34  1   
 15  10  11  1   
 16  10  35  1   
 17  11  12  1   
 18  11  13  1   
 19  11  36  1   
 20  12  14  1   
 21  12  37  1   
 22  12  38  1   
 23  13  15  1   
 24  13  39  1   
 25  13  40  1   
 26  14  16  1   
 27  14  41  1   
 28  14  42  1   
 29  15  16  1   
 30  15  43  1   
 31  15  44  1   
 32  16  17  1   
 33  17  18  1   
 34  17  45  1   
 35  17  46  1   
 36  18  19  2   
 37  18  20  am  
 38  20  21  1   
 39  20  47  1   
 40  21  22  ar  
 41  21  23  ar  
 42  22  24  1   
 43  22  25  ar  
 44  23  26  ar  
 45  23  48  1   
 46  24  27  1   
 47  25  28  ar  
 48  25  49  1   
 49  26  28  ar  
 50  26  50  1   
 51  27  51  1   
 52  27  52  1   
 53  27  53  1   
 54  28  29  1   
 55  29  30  1   
 56  30  54  1   
 57  30  55  1   
 58  30  56  1   
@<TRIPOS>SUBSTRUCTURE
  1 ****  13 GROUP 4 **** **** 0

# MOE 2024.06 (io_trps.svl 2023.06)
