@<TRIPOS>MOLECULE
3-m-Tolyloxymethyl-piperidine
35 36 1 0 0 
SMALL
USER_CHARGES


@<TRIPOS>ATOM
  1 O       -0.0400     0.4360     0.3320 O.3   1 <1>  -0.3630 
  2 C        1.1650     0.9900     0.0480 C.ar  1 <1>   0.0830 
  3 C       -1.2390     1.1420     0.1120 C.3   1 <1>   0.1200 
  4 C        2.2810     0.1930     0.2530 C.ar  1 <1>  -0.1500 
  5 C        1.3270     2.2870    -0.4310 C.ar  1 <1>  -0.1500 
  6 C       -2.4030     0.2060     0.4520 C.3   1 <1>  -0.0800 
  7 C        3.5520     0.6710    -0.0200 C.ar  1 <1>  -0.1430 
  8 C        2.5960     2.7670    -0.7030 C.ar  1 <1>  -0.1500 
  9 C       -2.2010    -1.1520    -0.2370 C.3   1 <1>   0.3430 
 10 C       -3.7490     0.8360     0.0530 C.3   1 <1>  -0.1600 
 11 C        3.7040     1.9620    -0.4990 C.ar  1 <1>  -0.1500 
 12 C        4.7740    -0.2010     0.2040 C.3   1 <1>  -0.0960 
 13 N       -3.3530    -2.0560     0.0480 N.4   1 <1>  -0.9060 
 14 C       -4.9020    -0.1520     0.2860 C.3   1 <1>  -0.1600 
 15 C       -4.6550    -1.4950    -0.4050 C.3   1 <1>   0.3430 
 16 H       -1.2680     1.4380    -0.9230 H     1 <1>   0.0800 
 17 H       -1.2440     2.0140     0.7450 H     1 <1>   0.0800 
 18 H        2.1480    -0.8040     0.6290 H     1 <1>   0.1500 
 19 H        0.4910     2.9390    -0.5960 H     1 <1>   0.1500 
 20 H       -2.3910     0.0560     1.5180 H     1 <1>   0.0800 
 21 H        2.7260     3.7690    -1.0730 H     1 <1>   0.1500 
 22 H       -1.2840    -1.5980     0.1170 H     1 <1>   0.0800 
 23 H       -2.1080    -1.0010    -1.3010 H     1 <1>   0.0800 
 24 H       -3.7270     1.1150    -0.9880 H     1 <1>   0.0800 
 25 H       -3.9190     1.7320     0.6280 H     1 <1>   0.0800 
 26 H        4.6860     2.3460    -0.7130 H     1 <1>   0.1500 
 27 H        4.4930    -1.2330     0.3160 H     1 <1>   0.0800 
 28 H        5.2880     0.1150     1.0950 H     1 <1>   0.0800 
 29 H        5.4450    -0.1200    -0.6320 H     1 <1>   0.0800 
 30 H       -3.3940    -2.2180     1.0610 H     1 <1>   0.4500 
 31 H       -3.1890    -2.9680    -0.3960 H     1 <1>   0.4500 
 32 H       -5.8160     0.2740    -0.0940 H     1 <1>   0.0800 
 33 H       -5.0420    -0.3120     1.3420 H     1 <1>   0.0800 
 34 H       -5.4560    -2.1780    -0.1690 H     1 <1>   0.0800 
 35 H       -4.6370    -1.3500    -1.4740 H     1 <1>   0.0800 
@<TRIPOS>BOND
  1   1   2  1   
  2   1   3  1   
  3   2   4  ar  
  4   2   5  ar  
  5   3   6  1   
  6   3  16  1   
  7   3  17  1   
  8   4   7  ar  
  9   4  18  1   
 10   5   8  ar  
 11   5  19  1   
 12   6   9  1   
 13   6  10  1   
 14   6  20  1   
 15   7  11  ar  
 16   7  12  1   
 17   8  11  ar  
 18   8  21  1   
 19   9  13  1   
 20   9  22  1   
 21   9  23  1   
 22  10  14  1   
 23  10  24  1   
 24  10  25  1   
 25  11  26  1   
 26  12  27  1   
 27  12  28  1   
 28  12  29  1   
 29  13  15  1   
 30  13  30  1   
 31  13  31  1   
 32  14  15  1   
 33  14  32  1   
 34  14  33  1   
 35  15  34  1   
 36  15  35  1   
@<TRIPOS>SUBSTRUCTURE
  1 ****   1 GROUP 4 **** **** 0

# MOE 2024.06 (io_trps.svl 2023.06)
