@<TRIPOS>MOLECULE
NONAME
30 32 1 0 0 
SMALL
USER_CHARGES


@<TRIPOS>ATOM
  1 O       -6.5750     3.1320    -1.5300 O.3   1 <1>  -0.6800 
  2 C       -5.4370     3.3170    -0.7950 C.3   1 <1>   0.2800 
  3 C       -5.2600     4.8180    -0.5180 C.3   1 <1>  -0.1600 
  4 C       -4.2480     2.7840    -1.6090 C.3   1 <1>  -0.1600 
  5 C       -5.5480     2.5490     0.5290 C.3   1 <1>  -0.1600 
  6 C       -3.9570     5.0370     0.2820 C.3   1 <1>  -0.0800 
  7 C       -2.9440     2.9980    -0.8120 C.3   1 <1>  -0.0800 
  8 C       -4.2540     2.7550     1.3430 C.3   1 <1>  -0.0800 
  9 C       -2.7740     4.5140    -0.5650 C.3   1 <1>   0.4230 
 10 C       -4.0700     4.2620     1.6180 C.3   1 <1>  -0.1600 
 11 C       -3.0590     2.2250     0.5250 C.3   1 <1>  -0.1600 
 12 N       -1.5000     4.7710     0.1310 N.4   1 <1>  -0.8530 
 13 H       -7.3620     3.3610    -1.0010 H     1 <1>   0.4000 
 14 H       -6.0990     5.1880     0.0460 H     1 <1>   0.0800 
 15 H       -5.2190     5.3560    -1.4500 H     1 <1>   0.0800 
 16 H       -4.1970     3.2960    -2.5540 H     1 <1>   0.0800 
 17 H       -4.3900     1.7350    -1.8070 H     1 <1>   0.0800 
 18 H       -5.6900     1.5000     0.3320 H     1 <1>   0.0800 
 19 H       -6.3920     2.9020     1.0960 H     1 <1>   0.0800 
 20 H       -3.8440     6.0910     0.4690 H     1 <1>   0.0800 
 21 H       -2.1220     2.6190    -1.3940 H     1 <1>   0.0800 
 22 H       -4.3290     2.2180     2.2750 H     1 <1>   0.0800 
 23 H       -2.7720     5.0240    -1.5160 H     1 <1>   0.0800 
 24 H       -4.9190     4.6270     2.1740 H     1 <1>   0.0800 
 25 H       -3.2060     4.4220     2.2370 H     1 <1>   0.0800 
 26 H       -2.1540     2.3000     1.1010 H     1 <1>   0.0800 
 27 H       -3.2080     1.1770     0.3210 H     1 <1>   0.0800 
 28 H       -1.5120     4.2810     1.0300 H     1 <1>   0.4500 
 29 H       -1.3740     5.7730     0.3040 H     1 <1>   0.4500 
 30 H       -0.7090     4.4240    -0.4200 H     1 <1>   0.4500 
@<TRIPOS>BOND
  1   1   2  1   
  2   1  13  1   
  3   2   3  1   
  4   2   4  1   
  5   2   5  1   
  6   3   6  1   
  7   3  14  1   
  8   3  15  1   
  9   4   7  1   
 10   4  16  1   
 11   4  17  1   
 12   5   8  1   
 13   5  18  1   
 14   5  19  1   
 15   6   9  1   
 16   6  10  1   
 17   6  20  1   
 18   7   9  1   
 19   7  11  1   
 20   7  21  1   
 21   8  10  1   
 22   8  11  1   
 23   8  22  1   
 24   9  12  1   
 25   9  23  1   
 26  10  24  1   
 27  10  25  1   
 28  11  26  1   
 29  11  27  1   
 30  12  28  1   
 31  12  29  1   
 32  12  30  1   
@<TRIPOS>SUBSTRUCTURE
  1 ****   2 GROUP 4 **** **** 0

# MOE 2024.06 (io_trps.svl 2023.06)
