@<TRIPOS>MOLECULE
Pyrrolidine-1,2-dicarboxylic acid 2-[(2-methoxy-phenyl)-amide] 1-[(4-methoxy-phenyl)-amide]
50 52 1 0 0 
SMALL
USER_CHARGES


@<TRIPOS>ATOM
  1 O        5.4190    -1.9500    -0.6120 O.2   1 <1>  -0.5700 
  2 C        5.1470    -0.8820    -0.1050 C.2   1 <1>   0.6900 
  3 N        5.1400    -0.7510     1.2560 N.am  1 <1>  -0.6600 
  4 N        4.8290     0.1430    -0.9370 N.am  1 <1>  -0.5470 
  5 C        5.3780    -1.9180     2.1720 C.3   1 <1>   0.2810 
  6 C        5.4190     0.5280     1.9440 C.3   1 <1>   0.1400 
  7 C        3.8570     1.1390    -0.7860 C.ar  1 <1>   0.1170 
  8 C        4.1910    -2.9040     2.2820 C.2   1 <1>   0.5690 
  9 C        5.7560    -1.2620     3.5090 C.3   1 <1>  -0.1600 
 10 C        6.2570     0.1340     3.1510 C.3   1 <1>  -0.1600 
 11 C        4.0090     2.3490    -1.4510 C.ar  1 <1>  -0.1500 
 12 C        2.7250     0.9450    -0.0020 C.ar  1 <1>  -0.1500 
 13 O        3.9780    -3.4630     3.3350 O.2   1 <1>  -0.5700 
 14 N        3.4190    -3.1050     1.1720 N.am  1 <1>  -0.5470 
 15 C        3.0600     3.3490    -1.3320 C.ar  1 <1>  -0.1500 
 16 C        1.7740     1.9410     0.1200 C.ar  1 <1>  -0.1500 
 17 C        2.1550    -3.6850     0.9740 C.ar  1 <1>   0.1170 
 18 C        1.9320     3.1480    -0.5410 C.ar  1 <1>   0.0820 
 19 C        1.3860    -3.2530    -0.1120 C.ar  1 <1>   0.0820 
 20 C        1.6420    -4.6680     1.8120 C.ar  1 <1>  -0.1500 
 21 O        0.9520     4.0730    -0.3660 O.3   1 <1>  -0.3630 
 22 O        1.9220    -2.2810    -0.9100 O.3   1 <1>  -0.3620 
 23 C        0.1300    -3.8060    -0.3400 C.ar  1 <1>  -0.1500 
 24 C        0.3910    -5.2130     1.5830 C.ar  1 <1>  -0.1500 
 25 C        1.0360     5.3430    -0.9720 C.3   1 <1>   0.0400 
 26 C        1.1460    -1.6170    -1.8820 C.3   1 <1>   0.0400 
 27 C       -0.3650    -4.7830     0.5070 C.ar  1 <1>  -0.1500 
 28 H        5.0910    -0.0740    -1.8970 H     1 <1>   0.3700 
 29 H        6.2280    -2.4650     1.8030 H     1 <1>   0.0800 
 30 H        4.4880     0.9680     2.2600 H     1 <1>   0.0800 
 31 H        5.9460     1.2160     1.3040 H     1 <1>   0.0800 
 32 H        6.4900    -1.8430     4.0390 H     1 <1>   0.0800 
 33 H        4.8790    -1.1750     4.1270 H     1 <1>   0.0800 
 34 H        6.1430     0.8310     3.9620 H     1 <1>   0.0800 
 35 H        7.2930     0.0920     2.8630 H     1 <1>   0.0800 
 36 H        4.8790     2.5090    -2.0610 H     1 <1>   0.1500 
 37 H        2.5820     0.0100     0.5120 H     1 <1>   0.1500 
 38 H        3.7680    -2.6260     0.3320 H     1 <1>   0.3700 
 39 H        3.2130     4.2720    -1.8590 H     1 <1>   0.1500 
 40 H        0.9010     1.7870     0.7290 H     1 <1>   0.1500 
 41 H        2.2220    -5.0150     2.6480 H     1 <1>   0.1500 
 42 H       -0.4760    -3.4940    -1.1690 H     1 <1>   0.1500 
 43 H        0.0100    -5.9730     2.2430 H     1 <1>   0.1500 
 44 H        0.1650     5.9060    -0.6890 H     1 <1>   0.0800 
 45 H        1.0590     5.2210    -2.0410 H     1 <1>   0.0800 
 46 H        1.9220     5.8410    -0.6200 H     1 <1>   0.0800 
 47 H        1.7480    -0.8380    -2.3130 H     1 <1>   0.0800 
 48 H        0.2810    -1.1880    -1.4070 H     1 <1>   0.0800 
 49 H        0.8610    -2.3210    -2.6430 H     1 <1>   0.0800 
 50 H       -1.3370    -5.2100     0.3300 H     1 <1>   0.1500 
@<TRIPOS>BOND
  1   1   2  2   
  2   2   3  am  
  3   2   4  am  
  4   3   5  1   
  5   3   6  1   
  6   4   7  1   
  7   4  28  1   
  8   5   8  1   
  9   5   9  1   
 10   5  29  1   
 11   6  10  1   
 12   6  30  1   
 13   6  31  1   
 14   7  11  ar  
 15   7  12  ar  
 16   8  13  2   
 17   8  14  am  
 18   9  10  1   
 19   9  32  1   
 20   9  33  1   
 21  10  34  1   
 22  10  35  1   
 23  11  15  ar  
 24  11  36  1   
 25  12  16  ar  
 26  12  37  1   
 27  14  17  1   
 28  14  38  1   
 29  15  18  ar  
 30  15  39  1   
 31  16  18  ar  
 32  16  40  1   
 33  17  19  ar  
 34  17  20  ar  
 35  18  21  1   
 36  19  22  1   
 37  19  23  ar  
 38  20  24  ar  
 39  20  41  1   
 40  21  25  1   
 41  22  26  1   
 42  23  27  ar  
 43  23  42  1   
 44  24  27  ar  
 45  24  43  1   
 46  25  44  1   
 47  25  45  1   
 48  25  46  1   
 49  26  47  1   
 50  26  48  1   
 51  26  49  1   
 52  27  50  1   
@<TRIPOS>SUBSTRUCTURE
  1 ****  12 GROUP 4 **** **** 0

# MOE 2024.06 (io_trps.svl 2023.06)
