@<TRIPOS>MOLECULE
2-Cyclopropyl-5-ethyl-6-methyl-thieno[2,3-d]pyrimidine-4-thiol
30 32 1 0 0 
SMALL
USER_CHARGES


@<TRIPOS>ATOM
  1 S        0.0640    -0.1200     0.6680 S.3   1 <1>  -0.0800 
  2 C        1.6220     0.6350     0.4530 C.2   1 <1>   0.1660 
  3 C       -0.7690     1.3550     0.2010 C.2   1 <1>  -0.1400 
  4 N        2.7640    -0.0480     0.6840 N.2   1 <1>  -0.5760 
  5 C        1.5010     1.9400     0.0390 C.2   1 <1>  -0.0860 
  6 C        0.1100     2.3350    -0.0980 C.2   1 <1>  -0.1810 
  7 C       -2.2830     1.2680     0.2270 C.3   1 <1>  -0.0600 
  8 C        3.8500     0.6190     0.4840 C.2   1 <1>   0.5100 
  9 C        2.7320     2.6080    -0.1660 C.2   1 <1>   0.5260 
 10 C       -0.3190     3.7320    -0.5340 C.3   1 <1>   0.0210 
 11 N        3.8650     1.9130     0.0740 N.am  1 <1>  -0.4900 
 12 C        5.2040    -0.0340     0.7100 C.3   1 <1>  -0.1000 
 13 S        2.9420     4.1390    -0.6750 S.2   1 <1>  -0.3800 
 14 C       -0.2970     4.7000     0.6510 C.3   1 <1>  -0.2400 
 15 C        6.1880    -0.1790    -0.4150 C.3   1 <1>  -0.2000 
 16 C        5.5100    -1.3900     0.1450 C.3   1 <1>  -0.2000 
 17 H       -2.6110     0.9640     1.2040 H     1 <1>   0.0800 
 18 H       -2.6170     0.5410    -0.4920 H     1 <1>   0.0800 
 19 H       -2.7340     2.2150    -0.0030 H     1 <1>   0.0800 
 20 H       -1.3170     3.6990    -0.9310 H     1 <1>   0.0800 
 21 H        0.3080     4.0880    -1.3300 H     1 <1>   0.0800 
 22 H        4.7540     2.3840    -0.0760 H     1 <1>   0.3700 
 23 H        5.5860     0.1750     1.6930 H     1 <1>   0.1000 
 24 H        0.6900     4.7610     1.0730 H     1 <1>   0.0800 
 25 H       -0.9740     4.3600     1.4150 H     1 <1>   0.0800 
 26 H       -0.5970     5.6810     0.3320 H     1 <1>   0.0800 
 27 H        7.2360    -0.0390    -0.2130 H     1 <1>   0.1000 
 28 H        5.9130     0.1320    -1.4090 H     1 <1>   0.1000 
 29 H        4.7490    -1.8840    -0.4360 H     1 <1>   0.1000 
 30 H        6.0780    -2.0790     0.7470 H     1 <1>   0.1000 
@<TRIPOS>BOND
  1   1   2  1   
  2   1   3  1   
  3   2   4  1   
  4   2   5  2   
  5   3   6  2   
  6   3   7  1   
  7   4   8  2   
  8   5   6  1   
  9   5   9  1   
 10   6  10  1   
 11   7  17  1   
 12   7  18  1   
 13   7  19  1   
 14   8  11  1   
 15   8  12  1   
 16   9  11  am  
 17   9  13  2   
 18  10  14  1   
 19  10  20  1   
 20  10  21  1   
 21  11  22  1   
 22  12  15  1   
 23  12  16  1   
 24  12  23  1   
 25  14  24  1   
 26  14  25  1   
 27  14  26  1   
 28  15  16  1   
 29  15  27  1   
 30  15  28  1   
 31  16  29  1   
 32  16  30  1   
@<TRIPOS>SUBSTRUCTURE
  1 ****   5 GROUP 4 **** **** 0

# MOE 2024.06 (io_trps.svl 2023.06)
