@<TRIPOS>MOLECULE
NONAME
39 41 1 0 0 
SMALL
USER_CHARGES


@<TRIPOS>ATOM
  1 S       -0.3860    -0.4250    -0.2470 S.3   1 <1>  -0.3320 
  2 C        1.3630    -0.6620     0.0340 C.ar  1 <1>   0.7220 
  3 C       -1.2070    -1.3330     1.1590 C.3   1 <1>   0.1310 
  4 N        1.6910    -1.3970     1.1240 N.ar  1 <1>  -0.3100 
  5 N        2.1590    -0.1030    -0.8390 N.ar  1 <1>  -0.5670 
  6 C       -2.7250    -1.2360     1.0950 C.2   1 <1>   0.5690 
  7 N        2.9440    -1.6170     1.4010 N.ar  1 <1>  -0.2560 
  8 C        3.4400    -0.3370    -0.5420 C.ar  1 <1>   0.1050 
  9 O       -3.3640    -1.7700     1.9680 O.2   1 <1>  -0.5700 
 10 N       -3.3240    -0.5610     0.0770 N.am  1 <1>  -0.7300 
 11 C        3.8330    -1.0800     0.5580 C.ar  1 <1>   0.2560 
 12 N        4.5530     0.0860    -1.2230 N.pl3 1 <1>   0.0480 
 13 C       -4.7790    -0.3970    -0.1110 C.3   1 <1>   0.1400 
 14 C        5.2530    -1.1170     0.5530 C.ar  1 <1>   0.0000 
 15 C        5.6700    -0.3890    -0.5580 C.ar  1 <1>  -0.1520 
 16 C        4.5650     0.9030    -2.4510 C.3   1 <1>   0.0160 
 17 C       -5.1560    -0.8700    -1.5150 C.3   1 <1>  -0.1600 
 18 C        6.1980    -1.7040     1.3950 C.ar  1 <1>  -0.1500 
 19 C        7.0280    -0.2390    -0.8390 C.ar  1 <1>  -0.1500 
 20 C       -6.6610    -0.7210    -1.7670 C.3   1 <1>  -0.2400 
 21 C        7.5390    -1.5550     1.1150 C.ar  1 <1>  -0.1500 
 22 C        7.9530    -0.8230    -0.0010 C.ar  1 <1>  -0.1500 
 23 H       -0.8510    -0.8980     2.0740 H     1 <1>   0.0800 
 24 H       -0.9030    -2.3610     1.1000 H     1 <1>   0.0800 
 25 H       -2.7270    -0.1220    -0.6290 H     1 <1>   0.3700 
 26 H       -5.0380     0.6400     0.0150 H     1 <1>   0.0800 
 27 H       -5.3120    -0.9740     0.6270 H     1 <1>   0.0800 
 28 H        3.5570     1.1310    -2.7460 H     1 <1>   0.0800 
 29 H        5.0510     0.3550    -3.2370 H     1 <1>   0.0800 
 30 H        5.0970     1.8170    -2.2630 H     1 <1>   0.0800 
 31 H       -4.8830    -1.9060    -1.6230 H     1 <1>   0.0800 
 32 H       -4.6180    -0.2940    -2.2460 H     1 <1>   0.0800 
 33 H        5.8650    -2.2650     2.2510 H     1 <1>   0.1500 
 34 H        7.3480     0.3240    -1.6980 H     1 <1>   0.1500 
 35 H       -7.2210    -1.3060    -1.0580 H     1 <1>   0.0800 
 36 H       -6.9030    -1.0640    -2.7580 H     1 <1>   0.0800 
 37 H       -6.9590     0.3090    -1.6800 H     1 <1>   0.0800 
 38 H        8.2790    -2.0030     1.7560 H     1 <1>   0.1500 
 39 H        9.0060    -0.7210    -0.2000 H     1 <1>   0.1500 
@<TRIPOS>BOND
  1   1   2  1   
  2   1   3  1   
  3   2   4  ar  
  4   2   5  ar  
  5   3   6  1   
  6   3  23  1   
  7   3  24  1   
  8   4   7  ar  
  9   5   8  ar  
 10   6   9  2   
 11   6  10  am  
 12   7  11  ar  
 13   8  11  ar  
 14   8  12  1   
 15  10  13  1   
 16  10  25  1   
 17  11  14  1   
 18  12  15  1   
 19  12  16  1   
 20  13  17  1   
 21  13  26  1   
 22  13  27  1   
 23  14  15  ar  
 24  14  18  ar  
 25  15  19  ar  
 26  16  28  1   
 27  16  29  1   
 28  16  30  1   
 29  17  20  1   
 30  17  31  1   
 31  17  32  1   
 32  18  21  ar  
 33  18  33  1   
 34  19  22  ar  
 35  19  34  1   
 36  20  35  1   
 37  20  36  1   
 38  20  37  1   
 39  21  22  ar  
 40  21  38  1   
 41  22  39  1   
@<TRIPOS>SUBSTRUCTURE
  1 ****   2 GROUP 4 **** **** 0

# MOE 2024.06 (io_trps.svl 2023.06)
