@<TRIPOS>MOLECULE
9456
54 55 1 0 0 
SMALL
USER_CHARGES


@<TRIPOS>ATOM
  1 O       -0.4010    -0.1630     2.0030 O.2   1 <1>  -0.5700 
  2 C       -0.0180    -1.2420     1.6070 C.2   1 <1>   0.6160 
  3 N        1.3320    -1.3540     1.4570 N.am  1 <1>  -0.7300 
  4 C       -0.9760    -2.2780     1.3070 C.2   1 <1>   0.0790 
  5 C        2.1070    -2.3030     0.6190 C.3   1 <1>   0.1400 
  6 C       -0.5790    -3.5860     1.7220 C.1   1 <1>   0.4920 
  7 C       -2.1600    -2.0130     0.6920 C.2   1 <1>  -0.1780 
  8 C        3.0210    -3.1570     1.4990 C.3   1 <1>  -0.0160 
  9 N       -0.2490    -4.6290     2.0470 N.1   1 <1>  -0.5570 
 10 C       -3.2400    -2.8920     0.3250 C.ar  1 <1>   0.0280 
 11 C        3.7230    -4.1950     0.6420 C.ar  1 <1>  -0.1430 
 12 C       -3.9330    -2.6630    -0.8610 C.ar  1 <1>  -0.1500 
 13 C       -3.6530    -3.9710     1.1060 C.ar  1 <1>  -0.1500 
 14 C        4.9510    -3.9190     0.0610 C.ar  1 <1>  -0.1500 
 15 C        3.1250    -5.4240     0.4250 C.ar  1 <1>  -0.1500 
 16 C       -4.9750    -3.4780    -1.2600 C.ar  1 <1>  -0.1500 
 17 C       -4.6930    -4.7900     0.7090 C.ar  1 <1>  -0.1500 
 18 C        5.5930    -4.8590    -0.7430 C.ar  1 <1>   0.0830 
 19 C        3.7520    -6.3690    -0.3650 C.ar  1 <1>  -0.1500 
 20 C       -5.3660    -4.5560    -0.4800 C.ar  1 <1>  -0.1430 
 21 O        6.7860    -4.5830    -1.3480 O.3   1 <1>  -0.3630 
 22 C        4.9820    -6.1080    -0.9460 C.ar  1 <1>   0.0830 
 23 C       -6.5120    -5.4730    -0.9050 C.3   1 <1>   0.0630 
 24 C        7.3820    -3.3060    -1.2920 C.3   1 <1>   0.0400 
 25 O        5.4960    -7.1240    -1.6920 O.3   1 <1>  -0.3630 
 26 C       -6.1890    -6.1740    -2.2280 C.3   1 <1>  -0.2400 
 27 C       -7.8270    -4.6930    -1.0090 C.3   1 <1>  -0.2400 
 28 C        6.8810    -7.3910    -1.6770 C.3   1 <1>   0.0400 
 29 H        1.8480    -0.5260     1.7670 H     1 <1>   0.3700 
 30 H        1.4440    -2.9400     0.0580 H     1 <1>   0.0800 
 31 H        2.7020    -1.7490    -0.0870 H     1 <1>   0.0800 
 32 H       -2.3490    -0.9900     0.4100 H     1 <1>   0.1500 
 33 H        3.7470    -2.5320     1.9880 H     1 <1>   0.0800 
 34 H        2.4410    -3.6540     2.2570 H     1 <1>   0.0800 
 35 H       -3.6500    -1.8340    -1.4860 H     1 <1>   0.1500 
 36 H       -3.1710    -4.1780     2.0430 H     1 <1>   0.1500 
 37 H        5.3940    -2.9600     0.2440 H     1 <1>   0.1500 
 38 H        2.1700    -5.6550     0.8680 H     1 <1>   0.1500 
 39 H       -5.4820    -3.2710    -2.1850 H     1 <1>   0.1500 
 40 H       -4.9790    -5.6160     1.3370 H     1 <1>   0.1500 
 41 H        3.2880    -7.3230    -0.5340 H     1 <1>   0.1500 
 42 H       -6.6420    -6.2340    -0.1540 H     1 <1>   0.0800 
 43 H        8.2770    -3.3300    -1.8880 H     1 <1>   0.0800 
 44 H        7.6300    -3.0810    -0.2700 H     1 <1>   0.0800 
 45 H        6.6960    -2.5830    -1.6950 H     1 <1>   0.0800 
 46 H       -6.0980    -5.4620    -3.0280 H     1 <1>   0.0800 
 47 H       -6.9650    -6.8740    -2.4770 H     1 <1>   0.0800 
 48 H       -5.2600    -6.7100    -2.1390 H     1 <1>   0.0800 
 49 H       -7.7710    -3.9480    -1.7820 H     1 <1>   0.0800 
 50 H       -8.0350    -4.2020    -0.0750 H     1 <1>   0.0800 
 51 H       -8.6390    -5.3600    -1.2330 H     1 <1>   0.0800 
 52 H        7.0280    -8.4150    -1.9680 H     1 <1>   0.0800 
 53 H        7.2600    -7.2300    -0.6830 H     1 <1>   0.0800 
 54 H        7.3670    -6.7400    -2.3800 H     1 <1>   0.0800 
@<TRIPOS>BOND
  1   1   2  2   
  2   2   3  am  
  3   2   4  1   
  4   3   5  1   
  5   3  29  1   
  6   4   6  1   
  7   4   7  2   
  8   5   8  1   
  9   5  30  1   
 10   5  31  1   
 11   6   9  3   
 12   7  10  1   
 13   7  32  1   
 14   8  11  1   
 15   8  33  1   
 16   8  34  1   
 17  10  12  ar  
 18  10  13  ar  
 19  11  14  ar  
 20  11  15  ar  
 21  12  16  ar  
 22  12  35  1   
 23  13  17  ar  
 24  13  36  1   
 25  14  18  ar  
 26  14  37  1   
 27  15  19  ar  
 28  15  38  1   
 29  16  20  ar  
 30  16  39  1   
 31  17  20  ar  
 32  17  40  1   
 33  18  21  1   
 34  18  22  ar  
 35  19  22  ar  
 36  19  41  1   
 37  20  23  1   
 38  21  24  1   
 39  22  25  1   
 40  23  26  1   
 41  23  27  1   
 42  23  42  1   
 43  24  43  1   
 44  24  44  1   
 45  24  45  1   
 46  25  28  1   
 47  26  46  1   
 48  26  47  1   
 49  26  48  1   
 50  27  49  1   
 51  27  50  1   
 52  27  51  1   
 53  28  52  1   
 54  28  53  1   
 55  28  54  1   
@<TRIPOS>SUBSTRUCTURE
  1 ****   6 GROUP 4 **** **** 0

# MOE 2024.06 (io_trps.svl 2023.06)
