@<TRIPOS>MOLECULE
4-(1-Ethyl-1H-benzoimidazol-2-yl)-piperazine-1-carboxylic acid (3-fluoro-phenyl)-amide
50 53 1 0 0 
SMALL
USER_CHARGES


@<TRIPOS>ATOM
  1 F       -0.5500     0.8960    -0.5520 F     1 <1>  -0.1970 
  2 C       -1.5400     1.5100     0.0400 C.ar  1 <1>   0.1830 
  3 C       -2.7510     1.5980    -0.6150 C.ar  1 <1>  -0.1570 
  4 C       -1.3320     2.0440     1.2970 C.ar  1 <1>  -0.1570 
  5 C       -3.8130     2.2470     0.0030 C.ar  1 <1>   0.1100 
  6 C       -2.3880     2.6900     1.9170 C.ar  1 <1>  -0.1570 
  7 N       -5.0420     2.3120    -0.6670 N.am  1 <1>  -0.5520 
  8 C       -3.6120     2.7870     1.2740 C.ar  1 <1>  -0.1570 
  9 C       -6.1050     3.1530    -0.5260 C.2   1 <1>   0.6860 
 10 O       -6.0620     4.1470     0.1730 O.2   1 <1>  -0.5740 
 11 N       -7.2610     2.8430    -1.1890 N.am  1 <1>  -0.6640 
 12 C       -7.9040     1.5220    -0.9760 C.3   1 <1>   0.1330 
 13 C       -8.2400     3.9260    -1.4730 C.3   1 <1>   0.1330 
 14 C       -8.9060     1.6180     0.1890 C.3   1 <1>   0.1600 
 15 C       -9.2430     4.0510    -0.3150 C.3   1 <1>   0.1600 
 16 N       -9.8980     2.7360     0.0010 N.pl3 1 <1>  -0.5960 
 17 C      -11.2320     2.5570     0.1190 C.cat 1 <1>   1.0690 
 18 N      -11.8140     1.3850    -0.1200 N.pl3 1 <1>  -0.7040 
 19 N      -12.1700     3.4550     0.4820 N.pl3 1 <1>  -0.7670 
 20 C      -13.1720     1.5000     0.0740 C.ar  1 <1>   0.3030 
 21 C      -13.4040     2.8060     0.4590 C.ar  1 <1>   0.3030 
 22 C      -12.0150     4.8000     1.0860 C.3   1 <1>   0.3480 
 23 C      -14.2100     0.5840    -0.0480 C.ar  1 <1>  -0.1170 
 24 C      -14.6990     3.2290     0.7470 C.ar  1 <1>  -0.1170 
 25 C      -12.4560     5.8680     0.0870 C.3   1 <1>  -0.2470 
 26 C      -15.4940     1.0070     0.2330 C.ar  1 <1>  -0.1570 
 27 C      -15.7370     2.3230     0.6300 C.ar  1 <1>  -0.1570 
 28 H       -2.8570     1.1680    -1.5920 H     1 <1>   0.1430 
 29 H       -0.3730     1.9550     1.7730 H     1 <1>   0.1430 
 30 H       -2.2590     3.1180     2.8960 H     1 <1>   0.1430 
 31 H       -5.1180     1.7290    -1.4950 H     1 <1>   0.3640 
 32 H       -4.4200     3.2900     1.7740 H     1 <1>   0.1430 
 33 H       -7.1600     0.7790    -0.7440 H     1 <1>   0.0720 
 34 H       -8.4070     1.2190    -1.8780 H     1 <1>   0.0720 
 35 H       -8.7570     3.7110    -2.3910 H     1 <1>   0.0720 
 36 H       -7.7190     4.8610    -1.6010 H     1 <1>   0.0720 
 37 H       -8.3500     1.8030     1.0930 H     1 <1>   0.0720 
 38 H       -9.4000     0.6710     0.3090 H     1 <1>   0.0720 
 39 H       -9.9730     4.7810    -0.6020 H     1 <1>   0.0720 
 40 H       -8.7250     4.4130     0.5570 H     1 <1>   0.0720 
 41 H      -11.3370     0.5530    -0.4510 H     1 <1>   0.4450 
 42 H      -10.9960     4.9670     1.3890 H     1 <1>   0.0720 
 43 H      -12.6240     4.8650     1.9720 H     1 <1>   0.0720 
 44 H      -14.0150    -0.4290    -0.3520 H     1 <1>   0.1430 
 45 H      -14.8920     4.2400     1.0540 H     1 <1>   0.1430 
 46 H      -12.3000     6.8420     0.5130 H     1 <1>   0.0720 
 47 H      -11.8960     5.8060    -0.8270 H     1 <1>   0.0720 
 48 H      -13.5020     5.7700    -0.1400 H     1 <1>   0.0720 
 49 H      -16.3220     0.3200     0.1490 H     1 <1>   0.1430 
 50 H      -16.7490     2.6290     0.8460 H     1 <1>   0.1430 
@<TRIPOS>BOND
  1   1   2  1   
  2   2   3  ar  
  3   2   4  ar  
  4   3   5  ar  
  5   3  28  1   
  6   4   6  ar  
  7   4  29  1   
  8   5   7  1   
  9   5   8  ar  
 10   6   8  ar  
 11   6  30  1   
 12   7   9  am  
 13   7  31  1   
 14   8  32  1   
 15   9  10  2   
 16   9  11  am  
 17  11  12  1   
 18  11  13  1   
 19  12  14  1   
 20  12  33  1   
 21  12  34  1   
 22  13  15  1   
 23  13  35  1   
 24  13  36  1   
 25  14  16  1   
 26  14  37  1   
 27  14  38  1   
 28  15  16  1   
 29  15  39  1   
 30  15  40  1   
 31  16  17  ar  
 32  17  18  ar  
 33  17  19  ar  
 34  18  20  1   
 35  18  41  1   
 36  19  21  1   
 37  19  22  1   
 38  20  21  ar  
 39  20  23  ar  
 40  21  24  ar  
 41  22  25  1   
 42  22  42  1   
 43  22  43  1   
 44  23  26  ar  
 45  23  44  1   
 46  24  27  ar  
 47  24  45  1   
 48  25  46  1   
 49  25  47  1   
 50  25  48  1   
 51  26  27  ar  
 52  26  49  1   
 53  27  50  1   
@<TRIPOS>SUBSTRUCTURE
  1 ****  14 GROUP 4 **** **** 0

# MOE 2024.06 (io_trps.svl 2023.06)
