@<TRIPOS>MOLECULE
[2-(3-Methyl-2,4-dioxo-3,4-dihydro-2H-thieno[3,2-d]pyrimidin-1-yl)-acetylamino]-
34 35 1 0 0 
SMALL
USER_CHARGES


@<TRIPOS>ATOM
  1 S        1.1670     0.0700     1.6400 S.3   1 <1>  -0.0800 
  2 C        2.2870    -0.8460     0.6220 C.2   1 <1>  -0.0450 
  3 C        0.1520    -1.3450     1.8670 C.2   1 <1>  -0.1100 
  4 C        3.4780    -0.3470     0.0340 C.2   1 <1>   0.7150 
  5 C        1.8560    -2.1220     0.4840 C.2   1 <1>   0.0630 
  6 C        0.6500    -2.4060     1.2030 C.2   1 <1>  -0.1500 
  7 O        3.8460     0.8090     0.1590 O.2   1 <1>  -0.5700 
  8 N        4.2370    -1.2470    -0.7000 N.am  1 <1>  -0.4200 
  9 N        2.6160    -2.9890    -0.3010 N.am  1 <1>  -0.4230 
 10 C        3.8380    -2.5710    -0.8170 C.2   1 <1>   0.6900 
 11 C        5.5220    -0.7970    -1.3140 C.3   1 <1>   0.0600 
 12 C        2.1570    -4.3920    -0.5510 C.3   1 <1>   0.2010 
 13 O        4.5710    -3.3840    -1.3550 O.2   1 <1>  -0.5700 
 14 C        2.7310    -5.3720     0.4640 C.2   1 <1>   0.5690 
 15 O        1.9780    -5.9730     1.1900 O.2   1 <1>  -0.5700 
 16 N        4.0760    -5.5460     0.5220 N.am  1 <1>  -0.7300 
 17 C        4.7860    -6.5110     1.4200 C.3   1 <1>   0.2010 
 18 C        5.8330    -7.3620     0.7050 C.2   1 <1>   0.6590 
 19 O        7.0030    -7.2880     0.9860 O.2   1 <1>  -0.5700 
 20 O        5.3870    -8.1820    -0.2420 O.3   1 <1>  -0.4300 
 21 C        6.2610    -9.0090    -0.9820 C.3   1 <1>   0.0400 
 22 H       -0.7200    -1.2320     2.4870 H     1 <1>   0.1500 
 23 H        0.2070    -3.3860     1.2050 H     1 <1>   0.1500 
 24 H        5.4490     0.2300    -1.6270 H     1 <1>   0.0800 
 25 H        5.7590    -1.3960    -2.1760 H     1 <1>   0.0800 
 26 H        6.3150    -0.8890    -0.5930 H     1 <1>   0.0800 
 27 H        2.4620    -4.7010    -1.5350 H     1 <1>   0.0800 
 28 H        1.0850    -4.4400    -0.5220 H     1 <1>   0.0800 
 29 H        4.6690    -4.9930    -0.1160 H     1 <1>   0.3700 
 30 H        4.0710    -7.1720     1.8770 H     1 <1>   0.0800 
 31 H        5.2740    -5.9600     2.2030 H     1 <1>   0.0800 
 32 H        5.6790    -9.5760    -1.6860 H     1 <1>   0.0800 
 33 H        6.7710    -9.6710    -0.3030 H     1 <1>   0.0800 
 34 H        6.9710    -8.3900    -1.5010 H     1 <1>   0.0800 
@<TRIPOS>BOND
  1   1   2  1   
  2   1   3  1   
  3   2   4  1   
  4   2   5  2   
  5   3   6  2   
  6   3  22  1   
  7   4   7  2   
  8   4   8  am  
  9   5   6  1   
 10   5   9  1   
 11   6  23  1   
 12   8  10  am  
 13   8  11  1   
 14   9  10  am  
 15   9  12  1   
 16  10  13  2   
 17  11  24  1   
 18  11  25  1   
 19  11  26  1   
 20  12  14  1   
 21  12  27  1   
 22  12  28  1   
 23  14  15  2   
 24  14  16  am  
 25  16  17  1   
 26  16  29  1   
 27  17  18  1   
 28  17  30  1   
 29  17  31  1   
 30  18  19  2   
 31  18  20  1   
 32  20  21  1   
 33  21  32  1   
 34  21  33  1   
 35  21  34  1   
@<TRIPOS>SUBSTRUCTURE
  1 ****   9 GROUP 4 **** **** 0

# MOE 2024.06 (io_trps.svl 2023.06)
