@<TRIPOS>MOLECULE
NONAME
27 28 1 0 0 
SMALL
USER_CHARGES


@<TRIPOS>ATOM
  1 O        0.8790     0.7990     1.9910 O.2   1 <1>  -0.5700 
  2 C        1.5350     0.9450     1.0060 C.2   1 <1>   0.4480 
  3 C        1.1460     1.9380    -0.0630 C.3   1 <1>  -0.0380 
  4 C        2.7890     0.1290     0.7600 C.3   1 <1>  -0.0990 
  5 C        2.3530     2.7480    -0.4700 C.2   1 <1>   0.4480 
  6 C        3.9740     1.0420     0.4110 C.3   1 <1>   0.0630 
  7 O        2.3030     3.9340    -0.5750 O.2   1 <1>  -0.5700 
  8 C        3.6300     1.9810    -0.7550 C.3   1 <1>  -0.0990 
  9 C        5.2300     0.2190     0.1030 C.ar  1 <1>  -0.1440 
 10 C        6.3850     0.3290     0.8770 C.ar  1 <1>   0.0820 
 11 C        5.2420    -0.6640    -0.9700 C.ar  1 <1>  -0.1500 
 12 O        6.4340     1.1660     1.9270 O.3   1 <1>  -0.5330 
 13 C        7.5130    -0.4220     0.5860 C.ar  1 <1>  -0.1500 
 14 C        6.3680    -1.4150    -1.2630 C.ar  1 <1>  -0.1500 
 15 C        7.5050    -1.2950    -0.4850 C.ar  1 <1>  -0.1500 
 16 H        0.3830     2.5940     0.3150 H     1 <1>   0.0800 
 17 H        0.7580     1.4160    -0.9160 H     1 <1>   0.0800 
 18 H        2.5960    -0.5680    -0.0330 H     1 <1>   0.0800 
 19 H        3.0230    -0.4340     1.6470 H     1 <1>   0.0800 
 20 H        4.1480     1.6660     1.2710 H     1 <1>   0.0800 
 21 H        4.4360     2.6780    -0.9000 H     1 <1>   0.0800 
 22 H        3.5020     1.4280    -1.6670 H     1 <1>   0.0800 
 23 H        4.3740    -0.7810    -1.5940 H     1 <1>   0.1500 
 24 H        7.2920     1.1520     2.3860 H     1 <1>   0.4500 
 25 H        8.3990    -0.3320     1.1870 H     1 <1>   0.1500 
 26 H        6.3590    -2.0950    -2.0980 H     1 <1>   0.1500 
 27 H        8.3790    -1.8790    -0.7150 H     1 <1>   0.1500 
@<TRIPOS>BOND
  1   1   2  2   
  2   2   3  1   
  3   2   4  1   
  4   3   5  1   
  5   3  16  1   
  6   3  17  1   
  7   4   6  1   
  8   4  18  1   
  9   4  19  1   
 10   5   7  2   
 11   5   8  1   
 12   6   8  1   
 13   6   9  1   
 14   6  20  1   
 15   8  21  1   
 16   8  22  1   
 17   9  10  ar  
 18   9  11  ar  
 19  10  12  1   
 20  10  13  ar  
 21  11  14  ar  
 22  11  23  1   
 23  12  24  1   
 24  13  15  ar  
 25  13  25  1   
 26  14  15  ar  
 27  14  26  1   
 28  15  27  1   
@<TRIPOS>SUBSTRUCTURE
  1 ****   6 GROUP 4 **** **** 0

# MOE 2024.06 (io_trps.svl 2023.06)
