@<TRIPOS>MOLECULE
NONAME
51 53 1 0 0 
SMALL
USER_CHARGES


@<TRIPOS>ATOM
  1 O       -0.2660     0.3440    -0.0510 O.3   1 <1>  -0.5320 
  2 C        0.1900    -0.8730     0.2790 C.ar  1 <1>   0.0830 
  3 C       -0.1570    -1.4140     1.5020 C.ar  1 <1>  -0.1500 
  4 C        0.9970    -1.5810    -0.5940 C.ar  1 <1>  -0.1500 
  5 C        0.3050    -2.6690     1.8550 C.ar  1 <1>  -0.1500 
  6 C        1.4550    -2.8370    -0.2360 C.ar  1 <1>  -0.1500 
  7 C        1.1140    -3.4010     0.9920 C.ar  1 <1>  -0.1430 
  8 C        1.5810    -4.7830     1.4680 C.3   1 <1>   0.5130 
  9 N        2.6520    -5.4010     0.6170 N.3   1 <1>  -0.8100 
 10 C        0.4160    -5.7290     1.7780 C.2   1 <1>   0.0070 
 11 C        3.9410    -4.6740     0.7910 C.3   1 <1>   0.1100 
 12 C        2.8730    -6.8390     0.9610 C.3   1 <1>   0.1100 
 13 N        0.3440    -6.2590     2.9440 N.2   1 <1>  -0.3380 
 14 N       -0.6080    -6.1570     1.0250 N.pl3 1 <1>   0.3140 
 15 C        5.0550    -5.2150    -0.1390 C.3   1 <1>   0.3430 
 16 C        4.1140    -7.4590     0.2720 C.3   1 <1>   0.3430 
 17 N       -0.7280    -7.0230     2.9410 N.2   1 <1>   0.0000 
 18 N       -1.3060    -6.9740     1.8030 N.2   1 <1>  -0.4180 
 19 C       -1.0640    -5.9170    -0.4090 C.3   1 <1>   0.2560 
 20 N        4.6730    -6.5280    -0.7610 N.4   1 <1>  -0.9590 
 21 C       -2.0730    -7.0000    -0.8580 C.3   1 <1>  -0.2400 
 22 C        0.1080    -5.9890    -1.4020 C.3   1 <1>  -0.2400 
 23 C       -1.7830    -4.5620    -0.5200 C.3   1 <1>  -0.2400 
 24 C        5.7740    -7.1350    -1.5660 C.3   1 <1>   0.2630 
 25 H        0.0360     0.6460    -0.9260 H     1 <1>   0.4500 
 26 H       -0.7850    -0.8510     2.1700 H     1 <1>   0.1500 
 27 H        1.2660    -1.1600    -1.5450 H     1 <1>   0.1500 
 28 H        0.0200    -3.0730     2.8130 H     1 <1>   0.1500 
 29 H        2.0770    -3.3680    -0.9320 H     1 <1>   0.1500 
 30 H        2.0360    -4.5990     2.4280 H     1 <1>   0.0800 
 31 H        4.2710    -4.7670     1.8130 H     1 <1>   0.0800 
 32 H        3.8170    -3.6220     0.5990 H     1 <1>   0.0800 
 33 H        2.0120    -7.4170     0.6700 H     1 <1>   0.0800 
 34 H        2.9810    -6.9540     2.0280 H     1 <1>   0.0800 
 35 H        5.9640    -5.3230     0.4310 H     1 <1>   0.0800 
 36 H        5.2420    -4.4910    -0.9140 H     1 <1>   0.0800 
 37 H        3.8330    -8.3950    -0.1810 H     1 <1>   0.0800 
 38 H        4.8630    -7.6680     1.0180 H     1 <1>   0.0800 
 39 H        3.8670    -6.3020    -1.3650 H     1 <1>   0.4500 
 40 H       -1.6380    -7.9810    -0.7790 H     1 <1>   0.0800 
 41 H       -2.3690    -6.8470    -1.8800 H     1 <1>   0.0800 
 42 H       -2.9640    -6.9670    -0.2550 H     1 <1>   0.0800 
 43 H        0.6220    -6.9280    -1.3070 H     1 <1>   0.0800 
 44 H        0.7960    -5.1880    -1.2510 H     1 <1>   0.0800 
 45 H       -0.2560    -5.9060    -2.4110 H     1 <1>   0.0800 
 46 H       -2.6010    -4.5170     0.1780 H     1 <1>   0.0800 
 47 H       -2.1810    -4.4280    -1.5100 H     1 <1>   0.0800 
 48 H       -1.1230    -3.7430    -0.3260 H     1 <1>   0.0800 
 49 H        6.6140    -7.3720    -0.9340 H     1 <1>   0.0800 
 50 H        6.1000    -6.4490    -2.3310 H     1 <1>   0.0800 
 51 H        5.4340    -8.0410    -2.0420 H     1 <1>   0.0800 
@<TRIPOS>BOND
  1   1   2  1   
  2   1  25  1   
  3   2   3  ar  
  4   2   4  ar  
  5   3   5  ar  
  6   3  26  1   
  7   4   6  ar  
  8   4  27  1   
  9   5   7  ar  
 10   5  28  1   
 11   6   7  ar  
 12   6  29  1   
 13   7   8  1   
 14   8   9  1   
 15   8  10  1   
 16   8  30  1   
 17   9  11  1   
 18   9  12  1   
 19  10  13  2   
 20  10  14  1   
 21  11  15  1   
 22  11  31  1   
 23  11  32  1   
 24  12  16  1   
 25  12  33  1   
 26  12  34  1   
 27  13  17  1   
 28  14  18  1   
 29  14  19  1   
 30  15  20  1   
 31  15  35  1   
 32  15  36  1   
 33  16  20  1   
 34  16  37  1   
 35  16  38  1   
 36  17  18  2   
 37  19  21  1   
 38  19  22  1   
 39  19  23  1   
 40  20  24  1   
 41  20  39  1   
 42  21  40  1   
 43  21  41  1   
 44  21  42  1   
 45  22  43  1   
 46  22  44  1   
 47  22  45  1   
 48  23  46  1   
 49  23  47  1   
 50  23  48  1   
 51  24  49  1   
 52  24  50  1   
 53  24  51  1   
@<TRIPOS>SUBSTRUCTURE
  1 ****   8 GROUP 4 **** **** 0

# MOE 2024.06 (io_trps.svl 2023.06)
