@<TRIPOS>MOLECULE
1-(5-Methyl-[1,2,4]triazolo[1,5-a]pyrimidin-7-yl)-piperidine-4-carboxylic acid (5-isopropyl-[1,3,4]thiadiazo
50 53 1 0 0 
SMALL
USER_CHARGES


@<TRIPOS>ATOM
  1 S       -0.3190     0.1720     0.9930 S.3   1 <1>  -0.0800 
  2 C       -1.7700     0.3740     0.0680 C.2   1 <1>   0.4420 
  3 C        0.4420     1.2960    -0.0830 C.2   1 <1>   0.1980 
  4 N       -1.6140     1.1960    -0.9040 N.2   1 <1>  -0.3380 
  5 N       -2.8680    -0.3500     0.4850 N.am  1 <1>  -0.4940 
  6 N       -0.3510     1.7170    -0.9830 N.2   1 <1>  -0.3380 
  7 C        1.9100     1.6330     0.1670 C.3   1 <1>   0.1000 
  8 C       -4.1250    -0.3940    -0.0500 C.2   1 <1>   0.5690 
  9 C        2.0460     2.6160     1.3370 C.3   1 <1>  -0.2400 
 10 C        2.5790     2.2180    -1.0850 C.3   1 <1>  -0.2400 
 11 O       -4.4560     0.2340    -1.0230 O.2   1 <1>  -0.5700 
 12 C       -5.1600    -1.2940     0.6250 C.3   1 <1>  -0.0190 
 13 C       -5.5000    -2.5000    -0.2730 C.3   1 <1>  -0.1600 
 14 C       -6.4400    -0.5070     0.9730 C.3   1 <1>  -0.1600 
 15 C       -6.6010    -3.3790     0.3240 C.3   1 <1>   0.2090 
 16 C       -7.5210    -1.4120     1.5630 C.3   1 <1>   0.2090 
 17 N       -7.7910    -2.5340     0.6220 N.pl3 1 <1>  -0.8380 
 18 C       -8.9830    -2.6770    -0.0340 C.2   1 <1>   0.4790 
 19 N       -9.5450    -3.9130    -0.2110 N.pl3 1 <1>  -0.3220 
 20 C       -9.6920    -1.6180    -0.5510 C.2   1 <1>  -0.1360 
 21 N       -9.1580    -5.1640     0.2180 N.2   1 <1>  -0.2600 
 22 C      -10.7220    -4.0110    -0.8480 C.cat 1 <1>   0.9620 
 23 C      -10.8970    -1.8370    -1.2070 C.2   1 <1>   0.3750 
 24 C      -10.0910    -5.9450    -0.1830 C.2   1 <1>   0.5030 
 25 N      -11.4320    -3.0220    -1.3680 N.2   1 <1>  -0.6120 
 26 N      -11.0710    -5.2820    -0.8480 N.pl3 1 <1>  -0.7000 
 27 C      -11.6650    -0.6670    -1.7840 C.3   1 <1>  -0.1790 
 28 H       -2.7020    -0.9280     1.3010 H     1 <1>   0.3700 
 29 H        2.4220     0.7210     0.4210 H     1 <1>   0.0800 
 30 H        1.5270     3.5320     1.1150 H     1 <1>   0.0800 
 31 H        3.0820     2.8400     1.5210 H     1 <1>   0.0800 
 32 H        1.6250     2.1940     2.2320 H     1 <1>   0.0800 
 33 H        2.1050     3.1420    -1.3680 H     1 <1>   0.0800 
 34 H        2.4920     1.5270    -1.9060 H     1 <1>   0.0800 
 35 H        3.6230     2.4050    -0.9040 H     1 <1>   0.0800 
 36 H       -4.7450    -1.6690     1.5430 H     1 <1>   0.0800 
 37 H       -4.6180    -3.0950    -0.4310 H     1 <1>   0.0800 
 38 H       -5.8270    -2.1480    -1.2370 H     1 <1>   0.0800 
 39 H       -6.8290    -0.0350     0.0870 H     1 <1>   0.0800 
 40 H       -6.2050     0.2720     1.6760 H     1 <1>   0.0800 
 41 H       -6.2580    -3.8460     1.2320 H     1 <1>   0.0800 
 42 H       -6.8490    -4.1530    -0.3820 H     1 <1>   0.0800 
 43 H       -8.4190    -0.8460     1.7480 H     1 <1>   0.0800 
 44 H       -7.1880    -1.8160     2.5050 H     1 <1>   0.0800 
 45 H       -9.3030    -0.6220    -0.4590 H     1 <1>   0.1500 
 46 H      -10.1130    -7.0130    -0.0180 H     1 <1>   0.1500 
 47 H      -11.9320    -5.6250    -1.2670 H     1 <1>   0.4500 
 48 H      -11.1500     0.2610    -1.6190 H     1 <1>   0.0800 
 49 H      -12.6360    -0.6070    -1.3250 H     1 <1>   0.0800 
 50 H      -11.7950    -0.8030    -2.8430 H     1 <1>   0.0800 
@<TRIPOS>BOND
  1   1   2  1   
  2   1   3  1   
  3   2   4  2   
  4   2   5  1   
  5   3   6  2   
  6   3   7  1   
  7   4   6  1   
  8   5   8  am  
  9   5  28  1   
 10   7   9  1   
 11   7  10  1   
 12   7  29  1   
 13   8  11  2   
 14   8  12  1   
 15   9  30  1   
 16   9  31  1   
 17   9  32  1   
 18  10  33  1   
 19  10  34  1   
 20  10  35  1   
 21  12  13  1   
 22  12  14  1   
 23  12  36  1   
 24  13  15  1   
 25  13  37  1   
 26  13  38  1   
 27  14  16  1   
 28  14  39  1   
 29  14  40  1   
 30  15  17  1   
 31  15  41  1   
 32  15  42  1   
 33  16  17  1   
 34  16  43  1   
 35  16  44  1   
 36  17  18  1   
 37  18  19  1   
 38  18  20  2   
 39  19  21  1   
 40  19  22  ar  
 41  20  23  1   
 42  20  45  1   
 43  21  24  2   
 44  22  25  1   
 45  22  26  ar  
 46  23  25  2   
 47  23  27  1   
 48  24  26  1   
 49  24  46  1   
 50  26  47  1   
 51  27  48  1   
 52  27  49  1   
 53  27  50  1   
@<TRIPOS>SUBSTRUCTURE
  1 ****  12 GROUP 4 **** **** 0

# MOE 2024.06 (io_trps.svl 2023.06)
