@<TRIPOS>MOLECULE
4-[2-(4-Benzothiazol-2-yl-piperazin-1-yl)-2-oxo-ethyl]-6-methyl-4H-benzo[1,4]oxazin-3-one
52 56 1 0 0 
SMALL
USER_CHARGES


@<TRIPOS>ATOM
  1 S       -0.7740    -1.0180     1.5690 S.3   1 <1>  -0.0800 
  2 C       -1.6810    -1.1320     0.0510 C.2   1 <1>   0.4620 
  3 C        0.2800     0.1740     0.8480 C.ar  1 <1>   0.0400 
  4 N       -1.2370    -0.3600    -0.8740 N.2   1 <1>  -0.5650 
  5 N       -2.7530    -1.9940    -0.0390 N.pl3 1 <1>  -0.8220 
  6 C       -0.1420     0.3760    -0.4510 C.ar  1 <1>   0.2270 
  7 C        1.3550     0.8300     1.4180 C.ar  1 <1>  -0.1500 
  8 C       -3.3160    -2.8000     1.0860 C.3   1 <1>   0.2090 
  9 C       -3.5470    -2.1040    -1.2990 C.3   1 <1>   0.2090 
 10 C        0.5570     1.2920    -1.2260 C.ar  1 <1>  -0.1500 
 11 C        2.0390     1.7400     0.6300 C.ar  1 <1>  -0.1500 
 12 C       -4.7790    -2.4080     1.3460 C.3   1 <1>   0.1400 
 13 C       -5.0280    -1.7550    -1.0670 C.3   1 <1>   0.1400 
 14 C        1.6410     1.9680    -0.6860 C.ar  1 <1>  -0.1500 
 15 N       -5.6120    -2.4940     0.1020 N.am  1 <1>  -0.6600 
 16 C       -6.7910    -3.2000     0.0870 C.2   1 <1>   0.5690 
 17 O       -7.0370    -4.0030     0.9590 O.2   1 <1>  -0.5700 
 18 C       -7.8470    -3.0260    -1.0130 C.3   1 <1>   0.2010 
 19 N       -8.5600    -1.6980    -0.9770 N.am  1 <1>  -0.4770 
 20 C       -9.6160    -1.4560    -0.0580 C.ar  1 <1>   0.1170 
 21 C       -8.2690    -0.7500    -1.9280 C.2   1 <1>   0.5690 
 22 C      -10.4320    -0.3280    -0.2320 C.ar  1 <1>   0.0830 
 23 C       -9.9070    -2.2980     1.0150 C.ar  1 <1>  -0.1500 
 24 O       -7.4940    -0.9420    -2.8380 O.2   1 <1>  -0.5700 
 25 C       -8.9310     0.6180    -1.8200 C.3   1 <1>   0.1810 
 26 O      -10.2270     0.5530    -1.2460 O.3   1 <1>  -0.3630 
 27 C      -11.4890    -0.0700     0.6220 C.ar  1 <1>  -0.1500 
 28 C      -10.9580    -2.0380     1.8790 C.ar  1 <1>  -0.1430 
 29 C      -11.7530    -0.9230     1.6780 C.ar  1 <1>  -0.1500 
 30 C      -11.2410    -2.9770     3.0380 C.3   1 <1>  -0.0970 
 31 H        1.6420     0.6360     2.4360 H     1 <1>   0.1500 
 32 H       -2.7540    -2.6640     1.9900 H     1 <1>   0.0800 
 33 H       -3.2730    -3.8440     0.8290 H     1 <1>   0.0800 
 34 H       -3.4760    -3.1120    -1.6680 H     1 <1>   0.0800 
 35 H       -3.1490    -1.4530    -2.0580 H     1 <1>   0.0800 
 36 H        0.2440     1.4610    -2.2400 H     1 <1>   0.1500 
 37 H        2.8830     2.2750     1.0330 H     1 <1>   0.1500 
 38 H       -4.8060    -1.3970     1.7120 H     1 <1>   0.0800 
 39 H       -5.1790    -3.0430     2.1160 H     1 <1>   0.0800 
 40 H       -5.5540    -1.9980    -1.9670 H     1 <1>   0.0800 
 41 H       -5.1180    -0.6960    -0.8980 H     1 <1>   0.0800 
 42 H        2.1820     2.6780    -1.2890 H     1 <1>   0.1500 
 43 H       -8.5770    -3.8060    -0.9070 H     1 <1>   0.0800 
 44 H       -7.3800    -3.1770    -1.9680 H     1 <1>   0.0800 
 45 H       -9.3190    -3.1740     1.1970 H     1 <1>   0.1500 
 46 H       -9.0250     1.0570    -2.7950 H     1 <1>   0.0800 
 47 H       -8.3300     1.2550    -1.1990 H     1 <1>   0.0800 
 48 H      -12.1020     0.7970     0.4590 H     1 <1>   0.1500 
 49 H      -12.5760    -0.7140     2.3390 H     1 <1>   0.1500 
 50 H      -11.6580    -2.4360     3.8680 H     1 <1>   0.0800 
 51 H      -10.3350    -3.4540     3.3670 H     1 <1>   0.0800 
 52 H      -11.9400    -3.7350     2.7310 H     1 <1>   0.0800 
@<TRIPOS>BOND
  1   1   2  1   
  2   1   3  1   
  3   2   4  2   
  4   2   5  1   
  5   3   6  ar  
  6   3   7  ar  
  7   4   6  1   
  8   5   8  1   
  9   5   9  1   
 10   6  10  ar  
 11   7  11  ar  
 12   7  31  1   
 13   8  12  1   
 14   8  32  1   
 15   8  33  1   
 16   9  13  1   
 17   9  34  1   
 18   9  35  1   
 19  10  14  ar  
 20  10  36  1   
 21  11  14  ar  
 22  11  37  1   
 23  12  15  1   
 24  12  38  1   
 25  12  39  1   
 26  13  15  1   
 27  13  40  1   
 28  13  41  1   
 29  14  42  1   
 30  15  16  am  
 31  16  17  2   
 32  16  18  1   
 33  18  19  1   
 34  18  43  1   
 35  18  44  1   
 36  19  20  1   
 37  19  21  am  
 38  20  22  ar  
 39  20  23  ar  
 40  21  24  2   
 41  21  25  1   
 42  22  26  1   
 43  22  27  ar  
 44  23  28  ar  
 45  23  45  1   
 46  25  26  1   
 47  25  46  1   
 48  25  47  1   
 49  27  29  ar  
 50  27  48  1   
 51  28  29  ar  
 52  28  30  1   
 53  29  49  1   
 54  30  50  1   
 55  30  51  1   
 56  30  52  1   
@<TRIPOS>SUBSTRUCTURE
  1 ****  13 GROUP 4 **** **** 0

# MOE 2024.06 (io_trps.svl 2023.06)
