@<TRIPOS>MOLECULE
NONAME
40 42 1 0 0 
SMALL
USER_CHARGES


@<TRIPOS>ATOM
  1 S        0.5550    -0.5340    -1.4230 S.o2  1 <1>   1.4470 
  2 O        0.0420     0.8110    -1.5330 O.2   1 <1>  -0.6500 
  3 O        1.1990    -1.1220    -2.5770 O.2   1 <1>  -0.6500 
  4 N        1.6920    -0.5610    -0.1700 N.am  1 <1>  -0.8490 
  5 C       -0.7520    -1.6510    -0.7990 C.ar  1 <1>  -0.0090 
  6 C        2.5120    -1.7920    -0.1560 C.3   1 <1>   0.1960 
  7 C        2.5670     0.6310    -0.1960 C.3   1 <1>   0.1960 
  8 C       -1.6830    -1.3230     0.2040 C.ar  1 <1>  -0.1440 
  9 C       -0.8060    -2.9310    -1.3480 C.ar  1 <1>  -0.1500 
 10 C        3.4780    -1.8210     1.0420 C.3   1 <1>   0.2090 
 11 C        3.5630     0.6550     0.9800 C.3   1 <1>   0.2090 
 12 C       -2.6180    -2.2830     0.5980 C.ar  1 <1>  -0.1500 
 13 C       -1.7350     0.0660     0.8830 C.3   1 <1>   1.1640 
 14 C       -1.7340    -3.8700    -0.9430 C.ar  1 <1>  -0.1500 
 15 N        4.3570    -0.6130     1.0270 N.pl3 1 <1>  -0.8380 
 16 C       -2.6440    -3.5430     0.0360 C.ar  1 <1>  -0.1500 
 17 F       -2.2620     0.9900     0.0950 F     1 <1>  -0.3400 
 18 F       -2.4890     0.0660     1.9770 F     1 <1>  -0.3400 
 19 F       -0.5580     0.5170     1.2850 F     1 <1>  -0.3400 
 20 C        5.6680    -0.6570     0.6040 C.ar  1 <1>   0.7200 
 21 N        6.3880     0.4530     0.7590 N.ar  1 <1>  -0.6200 
 22 N        6.0990    -1.7990     0.0710 N.ar  1 <1>  -0.6200 
 23 C        7.6340     0.4000     0.3570 C.ar  1 <1>   0.1600 
 24 C        7.3490    -1.8230    -0.3240 C.ar  1 <1>   0.1600 
 25 C        8.1740    -0.7320    -0.2000 C.ar  1 <1>  -0.1500 
 26 H        3.0910    -1.8630    -1.0630 H     1 <1>   0.0800 
 27 H        1.8700    -2.6530    -0.1020 H     1 <1>   0.0800 
 28 H        1.9650     1.5220    -0.1420 H     1 <1>   0.0800 
 29 H        3.1170     0.6590    -1.1220 H     1 <1>   0.0800 
 30 H       -0.1060    -3.2090    -2.1190 H     1 <1>   0.1500 
 31 H        4.0580    -2.7270     1.0190 H     1 <1>   0.0800 
 32 H        2.9080    -1.8290     1.9540 H     1 <1>   0.0800 
 33 H        3.0190     0.7630     1.9010 H     1 <1>   0.0800 
 34 H        4.2020     1.5140     0.8790 H     1 <1>   0.0800 
 35 H       -3.3530    -2.0650     1.3560 H     1 <1>   0.1500 
 36 H       -1.7470    -4.8500    -1.3910 H     1 <1>   0.1500 
 37 H       -3.3750    -4.2660     0.3590 H     1 <1>   0.1500 
 38 H        8.2390     1.2830     0.4760 H     1 <1>   0.1500 
 39 H        7.7240    -2.7340    -0.7560 H     1 <1>   0.1500 
 40 H        9.1970    -0.7640    -0.5250 H     1 <1>   0.1500 
@<TRIPOS>BOND
  1   1   2  2   
  2   1   3  2   
  3   1   4  am  
  4   1   5  1   
  5   4   6  1   
  6   4   7  1   
  7   5   8  ar  
  8   5   9  ar  
  9   6  10  1   
 10   6  26  1   
 11   6  27  1   
 12   7  11  1   
 13   7  28  1   
 14   7  29  1   
 15   8  12  ar  
 16   8  13  1   
 17   9  14  ar  
 18   9  30  1   
 19  10  15  1   
 20  10  31  1   
 21  10  32  1   
 22  11  15  1   
 23  11  33  1   
 24  11  34  1   
 25  12  16  ar  
 26  12  35  1   
 27  13  17  1   
 28  13  18  1   
 29  13  19  1   
 30  14  16  ar  
 31  14  36  1   
 32  15  20  1   
 33  16  37  1   
 34  20  21  ar  
 35  20  22  ar  
 36  21  23  ar  
 37  22  24  ar  
 38  23  25  ar  
 39  23  38  1   
 40  24  25  ar  
 41  24  39  1   
 42  25  40  1   
@<TRIPOS>SUBSTRUCTURE
  1 ****   4 GROUP 4 **** **** 0

# MOE 2024.06 (io_trps.svl 2023.06)
