@<TRIPOS>MOLECULE
13644
38 40 1 0 0 
SMALL
USER_CHARGES


@<TRIPOS>ATOM
  1 O        0.1450    -0.3110     0.9730 O.2   1 <1>  -0.5700 
  2 C        0.0910    -1.3750     0.3620 C.2   1 <1>   0.6300 
  3 N       -1.1340    -1.9340     0.2460 N.am  1 <1>  -0.4900 
  4 C        1.1870    -2.0690    -0.2400 C.2   1 <1>   0.3640 
  5 C       -1.2780    -3.0840    -0.4240 C.2   1 <1>   0.5600 
  6 N        0.9790    -3.1990    -0.8920 N.2   1 <1>  -0.4500 
  7 C        2.5330    -1.5450    -0.1630 C.ar  1 <1>   0.0860 
  8 N       -0.2560    -3.7020    -0.9830 N.2   1 <1>  -0.4500 
  9 N       -2.4940    -3.6340    -0.5470 N.pl3 1 <1>  -0.8190 
 10 C        3.0530    -0.9610     0.9970 C.ar  1 <1>  -0.1500 
 11 C        3.3860    -1.6180    -1.2680 C.ar  1 <1>  -0.1500 
 12 C       -3.7920    -3.2120    -0.0040 C.3   1 <1>   0.2890 
 13 C        4.3430    -0.4660     1.0460 C.ar  1 <1>  -0.1500 
 14 C        4.6780    -1.1260    -1.2270 C.ar  1 <1>  -0.1500 
 15 C       -4.4770    -4.4250     0.6320 C.3   1 <1>  -0.1600 
 16 C       -4.6380    -2.6300    -1.1410 C.3   1 <1>  -0.1600 
 17 C        5.1600    -0.5470    -0.0670 C.ar  1 <1>  -0.1500 
 18 C       -5.8880    -4.0700     1.1260 C.3   1 <1>  -0.1600 
 19 C       -6.0500    -2.2690    -0.6550 C.3   1 <1>  -0.1600 
 20 C       -6.7380    -3.4780    -0.0060 C.3   1 <1>  -0.1600 
 21 H       -1.9190    -1.4460     0.6510 H     1 <1>   0.3700 
 22 H       -2.5160    -4.4910    -1.1020 H     1 <1>   0.4000 
 23 H        2.4410    -0.8900     1.8800 H     1 <1>   0.1500 
 24 H        3.0260    -2.0720    -2.1760 H     1 <1>   0.1500 
 25 H       -3.6510    -2.4590     0.7520 H     1 <1>   0.0800 
 26 H        4.7140    -0.0180     1.9520 H     1 <1>   0.1500 
 27 H        5.3090    -1.1960    -2.0960 H     1 <1>   0.1500 
 28 H       -3.8860    -4.7740     1.4610 H     1 <1>   0.0800 
 29 H       -4.5500    -5.2170    -0.0920 H     1 <1>   0.0800 
 30 H       -4.7150    -3.3530    -1.9340 H     1 <1>   0.0800 
 31 H       -4.1570    -1.7500    -1.5300 H     1 <1>   0.0800 
 32 H        6.1650    -0.1620    -0.0310 H     1 <1>   0.1500 
 33 H       -5.8180    -3.3570     1.9300 H     1 <1>   0.0800 
 34 H       -6.3670    -4.9540     1.5120 H     1 <1>   0.0800 
 35 H       -6.6390    -1.9230    -1.4860 H     1 <1>   0.0800 
 36 H       -5.9890    -1.4670     0.0620 H     1 <1>   0.0800 
 37 H       -7.6980    -3.1810     0.3820 H     1 <1>   0.0800 
 38 H       -6.9090    -4.2330    -0.7550 H     1 <1>   0.0800 
@<TRIPOS>BOND
  1   1   2  2   
  2   2   3  am  
  3   2   4  1   
  4   3   5  1   
  5   3  21  1   
  6   4   6  2   
  7   4   7  1   
  8   5   8  2   
  9   5   9  1   
 10   6   8  1   
 11   7  10  ar  
 12   7  11  ar  
 13   9  12  1   
 14   9  22  1   
 15  10  13  ar  
 16  10  23  1   
 17  11  14  ar  
 18  11  24  1   
 19  12  15  1   
 20  12  16  1   
 21  12  25  1   
 22  13  17  ar  
 23  13  26  1   
 24  14  17  ar  
 25  14  27  1   
 26  15  18  1   
 27  15  28  1   
 28  15  29  1   
 29  16  19  1   
 30  16  30  1   
 31  16  31  1   
 32  17  32  1   
 33  18  20  1   
 34  18  33  1   
 35  18  34  1   
 36  19  20  1   
 37  19  35  1   
 38  19  36  1   
 39  20  37  1   
 40  20  38  1   
@<TRIPOS>SUBSTRUCTURE
  1 ****   3 GROUP 4 **** **** 0

# MOE 2024.06 (io_trps.svl 2023.06)
