@<TRIPOS>MOLECULE
NONAME
39 40 1 0 0 
SMALL
USER_CHARGES


@<TRIPOS>ATOM
  1 CL      -2.0390    -0.7090    -2.3990 Cl    1 <1>  -0.1770 
  2 C       -2.7880     0.0490    -1.0140 C.ar  1 <1>   0.1770 
  3 C       -2.6130     1.4050    -0.7790 C.ar  1 <1>  -0.1440 
  4 C       -3.5530    -0.7360    -0.1740 C.ar  1 <1>  -0.1500 
  5 C       -3.2280     1.9620     0.3300 C.ar  1 <1>  -0.1500 
  6 C       -1.7680     2.2650    -1.7070 C.3   1 <1>  -0.0960 
  7 C       -4.1770    -0.1850     0.9370 C.ar  1 <1>  -0.0090 
  8 C       -3.9970     1.1750     1.1730 C.ar  1 <1>  -0.1500 
  9 S       -5.1920    -1.2120     2.0350 S.o2  1 <1>   1.4470 
 10 O       -4.3730    -2.2710     2.5830 O.2   1 <1>  -0.6500 
 11 O       -5.9650    -0.3750     2.9270 O.2   1 <1>  -0.6500 
 12 N       -6.2870    -1.9380     0.9670 N.am  1 <1>  -0.8490 
 13 C       -6.9670    -3.0810     1.5970 C.3   1 <1>   0.1960 
 14 C       -7.2940    -0.9890     0.4610 C.3   1 <1>   0.1960 
 15 C       -7.9420    -3.7680     0.6200 C.3   1 <1>   0.1100 
 16 C       -8.2620    -1.6680    -0.5260 C.3   1 <1>   0.1100 
 17 N       -8.9490    -2.8230     0.0950 N.3   1 <1>  -0.8100 
 18 C       -9.8490    -3.4990    -0.8860 C.3   1 <1>   0.1710 
 19 C      -11.0920    -2.6880    -1.2730 C.2   1 <1>   0.5690 
 20 O      -11.5640    -2.7950    -2.3760 O.2   1 <1>  -0.5700 
 21 N      -11.6480    -1.8580    -0.3700 N.am  1 <1>  -0.8000 
 22 H       -3.6650    -1.7850    -0.3880 H     1 <1>   0.1500 
 23 H       -3.1130     3.0100     0.5460 H     1 <1>   0.1500 
 24 H       -2.1760     2.2440    -2.7020 H     1 <1>   0.0800 
 25 H       -0.7600     1.8900    -1.7390 H     1 <1>   0.0800 
 26 H       -1.7410     3.2860    -1.3710 H     1 <1>   0.0800 
 27 H       -4.4660     1.6270     2.0320 H     1 <1>   0.1500 
 28 H       -7.5100    -2.7530     2.4680 H     1 <1>   0.0800 
 29 H       -6.2360    -3.8050     1.9150 H     1 <1>   0.0800 
 30 H       -7.8670    -0.5820     1.2790 H     1 <1>   0.0800 
 31 H       -6.8030    -0.1730    -0.0410 H     1 <1>   0.0800 
 32 H       -7.3760    -4.1930    -0.1920 H     1 <1>   0.0800 
 33 H       -8.4410    -4.5700     1.1370 H     1 <1>   0.0800 
 34 H       -7.7060    -1.9900    -1.3910 H     1 <1>   0.0800 
 35 H       -8.9900    -0.9450    -0.8490 H     1 <1>   0.0800 
 36 H      -10.1990    -4.4230    -0.4620 H     1 <1>   0.0800 
 37 H       -9.3020    -3.7350    -1.7810 H     1 <1>   0.0800 
 38 H      -12.4740    -1.3080    -0.6010 H     1 <1>   0.3700 
 39 H      -11.2160    -1.7250     0.5470 H     1 <1>   0.3700 
@<TRIPOS>BOND
  1   1   2  1   
  2   2   3  ar  
  3   2   4  ar  
  4   3   5  ar  
  5   3   6  1   
  6   4   7  ar  
  7   4  22  1   
  8   5   8  ar  
  9   5  23  1   
 10   6  24  1   
 11   6  25  1   
 12   6  26  1   
 13   7   8  ar  
 14   7   9  1   
 15   8  27  1   
 16   9  10  2   
 17   9  11  2   
 18   9  12  am  
 19  12  13  1   
 20  12  14  1   
 21  13  15  1   
 22  13  28  1   
 23  13  29  1   
 24  14  16  1   
 25  14  30  1   
 26  14  31  1   
 27  15  17  1   
 28  15  32  1   
 29  15  33  1   
 30  16  17  1   
 31  16  34  1   
 32  16  35  1   
 33  17  18  1   
 34  18  19  1   
 35  18  36  1   
 36  18  37  1   
 37  19  20  2   
 38  19  21  am  
 39  21  38  1   
 40  21  39  1   
@<TRIPOS>SUBSTRUCTURE
  1 ****  12 GROUP 4 **** **** 0

# MOE 2024.06 (io_trps.svl 2023.06)
