@<TRIPOS>MOLECULE
1-(8-Benzyl-8-aza-bicyclo[3.2.1]oct-3-yl)-3-o-tolyl-urea
54 57 1 0 0 
SMALL
USER_CHARGES


@<TRIPOS>ATOM
  1 O        0.0040     0.9260    -0.4780 O.2   1 <1>  -0.5700 
  2 C       -0.0590    -0.2170    -0.0730 C.2   1 <1>   0.6900 
  3 N        1.0350    -0.9130     0.3440 N.am  1 <1>  -0.5470 
  4 N       -1.2620    -0.8440    -0.0300 N.am  1 <1>  -0.7300 
  5 C        2.3710    -0.5170     0.5180 C.ar  1 <1>   0.1170 
  6 C       -2.5000    -0.2300    -0.5290 C.3   1 <1>   0.2200 
  7 C        3.3920    -1.4670     0.4240 C.ar  1 <1>  -0.1430 
  8 C        2.7110     0.8020     0.8080 C.ar  1 <1>  -0.1500 
  9 C       -3.0750     0.7150     0.5410 C.3   1 <1>  -0.1600 
 10 C       -3.5000    -1.3180    -0.9480 C.3   1 <1>  -0.1600 
 11 C        4.7100    -1.0860     0.6160 C.ar  1 <1>  -0.1500 
 12 C        3.0900    -2.9260     0.1050 C.3   1 <1>  -0.0970 
 13 C        4.0280     1.1750     0.9970 C.ar  1 <1>  -0.1500 
 14 C       -4.5260     1.1070     0.2330 C.3   1 <1>   0.4230 
 15 C       -4.9150    -0.7460    -1.1220 C.3   1 <1>   0.4230 
 16 C        5.0310     0.2290     0.9010 C.ar  1 <1>  -0.1500 
 17 N       -5.2880    -0.1530     0.1800 N.4   1 <1>  -0.9590 
 18 C       -4.6840     1.6770    -1.1820 C.3   1 <1>  -0.1600 
 19 C       -4.9430     0.4530    -2.0760 C.3   1 <1>  -0.1600 
 20 C       -6.7560     0.0330     0.3380 C.3   1 <1>   0.4860 
 21 C       -7.4010    -1.3370     0.3700 C.ar  1 <1>  -0.1430 
 22 C       -7.2970    -2.1340     1.5020 C.ar  1 <1>  -0.1500 
 23 C       -8.0920    -1.8100    -0.7370 C.ar  1 <1>  -0.1500 
 24 C       -7.8660    -3.3950     1.5200 C.ar  1 <1>  -0.1500 
 25 C       -8.6590    -3.0720    -0.7170 C.ar  1 <1>  -0.1500 
 26 C       -8.5440    -3.8650     0.4100 C.ar  1 <1>  -0.1500 
 27 H        0.8930    -1.9120     0.4180 H     1 <1>   0.3700 
 28 H       -1.3330    -1.7410     0.4450 H     1 <1>   0.3700 
 29 H       -2.2530     0.3570    -1.4010 H     1 <1>   0.0800 
 30 H        1.9420     1.5480     0.8910 H     1 <1>   0.1500 
 31 H       -2.4710     1.6050     0.5770 H     1 <1>   0.0800 
 32 H       -3.0320     0.2540     1.5110 H     1 <1>   0.0800 
 33 H       -3.5340    -2.1040    -0.2140 H     1 <1>   0.0800 
 34 H       -3.1770    -1.7500    -1.8790 H     1 <1>   0.0800 
 35 H        5.5030    -1.8100     0.5450 H     1 <1>   0.1500 
 36 H        2.5360    -2.9960    -0.8140 H     1 <1>   0.0800 
 37 H        2.5200    -3.3680     0.9020 H     1 <1>   0.0800 
 38 H        3.9990    -3.4900    -0.0110 H     1 <1>   0.0800 
 39 H        4.2700     2.2000     1.2170 H     1 <1>   0.1500 
 40 H       -4.9040     1.7810     0.9870 H     1 <1>   0.0800 
 41 H       -5.6000    -1.5230    -1.4260 H     1 <1>   0.0800 
 42 H        6.0580     0.5160     1.0480 H     1 <1>   0.1500 
 43 H       -4.9810    -0.7870     0.9240 H     1 <1>   0.4500 
 44 H       -3.8090     2.2270    -1.4870 H     1 <1>   0.0800 
 45 H       -5.5240     2.3490    -1.2130 H     1 <1>   0.0800 
 46 H       -5.9110     0.5260    -2.5400 H     1 <1>   0.0800 
 47 H       -4.2080     0.3570    -2.8580 H     1 <1>   0.0800 
 48 H       -7.1550     0.6110    -0.4800 H     1 <1>   0.0800 
 49 H       -6.9700     0.5490     1.2590 H     1 <1>   0.0800 
 50 H       -6.7820    -1.7880     2.3820 H     1 <1>   0.1500 
 51 H       -8.2010    -1.2090    -1.6240 H     1 <1>   0.1500 
 52 H       -7.7880    -4.0150     2.3980 H     1 <1>   0.1500 
 53 H       -9.1950    -3.4400    -1.5760 H     1 <1>   0.1500 
 54 H       -8.9870    -4.8470     0.4250 H     1 <1>   0.1500 
@<TRIPOS>BOND
  1   1   2  2   
  2   2   3  am  
  3   2   4  am  
  4   3   5  1   
  5   3  27  1   
  6   4   6  1   
  7   4  28  1   
  8   5   7  ar  
  9   5   8  ar  
 10   6   9  1   
 11   6  10  1   
 12   6  29  1   
 13   7  11  ar  
 14   7  12  1   
 15   8  13  ar  
 16   8  30  1   
 17   9  14  1   
 18   9  31  1   
 19   9  32  1   
 20  10  15  1   
 21  10  33  1   
 22  10  34  1   
 23  11  16  ar  
 24  11  35  1   
 25  12  36  1   
 26  12  37  1   
 27  12  38  1   
 28  13  16  ar  
 29  13  39  1   
 30  14  17  1   
 31  14  18  1   
 32  14  40  1   
 33  15  17  1   
 34  15  19  1   
 35  15  41  1   
 36  16  42  1   
 37  17  20  1   
 38  17  43  1   
 39  18  19  1   
 40  18  44  1   
 41  18  45  1   
 42  19  46  1   
 43  19  47  1   
 44  20  21  1   
 45  20  48  1   
 46  20  49  1   
 47  21  22  ar  
 48  21  23  ar  
 49  22  24  ar  
 50  22  50  1   
 51  23  25  ar  
 52  23  51  1   
 53  24  26  ar  
 54  24  52  1   
 55  25  26  ar  
 56  25  53  1   
 57  26  54  1   
@<TRIPOS>SUBSTRUCTURE
  1 ****   6 GROUP 4 **** **** 0

# MOE 2024.06 (io_trps.svl 2023.06)
