@<TRIPOS>MOLECULE
1-(5-Methyl-[1,2,4]triazolo[1,5-a]pyrimidin-7-yl)-piperidine-4-carboxylic acid (1,2,3,4-tetrahydro-naphthale
56 60 1 0 0 
SMALL
USER_CHARGES


@<TRIPOS>ATOM
  1 O       -0.4230    -1.2250     1.2520 O.2   1 <1>  -0.5700 
  2 C        0.1100    -2.2410     0.8760 C.2   1 <1>   0.5690 
  3 N        1.4540    -2.3420     0.7690 N.am  1 <1>  -0.7300 
  4 C       -0.7480    -3.4480     0.5100 C.3   1 <1>  -0.0190 
  5 C        2.4010    -1.2470     1.0250 C.3   1 <1>   0.3640 
  6 C       -1.7880    -3.0830    -0.5680 C.3   1 <1>  -0.1600 
  7 C       -1.4420    -4.0240     1.7590 C.3   1 <1>  -0.1600 
  8 C        3.5170    -1.3160    -0.0200 C.ar  1 <1>  -0.1440 
  9 C        2.9030    -1.3900     2.4670 C.3   1 <1>  -0.1600 
 10 C       -2.7150    -4.2580    -0.8800 C.3   1 <1>   0.2090 
 11 C       -2.3810    -5.1820     1.4160 C.3   1 <1>   0.2090 
 12 C        4.8630    -1.2750     0.3380 C.ar  1 <1>  -0.1440 
 13 C        3.1780    -1.3990    -1.3650 C.ar  1 <1>  -0.1500 
 14 C        4.1970    -0.6010     2.6880 C.3   1 <1>  -0.1600 
 15 N       -3.3520    -4.7290     0.3810 N.pl3 1 <1>  -0.8380 
 16 C        5.8380    -1.3430    -0.6460 C.ar  1 <1>  -0.1500 
 17 C        5.3060    -1.1580     1.7910 C.3   1 <1>  -0.0170 
 18 C        4.1550    -1.4630    -2.3410 C.ar  1 <1>  -0.1500 
 19 C       -4.6870    -4.5800     0.6360 C.2   1 <1>   0.4790 
 20 C        5.4880    -1.4380    -1.9800 C.ar  1 <1>  -0.1500 
 21 N       -5.3950    -5.5620     1.2760 N.pl3 1 <1>  -0.3220 
 22 C       -5.4040    -3.4620     0.2780 C.2   1 <1>  -0.1360 
 23 N       -5.0290    -6.8170     1.7120 N.2   1 <1>  -0.2600 
 24 C       -6.7050    -5.3830     1.5000 C.cat 1 <1>   0.9620 
 25 C       -6.7590    -3.3770     0.5730 C.2   1 <1>   0.3750 
 26 C       -6.1090    -7.3210     2.1840 C.2   1 <1>   0.5030 
 27 N       -7.4310    -4.3220     1.1830 N.2   1 <1>  -0.6120 
 28 N       -7.1640    -6.4740     2.0800 N.pl3 1 <1>  -0.7000 
 29 C       -7.5390    -2.1380     0.1870 C.3   1 <1>  -0.1790 
 30 H        1.9060    -3.1880     0.4240 H     1 <1>   0.3700 
 31 H       -0.1050    -4.2090     0.1050 H     1 <1>   0.0800 
 32 H        1.8990    -0.2990     0.9220 H     1 <1>   0.0800 
 33 H       -1.2810    -2.7800    -1.4670 H     1 <1>   0.0800 
 34 H       -2.3790    -2.2490    -0.2330 H     1 <1>   0.0800 
 35 H       -2.0110    -3.2490     2.2440 H     1 <1>   0.0800 
 36 H       -0.6990    -4.3640     2.4580 H     1 <1>   0.0800 
 37 H        3.0910    -2.4270     2.6860 H     1 <1>   0.0800 
 38 H        2.1400    -1.0340     3.1370 H     1 <1>   0.0800 
 39 H       -2.1470    -5.0670    -1.3110 H     1 <1>   0.0800 
 40 H       -3.4620    -3.9620    -1.5960 H     1 <1>   0.0800 
 41 H       -2.8920    -5.4910     2.3120 H     1 <1>   0.0800 
 42 H       -1.8200    -6.0200     1.0390 H     1 <1>   0.0800 
 43 H        2.1430    -1.4090    -1.6600 H     1 <1>   0.1500 
 44 H        4.4980    -0.6670     3.7190 H     1 <1>   0.0800 
 45 H        4.0320     0.4370     2.4530 H     1 <1>   0.0800 
 46 H        6.8790    -1.3190    -0.3760 H     1 <1>   0.1500 
 47 H        6.1670    -0.5160     1.8580 H     1 <1>   0.0800 
 48 H        5.5930    -2.1340     2.1400 H     1 <1>   0.0800 
 49 H        3.8780    -1.5300    -3.3780 H     1 <1>   0.1500 
 50 H        6.2530    -1.4900    -2.7360 H     1 <1>   0.1500 
 51 H       -4.9100    -2.6490    -0.2180 H     1 <1>   0.1500 
 52 H       -6.1890    -8.3080     2.6160 H     1 <1>   0.1500 
 53 H       -8.1370    -6.5960     2.3510 H     1 <1>   0.4500 
 54 H       -6.9100    -1.4120    -0.2950 H     1 <1>   0.0800 
 55 H       -7.9690    -1.6900     1.0650 H     1 <1>   0.0800 
 56 H       -8.3350    -2.4040    -0.4860 H     1 <1>   0.0800 
@<TRIPOS>BOND
  1   1   2  2   
  2   2   3  am  
  3   2   4  1   
  4   3   5  1   
  5   3  30  1   
  6   4   6  1   
  7   4   7  1   
  8   4  31  1   
  9   5   8  1   
 10   5   9  1   
 11   5  32  1   
 12   6  10  1   
 13   6  33  1   
 14   6  34  1   
 15   7  11  1   
 16   7  35  1   
 17   7  36  1   
 18   8  12  ar  
 19   8  13  ar  
 20   9  14  1   
 21   9  37  1   
 22   9  38  1   
 23  10  15  1   
 24  10  39  1   
 25  10  40  1   
 26  11  15  1   
 27  11  41  1   
 28  11  42  1   
 29  12  16  ar  
 30  12  17  1   
 31  13  18  ar  
 32  13  43  1   
 33  14  17  1   
 34  14  44  1   
 35  14  45  1   
 36  15  19  1   
 37  16  20  ar  
 38  16  46  1   
 39  17  47  1   
 40  17  48  1   
 41  18  20  ar  
 42  18  49  1   
 43  19  21  1   
 44  19  22  2   
 45  20  50  1   
 46  21  23  1   
 47  21  24  ar  
 48  22  25  1   
 49  22  51  1   
 50  23  26  2   
 51  24  27  1   
 52  24  28  ar  
 53  25  27  2   
 54  25  29  1   
 55  26  28  1   
 56  26  52  1   
 57  28  53  1   
 58  29  54  1   
 59  29  55  1   
 60  29  56  1   
@<TRIPOS>SUBSTRUCTURE
  1 ****   4 GROUP 4 **** **** 0

# MOE 2024.06 (io_trps.svl 2023.06)
