@<TRIPOS>MOLECULE
6489
40 40 1 0 0 
SMALL
USER_CHARGES


@<TRIPOS>ATOM
  1 O       -0.9340     0.4770    -2.0280 O.2   1 <1>  -0.5700 
  2 C       -1.5640     0.4170    -0.9990 C.2   1 <1>   0.5690 
  3 N       -2.7040    -0.3300    -1.0330 N.am  1 <1>  -0.5470 
  4 C       -1.0210     1.2050     0.2340 C.3   1 <1>   0.0610 
  5 C       -3.6900    -0.6470    -0.0910 C.ar  1 <1>   0.1170 
  6 C       -1.6970     0.9060     1.5880 C.3   1 <1>  -0.2400 
  7 C        0.4810     0.9000     0.4170 C.3   1 <1>  -0.2400 
  8 C       -1.1690     2.7150    -0.0330 C.3   1 <1>  -0.2400 
  9 C       -4.8080     0.1780     0.0970 C.ar  1 <1>  -0.1430 
 10 C       -3.5650    -1.8270     0.6470 C.ar  1 <1>  -0.1430 
 11 C       -5.7640    -0.1910     1.0320 C.ar  1 <1>  -0.1500 
 12 C       -5.0170     1.4680    -0.7110 C.3   1 <1>   0.0630 
 13 C       -4.5300    -2.1660     1.5780 C.ar  1 <1>  -0.1500 
 14 C       -2.3790    -2.7640     0.4430 C.3   1 <1>  -0.0970 
 15 C       -5.6270    -1.3500     1.7730 C.ar  1 <1>  -0.1500 
 16 C       -5.2640     2.6810     0.1960 C.3   1 <1>  -0.2400 
 17 C       -6.1760     1.2930    -1.6960 C.3   1 <1>  -0.2400 
 18 H       -2.8440    -0.7490    -1.9510 H     1 <1>   0.3700 
 19 H       -1.6300    -0.1400     1.8230 H     1 <1>   0.0800 
 20 H       -2.7310     1.1920     1.5750 H     1 <1>   0.0800 
 21 H       -1.2200     1.4550     2.3800 H     1 <1>   0.0800 
 22 H        0.8900     1.4500     1.2450 H     1 <1>   0.0800 
 23 H        0.6260    -0.1500     0.5960 H     1 <1>   0.0800 
 24 H        1.0310     1.1680    -0.4690 H     1 <1>   0.0800 
 25 H       -2.2050     2.9730    -0.1560 H     1 <1>   0.0800 
 26 H       -0.6470     2.9870    -0.9350 H     1 <1>   0.0800 
 27 H       -0.7650     3.2920     0.7800 H     1 <1>   0.0800 
 28 H       -6.6340     0.4190     1.1920 H     1 <1>   0.1500 
 29 H       -4.1390     1.6910    -1.2890 H     1 <1>   0.0800 
 30 H       -4.4390    -3.0690     2.1560 H     1 <1>   0.1500 
 31 H       -1.4550    -2.2390     0.6050 H     1 <1>   0.0800 
 32 H       -2.3850    -3.1480    -0.5610 H     1 <1>   0.0800 
 33 H       -2.4180    -3.5940     1.1240 H     1 <1>   0.0800 
 34 H       -6.3770    -1.6190     2.4960 H     1 <1>   0.1500 
 35 H       -6.2020     2.5980     0.7130 H     1 <1>   0.0800 
 36 H       -5.2800     3.5820    -0.3910 H     1 <1>   0.0800 
 37 H       -4.4780     2.7640     0.9240 H     1 <1>   0.0800 
 38 H       -7.0990     1.1150    -1.1740 H     1 <1>   0.0800 
 39 H       -5.9820     0.4550    -2.3420 H     1 <1>   0.0800 
 40 H       -6.2870     2.1740    -2.3030 H     1 <1>   0.0800 
@<TRIPOS>BOND
  1   1   2  2   
  2   2   3  am  
  3   2   4  1   
  4   3   5  1   
  5   3  18  1   
  6   4   6  1   
  7   4   7  1   
  8   4   8  1   
  9   5   9  ar  
 10   5  10  ar  
 11   6  19  1   
 12   6  20  1   
 13   6  21  1   
 14   7  22  1   
 15   7  23  1   
 16   7  24  1   
 17   8  25  1   
 18   8  26  1   
 19   8  27  1   
 20   9  11  ar  
 21   9  12  1   
 22  10  13  ar  
 23  10  14  1   
 24  11  15  ar  
 25  11  28  1   
 26  12  16  1   
 27  12  17  1   
 28  12  29  1   
 29  13  15  ar  
 30  13  30  1   
 31  14  31  1   
 32  14  32  1   
 33  14  33  1   
 34  15  34  1   
 35  16  35  1   
 36  16  36  1   
 37  16  37  1   
 38  17  38  1   
 39  17  39  1   
 40  17  40  1   
@<TRIPOS>SUBSTRUCTURE
  1 ****   5 GROUP 4 **** **** 0

# MOE 2024.06 (io_trps.svl 2023.06)
