@<TRIPOS>MOLECULE
N-Cyclopentyl-2-[3-(2,3-dihydro-benzo[1,4]dioxin-6-yl)-6-oxo-6H-pyridazin-1-yl]-acetamide
47 50 1 0 0 
SMALL
USER_CHARGES


@<TRIPOS>ATOM
  1 O        0.0160     1.2000    -1.8840 O.2   1 <1>  -0.5700 
  2 C       -0.8700     1.9290    -1.4560 C.2   1 <1>   0.6160 
  3 N       -0.7110     2.6810    -0.2970 N.am  1 <1>  -0.2980 
  4 C       -2.1140     2.0470    -2.1170 C.2   1 <1>  -0.1360 
  5 N       -1.6740     3.5090     0.2260 N.2   1 <1>  -0.5120 
  6 C        0.6020     2.6330     0.4230 C.3   1 <1>   0.2010 
  7 C       -3.0660     2.8620    -1.5980 C.2   1 <1>  -0.1360 
  8 C       -2.8220     3.5910    -0.3970 C.2   1 <1>   0.3490 
  9 C        1.5270     3.7750     0.0180 C.2   1 <1>   0.5690 
 10 C       -3.8600     4.4520     0.1260 C.ar  1 <1>   0.0860 
 11 O        2.7220     3.5950     0.0010 O.2   1 <1>  -0.5700 
 12 N        0.9760     4.9780    -0.2880 N.am  1 <1>  -0.7300 
 13 C       -3.5620     5.7450     0.5580 C.ar  1 <1>  -0.1500 
 14 C       -5.1910     4.0300     0.2150 C.ar  1 <1>  -0.1500 
 15 C        1.6800     6.1780    -0.7550 C.3   1 <1>   0.2200 
 16 C       -4.5450     6.5870     1.0380 C.ar  1 <1>   0.0830 
 17 C       -6.1830     4.8630     0.7030 C.ar  1 <1>  -0.1500 
 18 C        1.4050     7.3210     0.2150 C.3   1 <1>  -0.1600 
 19 C        1.0280     6.6470    -2.0490 C.3   1 <1>  -0.1600 
 20 O       -4.2030     7.8440     1.4190 O.3   1 <1>  -0.3630 
 21 C       -5.8650     6.1420     1.1200 C.ar  1 <1>   0.0830 
 22 C        0.0580     7.9260    -0.2030 C.3   1 <1>  -0.1600 
 23 C       -0.2310     7.4060    -1.6170 C.3   1 <1>  -0.1600 
 24 C       -5.2600     8.7680     1.6070 C.3   1 <1>   0.1200 
 25 O       -6.8460     6.9380     1.6100 O.3   1 <1>  -0.3630 
 26 C       -6.4390     8.0920     2.3210 C.3   1 <1>   0.1200 
 27 H       -2.2450     1.4770    -3.0170 H     1 <1>   0.1500 
 28 H        1.0970     1.6990     0.2340 H     1 <1>   0.0800 
 29 H        0.4210     2.7030     1.4790 H     1 <1>   0.0800 
 30 H       -4.0190     2.9810    -2.0800 H     1 <1>   0.1500 
 31 H       -0.0450     5.0470    -0.2470 H     1 <1>   0.3700 
 32 H       -2.5490     6.0990     0.5160 H     1 <1>   0.1500 
 33 H       -5.4540     3.0330    -0.0930 H     1 <1>   0.1500 
 34 H        2.7340     5.9790    -0.8700 H     1 <1>   0.0800 
 35 H       -7.2030     4.5280     0.7690 H     1 <1>   0.1500 
 36 H        2.1740     8.0630     0.0900 H     1 <1>   0.0800 
 37 H        1.4120     6.9910     1.2400 H     1 <1>   0.0800 
 38 H        0.8160     5.8290    -2.7160 H     1 <1>   0.0800 
 39 H        1.6980     7.3290    -2.5410 H     1 <1>   0.0800 
 40 H        0.1100     9.0020    -0.1910 H     1 <1>   0.0800 
 41 H       -0.7180     7.6120     0.4730 H     1 <1>   0.0800 
 42 H       -1.0680     6.7290    -1.5880 H     1 <1>   0.0800 
 43 H       -0.4570     8.2080    -2.2990 H     1 <1>   0.0800 
 44 H       -5.5660     9.1280     0.6400 H     1 <1>   0.0800 
 45 H       -4.8820     9.5900     2.1870 H     1 <1>   0.0800 
 46 H       -7.2810     8.7570     2.3840 H     1 <1>   0.0800 
 47 H       -6.1520     7.7910     3.3130 H     1 <1>   0.0800 
@<TRIPOS>BOND
  1   1   2  2   
  2   2   3  am  
  3   2   4  1   
  4   3   5  1   
  5   3   6  1   
  6   4   7  2   
  7   4  27  1   
  8   5   8  2   
  9   6   9  1   
 10   6  28  1   
 11   6  29  1   
 12   7   8  1   
 13   7  30  1   
 14   8  10  1   
 15   9  11  2   
 16   9  12  am  
 17  10  13  ar  
 18  10  14  ar  
 19  12  15  1   
 20  12  31  1   
 21  13  16  ar  
 22  13  32  1   
 23  14  17  ar  
 24  14  33  1   
 25  15  18  1   
 26  15  19  1   
 27  15  34  1   
 28  16  20  1   
 29  16  21  ar  
 30  17  21  ar  
 31  17  35  1   
 32  18  22  1   
 33  18  36  1   
 34  18  37  1   
 35  19  23  1   
 36  19  38  1   
 37  19  39  1   
 38  20  24  1   
 39  21  25  1   
 40  22  23  1   
 41  22  40  1   
 42  22  41  1   
 43  23  42  1   
 44  23  43  1   
 45  24  26  1   
 46  24  44  1   
 47  24  45  1   
 48  25  26  1   
 49  26  46  1   
 50  26  47  1   
@<TRIPOS>SUBSTRUCTURE
  1 ****   5 GROUP 4 **** **** 0

# MOE 2024.06 (io_trps.svl 2023.06)
