@<TRIPOS>MOLECULE
1424
40 40 1 0 0 
SMALL
USER_CHARGES


@<TRIPOS>ATOM
  1 O        0.4340    -1.3190    -1.0330 O.2   1 <1>  -0.5700 
  2 C        0.3040    -2.1130    -0.1350 C.2   1 <1>   0.6590 
  3 O        0.9050    -1.9600     1.0410 O.3   1 <1>  -0.4300 
  4 C       -0.5390    -3.3670    -0.2990 C.3   1 <1>   0.1810 
  5 C        1.7260    -0.8530     1.3430 C.3   1 <1>   0.1200 
  6 O       -1.7050    -3.2970     0.5060 O.3   1 <1>  -0.3630 
  7 C        3.1490    -1.1520     0.8760 C.3   1 <1>  -0.2400 
  8 C       -2.7450    -4.1170     0.2200 C.ar  1 <1>   0.0830 
  9 C       -4.0480    -3.6070     0.1320 C.ar  1 <1>  -0.1440 
 10 C       -2.4880    -5.4710     0.0280 C.ar  1 <1>  -0.1500 
 11 C       -5.0570    -4.5200    -0.1790 C.ar  1 <1>  -0.1500 
 12 C       -4.3730    -2.1020     0.3610 C.3   1 <1>   0.1440 
 13 C       -3.5070    -6.3490    -0.2810 C.ar  1 <1>  -0.1430 
 14 C       -4.7940    -5.8630    -0.3840 C.ar  1 <1>  -0.1500 
 15 C       -3.9670    -1.6700     1.7810 C.3   1 <1>  -0.2400 
 16 C       -5.8750    -1.7800     0.2290 C.3   1 <1>  -0.2400 
 17 C       -3.6540    -1.2270    -0.6800 C.3   1 <1>  -0.2400 
 18 C       -3.2260    -7.8260    -0.4940 C.3   1 <1>  -0.0970 
 19 H        0.0340    -4.2230    -0.0010 H     1 <1>   0.0800 
 20 H       -0.8420    -3.4620    -1.3260 H     1 <1>   0.0800 
 21 H        1.7010    -0.7120     2.4090 H     1 <1>   0.0800 
 22 H        1.3280     0.0250     0.8620 H     1 <1>   0.0800 
 23 H        3.5200    -2.0410     1.3540 H     1 <1>   0.0800 
 24 H        3.7930    -0.3300     1.1330 H     1 <1>   0.0800 
 25 H        3.1720    -1.2780    -0.1920 H     1 <1>   0.0800 
 26 H       -1.4890    -5.8480     0.1310 H     1 <1>   0.1500 
 27 H       -6.0820    -4.2200    -0.2730 H     1 <1>   0.1500 
 28 H       -5.6040    -6.5290    -0.6220 H     1 <1>   0.1500 
 29 H       -4.4320    -2.3130     2.5060 H     1 <1>   0.0800 
 30 H       -4.2720    -0.6570     1.9730 H     1 <1>   0.0800 
 31 H       -2.9050    -1.7190     1.9220 H     1 <1>   0.0800 
 32 H       -6.4460    -2.3360     0.9510 H     1 <1>   0.0800 
 33 H       -6.2280    -2.0150    -0.7590 H     1 <1>   0.0800 
 34 H       -6.0570    -0.7340     0.4020 H     1 <1>   0.0800 
 35 H       -3.8880    -1.5690    -1.6720 H     1 <1>   0.0800 
 36 H       -2.5900    -1.2560    -0.5560 H     1 <1>   0.0800 
 37 H       -3.9590    -0.2000    -0.5910 H     1 <1>   0.0800 
 38 H       -2.1990    -7.9820    -0.7710 H     1 <1>   0.0800 
 39 H       -3.8520    -8.2150    -1.2770 H     1 <1>   0.0800 
 40 H       -3.4270    -8.3670     0.4130 H     1 <1>   0.0800 
@<TRIPOS>BOND
  1   1   2  2   
  2   2   3  1   
  3   2   4  1   
  4   3   5  1   
  5   4   6  1   
  6   4  19  1   
  7   4  20  1   
  8   5   7  1   
  9   5  21  1   
 10   5  22  1   
 11   6   8  1   
 12   7  23  1   
 13   7  24  1   
 14   7  25  1   
 15   8   9  ar  
 16   8  10  ar  
 17   9  11  ar  
 18   9  12  1   
 19  10  13  ar  
 20  10  26  1   
 21  11  14  ar  
 22  11  27  1   
 23  12  15  1   
 24  12  16  1   
 25  12  17  1   
 26  13  14  ar  
 27  13  18  1   
 28  14  28  1   
 29  15  29  1   
 30  15  30  1   
 31  15  31  1   
 32  16  32  1   
 33  16  33  1   
 34  16  34  1   
 35  17  35  1   
 36  17  36  1   
 37  17  37  1   
 38  18  38  1   
 39  18  39  1   
 40  18  40  1   
@<TRIPOS>SUBSTRUCTURE
  1 ****   6 GROUP 4 **** **** 0

# MOE 2024.06 (io_trps.svl 2023.06)
