@<TRIPOS>MOLECULE
11302
46 48 1 0 0 
SMALL
USER_CHARGES


@<TRIPOS>ATOM
  1 O       -2.4950     1.6420     2.0640 O.2   1 <1>  -0.5750 
  2 C       -2.0740     1.2200     1.0090 C.2   1 <1>   0.7020 
  3 O       -0.8590     1.5710     0.5880 O.3   1 <1>  -0.4360 
  4 C       -2.8560     0.3860     0.1640 C.2   1 <1>  -0.1320 
  5 C       -0.0750     2.5440     1.2490 C.3   1 <1>   0.1120 
  6 C       -2.4540    -0.6560    -0.6100 C.2   1 <1>   0.1570 
  7 C       -4.3160     0.8290     0.1790 C.3   1 <1>   0.7120 
  8 C       -0.5290     3.9290     0.7910 C.3   1 <1>  -0.2470 
  9 N       -3.3650    -1.3450    -1.3890 N.pl3 1 <1>  -0.6940 
 10 C       -1.0350    -1.1940    -0.7100 C.3   1 <1>  -0.1100 
 11 N       -5.1710    -0.1140    -0.5880 N.pl3 1 <1>  -0.4630 
 12 C       -4.4490     2.2050    -0.4720 C.ar  1 <1>  -0.1510 
 13 C       -4.6770    -1.0720    -1.3290 C.cat 1 <1>   1.0690 
 14 N       -6.5340    -0.0720    -0.6950 N.2   1 <1>  -0.2670 
 15 C       -5.1820     3.1980     0.1670 C.ar  1 <1>   0.0740 
 16 C       -3.8470     2.4850    -1.6950 C.ar  1 <1>  -0.1580 
 17 N       -5.6730    -1.6710    -1.9350 N.pl3 1 <1>  -0.7040 
 18 C       -6.8030    -1.0190    -1.5150 C.2   1 <1>   0.4980 
 19 O       -5.7450     2.8880     1.3640 O.3   1 <1>  -0.3690 
 20 C       -5.3390     4.4590    -0.4210 C.ar  1 <1>   0.0740 
 21 C       -3.9800     3.7340    -2.2700 C.ar  1 <1>  -0.1580 
 22 C       -5.3070     3.6160     2.4930 C.3   1 <1>   0.0310 
 23 O       -6.1060     5.3900     0.2150 O.3   1 <1>  -0.3690 
 24 C       -4.7230     4.7160    -1.6410 C.ar  1 <1>  -0.1580 
 25 C       -6.3870     6.6440    -0.3650 C.3   1 <1>   0.0310 
 26 H        0.9520     2.3790     0.9740 H     1 <1>   0.0720 
 27 H       -0.1760     2.4260     2.3150 H     1 <1>   0.0720 
 28 H       -4.6700     0.8310     1.1950 H     1 <1>   0.0720 
 29 H       -0.4320     4.0220    -0.2760 H     1 <1>   0.0720 
 30 H        0.0840     4.6800     1.2560 H     1 <1>   0.0720 
 31 H       -1.5510     4.1060     1.0770 H     1 <1>   0.0720 
 32 H       -3.0450    -2.1090    -1.9860 H     1 <1>   0.4440 
 33 H       -0.6040    -0.9270    -1.6590 H     1 <1>   0.0720 
 34 H       -1.0330    -2.2660    -0.6190 H     1 <1>   0.0720 
 35 H       -0.4020    -0.8090     0.0670 H     1 <1>   0.0720 
 36 H       -3.2650     1.7460    -2.2160 H     1 <1>   0.1420 
 37 H       -5.6330    -2.4530    -2.5820 H     1 <1>   0.4440 
 38 H       -7.7970    -1.2850    -1.8450 H     1 <1>   0.1420 
 39 H       -3.5070     3.9480    -3.2140 H     1 <1>   0.1420 
 40 H       -5.5910     3.0720     3.3750 H     1 <1>   0.0720 
 41 H       -5.7780     4.5820     2.4970 H     1 <1>   0.0720 
 42 H       -4.2360     3.7210     2.4540 H     1 <1>   0.0720 
 43 H       -4.8080     5.6730    -2.1200 H     1 <1>   0.1420 
 44 H       -7.0360     7.1820     0.3020 H     1 <1>   0.0720 
 45 H       -6.8800     6.4890    -1.3080 H     1 <1>   0.0720 
 46 H       -5.4660     7.1840    -0.4930 H     1 <1>   0.0720 
@<TRIPOS>BOND
  1   1   2  2   
  2   2   3  1   
  3   2   4  1   
  4   3   5  1   
  5   4   6  2   
  6   4   7  1   
  7   5   8  1   
  8   5  26  1   
  9   5  27  1   
 10   6   9  1   
 11   6  10  1   
 12   7  11  1   
 13   7  12  1   
 14   7  28  1   
 15   8  29  1   
 16   8  30  1   
 17   8  31  1   
 18   9  13  ar  
 19   9  32  1   
 20  10  33  1   
 21  10  34  1   
 22  10  35  1   
 23  11  13  ar  
 24  11  14  1   
 25  12  15  ar  
 26  12  16  ar  
 27  13  17  ar  
 28  14  18  2   
 29  15  19  1   
 30  15  20  ar  
 31  16  21  ar  
 32  16  36  1   
 33  17  18  1   
 34  17  37  1   
 35  18  38  1   
 36  19  22  1   
 37  20  23  1   
 38  20  24  ar  
 39  21  24  ar  
 40  21  39  1   
 41  22  40  1   
 42  22  41  1   
 43  22  42  1   
 44  23  25  1   
 45  24  43  1   
 46  25  44  1   
 47  25  45  1   
 48  25  46  1   
@<TRIPOS>SUBSTRUCTURE
  1 ****  12 GROUP 4 **** **** 0

# MOE 2024.06 (io_trps.svl 2023.06)
