@<TRIPOS>MOLECULE
NONAME
54 57 1 0 0 
SMALL
USER_CHARGES


@<TRIPOS>ATOM
  1 S       -0.3220     0.2990     0.6240 S.3   1 <1>  -0.2860 
  2 C        1.1770    -0.6620     0.8530 C.2   1 <1>   0.2420 
  3 C       -1.5970    -0.6890     1.5460 C.3   1 <1>   0.1310 
  4 N        1.1960    -1.7890     1.4690 N.2   1 <1>  -0.3380 
  5 N        2.3680    -0.2730     0.3870 N.pl3 1 <1>   0.3260 
  6 C       -2.9730    -0.0540     1.4050 C.2   1 <1>   0.5690 
  7 N        2.4590    -2.2040     1.4190 N.2   1 <1>  -0.3380 
  8 C        2.6940     0.8760    -0.3810 C.ar  1 <1>  -0.0230 
  9 C        3.1560    -1.3060     0.7760 C.2   1 <1>   0.1330 
 10 O       -3.4250     0.4860     2.3890 O.2   1 <1>  -0.5700 
 11 N       -3.6740    -0.1100     0.2230 N.am  1 <1>  -0.6600 
 12 C        2.8060     2.1390     0.2040 C.ar  1 <1>  -0.1430 
 13 C        2.9250     0.7330    -1.7450 C.ar  1 <1>  -0.1500 
 14 C        4.5710    -1.4260     0.5000 C.ar  1 <1>   0.0530 
 15 C       -5.0290     0.5030     0.1000 C.3   1 <1>   0.1400 
 16 C       -3.1880    -0.7390    -1.0380 C.3   1 <1>   0.1400 
 17 C        3.1410     3.2280    -0.5840 C.ar  1 <1>  -0.1500 
 18 C        2.5710     2.3570     1.6950 C.3   1 <1>  -0.0970 
 19 C        3.2620     1.8260    -2.5210 C.ar  1 <1>  -0.1500 
 20 C        5.4520    -0.3400     0.5150 C.ar  1 <1>   0.1600 
 21 C        5.1210    -2.6670     0.2090 C.ar  1 <1>  -0.1500 
 22 C       -6.0510    -0.5570    -0.3440 C.3   1 <1>  -0.0800 
 23 C       -4.1790    -1.8160    -1.4890 C.3   1 <1>  -0.1600 
 24 C        3.3700     3.0750    -1.9400 C.ar  1 <1>  -0.1500 
 25 N        6.7510    -0.3880     0.2660 N.ar  1 <1>  -0.6200 
 26 C        6.4720    -2.7420    -0.0510 C.ar  1 <1>  -0.1500 
 27 C       -5.5980    -1.2500    -1.6400 C.3   1 <1>  -0.1600 
 28 C       -7.4380     0.0710    -0.5310 C.3   1 <1>  -0.2400 
 29 C        7.2330    -1.5870    -0.0130 C.ar  1 <1>   0.1600 
 30 H       -1.2960    -0.7030     2.5770 H     1 <1>   0.0800 
 31 H       -1.5890    -1.6880     1.1550 H     1 <1>   0.0800 
 32 H        2.8450    -0.2350    -2.2080 H     1 <1>   0.1500 
 33 H       -4.9850     1.2980    -0.6240 H     1 <1>   0.0800 
 34 H       -5.3400     0.9280     1.0390 H     1 <1>   0.0800 
 35 H       -2.2170    -1.1800    -0.9110 H     1 <1>   0.0800 
 36 H       -3.1080     0.0230    -1.7950 H     1 <1>   0.0800 
 37 H        3.2270     4.2090    -0.1490 H     1 <1>   0.1500 
 38 H        3.0890     1.6170     2.2780 H     1 <1>   0.0800 
 39 H        1.5190     2.3010     1.9140 H     1 <1>   0.0800 
 40 H        2.9250     3.3260     2.0000 H     1 <1>   0.0800 
 41 H        3.4420     1.7060    -3.5760 H     1 <1>   0.1500 
 42 H        5.0630     0.6330     0.7540 H     1 <1>   0.1500 
 43 H        4.5040    -3.5490     0.1920 H     1 <1>   0.1500 
 44 H       -6.1200    -1.2930     0.4390 H     1 <1>   0.0800 
 45 H       -4.1810    -2.6130    -0.7670 H     1 <1>   0.0800 
 46 H       -3.8530    -2.2260    -2.4290 H     1 <1>   0.0800 
 47 H        3.6320     3.9280    -2.5420 H     1 <1>   0.1500 
 48 H        6.9340    -3.6850    -0.2810 H     1 <1>   0.1500 
 49 H       -5.6110    -0.5410    -2.4510 H     1 <1>   0.0800 
 50 H       -6.2790    -2.0470    -1.8840 H     1 <1>   0.0800 
 51 H       -7.4150     0.8230    -1.3000 H     1 <1>   0.0800 
 52 H       -7.7650     0.5280     0.3870 H     1 <1>   0.0800 
 53 H       -8.1540    -0.6820    -0.8070 H     1 <1>   0.0800 
 54 H        8.2880    -1.6530    -0.2190 H     1 <1>   0.1500 
@<TRIPOS>BOND
  1   1   2  1   
  2   1   3  1   
  3   2   4  2   
  4   2   5  1   
  5   3   6  1   
  6   3  30  1   
  7   3  31  1   
  8   4   7  1   
  9   5   8  1   
 10   5   9  1   
 11   6  10  2   
 12   6  11  am  
 13   7   9  2   
 14   8  12  ar  
 15   8  13  ar  
 16   9  14  1   
 17  11  15  1   
 18  11  16  1   
 19  12  17  ar  
 20  12  18  1   
 21  13  19  ar  
 22  13  32  1   
 23  14  20  ar  
 24  14  21  ar  
 25  15  22  1   
 26  15  33  1   
 27  15  34  1   
 28  16  23  1   
 29  16  35  1   
 30  16  36  1   
 31  17  24  ar  
 32  17  37  1   
 33  18  38  1   
 34  18  39  1   
 35  18  40  1   
 36  19  24  ar  
 37  19  41  1   
 38  20  25  ar  
 39  20  42  1   
 40  21  26  ar  
 41  21  43  1   
 42  22  27  1   
 43  22  28  1   
 44  22  44  1   
 45  23  27  1   
 46  23  45  1   
 47  23  46  1   
 48  24  47  1   
 49  25  29  ar  
 50  26  29  ar  
 51  26  48  1   
 52  27  49  1   
 53  27  50  1   
 54  28  51  1   
 55  28  52  1   
 56  28  53  1   
 57  29  54  1   
@<TRIPOS>SUBSTRUCTURE
  1 ****   2 GROUP 4 **** **** 0

# MOE 2024.06 (io_trps.svl 2023.06)
