@<TRIPOS>MOLECULE
5-(2-Piperidin-1-yl-ethylsulfanyl)-[1,3,4]thiadiazol-2-ylamine
32 33 1 0 0 
SMALL
USER_CHARGES


@<TRIPOS>ATOM
  1 S       -0.0930    -0.2590     0.5210 S.3   1 <1>  -0.0800 
  2 C        0.0340     1.3180    -0.1780 C.2   1 <1>   0.4340 
  3 C       -1.8110    -0.0120     0.4800 C.2   1 <1>   0.4620 
  4 S        1.6730     1.9650    -0.5300 S.3   1 <1>  -0.2860 
  5 N       -1.0780     1.8940    -0.3870 N.2   1 <1>  -0.3380 
  6 N       -2.1480     1.1270    -0.0070 N.2   1 <1>  -0.3380 
  7 N       -2.6270    -0.9980     0.9460 N.pl3 1 <1>  -0.8840 
  8 C        2.8690     0.6560    -0.0230 C.3   1 <1>   0.0700 
  9 C        4.2710     1.1910    -0.3360 C.3   1 <1>   0.3430 
 10 N        5.3570     0.2420     0.0690 N.4   1 <1>  -0.9590 
 11 C        6.6860     0.9210    -0.0110 C.3   1 <1>   0.3430 
 12 C        5.3500    -1.0170    -0.7400 C.3   1 <1>   0.3430 
 13 C        7.7720    -0.0010     0.5470 C.3   1 <1>  -0.1600 
 14 C        6.4060    -1.9840    -0.2000 C.3   1 <1>  -0.1600 
 15 C        7.8020    -1.3490    -0.1840 C.3   1 <1>  -0.1600 
 16 H       -3.6410    -0.8650     0.9350 H     1 <1>   0.4000 
 17 H       -2.2810    -1.8760     1.3340 H     1 <1>   0.4000 
 18 H        2.6320    -0.2230    -0.5950 H     1 <1>   0.0800 
 19 H        2.7290     0.4900     1.0300 H     1 <1>   0.0800 
 20 H        4.3980     2.1240     0.1900 H     1 <1>   0.0800 
 21 H        4.3420     1.3960    -1.3920 H     1 <1>   0.0800 
 22 H        5.2250    -0.0220     1.0550 H     1 <1>   0.4500 
 23 H        6.6710     1.8380     0.5570 H     1 <1>   0.0800 
 24 H        6.9130     1.1630    -1.0380 H     1 <1>   0.0800 
 25 H        5.5660    -0.7900    -1.7720 H     1 <1>   0.0800 
 26 H        4.3820    -1.4890    -0.6920 H     1 <1>   0.0800 
 27 H        7.6070    -0.1550     1.5990 H     1 <1>   0.0800 
 28 H        8.7300     0.4800     0.4410 H     1 <1>   0.0800 
 29 H        6.4250    -2.8650    -0.8180 H     1 <1>   0.0800 
 30 H        6.1320    -2.2950     0.7940 H     1 <1>   0.0800 
 31 H        8.5010    -2.0130     0.3000 H     1 <1>   0.0800 
 32 H        8.1410    -1.2020    -1.1960 H     1 <1>   0.0800 
@<TRIPOS>BOND
  1   1   2  1   
  2   1   3  1   
  3   2   4  1   
  4   2   5  2   
  5   3   6  2   
  6   3   7  1   
  7   4   8  1   
  8   5   6  1   
  9   7  16  1   
 10   7  17  1   
 11   8   9  1   
 12   8  18  1   
 13   8  19  1   
 14   9  10  1   
 15   9  20  1   
 16   9  21  1   
 17  10  11  1   
 18  10  12  1   
 19  10  22  1   
 20  11  13  1   
 21  11  23  1   
 22  11  24  1   
 23  12  14  1   
 24  12  25  1   
 25  12  26  1   
 26  13  15  1   
 27  13  27  1   
 28  13  28  1   
 29  14  15  1   
 30  14  29  1   
 31  14  30  1   
 32  15  31  1   
 33  15  32  1   
@<TRIPOS>SUBSTRUCTURE
  1 ****   8 GROUP 4 **** **** 0

# MOE 2024.06 (io_trps.svl 2023.06)
