@<TRIPOS>MOLECULE
2-[4-(2,3-Dihydro-benzo[1,4]dioxine-6-carbonyl)-piperidin-1-yl]-N-m-tolyl-acetamide
55 58 1 0 0 
SMALL
USER_CHARGES


@<TRIPOS>ATOM
  1 O        2.8210     2.5910     2.8500 O.2   1 <1>  -0.5700 
  2 C        2.2470     2.6980     1.7940 C.2   1 <1>   0.4230 
  3 C        0.9230     3.2790     1.6950 C.ar  1 <1>   0.0860 
  4 C        2.9640     2.1880     0.5360 C.3   1 <1>  -0.0190 
  5 C        0.4010     3.8050     0.5070 C.ar  1 <1>  -0.1500 
  6 C        0.1020     3.3390     2.8270 C.ar  1 <1>  -0.1500 
  7 C        3.7230     0.8700     0.7820 C.3   1 <1>  -0.1600 
  8 C        3.9410     3.2430    -0.0100 C.3   1 <1>  -0.1600 
  9 C       -0.8710     4.3400     0.4520 C.ar  1 <1>   0.0820 
 10 C       -1.1700     3.8810     2.7860 C.ar  1 <1>  -0.1500 
 11 C        4.4830     0.4230    -0.4690 C.3   1 <1>   0.1100 
 12 C        4.6920     2.7210    -1.2360 C.3   1 <1>   0.1100 
 13 O       -1.3290     4.8110    -0.7360 O.3   1 <1>  -0.3630 
 14 C       -1.6630     4.3890     1.5990 C.ar  1 <1>   0.0820 
 15 N        5.4100     1.4830    -0.8860 N.3   1 <1>  -0.8100 
 16 C       -2.7230     5.0410    -0.8390 C.3   1 <1>   0.1200 
 17 O       -2.9010     4.9310     1.5740 O.3   1 <1>  -0.3630 
 18 C        6.2800     1.0290    -2.0140 C.3   1 <1>   0.1710 
 19 C       -3.2520     5.7030     0.4410 C.3   1 <1>   0.1200 
 20 C        7.5520     1.8650    -2.1750 C.2   1 <1>   0.5690 
 21 O        8.1200     1.8730    -3.2410 O.2   1 <1>  -0.5700 
 22 N        7.9530     2.5600    -1.0700 N.am  1 <1>  -0.5470 
 23 C        9.0200     3.4290    -0.8030 C.ar  1 <1>   0.1170 
 24 C        9.0450     4.0840     0.4230 C.ar  1 <1>  -0.1500 
 25 C       10.0560     3.6660    -1.7000 C.ar  1 <1>  -0.1500 
 26 C       10.0680     4.9570     0.7530 C.ar  1 <1>  -0.1440 
 27 C       11.0830     4.5350    -1.3800 C.ar  1 <1>  -0.1500 
 28 C       11.0900     5.1800    -0.1550 C.ar  1 <1>  -0.1500 
 29 C       10.0820     5.6650     2.0950 C.3   1 <1>  -0.0970 
 30 H        2.2290     1.9780    -0.2190 H     1 <1>   0.0800 
 31 H        0.9770     3.8110    -0.3980 H     1 <1>   0.1500 
 32 H        0.4760     2.9510     3.7600 H     1 <1>   0.1500 
 33 H        3.0310     0.1020     1.0760 H     1 <1>   0.0800 
 34 H        4.4300     0.9960     1.5840 H     1 <1>   0.0800 
 35 H        4.6550     3.5030     0.7530 H     1 <1>   0.0800 
 36 H        3.4080     4.1380    -0.2760 H     1 <1>   0.0800 
 37 H       -1.7820     3.9170     3.6690 H     1 <1>   0.1500 
 38 H        3.7920     0.2010    -1.2660 H     1 <1>   0.0800 
 39 H        5.0370    -0.4720    -0.2380 H     1 <1>   0.0800 
 40 H        5.3900     3.4740    -1.5640 H     1 <1>   0.0800 
 41 H        4.0010     2.5300    -2.0400 H     1 <1>   0.0800 
 42 H       -3.2080     4.0940    -0.9970 H     1 <1>   0.0800 
 43 H       -2.8930     5.6710    -1.6940 H     1 <1>   0.0800 
 44 H        5.7290     1.0470    -2.9380 H     1 <1>   0.0800 
 45 H        6.5960     0.0170    -1.8370 H     1 <1>   0.0800 
 46 H       -4.3240     5.7860     0.4150 H     1 <1>   0.0800 
 47 H       -2.8250     6.6830     0.5590 H     1 <1>   0.0800 
 48 H        7.2720     2.4420    -0.3120 H     1 <1>   0.3700 
 49 H        8.2520     3.9060     1.1250 H     1 <1>   0.1500 
 50 H       10.0680     3.1730    -2.6540 H     1 <1>   0.1500 
 51 H       11.8770     4.7080    -2.0850 H     1 <1>   0.1500 
 52 H       11.8930     5.8540     0.0860 H     1 <1>   0.1500 
 53 H        9.1260     5.5850     2.5810 H     1 <1>   0.0800 
 54 H       10.3070     6.7080     1.9600 H     1 <1>   0.0800 
 55 H       10.8300     5.2260     2.7300 H     1 <1>   0.0800 
@<TRIPOS>BOND
  1   1   2  2   
  2   2   3  1   
  3   2   4  1   
  4   3   5  ar  
  5   3   6  ar  
  6   4   7  1   
  7   4   8  1   
  8   4  30  1   
  9   5   9  ar  
 10   5  31  1   
 11   6  10  ar  
 12   6  32  1   
 13   7  11  1   
 14   7  33  1   
 15   7  34  1   
 16   8  12  1   
 17   8  35  1   
 18   8  36  1   
 19   9  13  1   
 20   9  14  ar  
 21  10  14  ar  
 22  10  37  1   
 23  11  15  1   
 24  11  38  1   
 25  11  39  1   
 26  12  15  1   
 27  12  40  1   
 28  12  41  1   
 29  13  16  1   
 30  14  17  1   
 31  15  18  1   
 32  16  19  1   
 33  16  42  1   
 34  16  43  1   
 35  17  19  1   
 36  18  20  1   
 37  18  44  1   
 38  18  45  1   
 39  19  46  1   
 40  19  47  1   
 41  20  21  2   
 42  20  22  am  
 43  22  23  1   
 44  22  48  1   
 45  23  24  ar  
 46  23  25  ar  
 47  24  26  ar  
 48  24  49  1   
 49  25  27  ar  
 50  25  50  1   
 51  26  28  ar  
 52  26  29  1   
 53  27  28  ar  
 54  27  51  1   
 55  28  52  1   
 56  29  53  1   
 57  29  54  1   
 58  29  55  1   
@<TRIPOS>SUBSTRUCTURE
  1 ****   8 GROUP 4 **** **** 0

# MOE 2024.06 (io_trps.svl 2023.06)
