@<TRIPOS>MOLECULE
NONAME
52 55 1 0 0 
SMALL
USER_CHARGES


@<TRIPOS>ATOM
  1 S       -0.6250    -0.6360     1.6940 S.3   1 <1>  -0.3710 
  2 C       -2.1420    -0.4200     0.7470 C.2   1 <1>   0.6510 
  3 C        0.5660    -1.6540     0.7200 C.3   1 <1>   0.0700 
  4 N       -2.7410     0.6830     0.9760 N.2   1 <1>  -0.6290 
  5 N       -2.5560    -1.4060    -0.1410 N.am  1 <1>  -0.2370 
  6 C        1.9690    -1.3170     1.2290 C.3   1 <1>   0.3430 
  7 C       -3.8840     0.9770     0.2690 C.ar  1 <1>   0.1790 
  8 C       -3.6120    -1.0810    -0.9790 C.2   1 <1>   0.5440 
  9 C       -2.1080    -2.7450    -0.0620 C.ar  1 <1>   0.1170 
 10 N        3.0040    -2.2530     0.6830 N.4   1 <1>  -0.9590 
 11 C       -4.3530     0.1240    -0.7340 C.ar  1 <1>   0.0860 
 12 C       -4.5720     2.1520     0.5510 C.ar  1 <1>  -0.1500 
 13 O       -3.8960    -1.8100    -1.9150 O.2   1 <1>  -0.5700 
 14 C       -2.2380    -3.4650     1.1210 C.ar  1 <1>  -0.1500 
 15 C       -1.5040    -3.3590    -1.1570 C.ar  1 <1>  -0.1500 
 16 C        4.3350    -2.0100     1.3460 C.3   1 <1>   0.3430 
 17 C        3.1490    -2.1560    -0.8150 C.3   1 <1>   0.3430 
 18 C       -5.5090     0.4820    -1.4350 C.ar  1 <1>  -0.1500 
 19 C       -5.7120     2.4900    -0.1470 C.ar  1 <1>  -0.1500 
 20 C       -1.7330    -4.7560     1.2220 C.ar  1 <1>   0.0830 
 21 C       -1.0110    -4.6470    -1.0660 C.ar  1 <1>  -0.1500 
 22 C        5.4440    -2.8860     0.7320 C.3   1 <1>   0.1200 
 23 C        4.3100    -3.0280    -1.3300 C.3   1 <1>   0.1200 
 24 C       -6.1820     1.6510    -1.1470 C.ar  1 <1>  -0.1500 
 25 O       -1.7950    -5.4990     2.3520 O.3   1 <1>  -0.3630 
 26 C       -1.1190    -5.3400     0.1260 C.ar  1 <1>  -0.1500 
 27 O        5.4900    -2.7070    -0.6530 O.3   1 <1>  -0.5600 
 28 C       -2.6530    -5.1420     3.4150 C.3   1 <1>   0.0400 
 29 H        0.4370    -1.3970    -0.3160 H     1 <1>   0.0800 
 30 H        0.3310    -2.6850     0.9080 H     1 <1>   0.0800 
 31 H        1.9610    -1.3840     2.3050 H     1 <1>   0.0800 
 32 H        2.2100    -0.3010     0.9610 H     1 <1>   0.0800 
 33 H        2.7270    -3.2180     0.9100 H     1 <1>   0.4500 
 34 H       -4.1960     2.7960     1.3260 H     1 <1>   0.1500 
 35 H       -2.7250    -3.0010     1.9570 H     1 <1>   0.1500 
 36 H       -1.4360    -2.8270    -2.0910 H     1 <1>   0.1500 
 37 H        4.2650    -2.2140     2.4030 H     1 <1>   0.0800 
 38 H        4.6190    -0.9770     1.2280 H     1 <1>   0.0800 
 39 H        3.3440    -1.1340    -1.0970 H     1 <1>   0.0800 
 40 H        2.2360    -2.4650    -1.2970 H     1 <1>   0.0800 
 41 H       -5.8740    -0.1710    -2.2110 H     1 <1>   0.1500 
 42 H       -6.2370     3.4030     0.0790 H     1 <1>   0.1500 
 43 H       -0.5590    -5.1180    -1.9230 H     1 <1>   0.1500 
 44 H        5.2820    -3.9290     0.9440 H     1 <1>   0.0800 
 45 H        6.4040    -2.6020     1.1300 H     1 <1>   0.0800 
 46 H        4.4750    -2.8450    -2.3780 H     1 <1>   0.0800 
 47 H        4.1040    -4.0750    -1.1930 H     1 <1>   0.0800 
 48 H       -7.0720     1.9150    -1.6940 H     1 <1>   0.1500 
 49 H       -0.7430    -6.3450     0.2110 H     1 <1>   0.1500 
 50 H       -2.6270    -5.9320     4.1450 H     1 <1>   0.0800 
 51 H       -3.6540    -5.0320     3.0350 H     1 <1>   0.0800 
 52 H       -2.3050    -4.2260     3.8580 H     1 <1>   0.0800 
@<TRIPOS>BOND
  1   1   2  1   
  2   1   3  1   
  3   2   4  2   
  4   2   5  1   
  5   3   6  1   
  6   3  29  1   
  7   3  30  1   
  8   4   7  1   
  9   5   8  am  
 10   5   9  1   
 11   6  10  1   
 12   6  31  1   
 13   6  32  1   
 14   7  11  ar  
 15   7  12  ar  
 16   8  11  1   
 17   8  13  2   
 18   9  14  ar  
 19   9  15  ar  
 20  10  16  1   
 21  10  17  1   
 22  10  33  1   
 23  11  18  ar  
 24  12  19  ar  
 25  12  34  1   
 26  14  20  ar  
 27  14  35  1   
 28  15  21  ar  
 29  15  36  1   
 30  16  22  1   
 31  16  37  1   
 32  16  38  1   
 33  17  23  1   
 34  17  39  1   
 35  17  40  1   
 36  18  24  ar  
 37  18  41  1   
 38  19  24  ar  
 39  19  42  1   
 40  20  25  1   
 41  20  26  ar  
 42  21  26  ar  
 43  21  43  1   
 44  22  27  1   
 45  22  44  1   
 46  22  45  1   
 47  23  27  1   
 48  23  46  1   
 49  23  47  1   
 50  24  48  1   
 51  25  28  1   
 52  26  49  1   
 53  28  50  1   
 54  28  51  1   
 55  28  52  1   
@<TRIPOS>SUBSTRUCTURE
  1 ****   9 GROUP 4 **** **** 0

# MOE 2024.06 (io_trps.svl 2023.06)
