@<TRIPOS>MOLECULE
Benzo[1,3]dioxol-5-ylmethyl-carbamic acid tert-butyl ester
35 36 1 0 0 
SMALL
USER_CHARGES


@<TRIPOS>ATOM
  1 O       -0.0930    -0.2000     0.8610 O.2   1 <1>  -0.5700 
  2 C       -0.3150    -1.3310     0.4810 C.2   1 <1>   0.7800 
  3 O        0.5630    -2.0320    -0.2320 O.3   1 <1>  -0.4300 
  4 N       -1.4720    -1.9620     0.7530 N.am  1 <1>  -0.7300 
  5 C        1.8430    -1.6110    -0.6530 C.3   1 <1>   0.2800 
  6 C       -2.6230    -1.3460     1.4230 C.3   1 <1>   0.2840 
  7 C        2.4180    -2.7960    -1.4300 C.3   1 <1>  -0.2400 
  8 C        1.7230    -0.4030    -1.5900 C.3   1 <1>  -0.2400 
  9 C        2.7340    -1.3230     0.5610 C.3   1 <1>  -0.2400 
 10 C       -3.8680    -2.1230     1.0340 C.ar  1 <1>  -0.1440 
 11 C       -4.5040    -1.8450    -0.1720 C.ar  1 <1>  -0.1500 
 12 C       -4.3700    -3.1150     1.8760 C.ar  1 <1>  -0.1500 
 13 C       -5.6320    -2.5730    -0.4970 C.ar  1 <1>   0.0820 
 14 C       -5.5070    -3.8370     1.5310 C.ar  1 <1>  -0.1500 
 15 O       -6.3940    -2.4760    -1.5920 O.3   1 <1>  -0.3630 
 16 C       -6.1200    -3.5410     0.3310 C.ar  1 <1>   0.0820 
 17 C       -7.4320    -3.4430    -1.4520 C.3   1 <1>   0.4000 
 18 O       -7.2110    -4.0970    -0.2040 O.3   1 <1>  -0.3630 
 19 H       -1.6250    -2.8860     0.3530 H     1 <1>   0.3700 
 20 H       -2.7140    -0.3160     1.1210 H     1 <1>   0.0800 
 21 H       -2.4750    -1.3780     2.4890 H     1 <1>   0.0800 
 22 H        1.7920    -3.0290    -2.2730 H     1 <1>   0.0800 
 23 H        2.4870    -3.6610    -0.7950 H     1 <1>   0.0800 
 24 H        3.4030    -2.5630    -1.7930 H     1 <1>   0.0800 
 25 H        1.0390    -0.6170    -2.3900 H     1 <1>   0.0800 
 26 H        2.6830    -0.1720    -2.0140 H     1 <1>   0.0800 
 27 H        1.3850     0.4680    -1.0590 H     1 <1>   0.0800 
 28 H        2.7390    -2.1650     1.2300 H     1 <1>   0.0800 
 29 H        2.3970    -0.4520     1.0920 H     1 <1>   0.0800 
 30 H        3.7420    -1.1370     0.2400 H     1 <1>   0.0800 
 31 H       -4.1390    -1.0900    -0.8450 H     1 <1>   0.1500 
 32 H       -3.8750    -3.3330     2.8070 H     1 <1>   0.1500 
 33 H       -5.9070    -4.6040     2.1700 H     1 <1>   0.1500 
 34 H       -7.3670    -4.1600    -2.2520 H     1 <1>   0.0800 
 35 H       -8.3870    -2.9490    -1.4370 H     1 <1>   0.0800 
@<TRIPOS>BOND
  1   1   2  2   
  2   2   3  1   
  3   2   4  am  
  4   3   5  1   
  5   4   6  1   
  6   4  19  1   
  7   5   7  1   
  8   5   8  1   
  9   5   9  1   
 10   6  10  1   
 11   6  20  1   
 12   6  21  1   
 13   7  22  1   
 14   7  23  1   
 15   7  24  1   
 16   8  25  1   
 17   8  26  1   
 18   8  27  1   
 19   9  28  1   
 20   9  29  1   
 21   9  30  1   
 22  10  11  ar  
 23  10  12  ar  
 24  11  13  ar  
 25  11  31  1   
 26  12  14  ar  
 27  12  32  1   
 28  13  15  1   
 29  13  16  ar  
 30  14  16  ar  
 31  14  33  1   
 32  15  17  1   
 33  16  18  1   
 34  17  18  1   
 35  17  34  1   
 36  17  35  1   
@<TRIPOS>SUBSTRUCTURE
  1 ****   4 GROUP 4 **** **** 0

# MOE 2024.06 (io_trps.svl 2023.06)
