@<TRIPOS>MOLECULE
NONAME
59 62 1 0 0 
SMALL
USER_CHARGES


@<TRIPOS>ATOM
  1 S       -1.7280     1.1910     3.7520 S.3   1 <1>   0.1810 
  2 N       -1.2830     1.4250     2.1350 N.2   1 <1>  -0.2210 
  3 C       -3.4000     1.3720     3.4000 C.2   1 <1>  -0.1100 
  4 N       -2.2970     1.6140     1.4150 N.2   1 <1>  -0.2270 
  5 C       -3.5230     1.5890     2.0790 C.2   1 <1>   0.1410 
  6 C       -4.7640     1.8180     1.3630 C.2   1 <1>   0.7160 
  7 O       -5.7340     2.2450     1.9680 O.2   1 <1>  -0.5700 
  8 N       -4.8930     1.5470     0.0160 N.am  1 <1>  -0.4770 
  9 C       -4.3850     0.3740    -0.5700 C.ar  1 <1>   0.1170 
 10 C       -5.5770     2.5270    -0.8920 C.3   1 <1>   0.4250 
 11 C       -4.9130    -0.8920    -0.2840 C.ar  1 <1>  -0.1440 
 12 C       -3.3160     0.4790    -1.4540 C.ar  1 <1>  -0.1500 
 13 C       -5.1450     3.9640    -0.5500 C.ar  1 <1>  -0.1440 
 14 C       -7.1050     2.3180    -0.9700 C.2   1 <1>   0.5690 
 15 C       -4.3470    -2.0230    -0.8700 C.ar  1 <1>  -0.1440 
 16 C       -6.1040    -1.0520     0.6650 C.3   1 <1>  -0.0960 
 17 C       -2.7680    -0.6410    -2.0410 C.ar  1 <1>  -0.1500 
 18 C       -6.0340     4.9980    -0.3070 C.ar  1 <1>  -0.1500 
 19 C       -3.8050     4.3040    -0.4700 C.ar  1 <1>  -0.1500 
 20 O       -7.6200     2.2260    -2.0610 O.2   1 <1>  -0.5700 
 21 N       -7.8570     2.2640     0.1650 N.am  1 <1>  -0.7300 
 22 C       -3.2820    -1.8880    -1.7470 C.ar  1 <1>  -0.1500 
 23 C       -4.8550    -3.4310    -0.5830 C.3   1 <1>  -0.0970 
 24 C       -5.5580     6.2620    -0.0020 C.ar  1 <1>   0.1600 
 25 C       -3.4340     5.6000    -0.1550 C.ar  1 <1>   0.1600 
 26 C       -9.3130     2.0900     0.2410 C.3   1 <1>   0.2200 
 27 N       -4.2790     6.5880     0.0800 N.ar  1 <1>  -0.6200 
 28 C       -9.9010     3.2500     1.0520 C.3   1 <1>  -0.1600 
 29 C       -9.6150     0.7400     0.8980 C.3   1 <1>  -0.1600 
 30 C      -11.4100     3.0660     1.2700 C.3   1 <1>  -0.1600 
 31 C      -11.1240     0.5530     1.1170 C.3   1 <1>  -0.1600 
 32 C      -11.7150     1.7140     1.9280 C.3   1 <1>  -0.1600 
 33 H       -4.1150     1.3050     4.1980 H     1 <1>   0.1500 
 34 H       -5.2190     2.3420    -1.8890 H     1 <1>   0.0800 
 35 H       -2.8970     1.4410    -1.6770 H     1 <1>   0.1500 
 36 H       -6.6880    -0.1560     0.7310 H     1 <1>   0.0800 
 37 H       -5.7540    -1.3070     1.6490 H     1 <1>   0.0800 
 38 H       -6.7680    -1.8230     0.3220 H     1 <1>   0.0800 
 39 H       -1.9390    -0.5470    -2.7210 H     1 <1>   0.1500 
 40 H       -7.0980     4.8520    -0.3480 H     1 <1>   0.1500 
 41 H       -3.0360     3.5730    -0.6420 H     1 <1>   0.1500 
 42 H       -7.3700     2.3240     1.0710 H     1 <1>   0.3700 
 43 H       -2.8430    -2.7550    -2.2080 H     1 <1>   0.1500 
 44 H       -5.8180    -3.5730    -1.0390 H     1 <1>   0.0800 
 45 H       -4.9390    -3.5890     0.4770 H     1 <1>   0.0800 
 46 H       -4.1830    -4.1720    -0.9750 H     1 <1>   0.0800 
 47 H       -6.2700     7.0490     0.1840 H     1 <1>   0.1500 
 48 H       -2.3850     5.8350    -0.0940 H     1 <1>   0.1500 
 49 H       -9.7350     2.1020    -0.7520 H     1 <1>   0.0800 
 50 H       -9.7280     4.1730     0.5280 H     1 <1>   0.0800 
 51 H       -9.4130     3.3020     2.0090 H     1 <1>   0.0800 
 52 H       -9.1130     0.6830     1.8480 H     1 <1>   0.0800 
 53 H       -9.2490    -0.0500     0.2670 H     1 <1>   0.0800 
 54 H      -11.9170     3.1220     0.3210 H     1 <1>   0.0800 
 55 H      -11.7850     3.8630     1.8900 H     1 <1>   0.0800 
 56 H      -11.3010    -0.3750     1.6330 H     1 <1>   0.0800 
 57 H      -11.6180     0.4980     0.1620 H     1 <1>   0.0800 
 58 H      -12.7800     1.5870     2.0150 H     1 <1>   0.0800 
 59 H      -11.3010     1.7010     2.9230 H     1 <1>   0.0800 
@<TRIPOS>BOND
  1   1   2  1   
  2   1   3  1   
  3   2   4  2   
  4   3   5  2   
  5   3  33  1   
  6   4   5  1   
  7   5   6  1   
  8   6   7  2   
  9   6   8  am  
 10   8   9  1   
 11   8  10  1   
 12   9  11  ar  
 13   9  12  ar  
 14  10  13  1   
 15  10  14  1   
 16  10  34  1   
 17  11  15  ar  
 18  11  16  1   
 19  12  17  ar  
 20  12  35  1   
 21  13  18  ar  
 22  13  19  ar  
 23  14  20  2   
 24  14  21  am  
 25  15  22  ar  
 26  15  23  1   
 27  16  36  1   
 28  16  37  1   
 29  16  38  1   
 30  17  22  ar  
 31  17  39  1   
 32  18  24  ar  
 33  18  40  1   
 34  19  25  ar  
 35  19  41  1   
 36  21  26  1   
 37  21  42  1   
 38  22  43  1   
 39  23  44  1   
 40  23  45  1   
 41  23  46  1   
 42  24  27  ar  
 43  24  47  1   
 44  25  27  ar  
 45  25  48  1   
 46  26  28  1   
 47  26  29  1   
 48  26  49  1   
 49  28  30  1   
 50  28  50  1   
 51  28  51  1   
 52  29  31  1   
 53  29  52  1   
 54  29  53  1   
 55  30  32  1   
 56  30  54  1   
 57  30  55  1   
 58  31  32  1   
 59  31  56  1   
 60  31  57  1   
 61  32  58  1   
 62  32  59  1   
@<TRIPOS>SUBSTRUCTURE
  1 ****   8 GROUP 4 **** **** 0

# MOE 2024.06 (io_trps.svl 2023.06)
