@<TRIPOS>MOLECULE
2-(3-Ethyl-6,7-dimethyl-quinolin-2-ylsulfanyl)-N-(5-methyl-[1,3,4]thiadiazol-2-yl)-acetamide
45 47 1 0 0 
SMALL
USER_CHARGES


@<TRIPOS>ATOM
  1 S       -0.0560     1.2840    -0.1880 S.3   1 <1>  -0.0800 
  2 C        1.0940     0.0130     0.0970 C.2   1 <1>   0.4420 
  3 C       -1.2990     0.1110     0.0700 C.2   1 <1>   0.1980 
  4 N        0.5240    -1.1090     0.3450 N.2   1 <1>  -0.3380 
  5 N        2.4550     0.2280     0.0520 N.am  1 <1>  -0.4940 
  6 N       -0.8420    -1.0460     0.3290 N.2   1 <1>  -0.3380 
  7 C       -2.7360     0.5680    -0.0340 C.3   1 <1>  -0.0600 
  8 C        3.2060     1.3430    -0.1950 C.2   1 <1>   0.5690 
  9 O        2.7270     2.4220    -0.4360 O.2   1 <1>  -0.5700 
 10 C        4.7230     1.2270    -0.1660 C.3   1 <1>   0.1310 
 11 S        5.2820    -0.5080     0.2210 S.3   1 <1>  -0.3320 
 12 C        7.0730    -0.3990     0.2000 C.ar  1 <1>   0.4120 
 13 N        7.5480     0.7790    -0.0610 N.ar  1 <1>  -0.6200 
 14 C        7.8280    -1.5640     0.4610 C.ar  1 <1>  -0.1430 
 15 C        8.8980     0.8960    -0.0850 C.ar  1 <1>   0.3100 
 16 C        9.1900    -1.4440     0.4370 C.ar  1 <1>  -0.1500 
 17 C        7.1100    -2.8870     0.7540 C.3   1 <1>  -0.0170 
 18 C        9.7610    -0.1900     0.1590 C.ar  1 <1>   0.0000 
 19 C        9.4660     2.1480    -0.3620 C.ar  1 <1>  -0.1500 
 20 C        8.0260    -4.0870     1.0220 C.3   1 <1>  -0.2400 
 21 C       11.1520     0.0250     0.1140 C.ar  1 <1>  -0.1500 
 22 C       10.8230     2.3440    -0.4030 C.ar  1 <1>  -0.1430 
 23 C       11.6830     1.2590    -0.1600 C.ar  1 <1>  -0.1430 
 24 C       11.3750     3.7290    -0.7100 C.3   1 <1>  -0.0970 
 25 C       13.1940     1.4370    -0.1970 C.3   1 <1>  -0.0970 
 26 H        2.9990    -0.6140     0.2400 H     1 <1>   0.3700 
 27 H       -2.9250     0.9550    -1.0190 H     1 <1>   0.0800 
 28 H       -2.9290     1.3360     0.6920 H     1 <1>   0.0800 
 29 H       -3.3950    -0.2610     0.1490 H     1 <1>   0.0800 
 30 H        5.1310     1.8710     0.5910 H     1 <1>   0.0800 
 31 H        5.1340     1.4890    -1.1230 H     1 <1>   0.0800 
 32 H        9.8540    -2.2670     0.6210 H     1 <1>   0.1500 
 33 H        6.4780    -3.1280    -0.0840 H     1 <1>   0.0800 
 34 H        6.4750    -2.7510     1.6130 H     1 <1>   0.0800 
 35 H        8.7850     2.9580    -0.5440 H     1 <1>   0.1500 
 36 H        8.6490    -4.2840     0.1680 H     1 <1>   0.0800 
 37 H        7.4310    -4.9620     1.2160 H     1 <1>   0.0800 
 38 H        8.6460    -3.9030     1.8820 H     1 <1>   0.0800 
 39 H       11.7950    -0.8160     0.3020 H     1 <1>   0.1500 
 40 H       10.5790     4.4340    -0.8690 H     1 <1>   0.0800 
 41 H       11.9790     3.6980    -1.6000 H     1 <1>   0.0800 
 42 H       11.9750     4.0780     0.1100 H     1 <1>   0.0800 
 43 H       13.6970     0.5100     0.0110 H     1 <1>   0.0800 
 44 H       13.4990     2.1570     0.5410 H     1 <1>   0.0800 
 45 H       13.5030     1.7760    -1.1690 H     1 <1>   0.0800 
@<TRIPOS>BOND
  1   1   2  1   
  2   1   3  1   
  3   2   4  2   
  4   2   5  1   
  5   3   6  2   
  6   3   7  1   
  7   4   6  1   
  8   5   8  am  
  9   5  26  1   
 10   7  27  1   
 11   7  28  1   
 12   7  29  1   
 13   8   9  2   
 14   8  10  1   
 15  10  11  1   
 16  10  30  1   
 17  10  31  1   
 18  11  12  1   
 19  12  13  ar  
 20  12  14  ar  
 21  13  15  ar  
 22  14  16  ar  
 23  14  17  1   
 24  15  18  ar  
 25  15  19  ar  
 26  16  18  ar  
 27  16  32  1   
 28  17  20  1   
 29  17  33  1   
 30  17  34  1   
 31  18  21  ar  
 32  19  22  ar  
 33  19  35  1   
 34  20  36  1   
 35  20  37  1   
 36  20  38  1   
 37  21  23  ar  
 38  21  39  1   
 39  22  23  ar  
 40  22  24  1   
 41  23  25  1   
 42  24  40  1   
 43  24  41  1   
 44  24  42  1   
 45  25  43  1   
 46  25  44  1   
 47  25  45  1   
@<TRIPOS>SUBSTRUCTURE
  1 ****  11 GROUP 4 **** **** 0

# MOE 2024.06 (io_trps.svl 2023.06)
