@<TRIPOS>MOLECULE
NONAME
51 53 1 0 0 
SMALL
USER_CHARGES


@<TRIPOS>ATOM
  1 S       -0.3910    -0.0400    -1.9930 S.o2  1 <1>   1.4470 
  2 O        0.5510     0.8730    -2.6010 O.2   1 <1>  -0.6500 
  3 O       -1.0500    -1.0380    -2.8020 O.2   1 <1>  -0.6500 
  4 N        0.5220    -0.9010    -0.8460 N.am  1 <1>  -0.8490 
  5 C       -1.6090     0.8560    -0.9870 C.ar  1 <1>  -0.0090 
  6 C        1.3750    -0.0170    -0.0290 C.3   1 <1>   0.1960 
  7 C        1.3180    -1.9530    -1.5080 C.3   1 <1>   0.1960 
  8 C       -2.5220     0.1720    -0.1930 C.ar  1 <1>  -0.1500 
  9 C       -1.6520     2.2440    -0.9730 C.ar  1 <1>  -0.1500 
 10 C        2.2050    -0.8130     1.0030 C.3   1 <1>   0.3430 
 11 C        2.1620    -2.7670    -0.5050 C.3   1 <1>   0.3430 
 12 C       -3.4500     0.8230     0.6110 C.ar  1 <1>  -0.0090 
 13 C       -2.5670     2.9200    -0.1880 C.ar  1 <1>  -0.1500 
 14 N        3.0380    -1.8890     0.3560 N.4   1 <1>  -0.9590 
 15 S       -4.6130    -0.1240     1.6360 S.o2  1 <1>   1.4470 
 16 C       -3.4560     2.2120     0.5980 C.ar  1 <1>  -0.1500 
 17 C        3.7860    -2.6660     1.3800 C.3   1 <1>   0.3430 
 18 O       -5.4700     0.7730     2.3830 O.2   1 <1>  -0.6500 
 19 O       -3.8660    -1.1470     2.3360 O.2   1 <1>  -0.6500 
 20 N       -5.5790    -0.9140     0.4930 N.am  1 <1>  -0.8490 
 21 C        4.8800    -3.4850     0.7050 C.3   1 <1>  -0.2400 
 22 C       -6.3750    -1.9820     1.0690 C.3   1 <1>   0.1960 
 23 C       -6.5260    -0.0580    -0.2040 C.3   1 <1>   0.1960 
 24 C       -7.4290    -2.2900     0.0120 C.3   1 <1>  -0.1600 
 25 C       -7.5000    -1.0320    -0.8540 C.3   1 <1>  -0.1600 
 26 H        0.7550     0.6880     0.5000 H     1 <1>   0.0800 
 27 H        2.0460     0.5440    -0.6580 H     1 <1>   0.0800 
 28 H        1.9640    -1.5130    -2.2510 H     1 <1>   0.0800 
 29 H        0.6560    -2.6340    -2.0190 H     1 <1>   0.0800 
 30 H       -2.5150    -0.9070    -0.1980 H     1 <1>   0.1500 
 31 H       -0.9640     2.8060    -1.5850 H     1 <1>   0.1500 
 32 H        1.5250    -1.2580     1.7110 H     1 <1>   0.0800 
 33 H        2.8420    -0.1310     1.5420 H     1 <1>   0.0800 
 34 H        2.7680    -3.4710    -1.0510 H     1 <1>   0.0800 
 35 H        1.4880    -3.3300     0.1210 H     1 <1>   0.0800 
 36 H       -2.5880     3.9980    -0.1880 H     1 <1>   0.1500 
 37 H        3.7280    -1.4330    -0.2570 H     1 <1>   0.4500 
 38 H       -4.1650     2.7450     1.2120 H     1 <1>   0.1500 
 39 H        3.1150    -3.3160     1.9210 H     1 <1>   0.0800 
 40 H        4.2430    -1.9910     2.0860 H     1 <1>   0.0800 
 41 H        4.4690    -4.2400     0.0600 H     1 <1>   0.0800 
 42 H        5.4580    -3.9860     1.4620 H     1 <1>   0.0800 
 43 H        5.5470    -2.8510     0.1480 H     1 <1>   0.0800 
 44 H       -6.8520    -1.6370     1.9730 H     1 <1>   0.0800 
 45 H       -5.7630    -2.8410     1.2930 H     1 <1>   0.0800 
 46 H       -6.0300     0.5610    -0.9330 H     1 <1>   0.0800 
 47 H       -7.0580     0.5640     0.4980 H     1 <1>   0.0800 
 48 H       -8.3740    -2.5170     0.4750 H     1 <1>   0.0800 
 49 H       -7.1160    -3.1330    -0.5790 H     1 <1>   0.0800 
 50 H       -7.1740    -1.2520    -1.8550 H     1 <1>   0.0800 
 51 H       -8.4920    -0.6170    -0.8900 H     1 <1>   0.0800 
@<TRIPOS>BOND
  1   1   2  2   
  2   1   3  2   
  3   1   4  am  
  4   1   5  1   
  5   4   6  1   
  6   4   7  1   
  7   5   8  ar  
  8   5   9  ar  
  9   6  10  1   
 10   6  26  1   
 11   6  27  1   
 12   7  11  1   
 13   7  28  1   
 14   7  29  1   
 15   8  12  ar  
 16   8  30  1   
 17   9  13  ar  
 18   9  31  1   
 19  10  14  1   
 20  10  32  1   
 21  10  33  1   
 22  11  14  1   
 23  11  34  1   
 24  11  35  1   
 25  12  15  1   
 26  12  16  ar  
 27  13  16  ar  
 28  13  36  1   
 29  14  17  1   
 30  14  37  1   
 31  15  18  2   
 32  15  19  2   
 33  15  20  am  
 34  16  38  1   
 35  17  21  1   
 36  17  39  1   
 37  17  40  1   
 38  20  22  1   
 39  20  23  1   
 40  21  41  1   
 41  21  42  1   
 42  21  43  1   
 43  22  24  1   
 44  22  44  1   
 45  22  45  1   
 46  23  25  1   
 47  23  46  1   
 48  23  47  1   
 49  24  25  1   
 50  24  48  1   
 51  24  49  1   
 52  25  50  1   
 53  25  51  1   
@<TRIPOS>SUBSTRUCTURE
  1 ****   8 GROUP 4 **** **** 0

# MOE 2024.06 (io_trps.svl 2023.06)
