@<TRIPOS>MOLECULE
10048
41 43 1 0 0 
SMALL
USER_CHARGES


@<TRIPOS>ATOM
  1 O       -1.9060    -1.3660     2.3510 O.2   1 <1>  -0.5700 
  2 C       -1.2330    -1.6480     1.3790 C.2   1 <1>   0.7060 
  3 O        0.0930    -1.4820     1.4520 O.3   1 <1>  -0.4300 
  4 C       -1.7980    -2.1300     0.1610 C.2   1 <1>  -0.1240 
  5 C        0.7100    -0.9560     2.6120 C.3   1 <1>   0.0400 
  6 C       -1.2570    -3.0110    -0.7360 C.2   1 <1>  -0.0380 
  7 C       -3.1840    -1.5090    -0.1020 C.3   1 <1>   0.4570 
  8 N       -1.9390    -3.3710    -1.8760 N.pl3 1 <1>  -0.5840 
  9 C        0.0900    -3.7020    -0.5970 C.3   1 <1>  -0.1020 
 10 N       -3.8500    -2.1240    -1.2750 N.pl3 1 <1>   0.3140 
 11 C       -3.0370    -0.0030    -0.3510 C.ar  1 <1>  -0.1440 
 12 C       -3.2460    -2.9620    -2.0920 C.2   1 <1>   0.2700 
 13 N       -5.0870    -1.9540    -1.7160 N.2   1 <1>  -0.4180 
 14 C       -3.7730     0.9130     0.3950 C.ar  1 <1>   0.0820 
 15 C       -2.1620     0.4590    -1.3270 C.ar  1 <1>  -0.1500 
 16 N       -4.0410    -3.3170    -3.0310 N.2   1 <1>  -0.3380 
 17 N       -5.1830    -2.6760    -2.7760 N.2   1 <1>   0.0000 
 18 O       -4.6260     0.4230     1.3310 O.3   1 <1>  -0.3630 
 19 C       -3.6170     2.2760     0.1630 C.ar  1 <1>  -0.1500 
 20 C       -2.0110     1.8140    -1.5560 C.ar  1 <1>  -0.1500 
 21 C       -5.3230     1.2730     2.2140 C.3   1 <1>   0.0400 
 22 C       -2.7400     2.7310    -0.8060 C.ar  1 <1>   0.0820 
 23 O       -2.6500     4.0750    -0.9640 O.3   1 <1>  -0.3630 
 24 C       -1.8150     4.6440    -1.9480 C.3   1 <1>   0.0400 
 25 H        1.7710    -0.9070     2.4410 H     1 <1>   0.0800 
 26 H        0.4970    -1.6030     3.4450 H     1 <1>   0.0800 
 27 H        0.3190     0.0300     2.7970 H     1 <1>   0.0800 
 28 H       -3.8160    -1.7040     0.7450 H     1 <1>   0.0800 
 29 H       -1.5550    -4.0360    -2.5570 H     1 <1>   0.4000 
 30 H        0.0070    -4.7360    -0.8810 H     1 <1>   0.0800 
 31 H        0.4530    -3.6800     0.4130 H     1 <1>   0.0800 
 32 H        0.8130    -3.2260    -1.2350 H     1 <1>   0.0800 
 33 H       -1.5900    -0.2350    -1.9200 H     1 <1>   0.1500 
 34 H       -4.1660     3.0100     0.7170 H     1 <1>   0.1500 
 35 H       -1.3260     2.1350    -2.3170 H     1 <1>   0.1500 
 36 H       -5.8920     0.6590     2.8890 H     1 <1>   0.0800 
 37 H       -5.9860     1.9010     1.6450 H     1 <1>   0.0800 
 38 H       -4.6120     1.8610     2.7670 H     1 <1>   0.0800 
 39 H       -1.9170     5.7130    -1.8950 H     1 <1>   0.0800 
 40 H       -2.1280     4.2950    -2.9160 H     1 <1>   0.0800 
 41 H       -0.7960     4.3640    -1.7460 H     1 <1>   0.0800 
@<TRIPOS>BOND
  1   1   2  2   
  2   2   3  1   
  3   2   4  1   
  4   3   5  1   
  5   4   6  2   
  6   4   7  1   
  7   5  25  1   
  8   5  26  1   
  9   5  27  1   
 10   6   8  1   
 11   6   9  1   
 12   7  10  1   
 13   7  11  1   
 14   7  28  1   
 15   8  12  1   
 16   8  29  1   
 17   9  30  1   
 18   9  31  1   
 19   9  32  1   
 20  10  12  1   
 21  10  13  1   
 22  11  14  ar  
 23  11  15  ar  
 24  12  16  2   
 25  13  17  2   
 26  14  18  1   
 27  14  19  ar  
 28  15  20  ar  
 29  15  33  1   
 30  16  17  1   
 31  18  21  1   
 32  19  22  ar  
 33  19  34  1   
 34  20  22  ar  
 35  20  35  1   
 36  21  36  1   
 37  21  37  1   
 38  21  38  1   
 39  22  23  1   
 40  23  24  1   
 41  24  39  1   
 42  24  40  1   
 43  24  41  1   
@<TRIPOS>SUBSTRUCTURE
  1 ****  11 GROUP 4 **** **** 0

# MOE 2024.06 (io_trps.svl 2023.06)
