@<TRIPOS>MOLECULE
ka-00581
25 26 1 0 0 
SMALL
USER_CHARGES


@<TRIPOS>ATOM
  1 O       -0.5490    -1.0580     1.3920 O.2   1 <1>  -0.5700 
  2 C       -0.0190    -1.8730     0.6830 C.2   1 <1>   0.5690 
  3 N       -0.6440    -2.6620    -0.2280 N.am  1 <1>  -0.4200 
  4 C        1.4650    -2.1590     0.7120 C.3   1 <1>  -0.0990 
  5 C        0.2290    -3.4990    -0.8450 C.2   1 <1>   0.5690 
  6 C       -2.0960    -2.6090    -0.5190 C.3   1 <1>   0.1400 
  7 C        1.6350    -3.2760    -0.3370 C.3   1 <1>  -0.0990 
  8 O       -0.0520    -4.3230    -1.6750 O.2   1 <1>  -0.5700 
  9 C       -2.8580    -3.5800     0.3870 C.3   1 <1>   0.0200 
 10 C       -4.3560    -3.5580     0.1190 C.2   1 <1>  -0.3320 
 11 N       -5.2260    -4.3310     0.7970 N.pl3 1 <1>   0.0330 
 12 C       -5.1000    -2.8430    -0.7580 C.2   1 <1>   0.0770 
 13 C       -6.4390    -4.0350     0.2870 C.2   1 <1>   0.0360 
 14 N       -6.4070    -3.1450    -0.6500 N.2   1 <1>  -0.5650 
 15 H        1.7550    -2.4890     1.6930 H     1 <1>   0.0800 
 16 H        2.0130    -1.2750     0.4420 H     1 <1>   0.0800 
 17 H       -2.2600    -2.8710    -1.5510 H     1 <1>   0.0800 
 18 H       -2.4540    -1.6070    -0.3590 H     1 <1>   0.0800 
 19 H        2.0130    -4.1800     0.1040 H     1 <1>   0.0800 
 20 H        2.2710    -2.9660    -1.1460 H     1 <1>   0.0800 
 21 H       -2.6820    -3.3110     1.4140 H     1 <1>   0.0800 
 22 H       -2.4890    -4.5770     0.2200 H     1 <1>   0.0800 
 23 H       -5.0220    -5.0030     1.5420 H     1 <1>   0.2700 
 24 H       -4.7670    -2.1130    -1.4770 H     1 <1>   0.1500 
 25 H       -7.3400    -4.5070     0.6400 H     1 <1>   0.1500 
@<TRIPOS>BOND
  1   1   2  2   
  2   2   3  am  
  3   2   4  1   
  4   3   5  am  
  5   3   6  1   
  6   4   7  1   
  7   4  15  1   
  8   4  16  1   
  9   5   7  1   
 10   5   8  2   
 11   6   9  1   
 12   6  17  1   
 13   6  18  1   
 14   7  19  1   
 15   7  20  1   
 16   9  10  1   
 17   9  21  1   
 18   9  22  1   
 19  10  11  1   
 20  10  12  2   
 21  11  13  1   
 22  11  23  1   
 23  12  14  1   
 24  12  24  1   
 25  13  14  2   
 26  13  25  1   
@<TRIPOS>SUBSTRUCTURE
  1 ****   6 GROUP 4 **** **** 0

# MOE 2024.06 (io_trps.svl 2023.06)
