@<TRIPOS>MOLECULE
13325
29 30 1 0 0 
SMALL
USER_CHARGES


@<TRIPOS>ATOM
  1 O        0.4790    -1.4480     2.1620 O.2   1 <1>  -0.5700 
  2 C        0.2890    -2.1780     1.1960 C.2   1 <1>   0.7670 
  3 N       -0.9840    -2.4480     0.8200 N.2   1 <1>  -0.6610 
  4 C        1.4020    -2.7190     0.4980 C.2   1 <1>  -0.1360 
  5 C       -1.1470    -3.2220    -0.2050 C.2   1 <1>   0.5500 
  6 C        1.1920    -3.5220    -0.5640 C.2   1 <1>  -0.0500 
  7 N       -0.1140    -3.7640    -0.9040 N.pl3 1 <1>  -0.5500 
  8 N       -2.3840    -3.5350    -0.6430 N.pl3 1 <1>  -0.8190 
  9 C       -3.6480    -3.0760    -0.0410 C.3   1 <1>   0.2890 
 10 C       -4.5280    -4.2980     0.2440 C.3   1 <1>  -0.1600 
 11 C       -4.3340    -2.1120    -1.0130 C.3   1 <1>  -0.1600 
 12 C       -5.9100    -3.8790     0.7660 C.3   1 <1>  -0.1600 
 13 C       -5.7170    -1.6880    -0.4950 C.3   1 <1>  -0.1600 
 14 C       -6.5990    -2.9100    -0.2050 C.3   1 <1>  -0.1600 
 15 H        2.3760    -2.4560     0.8600 H     1 <1>   0.1500 
 16 H        1.9790    -3.9730    -1.1470 H     1 <1>   0.1500 
 17 H       -0.3490    -4.3660    -1.6900 H     1 <1>   0.4000 
 18 H       -2.5070    -4.1050    -1.4740 H     1 <1>   0.4000 
 19 H       -3.4580    -2.5610     0.8870 H     1 <1>   0.0800 
 20 H       -4.0430    -4.9160     0.9780 H     1 <1>   0.0800 
 21 H       -4.6540    -4.8700    -0.6580 H     1 <1>   0.0800 
 22 H       -4.4490    -2.5860    -1.9720 H     1 <1>   0.0800 
 23 H       -3.7170    -1.2390    -1.1340 H     1 <1>   0.0800 
 24 H       -5.7980    -3.4010     1.7250 H     1 <1>   0.0800 
 25 H       -6.5250    -4.7520     0.9030 H     1 <1>   0.0800 
 26 H       -6.1980    -1.0580    -1.2240 H     1 <1>   0.0800 
 27 H       -5.5960    -1.1130     0.4080 H     1 <1>   0.0800 
 28 H       -7.5360    -2.5850     0.2150 H     1 <1>   0.0800 
 29 H       -6.8140    -3.4220    -1.1280 H     1 <1>   0.0800 
@<TRIPOS>BOND
  1   1   2  2   
  2   2   3  1   
  3   2   4  1   
  4   3   5  2   
  5   4   6  2   
  6   4  15  1   
  7   5   7  1   
  8   5   8  1   
  9   6   7  1   
 10   6  16  1   
 11   7  17  1   
 12   8   9  1   
 13   8  18  1   
 14   9  10  1   
 15   9  11  1   
 16   9  19  1   
 17  10  12  1   
 18  10  20  1   
 19  10  21  1   
 20  11  13  1   
 21  11  22  1   
 22  11  23  1   
 23  12  14  1   
 24  12  24  1   
 25  12  25  1   
 26  13  14  1   
 27  13  26  1   
 28  13  27  1   
 29  14  28  1   
 30  14  29  1   
@<TRIPOS>SUBSTRUCTURE
  1 ****   8 GROUP 4 **** **** 0

# MOE 2024.06 (io_trps.svl 2023.06)
