@<TRIPOS>MOLECULE
2-Acetylamino-3-(4-fluoro-phenyl)-N-[1-(pyrazine-2-carbonyl)-piperidin-4-yl]-propionamide
54 56 1 0 0 
SMALL
USER_CHARGES


@<TRIPOS>ATOM
  1 F       -0.7740     1.4530    -1.1370 F     1 <1>  -0.1900 
  2 C       -1.9090     1.0150    -0.6630 C.ar  1 <1>   0.1900 
  3 C       -2.6490     0.1270    -1.4180 C.ar  1 <1>  -0.1500 
  4 C       -2.3280     1.4580     0.5770 C.ar  1 <1>  -0.1500 
  5 C       -3.8540    -0.3310    -0.9100 C.ar  1 <1>  -0.1500 
  6 C       -3.5340     0.9930     1.0740 C.ar  1 <1>  -0.1500 
  7 C       -4.3020     0.1020     0.3330 C.ar  1 <1>  -0.1430 
  8 C       -5.6360    -0.3950     0.8800 C.3   1 <1>  -0.0160 
  9 C       -6.8440     0.0950     0.0580 C.3   1 <1>   0.2810 
 10 N       -6.7240     1.5480    -0.1510 N.am  1 <1>  -0.7300 
 11 C       -8.1910    -0.3500     0.6970 C.2   1 <1>   0.5690 
 12 C       -7.3770     2.2190    -1.0910 C.2   1 <1>   0.5690 
 13 O       -8.2190    -0.9130     1.7890 O.2   1 <1>  -0.5700 
 14 N       -9.3370    -0.1010     0.0120 N.am  1 <1>  -0.7300 
 15 O       -8.1900     1.6840    -1.8320 O.2   1 <1>  -0.5700 
 16 C       -7.0720     3.6960    -1.2140 C.3   1 <1>  -0.1790 
 17 C      -10.7020    -0.4100     0.4530 C.3   1 <1>   0.2200 
 18 C      -11.3760    -1.2980    -0.5910 C.3   1 <1>  -0.1600 
 19 C      -11.4750     0.8950     0.6300 C.3   1 <1>  -0.1600 
 20 C      -12.8260    -1.5790    -0.1950 C.3   1 <1>   0.1400 
 21 C      -12.9340     0.6250     1.0070 C.3   1 <1>   0.1400 
 22 N      -13.5600    -0.2950     0.0130 N.am  1 <1>  -0.6600 
 23 C      -14.7590    -0.0350    -0.6380 C.2   1 <1>   0.5440 
 24 O      -15.0310    -0.7130    -1.6150 O.2   1 <1>  -0.5700 
 25 C      -15.7070     1.0080    -0.2390 C.ar  1 <1>   0.3960 
 26 N      -15.9450     1.2850     1.0570 N.ar  1 <1>  -0.6200 
 27 C      -16.3790     1.7010    -1.2540 C.ar  1 <1>   0.1600 
 28 C      -16.8400     2.2390     1.2350 C.ar  1 <1>   0.1600 
 29 N      -17.2700     2.6660    -1.0780 N.ar  1 <1>  -0.6200 
 30 C      -17.4810     2.9100     0.2020 C.ar  1 <1>   0.1600 
 31 H       -2.2890    -0.1960    -2.3770 H     1 <1>   0.1500 
 32 H       -1.7200     2.1460     1.1360 H     1 <1>   0.1500 
 33 H       -4.4380    -1.0250    -1.4890 H     1 <1>   0.1500 
 34 H       -3.8670     1.3270     2.0420 H     1 <1>   0.1500 
 35 H       -5.7540    -0.0770     1.9020 H     1 <1>   0.0800 
 36 H       -5.6340    -1.4700     0.8880 H     1 <1>   0.0800 
 37 H       -6.7920    -0.3870    -0.9190 H     1 <1>   0.0800 
 38 H       -6.0340     2.0330     0.3980 H     1 <1>   0.3700 
 39 H       -9.2600     0.4640    -0.8490 H     1 <1>   0.3700 
 40 H       -6.0130     3.8280    -1.4320 H     1 <1>   0.0800 
 41 H       -7.3190     4.1960    -0.2790 H     1 <1>   0.0800 
 42 H       -7.6650     4.1200    -2.0240 H     1 <1>   0.0800 
 43 H      -10.6680    -0.9340     1.3960 H     1 <1>   0.0800 
 44 H      -10.8450    -2.2290    -0.6660 H     1 <1>   0.0800 
 45 H      -11.3660    -0.8170    -1.5530 H     1 <1>   0.0800 
 46 H      -11.4520     1.4620    -0.2840 H     1 <1>   0.0800 
 47 H      -11.0140     1.4800     1.4050 H     1 <1>   0.0800 
 48 H      -12.8510    -2.1440     0.7200 H     1 <1>   0.0800 
 49 H      -13.2950    -2.1730    -0.9600 H     1 <1>   0.0800 
 50 H      -13.4540     1.5650     1.0430 H     1 <1>   0.0800 
 51 H      -12.9860     0.1730     1.9830 H     1 <1>   0.0800 
 52 H      -16.1570     1.4290    -2.2720 H     1 <1>   0.1500 
 53 H      -17.0810     2.5070     2.2490 H     1 <1>   0.1500 
 54 H      -18.1960     3.6770     0.4460 H     1 <1>   0.1500 
@<TRIPOS>BOND
  1   1   2  1   
  2   2   3  ar  
  3   2   4  ar  
  4   3   5  ar  
  5   3  31  1   
  6   4   6  ar  
  7   4  32  1   
  8   5   7  ar  
  9   5  33  1   
 10   6   7  ar  
 11   6  34  1   
 12   7   8  1   
 13   8   9  1   
 14   8  35  1   
 15   8  36  1   
 16   9  10  1   
 17   9  11  1   
 18   9  37  1   
 19  10  12  am  
 20  10  38  1   
 21  11  13  2   
 22  11  14  am  
 23  12  15  2   
 24  12  16  1   
 25  14  17  1   
 26  14  39  1   
 27  16  40  1   
 28  16  41  1   
 29  16  42  1   
 30  17  18  1   
 31  17  19  1   
 32  17  43  1   
 33  18  20  1   
 34  18  44  1   
 35  18  45  1   
 36  19  21  1   
 37  19  46  1   
 38  19  47  1   
 39  20  22  1   
 40  20  48  1   
 41  20  49  1   
 42  21  22  1   
 43  21  50  1   
 44  21  51  1   
 45  22  23  am  
 46  23  24  2   
 47  23  25  1   
 48  25  26  ar  
 49  25  27  ar  
 50  26  28  ar  
 51  27  29  ar  
 52  27  52  1   
 53  28  30  ar  
 54  28  53  1   
 55  29  30  ar  
 56  30  54  1   
@<TRIPOS>SUBSTRUCTURE
  1 ****  14 GROUP 4 **** **** 0

# MOE 2024.06 (io_trps.svl 2023.06)
