@<TRIPOS>MOLECULE
2-[4-(2-Methoxy-ethyl)-5-thiophen-2-yl-4H-[1,2,4]triazol-3-ylsulfanyl]-acetamide
33 34 1 0 0 
SMALL
USER_CHARGES


@<TRIPOS>ATOM
  1 S       -0.0850     1.6490    -1.0000 S.3   1 <1>  -0.0800 
  2 C        0.8980     1.1290     0.3760 C.2   1 <1>   0.0400 
  3 C       -1.5560     1.0120    -0.2940 C.2   1 <1>  -0.1100 
  4 C        2.3210     1.3490     0.4310 C.2   1 <1>   0.1860 
  5 C        0.0820     0.5080     1.2660 C.2   1 <1>  -0.1500 
  6 C       -1.2940     0.4450     0.8960 C.2   1 <1>  -0.1500 
  7 N        3.1020     0.6300     1.1970 N.2   1 <1>  -0.3380 
  8 N        3.0530     2.2830    -0.2270 N.pl3 1 <1>   0.0480 
  9 N        4.3490     1.0650     1.0530 N.2   1 <1>  -0.3380 
 10 C        4.2840     2.0360     0.2160 C.2   1 <1>   0.2420 
 11 C        2.6500     3.3980    -1.1170 C.3   1 <1>   0.0960 
 12 S        5.7270     2.9790    -0.2860 S.3   1 <1>  -0.2860 
 13 C        1.9570     4.4940    -0.3100 C.3   1 <1>   0.1200 
 14 C        7.1110     2.1400     0.6360 C.3   1 <1>   0.1310 
 15 O        1.6260     5.5180    -1.1880 O.3   1 <1>  -0.5600 
 16 C        8.4600     2.7850     0.3500 C.2   1 <1>   0.5690 
 17 C        0.9450     6.5750    -0.5930 C.3   1 <1>   0.0400 
 18 O        9.4560     2.2850     0.8040 O.2   1 <1>  -0.5700 
 19 N        8.5580     3.9040    -0.3960 N.am  1 <1>  -0.8000 
 20 H       -2.4700     1.1300    -0.8510 H     1 <1>   0.1500 
 21 H        0.4240     0.0800     2.1930 H     1 <1>   0.1500 
 22 H       -2.0200    -0.0230     1.5390 H     1 <1>   0.1500 
 23 H        2.0010     3.0290    -1.8870 H     1 <1>   0.0800 
 24 H        3.5200     3.8110    -1.5920 H     1 <1>   0.0800 
 25 H        2.6210     4.8890     0.4410 H     1 <1>   0.0800 
 26 H        1.0540     4.1240     0.1440 H     1 <1>   0.0800 
 27 H        7.1180     1.1110     0.3310 H     1 <1>   0.0800 
 28 H        6.8820     2.2050     1.6840 H     1 <1>   0.0800 
 29 H        0.7430     7.3120    -1.3510 H     1 <1>   0.0800 
 30 H        1.5590     7.0080     0.1780 H     1 <1>   0.0800 
 31 H        0.0170     6.2160    -0.1820 H     1 <1>   0.0800 
 32 H        9.4730     4.3160    -0.5770 H     1 <1>   0.3700 
 33 H        7.7470     4.3590    -0.8180 H     1 <1>   0.3700 
@<TRIPOS>BOND
  1   1   2  1   
  2   1   3  1   
  3   2   4  1   
  4   2   5  2   
  5   3   6  2   
  6   3  20  1   
  7   4   7  2   
  8   4   8  1   
  9   5   6  1   
 10   5  21  1   
 11   6  22  1   
 12   7   9  1   
 13   8  10  1   
 14   8  11  1   
 15   9  10  2   
 16  10  12  1   
 17  11  13  1   
 18  11  23  1   
 19  11  24  1   
 20  12  14  1   
 21  13  15  1   
 22  13  25  1   
 23  13  26  1   
 24  14  16  1   
 25  14  27  1   
 26  14  28  1   
 27  15  17  1   
 28  16  18  2   
 29  16  19  am  
 30  17  29  1   
 31  17  30  1   
 32  17  31  1   
 33  19  32  1   
 34  19  33  1   
@<TRIPOS>SUBSTRUCTURE
  1 ****   8 GROUP 4 **** **** 0

# MOE 2024.06 (io_trps.svl 2023.06)
