@<TRIPOS>MOLECULE
Pyrrolidine-1,2-dicarboxylic acid 2-(4-methoxy-benzylamide) 1-[(2-methoxy-phenyl)-amide]
53 55 1 0 0 
SMALL
USER_CHARGES


@<TRIPOS>ATOM
  1 O        2.5480    -1.2720    -1.1210 O.2   1 <1>  -0.5700 
  2 C        2.7320    -0.1940    -0.5900 C.2   1 <1>   0.6900 
  3 N        3.7250    -0.0370     0.3400 N.am  1 <1>  -0.6600 
  4 N        1.9020     0.8270    -0.9260 N.am  1 <1>  -0.5470 
  5 C        4.7940    -1.0510     0.5930 C.3   1 <1>   0.2810 
  6 C        3.8330     1.0940     1.2930 C.3   1 <1>   0.1400 
  7 C        2.1850     2.1290    -1.3730 C.ar  1 <1>   0.1170 
  8 C        4.3000    -2.2650     1.4230 C.2   1 <1>   0.5690 
  9 C        5.8710    -0.2150     1.2930 C.3   1 <1>  -0.1600 
 10 C        5.0840     0.8030     2.1180 C.3   1 <1>  -0.1600 
 11 C        1.1510     3.0680    -1.4630 C.ar  1 <1>   0.0820 
 12 C        3.4680     2.5020    -1.7570 C.ar  1 <1>  -0.1500 
 13 O        4.7930    -2.5320     2.4970 O.2   1 <1>  -0.5700 
 14 N        3.3090    -3.0340     0.9110 N.am  1 <1>  -0.7300 
 15 O       -0.1040     2.6560    -1.1090 O.3   1 <1>  -0.3620 
 16 C        1.4230     4.3590    -1.9050 C.ar  1 <1>  -0.1500 
 17 C        3.7320     3.7860    -2.1970 C.ar  1 <1>  -0.1500 
 18 C        2.7130    -4.2210     1.5390 C.3   1 <1>   0.2840 
 19 C       -1.2070     3.5340    -1.1610 C.3   1 <1>   0.0400 
 20 C        2.7110     4.7160    -2.2680 C.ar  1 <1>  -0.1500 
 21 C        2.2930    -5.1920     0.4480 C.ar  1 <1>  -0.1440 
 22 C        2.9060    -6.4300     0.3350 C.ar  1 <1>  -0.1500 
 23 C        1.2910    -4.8470    -0.4480 C.ar  1 <1>  -0.1500 
 24 C        2.5180    -7.3130    -0.6570 C.ar  1 <1>  -0.1500 
 25 C        0.9020    -5.7280    -1.4420 C.ar  1 <1>  -0.1500 
 26 C        1.5170    -6.9720    -1.5510 C.ar  1 <1>   0.0820 
 27 O        1.1980    -7.8930    -2.4950 O.3   1 <1>  -0.3620 
 28 C        0.2240    -7.6250    -3.4790 C.3   1 <1>   0.0400 
 29 H        0.9680     0.5080    -1.1780 H     1 <1>   0.3700 
 30 H        5.1690    -1.4210    -0.3450 H     1 <1>   0.0800 
 31 H        2.9550     1.1500     1.9140 H     1 <1>   0.0800 
 32 H        3.9530     2.0180     0.7580 H     1 <1>   0.0800 
 33 H        6.4510     0.2960     0.5450 H     1 <1>   0.0800 
 34 H        6.5360    -0.8090     1.8950 H     1 <1>   0.0800 
 35 H        4.7910     0.3600     3.0550 H     1 <1>   0.0800 
 36 H        5.6500     1.6950     2.3170 H     1 <1>   0.0800 
 37 H        4.2660     1.7830    -1.7160 H     1 <1>   0.1500 
 38 H        2.8780    -2.7360     0.0220 H     1 <1>   0.3700 
 39 H        0.6520     5.1020    -1.9780 H     1 <1>   0.1500 
 40 H        4.7320     4.0610    -2.4860 H     1 <1>   0.1500 
 41 H        1.8540    -3.9240     2.1140 H     1 <1>   0.0800 
 42 H        3.4270    -4.6780     2.2030 H     1 <1>   0.0800 
 43 H       -2.0790     2.9950    -0.8370 H     1 <1>   0.0800 
 44 H       -1.3410     3.8690    -2.1740 H     1 <1>   0.0800 
 45 H       -1.0250     4.3630    -0.5000 H     1 <1>   0.0800 
 46 H        2.9170     5.7160    -2.6100 H     1 <1>   0.1500 
 47 H        3.6900    -6.7120     1.0170 H     1 <1>   0.1500 
 48 H        0.8120    -3.8850    -0.3750 H     1 <1>   0.1500 
 49 H        2.9920    -8.2730    -0.7470 H     1 <1>   0.1500 
 50 H        0.1250    -5.4270    -2.1190 H     1 <1>   0.1500 
 51 H        0.1600    -8.4800    -4.1260 H     1 <1>   0.0800 
 52 H        0.5280    -6.7610    -4.0430 H     1 <1>   0.0800 
 53 H       -0.7230    -7.4580    -2.9960 H     1 <1>   0.0800 
@<TRIPOS>BOND
  1   1   2  2   
  2   2   3  am  
  3   2   4  am  
  4   3   5  1   
  5   3   6  1   
  6   4   7  1   
  7   4  29  1   
  8   5   8  1   
  9   5   9  1   
 10   5  30  1   
 11   6  10  1   
 12   6  31  1   
 13   6  32  1   
 14   7  11  ar  
 15   7  12  ar  
 16   8  13  2   
 17   8  14  am  
 18   9  10  1   
 19   9  33  1   
 20   9  34  1   
 21  10  35  1   
 22  10  36  1   
 23  11  15  1   
 24  11  16  ar  
 25  12  17  ar  
 26  12  37  1   
 27  14  18  1   
 28  14  38  1   
 29  15  19  1   
 30  16  20  ar  
 31  16  39  1   
 32  17  20  ar  
 33  17  40  1   
 34  18  21  1   
 35  18  41  1   
 36  18  42  1   
 37  19  43  1   
 38  19  44  1   
 39  19  45  1   
 40  20  46  1   
 41  21  22  ar  
 42  21  23  ar  
 43  22  24  ar  
 44  22  47  1   
 45  23  25  ar  
 46  23  48  1   
 47  24  26  ar  
 48  24  49  1   
 49  25  26  ar  
 50  25  50  1   
 51  26  27  1   
 52  27  28  1   
 53  28  51  1   
 54  28  52  1   
 55  28  53  1   
@<TRIPOS>SUBSTRUCTURE
  1 ****   1 GROUP 4 **** **** 0

# MOE 2024.06 (io_trps.svl 2023.06)
