@<TRIPOS>MOLECULE
4-(7-Cyano-[1,3]dioxolo[4,5-g]quinolin-6-yl)-[1,4]diazepane-1-carboxylic acid p-tolylamide
55 59 1 0 0 
SMALL
USER_CHARGES


@<TRIPOS>ATOM
  1 O        1.0030    -0.0420    -0.5040 O.2   1 <1>  -0.5700 
  2 C        0.8770    -0.7290     0.4930 C.2   1 <1>   0.6900 
  3 N        1.8470    -0.7130     1.4650 N.am  1 <1>  -0.6600 
  4 N       -0.2340    -1.5010     0.6830 N.am  1 <1>  -0.5470 
  5 C        2.8670     0.3830     1.4510 C.3   1 <1>   0.1400 
  6 C        2.0380    -1.8200     2.4490 C.3   1 <1>   0.1400 
  7 C       -1.2880    -1.8380    -0.1770 C.ar  1 <1>   0.1170 
  8 C        4.0390     0.0480     0.5160 C.3   1 <1>   0.2090 
  9 C        3.4950    -2.2760     2.6180 C.3   1 <1>  -0.1600 
 10 C       -1.1650    -1.8250    -1.5620 C.ar  1 <1>  -0.1500 
 11 C       -2.5050    -2.2250     0.3710 C.ar  1 <1>  -0.1500 
 12 N        4.9350    -0.9930     1.1040 N.pl3 1 <1>  -0.8380 
 13 C        4.3070    -2.3210     1.3200 C.3   1 <1>   0.2090 
 14 C       -2.2270    -2.1850    -2.3730 C.ar  1 <1>  -0.1500 
 15 C       -3.5680    -2.5860    -0.4370 C.ar  1 <1>  -0.1500 
 16 C        6.2910    -0.9120     0.8540 C.ar  1 <1>   0.4100 
 17 C       -3.4350    -2.5690    -1.8160 C.ar  1 <1>  -0.1440 
 18 N        6.7620    -1.7320    -0.0470 N.ar  1 <1>  -0.6200 
 19 C        7.0930     0.0240     1.5570 C.ar  1 <1>   0.0730 
 20 C       -4.5990    -2.9610    -2.7070 C.3   1 <1>  -0.0970 
 21 C        8.0800    -1.6770    -0.3350 C.ar  1 <1>   0.3100 
 22 C        6.4970     0.8720     2.5440 C.1   1 <1>   0.4840 
 23 C        8.4280     0.0890     1.2760 C.ar  1 <1>  -0.1500 
 24 C        8.9670    -0.7710     0.3070 C.ar  1 <1>   0.0000 
 25 C        8.5870    -2.5540    -1.3110 C.ar  1 <1>  -0.1500 
 26 N        6.0350     1.5730     3.3180 N.1   1 <1>  -0.5570 
 27 C       10.3350    -0.7630    -0.0410 C.ar  1 <1>  -0.1500 
 28 C        9.9170    -2.5150    -1.6190 C.ar  1 <1>   0.0820 
 29 C       10.7750    -1.6360    -0.9950 C.ar  1 <1>   0.0820 
 30 O       10.5930    -3.2510    -2.5040 O.3   1 <1>  -0.3620 
 31 O       12.0140    -1.7970    -1.4730 O.3   1 <1>  -0.3620 
 32 C       11.9530    -2.8300    -2.4530 C.3   1 <1>   0.4000 
 33 H       -0.3570    -1.7720     1.6500 H     1 <1>   0.3700 
 34 H        3.2320     0.5730     2.4450 H     1 <1>   0.0800 
 35 H        2.3990     1.2860     1.1000 H     1 <1>   0.0800 
 36 H        1.4700    -2.6760     2.1280 H     1 <1>   0.0800 
 37 H        1.6520    -1.5080     3.4040 H     1 <1>   0.0800 
 38 H        4.6050     0.9450     0.3400 H     1 <1>   0.0800 
 39 H        3.6610    -0.2900    -0.4350 H     1 <1>   0.0800 
 40 H        3.4760    -3.2650     3.0370 H     1 <1>   0.0800 
 41 H        3.9970    -1.6490     3.3340 H     1 <1>   0.0800 
 42 H       -0.2350    -1.5340    -2.0140 H     1 <1>   0.1500 
 43 H       -2.6280    -2.2420     1.4380 H     1 <1>   0.1500 
 44 H        3.6870    -2.5860     0.4790 H     1 <1>   0.0800 
 45 H        5.0780    -3.0670     1.4150 H     1 <1>   0.0800 
 46 H       -2.1050    -2.1610    -3.4410 H     1 <1>   0.1500 
 47 H       -4.5020    -2.8790     0.0100 H     1 <1>   0.1500 
 48 H       -4.2410    -3.4100    -3.6160 H     1 <1>   0.0800 
 49 H       -5.1760    -2.0880    -2.9530 H     1 <1>   0.0800 
 50 H       -5.2350    -3.6690    -2.2070 H     1 <1>   0.0800 
 51 H        9.0770     0.7830     1.7820 H     1 <1>   0.1500 
 52 H        7.9190    -3.2380    -1.7980 H     1 <1>   0.1500 
 53 H       11.0180    -0.0850     0.4360 H     1 <1>   0.1500 
 54 H       12.2460    -2.4380    -3.4110 H     1 <1>   0.0800 
 55 H       12.5750    -3.6530    -2.1510 H     1 <1>   0.0800 
@<TRIPOS>BOND
  1   1   2  2   
  2   2   3  am  
  3   2   4  am  
  4   3   5  1   
  5   3   6  1   
  6   4   7  1   
  7   4  33  1   
  8   5   8  1   
  9   5  34  1   
 10   5  35  1   
 11   6   9  1   
 12   6  36  1   
 13   6  37  1   
 14   7  10  ar  
 15   7  11  ar  
 16   8  12  1   
 17   8  38  1   
 18   8  39  1   
 19   9  13  1   
 20   9  40  1   
 21   9  41  1   
 22  10  14  ar  
 23  10  42  1   
 24  11  15  ar  
 25  11  43  1   
 26  12  13  1   
 27  12  16  1   
 28  13  44  1   
 29  13  45  1   
 30  14  17  ar  
 31  14  46  1   
 32  15  17  ar  
 33  15  47  1   
 34  16  18  ar  
 35  16  19  ar  
 36  17  20  1   
 37  18  21  ar  
 38  19  22  1   
 39  19  23  ar  
 40  20  48  1   
 41  20  49  1   
 42  20  50  1   
 43  21  24  ar  
 44  21  25  ar  
 45  22  26  3   
 46  23  24  ar  
 47  23  51  1   
 48  24  27  ar  
 49  25  28  ar  
 50  25  52  1   
 51  27  29  ar  
 52  27  53  1   
 53  28  29  ar  
 54  28  30  1   
 55  29  31  1   
 56  30  32  1   
 57  31  32  1   
 58  32  54  1   
 59  32  55  1   
@<TRIPOS>SUBSTRUCTURE
  1 ****  12 GROUP 4 **** **** 0

# MOE 2024.06 (io_trps.svl 2023.06)
