@<TRIPOS>MOLECULE
1-(5-Methyl-[1,2,4]triazolo[1,5-a]pyrimidin-7-yl)-piperidine-4-carboxylic acid (3-furan-2-yl-1-methyl-propyl
55 58 1 0 0 
SMALL
USER_CHARGES


@<TRIPOS>ATOM
  1 O        0.1710    -1.6720    -2.1120 O.2   1 <1>  -0.5700 
  2 C       -0.5200    -1.9610    -1.1670 C.2   1 <1>   0.5690 
  3 N       -0.0430    -1.9440     0.1050 N.am  1 <1>  -0.7300 
  4 C       -1.9700    -2.3580    -1.4200 C.3   1 <1>  -0.0190 
  5 C        1.3280    -1.5750     0.4860 C.3   1 <1>   0.2200 
  6 C       -2.9460    -1.2770    -0.9190 C.3   1 <1>  -0.1600 
  7 C       -2.3230    -3.7270    -0.8080 C.3   1 <1>  -0.1600 
  8 C        2.1030    -2.8260     0.9140 C.3   1 <1>  -0.1600 
  9 C        1.2360    -0.5630     1.6230 C.3   1 <1>  -0.2400 
 10 C       -4.3950    -1.6770    -1.1980 C.3   1 <1>   0.2090 
 11 C       -3.7850    -4.1010    -1.0640 C.3   1 <1>   0.2090 
 12 C        2.2780    -3.8370    -0.2310 C.3   1 <1>   0.0200 
 13 N       -4.6720    -3.0030    -0.5750 N.pl3 1 <1>  -0.8380 
 14 C        3.0900    -5.0510     0.1880 C.2   1 <1>  -0.0400 
 15 C       -5.6830    -3.1920     0.3280 C.2   1 <1>   0.4790 
 16 O        3.3040    -5.9870    -0.7160 O.3   1 <1>  -0.2800 
 17 C        3.6690    -5.3920     1.3610 C.2   1 <1>  -0.1500 
 18 N       -6.4910    -4.2980     0.2750 N.pl3 1 <1>  -0.3220 
 19 C       -5.9640    -2.2960     1.3340 C.2   1 <1>  -0.1360 
 20 C        4.0190    -6.9370    -0.1490 C.2   1 <1>  -0.0100 
 21 C        4.2790    -6.6320     1.1390 C.2   1 <1>  -0.1500 
 22 N       -6.5510    -5.3480    -0.6170 N.2   1 <1>  -0.2600 
 23 C       -7.4790    -4.4300     1.1730 C.cat 1 <1>   0.9620 
 24 C       -7.0060    -2.5420     2.2190 C.2   1 <1>   0.3750 
 25 C       -7.5390    -6.0580    -0.2140 C.2   1 <1>   0.5030 
 26 N       -7.7740    -3.6000     2.1610 N.2   1 <1>  -0.6120 
 27 N       -8.1360    -5.5360     0.8870 N.pl3 1 <1>  -0.7000 
 28 C       -7.3020    -1.5560     3.3290 C.3   1 <1>  -0.1790 
 29 H       -0.6490    -2.2150     0.8760 H     1 <1>   0.3700 
 30 H       -2.0880    -2.4380    -2.4880 H     1 <1>   0.0800 
 31 H        1.8270    -1.1150    -0.3540 H     1 <1>   0.0800 
 32 H       -2.7330    -0.3480    -1.4190 H     1 <1>   0.0800 
 33 H       -2.8180    -1.1190     0.1370 H     1 <1>   0.0800 
 34 H       -2.1550    -3.7180     0.2540 H     1 <1>   0.0800 
 35 H       -1.6860    -4.4830    -1.2340 H     1 <1>   0.0800 
 36 H        1.6030    -3.2970     1.7410 H     1 <1>   0.0800 
 37 H        3.0800    -2.5230     1.2480 H     1 <1>   0.0800 
 38 H        0.7530    -0.9920     2.4820 H     1 <1>   0.0800 
 39 H        0.6890     0.3040     1.2990 H     1 <1>   0.0800 
 40 H        2.2230    -0.2460     1.9090 H     1 <1>   0.0800 
 41 H       -4.5510    -1.7490    -2.2620 H     1 <1>   0.0800 
 42 H       -5.0650    -0.9250    -0.8190 H     1 <1>   0.0800 
 43 H       -4.0000    -5.0220    -0.5520 H     1 <1>   0.0800 
 44 H       -3.9500    -4.2510    -2.1190 H     1 <1>   0.0800 
 45 H        2.7720    -3.3620    -1.0610 H     1 <1>   0.0800 
 46 H        1.3190    -4.1780    -0.5750 H     1 <1>   0.0800 
 47 H        3.6830    -4.8550     2.2920 H     1 <1>   0.1500 
 48 H       -5.3670    -1.4110     1.4390 H     1 <1>   0.1500 
 49 H        4.2980    -7.7950    -0.7350 H     1 <1>   0.1500 
 50 H        4.8340    -7.1970     1.8670 H     1 <1>   0.1500 
 51 H       -7.8750    -6.9700    -0.6870 H     1 <1>   0.1500 
 52 H       -8.9400    -5.8620     1.4180 H     1 <1>   0.4500 
 53 H       -6.6250    -0.7210     3.3050 H     1 <1>   0.0800 
 54 H       -7.2100    -2.0430     4.2840 H     1 <1>   0.0800 
 55 H       -8.3060    -1.1860     3.2300 H     1 <1>   0.0800 
@<TRIPOS>BOND
  1   1   2  2   
  2   2   3  am  
  3   2   4  1   
  4   3   5  1   
  5   3  29  1   
  6   4   6  1   
  7   4   7  1   
  8   4  30  1   
  9   5   8  1   
 10   5   9  1   
 11   5  31  1   
 12   6  10  1   
 13   6  32  1   
 14   6  33  1   
 15   7  11  1   
 16   7  34  1   
 17   7  35  1   
 18   8  12  1   
 19   8  36  1   
 20   8  37  1   
 21   9  38  1   
 22   9  39  1   
 23   9  40  1   
 24  10  13  1   
 25  10  41  1   
 26  10  42  1   
 27  11  13  1   
 28  11  43  1   
 29  11  44  1   
 30  12  14  1   
 31  12  45  1   
 32  12  46  1   
 33  13  15  1   
 34  14  16  1   
 35  14  17  2   
 36  15  18  1   
 37  15  19  2   
 38  16  20  1   
 39  17  21  1   
 40  17  47  1   
 41  18  22  1   
 42  18  23  ar  
 43  19  24  1   
 44  19  48  1   
 45  20  21  2   
 46  20  49  1   
 47  21  50  1   
 48  22  25  2   
 49  23  26  1   
 50  23  27  ar  
 51  24  26  2   
 52  24  28  1   
 53  25  27  1   
 54  25  51  1   
 55  27  52  1   
 56  28  53  1   
 57  28  54  1   
 58  28  55  1   
@<TRIPOS>SUBSTRUCTURE
  1 ****   7 GROUP 4 **** **** 0

# MOE 2024.06 (io_trps.svl 2023.06)
