@<TRIPOS>MOLECULE
899
39 40 1 0 0 
SMALL
USER_CHARGES


@<TRIPOS>ATOM
  1 CL       0.2910    -0.7910    -2.4410 Cl    1 <1>  -0.1770 
  2 C        0.2100    -1.9590    -1.1430 C.ar  1 <1>   0.1770 
  3 C        1.3770    -2.4050    -0.5120 C.ar  1 <1>   0.0280 
  4 C       -1.0460    -2.4040    -0.7750 C.ar  1 <1>  -0.1500 
  5 C        1.2110    -3.3360     0.5160 C.ar  1 <1>  -0.1500 
  6 C        2.6890    -1.9410    -0.8980 C.2   1 <1>  -0.1780 
  7 C       -1.1750    -3.3230     0.2500 C.ar  1 <1>  -0.1500 
  8 C       -0.0410    -3.7870     0.8940 C.ar  1 <1>  -0.1500 
  9 C        3.8260    -1.9410    -0.1630 C.2   1 <1>  -0.1360 
 10 C        5.1250    -1.4730    -0.5730 C.2   1 <1>   0.6160 
 11 O        5.2290    -0.8500    -1.6140 O.2   1 <1>  -0.5700 
 12 N        6.2550    -1.7100     0.1850 N.am  1 <1>  -0.6600 
 13 C        7.4970    -0.9140    -0.0620 C.3   1 <1>   0.2200 
 14 C        6.3380    -2.8260     1.1750 C.3   1 <1>   0.0600 
 15 C        8.5000    -1.7210    -0.8980 C.3   1 <1>  -0.1600 
 16 C        8.1260    -0.4180     1.2500 C.3   1 <1>  -0.1600 
 17 C        9.7710    -0.9020    -1.1710 C.3   1 <1>  -0.1600 
 18 C        9.3920     0.4060     0.9700 C.3   1 <1>  -0.1600 
 19 C       10.4010    -0.3960     0.1350 C.3   1 <1>  -0.1600 
 20 H       -1.9140    -2.0310    -1.2880 H     1 <1>   0.1500 
 21 H        2.0720    -3.7240     1.0270 H     1 <1>   0.1500 
 22 H        2.7450    -1.5470    -1.9000 H     1 <1>   0.1500 
 23 H       -2.1490    -3.6750     0.5450 H     1 <1>   0.1500 
 24 H       -0.1370    -4.5050     1.6910 H     1 <1>   0.1500 
 25 H        3.7980    -2.3030     0.8420 H     1 <1>   0.1500 
 26 H        7.2350    -0.0370    -0.6320 H     1 <1>   0.0800 
 27 H        6.1090    -2.4540     2.1590 H     1 <1>   0.0800 
 28 H        7.3260    -3.2490     1.1850 H     1 <1>   0.0800 
 29 H        5.6470    -3.6090     0.9190 H     1 <1>   0.0800 
 30 H        8.7740    -2.6230    -0.3830 H     1 <1>   0.0800 
 31 H        8.0420    -1.9870    -1.8350 H     1 <1>   0.0800 
 32 H        7.4140     0.1910     1.7770 H     1 <1>   0.0800 
 33 H        8.3980    -1.2500     1.8730 H     1 <1>   0.0800 
 34 H       10.4820    -1.5080    -1.7050 H     1 <1>   0.0800 
 35 H        9.5220    -0.0610    -1.7950 H     1 <1>   0.0800 
 36 H        9.1230     1.3030     0.4380 H     1 <1>   0.0800 
 37 H        9.8460     0.6990     1.9010 H     1 <1>   0.0800 
 38 H       11.2510     0.2230    -0.0930 H     1 <1>   0.0800 
 39 H       10.7510    -1.2360     0.7100 H     1 <1>   0.0800 
@<TRIPOS>BOND
  1   1   2  1   
  2   2   3  ar  
  3   2   4  ar  
  4   3   5  ar  
  5   3   6  1   
  6   4   7  ar  
  7   4  20  1   
  8   5   8  ar  
  9   5  21  1   
 10   6   9  2   
 11   6  22  1   
 12   7   8  ar  
 13   7  23  1   
 14   8  24  1   
 15   9  10  1   
 16   9  25  1   
 17  10  11  2   
 18  10  12  am  
 19  12  13  1   
 20  12  14  1   
 21  13  15  1   
 22  13  16  1   
 23  13  26  1   
 24  14  27  1   
 25  14  28  1   
 26  14  29  1   
 27  15  17  1   
 28  15  30  1   
 29  15  31  1   
 30  16  18  1   
 31  16  32  1   
 32  16  33  1   
 33  17  19  1   
 34  17  34  1   
 35  17  35  1   
 36  18  19  1   
 37  18  36  1   
 38  18  37  1   
 39  19  38  1   
 40  19  39  1   
@<TRIPOS>SUBSTRUCTURE
  1 ****   9 GROUP 4 **** **** 0

# MOE 2024.06 (io_trps.svl 2023.06)
