@<TRIPOS>MOLECULE
3-(2-Methoxy-ethyl)-4-oxo-10-oxa-3-aza-tricyclo[5.2.1.0*1,5*]dec-8-ene-2,6-dicarboxylic acid 2-tert-butylami
59 62 1 0 0 
SMALL
USER_CHARGES


@<TRIPOS>ATOM
  1 O       -1.2410     0.8170    -1.9690 O.2   1 <1>  -0.5700 
  2 C       -2.2280     1.3250    -1.5020 C.2   1 <1>   0.5690 
  3 N       -3.4790     0.7930    -1.4110 N.am  1 <1>  -0.6600 
  4 C       -2.2140     2.6580    -0.8370 C.3   1 <1>  -0.0190 
  5 C       -4.4580     1.8200    -0.8650 C.3   1 <1>   0.2810 
  6 C       -3.9360    -0.4890    -2.0130 C.3   1 <1>   0.1400 
  7 C       -3.6400     3.1000    -1.0870 C.3   1 <1>   0.4180 
  8 C       -1.4190     3.9360    -1.1410 C.3   1 <1>  -0.0190 
  9 C       -4.8170     1.6100     0.6080 C.2   1 <1>   0.5690 
 10 C       -4.4800    -1.4380    -0.9440 C.3   1 <1>   0.1200 
 11 O       -3.5790     4.2610    -0.3400 O.3   1 <1>  -0.5600 
 12 C       -3.8290     3.7120    -2.4710 C.2   1 <1>  -0.2880 
 13 C       -0.3160     4.1590    -0.1290 C.2   1 <1>   0.5690 
 14 C       -2.5870     4.9570    -1.0710 C.3   1 <1>   0.3380 
 15 O       -5.8670     2.0490     1.0090 O.2   1 <1>  -0.5700 
 16 N       -3.9640     0.8910     1.3980 N.am  1 <1>  -0.7300 
 17 O       -4.9290    -2.5920    -1.5750 O.3   1 <1>  -0.5600 
 18 C       -3.2160     4.8860    -2.4390 C.2   1 <1>  -0.2880 
 19 O       -0.2610     5.2060     0.4680 O.2   1 <1>  -0.5700 
 20 N        0.5810     3.1490     0.0480 N.am  1 <1>  -0.4930 
 21 C       -4.0370     0.6180     2.8330 C.3   1 <1>   0.3000 
 22 C       -5.4640    -3.5370    -0.7060 C.3   1 <1>   0.0400 
 23 C        1.6310     3.0400     0.9580 C.2   1 <1>   0.3520 
 24 C       -4.0810     1.9350     3.6080 C.3   1 <1>  -0.2400 
 25 C       -5.2620    -0.2490     3.1250 C.3   1 <1>  -0.2400 
 26 C       -2.7650    -0.1470     3.1910 C.3   1 <1>  -0.2400 
 27 N        2.3260     1.9620     1.0470 N.2   1 <1>  -0.4100 
 28 C        2.0820     3.9930     1.8730 C.2   1 <1>  -0.1500 
 29 O        3.2140     2.1790     1.9840 O.3   1 <1>  -0.0190 
 30 C        3.0950     3.3770     2.4950 C.2   1 <1>  -0.0400 
 31 C        4.0310     3.8250     3.5970 C.3   1 <1>  -0.0600 
 32 H       -2.1140     2.4530     0.2150 H     1 <1>   0.0800 
 33 H       -5.3530     1.8410    -1.4590 H     1 <1>   0.0800 
 34 H       -3.1070    -0.9620    -2.5130 H     1 <1>   0.0800 
 35 H       -4.7040    -0.2870    -2.7390 H     1 <1>   0.0800 
 36 H       -0.9850     3.9160    -2.1240 H     1 <1>   0.0800 
 37 H       -5.3100    -0.9910    -0.4260 H     1 <1>   0.0800 
 38 H       -3.7010    -1.7060    -0.2510 H     1 <1>   0.0800 
 39 H       -4.3780     3.2080    -3.2480 H     1 <1>   0.1500 
 40 H       -2.4050     5.9400    -0.6690 H     1 <1>   0.0800 
 41 H       -3.1600     0.4520     0.9500 H     1 <1>   0.3700 
 42 H       -3.0900     5.6730    -3.1630 H     1 <1>   0.1500 
 43 H        0.4900     2.3190    -0.5410 H     1 <1>   0.3700 
 44 H       -5.7800    -4.3850    -1.2880 H     1 <1>   0.0800 
 45 H       -6.3110    -3.1140    -0.1950 H     1 <1>   0.0800 
 46 H       -4.7090    -3.8420    -0.0020 H     1 <1>   0.0800 
 47 H       -3.2410     2.5540     3.3500 H     1 <1>   0.0800 
 48 H       -4.0500     1.7440     4.6650 H     1 <1>   0.0800 
 49 H       -4.9870     2.4720     3.3970 H     1 <1>   0.0800 
 50 H       -6.1660     0.2860     2.8980 H     1 <1>   0.0800 
 51 H       -5.2870    -0.5110     4.1670 H     1 <1>   0.0800 
 52 H       -5.2340    -1.1530     2.5460 H     1 <1>   0.0800 
 53 H       -1.8930     0.4460     2.9760 H     1 <1>   0.0800 
 54 H       -2.7090    -1.0720     2.6450 H     1 <1>   0.0800 
 55 H       -2.7580    -0.3790     4.2410 H     1 <1>   0.0800 
 56 H        1.6840     4.9800     2.0140 H     1 <1>   0.1500 
 57 H        3.7950     4.8300     3.8980 H     1 <1>   0.0800 
 58 H        5.0470     3.7940     3.2470 H     1 <1>   0.0800 
 59 H        3.9330     3.1730     4.4460 H     1 <1>   0.0800 
@<TRIPOS>BOND
  1   1   2  2   
  2   2   3  am  
  3   2   4  1   
  4   3   5  1   
  5   3   6  1   
  6   4   7  1   
  7   4   8  1   
  8   4  32  1   
  9   5   7  1   
 10   5   9  1   
 11   5  33  1   
 12   6  10  1   
 13   6  34  1   
 14   6  35  1   
 15   7  11  1   
 16   7  12  1   
 17   8  13  1   
 18   8  14  1   
 19   8  36  1   
 20   9  15  2   
 21   9  16  am  
 22  10  17  1   
 23  10  37  1   
 24  10  38  1   
 25  11  14  1   
 26  12  18  2   
 27  12  39  1   
 28  13  19  2   
 29  13  20  am  
 30  14  18  1   
 31  14  40  1   
 32  16  21  1   
 33  16  41  1   
 34  17  22  1   
 35  18  42  1   
 36  20  23  1   
 37  20  43  1   
 38  21  24  1   
 39  21  25  1   
 40  21  26  1   
 41  22  44  1   
 42  22  45  1   
 43  22  46  1   
 44  23  27  2   
 45  23  28  1   
 46  24  47  1   
 47  24  48  1   
 48  24  49  1   
 49  25  50  1   
 50  25  51  1   
 51  25  52  1   
 52  26  53  1   
 53  26  54  1   
 54  26  55  1   
 55  27  29  1   
 56  28  30  2   
 57  28  56  1   
 58  29  30  1   
 59  30  31  1   
 60  31  57  1   
 61  31  58  1   
 62  31  59  1   
@<TRIPOS>SUBSTRUCTURE
  1 ****   4 GROUP 4 **** **** 0

# MOE 2024.06 (io_trps.svl 2023.06)
