@<TRIPOS>MOLECULE
8-(2-Amino-ethylamino)-7-(2-chloro-benzyl)-1,3-dimethyl-3,7-dihydro-purine-2,6-d
46 48 1 0 0 
SMALL
USER_CHARGES


@<TRIPOS>ATOM
  1 CL       0.1380    -3.0370    -2.4670 Cl    1 <1>  -0.1850 
  2 C        1.1560    -2.8230    -1.0670 C.ar  1 <1>   0.1690 
  3 C        0.5970    -2.8160     0.2040 C.ar  1 <1>  -0.1520 
  4 C        2.5210    -2.7180    -1.2570 C.ar  1 <1>  -0.1580 
  5 C        1.4410    -2.7060     1.3010 C.ar  1 <1>  -0.1580 
  6 C       -0.9030    -2.9650     0.3920 C.3   1 <1>   0.4920 
  7 C        3.3520    -2.6140    -0.1560 C.ar  1 <1>  -0.1580 
  8 C        2.8110    -2.6110     1.1190 C.ar  1 <1>  -0.1580 
  9 N       -1.3290    -4.3920     0.2390 N.pl3 1 <1>  -0.7680 
 10 C       -0.6490    -5.5340     0.1240 C.cat 1 <1>   1.0680 
 11 C       -2.6930    -4.7160     0.0860 C.2   1 <1>   0.2700 
 12 N       -1.4840    -6.5450    -0.0970 N.pl3 1 <1>  -0.7040 
 13 N        0.6800    -5.6570     0.2220 N.pl3 1 <1>  -0.7190 
 14 C       -3.9120    -3.9660     0.1180 C.2   1 <1>   0.6990 
 15 C       -2.7520    -6.0470    -0.1240 C.2   1 <1>   0.4200 
 16 C        1.5820    -6.8210    -0.0220 C.3   1 <1>   0.1590 
 17 O       -3.8970    -2.7650     0.3320 O.2   1 <1>  -0.5750 
 18 N       -5.1040    -4.6450    -0.0870 N.am  1 <1>  -0.4270 
 19 N       -3.9310    -6.7380    -0.3190 N.am  1 <1>  -0.4420 
 20 C        2.7870    -6.4150    -0.9070 C.3   1 <1>   0.3360 
 21 C       -5.1230    -6.0240    -0.2710 C.2   1 <1>   0.6860 
 22 C       -6.4010    -3.8990    -0.0670 C.3   1 <1>   0.0510 
 23 C       -3.9470    -8.2150    -0.5430 C.3   1 <1>   0.0510 
 24 N        3.7750    -7.5220    -1.0900 N.4   1 <1>  -0.8560 
 25 O       -6.1810    -6.6080    -0.3790 O.2   1 <1>  -0.5750 
 26 H        2.9260    -2.7040    -2.2550 H     1 <1>   0.1420 
 27 H        1.0460    -2.6810     2.3060 H     1 <1>   0.1420 
 28 H       -1.4150    -2.3530    -0.3330 H     1 <1>   0.0710 
 29 H       -1.1900    -2.6110     1.3690 H     1 <1>   0.0710 
 30 H        4.4180    -2.5140    -0.2880 H     1 <1>   0.1420 
 31 H        3.4610    -2.5120     1.9740 H     1 <1>   0.1420 
 32 H       -1.2450    -7.5260    -0.1820 H     1 <1>   0.4440 
 33 H        1.1510    -4.7860     0.5030 H     1 <1>   0.4440 
 34 H        1.0320    -7.6120    -0.5030 H     1 <1>   0.0710 
 35 H        1.9400    -7.1760     0.9310 H     1 <1>   0.0710 
 36 H        3.2880    -5.5760    -0.4500 H     1 <1>   0.0710 
 37 H        2.4240    -6.1020    -1.8730 H     1 <1>   0.0710 
 38 H       -6.2530    -2.8600    -0.3040 H     1 <1>   0.0710 
 39 H       -6.8470    -3.9770     0.9090 H     1 <1>   0.0710 
 40 H       -7.0800    -4.3150    -0.7930 H     1 <1>   0.0710 
 41 H       -3.9650    -8.7250     0.4050 H     1 <1>   0.0710 
 42 H       -3.0830    -8.5230    -1.1030 H     1 <1>   0.0710 
 43 H       -4.8230    -8.5010    -1.1010 H     1 <1>   0.0710 
 44 H        4.1820    -7.8410    -0.2000 H     1 <1>   0.4440 
 45 H        4.5640    -7.2010    -1.6690 H     1 <1>   0.4440 
 46 H        3.3800    -8.3410    -1.5720 H     1 <1>   0.4440 
@<TRIPOS>BOND
  1   1   2  1   
  2   2   3  ar  
  3   2   4  ar  
  4   3   5  ar  
  5   3   6  1   
  6   4   7  ar  
  7   4  26  1   
  8   5   8  ar  
  9   5  27  1   
 10   6   9  1   
 11   6  28  1   
 12   6  29  1   
 13   7   8  ar  
 14   7  30  1   
 15   8  31  1   
 16   9  10  ar  
 17   9  11  1   
 18  10  12  ar  
 19  10  13  ar  
 20  11  14  1   
 21  11  15  2   
 22  12  15  1   
 23  12  32  1   
 24  13  16  1   
 25  13  33  1   
 26  14  17  2   
 27  14  18  am  
 28  15  19  1   
 29  16  20  1   
 30  16  34  1   
 31  16  35  1   
 32  18  21  am  
 33  18  22  1   
 34  19  21  am  
 35  19  23  1   
 36  20  24  1   
 37  20  36  1   
 38  20  37  1   
 39  21  25  2   
 40  22  38  1   
 41  22  39  1   
 42  22  40  1   
 43  23  41  1   
 44  23  42  1   
 45  23  43  1   
 46  24  44  1   
 47  24  45  1   
 48  24  46  1   
@<TRIPOS>SUBSTRUCTURE
  1 ****   9 GROUP 4 **** **** 0

# MOE 2024.06 (io_trps.svl 2023.06)
