@<TRIPOS>MOLECULE
NONAME
46 49 1 0 0 
SMALL
USER_CHARGES


@<TRIPOS>ATOM
  1 S        0.9970     0.8780     1.7760 S.o2  1 <1>   1.4470 
  2 O        1.9370     1.7150     1.0680 O.2   1 <1>  -0.6500 
  3 O        1.3000     0.3930     3.1030 O.2   1 <1>  -0.6500 
  4 N        0.7240    -0.5320     0.8050 N.am  1 <1>  -0.6930 
  5 C       -0.6340     1.6840     1.7890 C.ar  1 <1>  -0.0090 
  6 C        0.2240    -0.5390    -0.4820 C.ar  1 <1>   0.1990 
  7 C        0.4750    -1.8380     1.4590 C.3   1 <1>   0.1960 
  8 C       -1.8110     0.9540     1.6690 C.ar  1 <1>  -0.1500 
  9 C       -0.7470     3.0610     1.9240 C.ar  1 <1>  -0.1500 
 10 C       -0.3860    -1.7390    -0.7730 C.ar  1 <1>  -0.1440 
 11 C        0.2550     0.4700    -1.4360 C.ar  1 <1>  -0.1500 
 12 C       -0.2890    -2.6710     0.4140 C.3   1 <1>  -0.0160 
 13 C       -3.0660     1.5460     1.6450 C.ar  1 <1>  -0.0090 
 14 C       -1.9840     3.6810     1.9190 C.ar  1 <1>  -0.1500 
 15 C       -0.9750    -1.9680    -2.0010 C.ar  1 <1>  -0.1500 
 16 C       -0.3340     0.2540    -2.6710 C.ar  1 <1>  -0.1500 
 17 S       -4.5500     0.5330     1.3910 S.o2  1 <1>   1.4470 
 18 C       -3.1330     2.9260     1.7740 C.ar  1 <1>  -0.1500 
 19 C       -0.9460    -0.9600    -2.9540 C.ar  1 <1>  -0.1500 
 20 O       -5.6880     1.1630     2.0230 O.2   1 <1>  -0.6500 
 21 O       -4.2480    -0.8530     1.6840 O.2   1 <1>  -0.6500 
 22 N       -4.7880     0.6400    -0.2810 N.am  1 <1>  -0.8490 
 23 C       -3.7860    -0.0390    -1.0880 C.3   1 <1>   0.1960 
 24 C       -6.0640     0.0940    -0.7040 C.3   1 <1>   0.1960 
 25 C       -4.4210    -0.1450    -2.4680 C.3   1 <1>  -0.1600 
 26 C       -5.9280    -0.0780    -2.2120 C.3   1 <1>  -0.1600 
 27 H       -0.1120    -1.7090     2.3520 H     1 <1>   0.0800 
 28 H        1.4150    -2.2980     1.7110 H     1 <1>   0.0800 
 29 H       -1.7610    -0.1160     1.5790 H     1 <1>   0.1500 
 30 H        0.1450     3.6570     2.0280 H     1 <1>   0.1500 
 31 H        0.7410     1.4040    -1.2200 H     1 <1>   0.1500 
 32 H       -1.2650    -2.9360     0.7780 H     1 <1>   0.0800 
 33 H        0.2600    -3.5610     0.1630 H     1 <1>   0.0800 
 34 H       -2.0520     4.7520     2.0230 H     1 <1>   0.1500 
 35 H       -1.4440    -2.9120    -2.2180 H     1 <1>   0.1500 
 36 H       -0.3110     1.0300    -3.4170 H     1 <1>   0.1500 
 37 H       -4.0960     3.4110     1.7580 H     1 <1>   0.1500 
 38 H       -1.3950    -1.1210    -3.9190 H     1 <1>   0.1500 
 39 H       -3.5990    -1.0290    -0.7040 H     1 <1>   0.0800 
 40 H       -2.8630     0.5170    -1.1150 H     1 <1>   0.0800 
 41 H       -6.8730     0.7580    -0.4430 H     1 <1>   0.0800 
 42 H       -6.2240    -0.8660    -0.2390 H     1 <1>   0.0800 
 43 H       -4.1320    -1.0600    -2.9520 H     1 <1>   0.0800 
 44 H       -4.1080     0.6880    -3.0720 H     1 <1>   0.0800 
 45 H       -6.3540     0.7740    -2.7130 H     1 <1>   0.0800 
 46 H       -6.4350    -0.9680    -2.5400 H     1 <1>   0.0800 
@<TRIPOS>BOND
  1   1   2  2   
  2   1   3  2   
  3   1   4  am  
  4   1   5  1   
  5   4   6  1   
  6   4   7  1   
  7   5   8  ar  
  8   5   9  ar  
  9   6  10  ar  
 10   6  11  ar  
 11   7  12  1   
 12   7  27  1   
 13   7  28  1   
 14   8  13  ar  
 15   8  29  1   
 16   9  14  ar  
 17   9  30  1   
 18  10  12  1   
 19  10  15  ar  
 20  11  16  ar  
 21  11  31  1   
 22  12  32  1   
 23  12  33  1   
 24  13  17  1   
 25  13  18  ar  
 26  14  18  ar  
 27  14  34  1   
 28  15  19  ar  
 29  15  35  1   
 30  16  19  ar  
 31  16  36  1   
 32  17  20  2   
 33  17  21  2   
 34  17  22  am  
 35  18  37  1   
 36  19  38  1   
 37  22  23  1   
 38  22  24  1   
 39  23  25  1   
 40  23  39  1   
 41  23  40  1   
 42  24  26  1   
 43  24  41  1   
 44  24  42  1   
 45  25  26  1   
 46  25  43  1   
 47  25  44  1   
 48  26  45  1   
 49  26  46  1   
@<TRIPOS>SUBSTRUCTURE
  1 ****   8 GROUP 4 **** **** 0

# MOE 2024.06 (io_trps.svl 2023.06)
