@<TRIPOS>MOLECULE
1-Biphenyl-2-yl-3-(8-furan-2-ylmethyl-8-aza-bicyclo[3.2.1]oct-3-yl)-urea
58 62 1 0 0 
SMALL
USER_CHARGES


@<TRIPOS>ATOM
  1 O       -0.2080     0.1840     1.5100 O.2   1 <1>  -0.5700 
  2 C        0.2500    -0.6240     0.7280 C.2   1 <1>   0.6900 
  3 N        1.5830    -0.7280     0.4690 N.am  1 <1>  -0.5470 
  4 N       -0.5850    -1.4750     0.0810 N.am  1 <1>  -0.7300 
  5 C        2.6960     0.0170     0.8890 C.ar  1 <1>   0.1170 
  6 C       -2.0300    -1.5370     0.3430 C.3   1 <1>   0.2200 
  7 C        3.9700    -0.5430     0.7130 C.ar  1 <1>   0.0000 
  8 C        2.5900     1.2860     1.4520 C.ar  1 <1>  -0.1500 
  9 C       -2.5750    -2.9300    -0.0260 C.3   1 <1>  -0.1600 
 10 C       -2.7400    -0.3950    -0.4100 C.3   1 <1>  -0.1600 
 11 C        4.1310    -1.8540     0.1290 C.ar  1 <1>   0.0000 
 12 C        5.0910     0.1800     1.1080 C.ar  1 <1>  -0.1500 
 13 C        3.7130     1.9910     1.8400 C.ar  1 <1>  -0.1500 
 14 C       -4.1080    -2.9260    -0.1660 C.3   1 <1>   0.4230 
 15 C       -4.2550    -0.6260    -0.4850 C.3   1 <1>   0.4230 
 16 C        3.9140    -3.0030     0.8840 C.ar  1 <1>  -0.1500 
 17 C        4.4880    -2.0020    -1.2070 C.ar  1 <1>  -0.1500 
 18 C        4.9690     1.4360     1.6680 C.ar  1 <1>  -0.1500 
 19 N       -4.4040    -1.9160    -1.1990 N.4   1 <1>  -0.9590 
 20 C       -4.7910    -2.3960     1.0980 C.3   1 <1>  -0.1600 
 21 C       -4.8360    -0.8750     0.9150 C.3   1 <1>  -0.1600 
 22 C        4.0430    -4.2600     0.3220 C.ar  1 <1>  -0.1500 
 23 C        4.6180    -3.2570    -1.7750 C.ar  1 <1>  -0.1500 
 24 C       -5.6890    -2.1300    -1.9570 C.3   1 <1>   0.5230 
 25 C        4.3940    -4.3890    -1.0110 C.ar  1 <1>  -0.1500 
 26 C       -6.9400    -1.5850    -1.2880 C.2   1 <1>  -0.0400 
 27 O       -7.1440    -0.2810    -1.2950 O.3   1 <1>  -0.2800 
 28 C       -7.9620    -2.2190    -0.6700 C.2   1 <1>  -0.1500 
 29 C       -8.2900    -0.0520    -0.6840 C.2   1 <1>  -0.0100 
 30 C       -8.8460    -1.2090    -0.2700 C.2   1 <1>  -0.1500 
 31 H        1.8460    -1.5670    -0.0410 H     1 <1>   0.3700 
 32 H       -0.1930    -2.1270    -0.5960 H     1 <1>   0.3700 
 33 H       -2.1800    -1.3880     1.4020 H     1 <1>   0.0800 
 34 H        1.6250     1.7380     1.5880 H     1 <1>   0.1500 
 35 H       -2.2920    -3.6290     0.7410 H     1 <1>   0.0800 
 36 H       -2.1450    -3.2680    -0.9520 H     1 <1>   0.0800 
 37 H       -2.3450    -0.2940    -1.4050 H     1 <1>   0.0800 
 38 H       -2.5520     0.5310     0.1060 H     1 <1>   0.0800 
 39 H        6.0670    -0.2530     0.9740 H     1 <1>   0.1500 
 40 H        3.6100     2.9700     2.2750 H     1 <1>   0.1500 
 41 H       -4.4680    -3.9060    -0.4380 H     1 <1>   0.0800 
 42 H       -4.7500     0.1870    -0.9960 H     1 <1>   0.0800 
 43 H        3.6430    -2.9040     1.9210 H     1 <1>   0.1500 
 44 H        4.6640    -1.1230    -1.8030 H     1 <1>   0.1500 
 45 H        5.8450     1.9830     1.9700 H     1 <1>   0.1500 
 46 H       -3.6510    -1.9550    -1.8910 H     1 <1>   0.4500 
 47 H       -4.2620    -2.6830     1.9910 H     1 <1>   0.0800 
 48 H       -5.7890    -2.7920     1.1620 H     1 <1>   0.0800 
 49 H       -5.8480    -0.5180     0.9730 H     1 <1>   0.0800 
 50 H       -4.2750    -0.3570     1.6750 H     1 <1>   0.0800 
 51 H        3.8750    -5.1390     0.9210 H     1 <1>   0.1500 
 52 H        4.8960    -3.3540    -2.8100 H     1 <1>   0.1500 
 53 H       -5.8240    -3.1840    -2.1340 H     1 <1>   0.0800 
 54 H       -5.6110    -1.6510    -2.9190 H     1 <1>   0.0800 
 55 H        4.4990    -5.3660    -1.4500 H     1 <1>   0.1500 
 56 H       -8.1200    -3.2700    -0.5000 H     1 <1>   0.1500 
 57 H       -8.6380     0.9630    -0.5870 H     1 <1>   0.1500 
 58 H       -9.7750    -1.3580     0.2550 H     1 <1>   0.1500 
@<TRIPOS>BOND
  1   1   2  2   
  2   2   3  am  
  3   2   4  am  
  4   3   5  1   
  5   3  31  1   
  6   4   6  1   
  7   4  32  1   
  8   5   7  ar  
  9   5   8  ar  
 10   6   9  1   
 11   6  10  1   
 12   6  33  1   
 13   7  11  1   
 14   7  12  ar  
 15   8  13  ar  
 16   8  34  1   
 17   9  14  1   
 18   9  35  1   
 19   9  36  1   
 20  10  15  1   
 21  10  37  1   
 22  10  38  1   
 23  11  16  ar  
 24  11  17  ar  
 25  12  18  ar  
 26  12  39  1   
 27  13  18  ar  
 28  13  40  1   
 29  14  19  1   
 30  14  20  1   
 31  14  41  1   
 32  15  19  1   
 33  15  21  1   
 34  15  42  1   
 35  16  22  ar  
 36  16  43  1   
 37  17  23  ar  
 38  17  44  1   
 39  18  45  1   
 40  19  24  1   
 41  19  46  1   
 42  20  21  1   
 43  20  47  1   
 44  20  48  1   
 45  21  49  1   
 46  21  50  1   
 47  22  25  ar  
 48  22  51  1   
 49  23  25  ar  
 50  23  52  1   
 51  24  26  1   
 52  24  53  1   
 53  24  54  1   
 54  25  55  1   
 55  26  27  1   
 56  26  28  2   
 57  27  29  1   
 58  28  30  1   
 59  28  56  1   
 60  29  30  2   
 61  29  57  1   
 62  30  58  1   
@<TRIPOS>SUBSTRUCTURE
  1 ****   4 GROUP 4 **** **** 0

# MOE 2024.06 (io_trps.svl 2023.06)
