@<TRIPOS>MOLECULE
3-Ethyl-1-[2-(2-methyl-piperidin-1-yl)-2-oxo-ethyl]-1H-thieno[3,2-d]pyrimidine-2
44 46 1 0 0 
SMALL
USER_CHARGES


@<TRIPOS>ATOM
  1 S        2.3640    -0.6090    -2.6790 S.3   1 <1>  -0.0800 
  2 C        2.8030    -1.1600    -1.0560 C.2   1 <1>  -0.0450 
  3 C        0.9410    -1.6380    -2.6870 C.2   1 <1>  -0.1100 
  4 C        3.9340    -0.7390    -0.3120 C.2   1 <1>   0.7150 
  5 C        1.9000    -2.0620    -0.6070 C.2   1 <1>   0.0630 
  6 C        0.8410    -2.3290    -1.5360 C.2   1 <1>  -0.1500 
  7 O        4.7420     0.0680    -0.7440 O.2   1 <1>  -0.5700 
  8 N        4.0950    -1.2950     0.9470 N.am  1 <1>  -0.4200 
  9 N        2.0960    -2.6180     0.6590 N.am  1 <1>  -0.4230 
 10 C        3.1870    -2.2300     1.4290 C.2   1 <1>   0.6900 
 11 C        5.2460    -0.8730     1.7940 C.3   1 <1>   0.1400 
 12 C        1.1840    -3.7110     1.1380 C.3   1 <1>   0.2010 
 13 O        3.3550    -2.7200     2.5310 O.2   1 <1>  -0.5700 
 14 C        4.8460     0.3260     2.6540 C.3   1 <1>  -0.2400 
 15 C        1.3120    -4.9870     0.3030 C.2   1 <1>   0.5690 
 16 O        0.2920    -5.4280    -0.1740 O.2   1 <1>  -0.5700 
 17 N        2.5310    -5.5320    -0.0160 N.am  1 <1>  -0.6600 
 18 C        3.6710    -5.7320     0.9400 C.3   1 <1>   0.2200 
 19 C        2.8630    -5.5460    -1.4720 C.3   1 <1>   0.1400 
 20 C        4.5860    -6.8800     0.4740 C.3   1 <1>  -0.1600 
 21 C        3.1750    -6.0950     2.3460 C.3   1 <1>  -0.2400 
 22 C        3.7350    -6.7390    -1.8560 C.3   1 <1>  -0.1600 
 23 C        4.9960    -6.7790    -0.9950 C.3   1 <1>  -0.1600 
 24 H        0.3200    -1.6160    -3.5660 H     1 <1>   0.1500 
 25 H        0.0500    -3.0240    -1.3130 H     1 <1>   0.1500 
 26 H        6.0850    -0.6110     1.1720 H     1 <1>   0.0800 
 27 H        5.5550    -1.6880     2.4260 H     1 <1>   0.0800 
 28 H        0.1720    -3.3600     1.0540 H     1 <1>   0.0800 
 29 H        1.3390    -3.9260     2.1740 H     1 <1>   0.0800 
 30 H        4.5650     1.1570     2.0310 H     1 <1>   0.0800 
 31 H        5.6790     0.6260     3.2640 H     1 <1>   0.0800 
 32 H        4.0270     0.0670     3.3020 H     1 <1>   0.0800 
 33 H        4.2520    -4.8260     0.9820 H     1 <1>   0.0800 
 34 H        3.3820    -4.6340    -1.7130 H     1 <1>   0.0800 
 35 H        1.9570    -5.5720    -2.0540 H     1 <1>   0.0800 
 36 H        4.0770    -7.8170     0.6260 H     1 <1>   0.0800 
 37 H        5.4720    -6.8940     1.0830 H     1 <1>   0.0800 
 38 H        2.4410    -6.8800     2.2950 H     1 <1>   0.0800 
 39 H        2.7670    -5.2490     2.8580 H     1 <1>   0.0800 
 40 H        3.9970    -6.4410     2.9450 H     1 <1>   0.0800 
 41 H        4.0050    -6.6610    -2.8940 H     1 <1>   0.0800 
 42 H        3.1670    -7.6440    -1.7290 H     1 <1>   0.0800 
 43 H        5.5960    -7.6310    -1.2670 H     1 <1>   0.0800 
 44 H        5.5800    -5.8890    -1.1540 H     1 <1>   0.0800 
@<TRIPOS>BOND
  1   1   2  1   
  2   1   3  1   
  3   2   4  1   
  4   2   5  2   
  5   3   6  2   
  6   3  24  1   
  7   4   7  2   
  8   4   8  am  
  9   5   6  1   
 10   5   9  1   
 11   6  25  1   
 12   8  10  am  
 13   8  11  1   
 14   9  10  am  
 15   9  12  1   
 16  10  13  2   
 17  11  14  1   
 18  11  26  1   
 19  11  27  1   
 20  12  15  1   
 21  12  28  1   
 22  12  29  1   
 23  14  30  1   
 24  14  31  1   
 25  14  32  1   
 26  15  16  2   
 27  15  17  am  
 28  17  18  1   
 29  17  19  1   
 30  18  20  1   
 31  18  21  1   
 32  18  33  1   
 33  19  22  1   
 34  19  34  1   
 35  19  35  1   
 36  20  23  1   
 37  20  36  1   
 38  20  37  1   
 39  21  38  1   
 40  21  39  1   
 41  21  40  1   
 42  22  23  1   
 43  22  41  1   
 44  22  42  1   
 45  23  43  1   
 46  23  44  1   
@<TRIPOS>SUBSTRUCTURE
  1 ****   9 GROUP 4 **** **** 0

# MOE 2024.06 (io_trps.svl 2023.06)
