@<TRIPOS>MOLECULE
NONAME
41 43 1 0 0 
SMALL
USER_CHARGES


@<TRIPOS>ATOM
  1 S       -0.2300    -0.3060    -1.3230 S.o2  1 <1>   1.4470 
  2 O       -1.4530    -0.4460    -2.0850 O.2   1 <1>  -0.6500 
  3 O        1.0300    -0.6460    -1.9450 O.2   1 <1>  -0.6500 
  4 N       -0.3900    -1.2870     0.0450 N.am  1 <1>  -0.8490 
  5 C       -0.1750     1.3650    -0.6180 C.ar  1 <1>  -0.0090 
  6 C       -0.8720    -2.6530    -0.2920 C.3   1 <1>   0.3370 
  7 C        0.8390    -1.4030     0.8350 C.3   1 <1>   0.1960 
  8 C       -1.1120     1.7610     0.3360 C.ar  1 <1>  -0.1500 
  9 C        0.7880     2.2870    -1.0240 C.ar  1 <1>  -0.1500 
 10 C       -2.3960    -2.8650    -0.0730 C.2   1 <1>   0.5690 
 11 C        0.0180    -3.6040     0.5160 C.3   1 <1>  -0.1600 
 12 C        1.3170    -2.8360     0.6720 C.3   1 <1>  -0.1600 
 13 C       -1.0920     3.0360     0.8770 C.ar  1 <1>  -0.1500 
 14 C        0.8250     3.5670    -0.4940 C.ar  1 <1>  -0.1500 
 15 O       -2.7970    -3.7480     0.6520 O.2   1 <1>  -0.5700 
 16 N       -3.2750    -2.0500    -0.7110 N.am  1 <1>  -0.7300 
 17 C       -0.1200     3.9180     0.4500 C.ar  1 <1>   0.1900 
 18 C       -4.7250    -2.0020    -0.4620 C.3   1 <1>   0.3200 
 19 F       -0.0930     5.1210     0.9540 F     1 <1>  -0.1900 
 20 C       -5.2130    -0.5650    -0.5350 C.2   1 <1>  -0.1400 
 21 S       -6.8680    -0.2830    -0.0160 S.3   1 <1>  -0.0800 
 22 C       -4.6430     0.5940    -0.9240 C.2   1 <1>  -0.1500 
 23 C       -6.7310     1.4350    -0.3450 C.2   1 <1>  -0.1100 
 24 C       -5.5060     1.7310    -0.8150 C.2   1 <1>  -0.1500 
 25 H       -0.6710    -2.8490    -1.3320 H     1 <1>   0.0800 
 26 H        0.5930    -1.2280     1.8700 H     1 <1>   0.0800 
 27 H        1.5970    -0.6970     0.5390 H     1 <1>   0.0800 
 28 H       -1.8650     1.0610     0.6610 H     1 <1>   0.1500 
 29 H        1.5180     2.0000    -1.7630 H     1 <1>   0.1500 
 30 H        0.1490    -4.5470     0.0160 H     1 <1>   0.0800 
 31 H       -0.4140    -3.7790     1.4860 H     1 <1>   0.0800 
 32 H        1.8940    -3.1670     1.5180 H     1 <1>   0.0800 
 33 H        1.9130    -2.9150    -0.2210 H     1 <1>   0.0800 
 34 H       -1.8140     3.3430     1.6140 H     1 <1>   0.1500 
 35 H        1.5670     4.2810    -0.8050 H     1 <1>   0.1500 
 36 H       -2.9150    -1.3370    -1.3590 H     1 <1>   0.3700 
 37 H       -4.9400    -2.4070     0.5120 H     1 <1>   0.0800 
 38 H       -5.2350    -2.5960    -1.2000 H     1 <1>   0.0800 
 39 H       -3.6410     0.7110    -1.2940 H     1 <1>   0.1500 
 40 H       -7.5930     2.0470    -0.1500 H     1 <1>   0.1500 
 41 H       -5.1630     2.7110    -1.0950 H     1 <1>   0.1500 
@<TRIPOS>BOND
  1   1   2  2   
  2   1   3  2   
  3   1   4  am  
  4   1   5  1   
  5   4   6  1   
  6   4   7  1   
  7   5   8  ar  
  8   5   9  ar  
  9   6  10  1   
 10   6  11  1   
 11   6  25  1   
 12   7  12  1   
 13   7  26  1   
 14   7  27  1   
 15   8  13  ar  
 16   8  28  1   
 17   9  14  ar  
 18   9  29  1   
 19  10  15  2   
 20  10  16  am  
 21  11  12  1   
 22  11  30  1   
 23  11  31  1   
 24  12  32  1   
 25  12  33  1   
 26  13  17  ar  
 27  13  34  1   
 28  14  17  ar  
 29  14  35  1   
 30  16  18  1   
 31  16  36  1   
 32  17  19  1   
 33  18  20  1   
 34  18  37  1   
 35  18  38  1   
 36  20  21  1   
 37  20  22  2   
 38  21  23  1   
 39  22  24  1   
 40  22  39  1   
 41  23  24  2   
 42  23  40  1   
 43  24  41  1   
@<TRIPOS>SUBSTRUCTURE
  1 ****   2 GROUP 4 **** **** 0

# MOE 2024.06 (io_trps.svl 2023.06)
