@<TRIPOS>MOLECULE
NONAME
46 48 1 0 0 
SMALL
USER_CHARGES


@<TRIPOS>ATOM
  1 S        0.3250    -0.0820     1.2290 S.3   1 <1>  -0.3320 
  2 C       -1.2060     0.8390     1.0930 C.ar  1 <1>   0.4120 
  3 C       -0.0890    -1.7600     0.5420 C.3   1 <1>   0.1310 
  4 N       -2.1720     0.2360     0.4700 N.ar  1 <1>  -0.6200 
  5 C       -1.2620     2.1330     1.6480 C.ar  1 <1>  -0.1430 
  6 C        1.1810    -2.5570     0.2880 C.2   1 <1>   0.5690 
  7 C       -3.3370     0.9190     0.3550 C.ar  1 <1>   0.3100 
  8 C       -2.4310     2.8270     1.5350 C.ar  1 <1>  -0.1500 
  9 C       -0.0630     2.7490     2.3600 C.3   1 <1>  -0.0960 
 10 O        1.4630    -3.4610     1.0310 O.2   1 <1>  -0.5700 
 11 N        1.9910    -2.2930    -0.7670 N.am  1 <1>  -0.7300 
 12 C       -3.5140     2.2240     0.8740 C.ar  1 <1>   0.0000 
 13 C       -4.4090     0.3070    -0.3100 C.ar  1 <1>  -0.1500 
 14 C        1.8830    -1.2030    -1.7940 C.3   1 <1>   0.2010 
 15 C       -4.7590     2.8650     0.7130 C.ar  1 <1>  -0.1500 
 16 C       -5.6100     0.9460    -0.4640 C.ar  1 <1>   0.0830 
 17 C        3.2330    -0.6080    -2.2200 C.2   1 <1>   0.6590 
 18 C       -5.7900     2.2430     0.0650 C.ar  1 <1>   0.0830 
 19 O       -6.6130     0.3250    -1.1280 O.3   1 <1>  -0.3630 
 20 O        3.6640    -0.8310    -3.3190 O.2   1 <1>  -0.5700 
 21 O        3.9260     0.1560    -1.3790 O.3   1 <1>  -0.4300 
 22 O       -6.9800     2.8800    -0.0600 O.3   1 <1>  -0.3630 
 23 C       -7.7100     1.1150    -1.5430 C.3   1 <1>   0.1200 
 24 C        3.5320     0.4950    -0.0700 C.3   1 <1>   0.1200 
 25 C       -8.1000     2.1010    -0.4340 C.3   1 <1>   0.1200 
 26 C        4.6260     1.3650     0.5380 C.3   1 <1>  -0.2400 
 27 H       -0.6320    -1.6210    -0.3730 H     1 <1>   0.0800 
 28 H       -0.7110    -2.2530     1.2660 H     1 <1>   0.0800 
 29 H       -2.5490     3.8180     1.9350 H     1 <1>   0.1500 
 30 H        0.7700     2.8250     1.6850 H     1 <1>   0.0800 
 31 H        0.2220     2.1380     3.1990 H     1 <1>   0.0800 
 32 H       -0.2960     3.7340     2.7230 H     1 <1>   0.0800 
 33 H        2.7920    -2.9250    -0.8730 H     1 <1>   0.3700 
 34 H       -4.2690    -0.6810    -0.7030 H     1 <1>   0.1500 
 35 H        1.2530    -0.4090    -1.4370 H     1 <1>   0.0800 
 36 H        1.4180    -1.6130    -2.6720 H     1 <1>   0.0800 
 37 H       -4.8980     3.8540     1.1090 H     1 <1>   0.1500 
 38 H       -8.5270     0.4550    -1.7730 H     1 <1>   0.0800 
 39 H       -7.4230     1.6470    -2.4330 H     1 <1>   0.0800 
 40 H        3.4070    -0.4070     0.5040 H     1 <1>   0.0800 
 41 H        2.6040     1.0390    -0.1190 H     1 <1>   0.0800 
 42 H       -8.8720     2.7690    -0.7690 H     1 <1>   0.0800 
 43 H       -8.4430     1.5690     0.4360 H     1 <1>   0.0800 
 44 H        5.5530     0.8220     0.5730 H     1 <1>   0.0800 
 45 H        4.3540     1.6430     1.5400 H     1 <1>   0.0800 
 46 H        4.7560     2.2600    -0.0440 H     1 <1>   0.0800 
@<TRIPOS>BOND
  1   1   2  1   
  2   1   3  1   
  3   2   4  ar  
  4   2   5  ar  
  5   3   6  1   
  6   3  27  1   
  7   3  28  1   
  8   4   7  ar  
  9   5   8  ar  
 10   5   9  1   
 11   6  10  2   
 12   6  11  am  
 13   7  12  ar  
 14   7  13  ar  
 15   8  12  ar  
 16   8  29  1   
 17   9  30  1   
 18   9  31  1   
 19   9  32  1   
 20  11  14  1   
 21  11  33  1   
 22  12  15  ar  
 23  13  16  ar  
 24  13  34  1   
 25  14  17  1   
 26  14  35  1   
 27  14  36  1   
 28  15  18  ar  
 29  15  37  1   
 30  16  18  ar  
 31  16  19  1   
 32  17  20  2   
 33  17  21  1   
 34  18  22  1   
 35  19  23  1   
 36  21  24  1   
 37  22  25  1   
 38  23  25  1   
 39  23  38  1   
 40  23  39  1   
 41  24  26  1   
 42  24  40  1   
 43  24  41  1   
 44  25  42  1   
 45  25  43  1   
 46  26  44  1   
 47  26  45  1   
 48  26  46  1   
@<TRIPOS>SUBSTRUCTURE
  1 ****   4 GROUP 4 **** **** 0

# MOE 2024.06 (io_trps.svl 2023.06)
