@<TRIPOS>MOLECULE
2-[4-(2,3-Dihydro-benzo[1,4]dioxine-6-carbonyl)-piperidin-1-yl]-N-(4-methoxy-benzyl)-acetamide
60 63 1 0 0 
SMALL
USER_CHARGES


@<TRIPOS>ATOM
  1 O        1.3470     1.5450    -2.4920 O.2   1 <1>  -0.5700 
  2 C        1.2210     2.1160    -1.4390 C.2   1 <1>   0.4230 
  3 C       -0.0510     2.6370    -0.9820 C.ar  1 <1>   0.0860 
  4 C        2.4860     2.2690    -0.5830 C.3   1 <1>  -0.0190 
  5 C       -0.1620     3.6610    -0.0350 C.ar  1 <1>  -0.1500 
  6 C       -1.2440     2.1170    -1.4960 C.ar  1 <1>  -0.1500 
  7 C        3.3490     3.4340    -1.1010 C.3   1 <1>  -0.1600 
  8 C        3.3210     0.9710    -0.5660 C.3   1 <1>  -0.1600 
  9 C       -1.3920     4.1210     0.3890 C.ar  1 <1>   0.0830 
 10 C       -2.4820     2.5780    -1.0860 C.ar  1 <1>  -0.1500 
 11 C        4.6650     3.5650    -0.3350 C.3   1 <1>   0.3430 
 12 C        4.6320     1.1380     0.1980 C.3   1 <1>   0.3430 
 13 O       -1.4320     5.0970     1.3300 O.3   1 <1>  -0.3630 
 14 C       -2.5650     3.5850    -0.1440 C.ar  1 <1>   0.0830 
 15 N        5.4030     2.2700    -0.3820 N.4   1 <1>  -0.9590 
 16 C       -2.6750     5.3170     1.9740 C.3   1 <1>   0.1200 
 17 O       -3.7790     4.0380     0.2380 O.3   1 <1>  -0.3630 
 18 C        6.7910     2.3940     0.2100 C.3   1 <1>   0.4040 
 19 C       -3.8240     5.2560     0.9570 C.3   1 <1>   0.1200 
 20 C        7.7350     3.3000    -0.6050 C.2   1 <1>   0.5690 
 21 O        7.4200     3.5620    -1.7420 O.2   1 <1>  -0.5700 
 22 N        8.8740     3.7870    -0.0510 N.am  1 <1>  -0.7300 
 23 C        9.8900     4.5660    -0.7860 C.3   1 <1>   0.2840 
 24 C       11.2340     4.2090    -0.1850 C.ar  1 <1>  -0.1430 
 25 C       11.9590     3.1360    -0.6820 C.ar  1 <1>  -0.1500 
 26 C       11.7430     4.9410     0.8780 C.ar  1 <1>  -0.1500 
 27 C       13.1780     2.7930    -0.1230 C.ar  1 <1>  -0.1500 
 28 C       12.9610     4.5990     1.4380 C.ar  1 <1>  -0.1500 
 29 C       13.6850     3.5260     0.9460 C.ar  1 <1>   0.0830 
 30 O       14.8670     3.2580     1.5540 O.3   1 <1>  -0.3620 
 31 C       15.7030     2.2140     1.1060 C.3   1 <1>   0.0400 
 32 H        2.1980     2.4710     0.4330 H     1 <1>   0.0800 
 33 H        0.7060     4.1270     0.3890 H     1 <1>   0.1500 
 34 H       -1.1960     1.3350    -2.2360 H     1 <1>   0.1500 
 35 H        2.8020     4.3570    -1.0150 H     1 <1>   0.0800 
 36 H        3.5650     3.2910    -2.1470 H     1 <1>   0.0800 
 37 H        3.5460     0.6580    -1.5720 H     1 <1>   0.0800 
 38 H        2.7450     0.1830    -0.1120 H     1 <1>   0.0800 
 39 H       -3.3870     2.1640    -1.4960 H     1 <1>   0.1500 
 40 H        4.4640     3.8380     0.6890 H     1 <1>   0.0800 
 41 H        5.2590     4.3460    -0.7860 H     1 <1>   0.0800 
 42 H        5.2020     0.2250     0.1290 H     1 <1>   0.0800 
 43 H        4.4220     1.3310     1.2380 H     1 <1>   0.0800 
 44 H        5.5530     2.0830    -1.3890 H     1 <1>   0.4500 
 45 H       -2.6370     6.2800     2.4500 H     1 <1>   0.0800 
 46 H       -2.8020     4.5570     2.7250 H     1 <1>   0.0800 
 47 H        7.2450     1.4190     0.2560 H     1 <1>   0.0800 
 48 H        6.7240     2.7790     1.2130 H     1 <1>   0.0800 
 49 H       -3.7420     6.0640     0.2510 H     1 <1>   0.0800 
 50 H       -4.7770     5.3150     1.4510 H     1 <1>   0.0800 
 51 H        9.2000     3.5260     0.8840 H     1 <1>   0.3700 
 52 H        9.6950     5.6190    -0.6730 H     1 <1>   0.0800 
 53 H        9.8680     4.3220    -1.8350 H     1 <1>   0.0800 
 54 H       11.5780     2.5610    -1.5080 H     1 <1>   0.1500 
 55 H       11.1990     5.7800     1.2760 H     1 <1>   0.1500 
 56 H       13.7160     1.9580    -0.5300 H     1 <1>   0.1500 
 57 H       13.3600     5.1630     2.2620 H     1 <1>   0.1500 
 58 H       16.5820     2.2020     1.7250 H     1 <1>   0.0800 
 59 H       15.9790     2.4020     0.0840 H     1 <1>   0.0800 
 60 H       15.1770     1.2810     1.2000 H     1 <1>   0.0800 
@<TRIPOS>BOND
  1   1   2  2   
  2   2   3  1   
  3   2   4  1   
  4   3   5  ar  
  5   3   6  ar  
  6   4   7  1   
  7   4   8  1   
  8   4  32  1   
  9   5   9  ar  
 10   5  33  1   
 11   6  10  ar  
 12   6  34  1   
 13   7  11  1   
 14   7  35  1   
 15   7  36  1   
 16   8  12  1   
 17   8  37  1   
 18   8  38  1   
 19   9  13  1   
 20   9  14  ar  
 21  10  14  ar  
 22  10  39  1   
 23  11  15  1   
 24  11  40  1   
 25  11  41  1   
 26  12  15  1   
 27  12  42  1   
 28  12  43  1   
 29  13  16  1   
 30  14  17  1   
 31  15  18  1   
 32  15  44  1   
 33  16  19  1   
 34  16  45  1   
 35  16  46  1   
 36  17  19  1   
 37  18  20  1   
 38  18  47  1   
 39  18  48  1   
 40  19  49  1   
 41  19  50  1   
 42  20  21  2   
 43  20  22  am  
 44  22  23  1   
 45  22  51  1   
 46  23  24  1   
 47  23  52  1   
 48  23  53  1   
 49  24  25  ar  
 50  24  26  ar  
 51  25  27  ar  
 52  25  54  1   
 53  26  28  ar  
 54  26  55  1   
 55  27  29  ar  
 56  27  56  1   
 57  28  29  ar  
 58  28  57  1   
 59  29  30  1   
 60  30  31  1   
 61  31  58  1   
 62  31  59  1   
 63  31  60  1   
@<TRIPOS>SUBSTRUCTURE
  1 ****  11 GROUP 4 **** **** 0

# MOE 2024.06 (io_trps.svl 2023.06)
