@<TRIPOS>MOLECULE
NONAME
24 24 1 0 0 
SMALL
USER_CHARGES


@<TRIPOS>ATOM
  1 O        0.8680    -1.3840     1.4950 O.2   1 <1>  -0.5700 
  2 C        0.3760    -1.8030     0.4770 C.2   1 <1>   0.6590 
  3 O        1.0530    -1.8540    -0.6650 O.3   1 <1>  -0.4300 
  4 C       -1.0610    -2.2790     0.4260 C.3   1 <1>   0.0440 
  5 C        2.4060    -1.4580    -0.7430 C.3   1 <1>   0.0400 
  6 C       -1.1550    -3.7960     0.3300 C.ar  1 <1>  -0.1440 
  7 C       -1.3810    -4.4150    -0.8900 C.ar  1 <1>  -0.1500 
  8 C       -1.0110    -4.5740     1.4670 C.ar  1 <1>  -0.1500 
  9 C       -1.4670    -5.7940    -0.9680 C.ar  1 <1>  -0.1500 
 10 C       -1.0960    -5.9530     1.3880 C.ar  1 <1>  -0.1500 
 11 C       -1.3240    -6.5710     0.1690 C.ar  1 <1>  -0.1430 
 12 C       -1.4190    -8.0830     0.0830 C.3   1 <1>  -0.0970 
 13 H       -1.5440    -1.8220    -0.4170 H     1 <1>   0.0800 
 14 H       -1.5670    -1.9450     1.3130 H     1 <1>   0.0800 
 15 H        2.7420    -1.5880    -1.7560 H     1 <1>   0.0800 
 16 H        2.9860    -2.0730    -0.0770 H     1 <1>   0.0800 
 17 H        2.4830    -0.4240    -0.4540 H     1 <1>   0.0800 
 18 H       -1.4900    -3.8290    -1.7860 H     1 <1>   0.1500 
 19 H       -0.8280    -4.1100     2.4220 H     1 <1>   0.1500 
 20 H       -1.6440    -6.2600    -1.9210 H     1 <1>   0.1500 
 21 H       -0.9830    -6.5420     2.2800 H     1 <1>   0.1500 
 22 H       -2.4390    -8.3910     0.2210 H     1 <1>   0.0800 
 23 H       -0.8110    -8.5420     0.8410 H     1 <1>   0.0800 
 24 H       -1.0790    -8.4270    -0.8780 H     1 <1>   0.0800 
@<TRIPOS>BOND
  1   1   2  2   
  2   2   3  1   
  3   2   4  1   
  4   3   5  1   
  5   4   6  1   
  6   4  13  1   
  7   4  14  1   
  8   5  15  1   
  9   5  16  1   
 10   5  17  1   
 11   6   7  ar  
 12   6   8  ar  
 13   7   9  ar  
 14   7  18  1   
 15   8  10  ar  
 16   8  19  1   
 17   9  11  ar  
 18   9  20  1   
 19  10  11  ar  
 20  10  21  1   
 21  11  12  1   
 22  12  22  1   
 23  12  23  1   
 24  12  24  1   
@<TRIPOS>SUBSTRUCTURE
  1 ****   6 GROUP 4 **** **** 0

# MOE 2024.06 (io_trps.svl 2023.06)
