@<TRIPOS>MOLECULE
NONAME
42 44 1 0 0 
SMALL
USER_CHARGES


@<TRIPOS>ATOM
  1 CL      -0.2480     0.1520    -0.1670 Cl    1 <1>  -0.1770 
  2 C       -1.3470    -1.1990     0.0110 C.ar  1 <1>   0.1770 
  3 C       -2.7180    -1.0400    -0.1580 C.ar  1 <1>  -0.1440 
  4 C       -0.7850    -2.4230     0.3200 C.ar  1 <1>  -0.1500 
  5 C       -3.5420    -2.1630    -0.0250 C.ar  1 <1>   0.1170 
  6 C       -3.3190     0.3300    -0.4820 C.3   1 <1>  -0.0970 
  7 C       -1.6010    -3.5280     0.4600 C.ar  1 <1>  -0.1500 
  8 N       -4.9260    -2.0440    -0.2320 N.am  1 <1>  -0.5470 
  9 C       -2.9650    -3.3940     0.2840 C.ar  1 <1>  -0.1500 
 10 C       -5.9770    -2.7480     0.2910 C.2   1 <1>   0.5690 
 11 O       -5.8420    -3.6430     1.0890 O.2   1 <1>  -0.5700 
 12 C       -7.3800    -2.3410    -0.1600 C.3   1 <1>  -0.0190 
 13 C       -7.9290    -1.1970     0.7140 C.3   1 <1>  -0.1600 
 14 C       -8.3760    -3.5180    -0.1590 C.3   1 <1>  -0.1600 
 15 C       -9.3300    -0.7730     0.2670 C.3   1 <1>   0.2090 
 16 C       -9.7710    -3.0740    -0.6010 C.3   1 <1>   0.2090 
 17 N      -10.2290    -1.9550     0.2590 N.pl3 1 <1>  -0.8380 
 18 C      -11.5960    -1.7330     0.3150 C.ar  1 <1>   0.4100 
 19 N      -12.0590    -0.6770    -0.3450 N.ar  1 <1>  -0.6200 
 20 C      -12.4380    -2.6030     1.0280 C.ar  1 <1>   0.1600 
 21 C      -13.3720    -0.5600    -0.2500 C.ar  1 <1>   0.1600 
 22 N      -13.7510    -2.4900     1.1190 N.ar  1 <1>  -0.6200 
 23 C      -14.1920    -1.4320     0.4540 C.ar  1 <1>   0.1600 
 24 H        0.2800    -2.5050     0.4480 H     1 <1>   0.1500 
 25 H       -2.6480     1.1310    -0.2330 H     1 <1>   0.0800 
 26 H       -4.2180     0.4920     0.0830 H     1 <1>   0.0800 
 27 H       -3.5430     0.3930    -1.5320 H     1 <1>   0.0800 
 28 H       -1.1790    -4.4880     0.7020 H     1 <1>   0.1500 
 29 H       -5.1870    -1.2600    -0.8250 H     1 <1>   0.3700 
 30 H       -3.5870    -4.2640     0.3880 H     1 <1>   0.1500 
 31 H       -7.3070    -1.9840    -1.1720 H     1 <1>   0.0800 
 32 H       -7.2740    -0.3470     0.6670 H     1 <1>   0.0800 
 33 H       -7.9780    -1.5190     1.7400 H     1 <1>   0.0800 
 34 H       -8.4470    -3.9380     0.8300 H     1 <1>   0.0800 
 35 H       -8.0230    -4.2930    -0.8170 H     1 <1>   0.0800 
 36 H       -9.2970    -0.3460    -0.7210 H     1 <1>   0.0800 
 37 H       -9.7200    -0.0300     0.9430 H     1 <1>   0.0800 
 38 H      -10.4570    -3.9010    -0.5260 H     1 <1>   0.0800 
 39 H       -9.7500    -2.7440    -1.6260 H     1 <1>   0.0800 
 40 H      -11.9700    -3.4230     1.5390 H     1 <1>   0.1500 
 41 H      -13.8260     0.2720    -0.7580 H     1 <1>   0.1500 
 42 H      -15.2520    -1.2510     0.4690 H     1 <1>   0.1500 
@<TRIPOS>BOND
  1   1   2  1   
  2   2   3  ar  
  3   2   4  ar  
  4   3   5  ar  
  5   3   6  1   
  6   4   7  ar  
  7   4  24  1   
  8   5   8  1   
  9   5   9  ar  
 10   6  25  1   
 11   6  26  1   
 12   6  27  1   
 13   7   9  ar  
 14   7  28  1   
 15   8  10  am  
 16   8  29  1   
 17   9  30  1   
 18  10  11  2   
 19  10  12  1   
 20  12  13  1   
 21  12  14  1   
 22  12  31  1   
 23  13  15  1   
 24  13  32  1   
 25  13  33  1   
 26  14  16  1   
 27  14  34  1   
 28  14  35  1   
 29  15  17  1   
 30  15  36  1   
 31  15  37  1   
 32  16  17  1   
 33  16  38  1   
 34  16  39  1   
 35  17  18  1   
 36  18  19  ar  
 37  18  20  ar  
 38  19  21  ar  
 39  20  22  ar  
 40  20  40  1   
 41  21  23  ar  
 42  21  41  1   
 43  22  23  ar  
 44  23  42  1   
@<TRIPOS>SUBSTRUCTURE
  1 ****  12 GROUP 4 **** **** 0

# MOE 2024.06 (io_trps.svl 2023.06)
