@<TRIPOS>MOLECULE
5-[4-(Pyrrolidine-1-sulfonyl)-phenyl]-4-(tetrahydro-furan-2-ylmethyl)-4H-[1,2,4]
48 51 1 0 0 
SMALL
USER_CHARGES


@<TRIPOS>ATOM
  1 S       -0.6900    -0.6050     1.1080 S.o2  1 <1>   1.4470 
  2 O       -0.4690    -2.0210     0.9200 O.2   1 <1>  -0.6500 
  3 O       -1.1830    -0.1220     2.3800 O.2   1 <1>  -0.6500 
  4 N       -1.7980    -0.1200    -0.0780 N.am  1 <1>  -0.8490 
  5 C        0.8210     0.2900     0.6420 C.ar  1 <1>  -0.0090 
  6 C       -2.3020     1.2350     0.0720 C.3   1 <1>   0.1960 
  7 C       -2.9770    -0.9660    -0.1280 C.3   1 <1>   0.1960 
  8 C        1.5080     1.0860     1.5510 C.ar  1 <1>  -0.1500 
  9 C        1.3360     0.1990    -0.6460 C.ar  1 <1>  -0.1500 
 10 C       -3.5170     1.2840    -0.8450 C.3   1 <1>  -0.1600 
 11 C       -3.9900    -0.1670    -0.9400 C.3   1 <1>  -0.1600 
 12 C        2.6600     1.7610     1.1890 C.ar  1 <1>  -0.1500 
 13 C        2.4870     0.8730    -1.0120 C.ar  1 <1>  -0.1500 
 14 C        3.1810     1.6670    -0.1000 C.ar  1 <1>   0.0410 
 15 C        4.3860     2.3740    -0.4750 C.2   1 <1>   0.6120 
 16 N        4.5630     3.6560    -0.3660 N.2   1 <1>  -0.2600 
 17 N        5.5060     1.7550    -0.9960 N.pl3 1 <1>  -0.7640 
 18 N        5.8210     3.8600    -0.8420 N.pl3 1 <1>  -0.3930 
 19 C        6.3680     2.7260    -1.2080 C.cat 1 <1>   0.7360 
 20 C        5.8160     0.3130    -1.1860 C.3   1 <1>   0.3540 
 21 S        7.8710     2.5660    -1.7850 S.3   1 <1>  -0.9360 
 22 C        6.8090    -0.2180    -0.1360 C.3   1 <1>   0.2000 
 23 O        6.8300    -1.6090    -0.1750 O.3   1 <1>  -0.5600 
 24 C        6.4610     0.0920     1.3180 C.3   1 <1>  -0.1600 
 25 C        7.3980    -2.1000     0.9960 C.3   1 <1>   0.1200 
 26 C        7.0890    -1.0670     2.0780 C.3   1 <1>  -0.1600 
 27 H       -1.5580     1.9630    -0.2070 H     1 <1>   0.0800 
 28 H       -2.6150     1.4100     1.0890 H     1 <1>   0.0800 
 29 H       -3.3540    -1.1290     0.8700 H     1 <1>   0.0800 
 30 H       -2.7520    -1.9170    -0.5840 H     1 <1>   0.0800 
 31 H        1.1320     1.1760     2.5580 H     1 <1>   0.1500 
 32 H        0.8190    -0.4120    -1.3690 H     1 <1>   0.1500 
 33 H       -3.2200     1.6420    -1.8160 H     1 <1>   0.0800 
 34 H       -4.2750     1.9350    -0.4460 H     1 <1>   0.0800 
 35 H       -4.9800    -0.2950    -0.5390 H     1 <1>   0.0800 
 36 H       -3.9800    -0.4990    -1.9630 H     1 <1>   0.0800 
 37 H        3.1650     2.3710     1.9200 H     1 <1>   0.1500 
 38 H        2.8500     0.7850    -2.0220 H     1 <1>   0.1500 
 39 H        6.3360     4.7380    -0.9260 H     1 <1>   0.4500 
 40 H        6.2450     0.1730    -2.1640 H     1 <1>   0.0800 
 41 H        4.9120    -0.2640    -1.1240 H     1 <1>   0.0800 
 42 H        7.8040     0.1260    -0.3650 H     1 <1>   0.0800 
 43 H        5.3940     0.0830     1.4500 H     1 <1>   0.0800 
 44 H        6.8540     1.0470     1.6190 H     1 <1>   0.0800 
 45 H        8.4590    -2.1960     0.8390 H     1 <1>   0.0800 
 46 H        6.9670    -3.0630     1.2120 H     1 <1>   0.0800 
 47 H        6.4140    -1.4680     2.8130 H     1 <1>   0.0800 
 48 H        8.0010    -0.7670     2.5630 H     1 <1>   0.0800 
@<TRIPOS>BOND
  1   1   2  2   
  2   1   3  2   
  3   1   4  am  
  4   1   5  1   
  5   4   6  1   
  6   4   7  1   
  7   5   8  ar  
  8   5   9  ar  
  9   6  10  1   
 10   6  27  1   
 11   6  28  1   
 12   7  11  1   
 13   7  29  1   
 14   7  30  1   
 15   8  12  ar  
 16   8  31  1   
 17   9  13  ar  
 18   9  32  1   
 19  10  11  1   
 20  10  33  1   
 21  10  34  1   
 22  11  35  1   
 23  11  36  1   
 24  12  14  ar  
 25  12  37  1   
 26  13  14  ar  
 27  13  38  1   
 28  14  15  1   
 29  15  16  2   
 30  15  17  1   
 31  16  18  1   
 32  17  19  ar  
 33  17  20  1   
 34  18  19  ar  
 35  18  39  1   
 36  19  21  1   
 37  20  22  1   
 38  20  40  1   
 39  20  41  1   
 40  22  23  1   
 41  22  24  1   
 42  22  42  1   
 43  23  25  1   
 44  24  26  1   
 45  24  43  1   
 46  24  44  1   
 47  25  26  1   
 48  25  45  1   
 49  25  46  1   
 50  26  47  1   
 51  26  48  1   
@<TRIPOS>SUBSTRUCTURE
  1 ****  13 GROUP 4 **** **** 0

# MOE 2024.06 (io_trps.svl 2023.06)
