@<TRIPOS>MOLECULE
NONAME
42 44 1 0 0 
SMALL
USER_CHARGES


@<TRIPOS>ATOM
  1 CL      -0.3160    -2.3460    -2.5620 Cl    1 <1>  -0.1770 
  2 C       -1.3820    -2.5010    -1.1840 C.ar  1 <1>   0.1770 
  3 C       -0.8830    -2.9250     0.0390 C.ar  1 <1>  -0.1440 
  4 C       -2.7160    -2.1920    -1.3570 C.ar  1 <1>  -0.1500 
  5 C       -1.7660    -3.0350     1.1020 C.ar  1 <1>  -0.1500 
  6 C        0.5890    -3.2610     0.2210 C.3   1 <1>  -0.0960 
  7 C       -3.6020    -2.2980    -0.2930 C.ar  1 <1>   0.1170 
  8 C       -3.1060    -2.7270     0.9350 C.ar  1 <1>  -0.1500 
  9 N       -4.9540    -1.9880    -0.5090 N.am  1 <1>  -0.5470 
 10 C       -5.9400    -1.6180     0.3670 C.2   1 <1>   0.5690 
 11 O       -5.7480    -1.4560     1.5470 O.2   1 <1>  -0.5700 
 12 C       -7.3390    -1.3970    -0.2150 C.3   1 <1>  -0.0190 
 13 C       -8.2310    -0.5090     0.6760 C.3   1 <1>  -0.1600 
 14 C       -8.0470    -2.7400    -0.4760 C.3   1 <1>  -0.1600 
 15 C       -9.6250    -0.3120     0.0770 C.3   1 <1>   0.2090 
 16 C       -9.4330    -2.5320    -1.0890 C.3   1 <1>   0.2090 
 17 N      -10.2360    -1.6390    -0.2120 N.pl3 1 <1>  -0.8380 
 18 C      -11.4890    -1.9890     0.2500 C.ar  1 <1>   0.7200 
 19 N      -11.7830    -3.2880     0.2910 N.ar  1 <1>  -0.6200 
 20 N      -12.3030    -0.9960     0.6110 N.ar  1 <1>  -0.6200 
 21 C      -12.9750    -3.6050     0.7340 C.ar  1 <1>   0.1600 
 22 C      -13.4890    -1.3420     1.0480 C.ar  1 <1>   0.1600 
 23 C      -13.8820    -2.6550     1.1320 C.ar  1 <1>  -0.1500 
 24 H       -3.0540    -1.8660    -2.3210 H     1 <1>   0.1500 
 25 H       -1.4180    -3.3600     2.0670 H     1 <1>   0.1500 
 26 H        0.8680    -4.0610    -0.4420 H     1 <1>   0.0800 
 27 H        0.7930    -3.5680     1.2310 H     1 <1>   0.0800 
 28 H        1.1930    -2.4000    -0.0020 H     1 <1>   0.0800 
 29 H       -3.7690    -2.8280     1.7760 H     1 <1>   0.1500 
 30 H       -5.2420    -2.0200    -1.4830 H     1 <1>   0.3700 
 31 H       -7.2190    -0.8900    -1.1550 H     1 <1>   0.0800 
 32 H       -7.7660     0.4500     0.8170 H     1 <1>   0.0800 
 33 H       -8.3420    -0.9620     1.6470 H     1 <1>   0.0800 
 34 H       -8.1590    -3.2780     0.4500 H     1 <1>   0.0800 
 35 H       -7.4600    -3.3480    -1.1400 H     1 <1>   0.0800 
 36 H       -9.5630     0.2520    -0.8380 H     1 <1>   0.0800 
 37 H      -10.2230     0.2500     0.7740 H     1 <1>   0.0800 
 38 H       -9.9110    -3.4870    -1.2250 H     1 <1>   0.0800 
 39 H       -9.3430    -2.0730    -2.0580 H     1 <1>   0.0800 
 40 H      -13.2340    -4.6490     0.7810 H     1 <1>   0.1500 
 41 H      -14.1640    -0.5580     1.3460 H     1 <1>   0.1500 
 42 H      -14.8560    -2.9260     1.4920 H     1 <1>   0.1500 
@<TRIPOS>BOND
  1   1   2  1   
  2   2   3  ar  
  3   2   4  ar  
  4   3   5  ar  
  5   3   6  1   
  6   4   7  ar  
  7   4  24  1   
  8   5   8  ar  
  9   5  25  1   
 10   6  26  1   
 11   6  27  1   
 12   6  28  1   
 13   7   8  ar  
 14   7   9  1   
 15   8  29  1   
 16   9  10  am  
 17   9  30  1   
 18  10  11  2   
 19  10  12  1   
 20  12  13  1   
 21  12  14  1   
 22  12  31  1   
 23  13  15  1   
 24  13  32  1   
 25  13  33  1   
 26  14  16  1   
 27  14  34  1   
 28  14  35  1   
 29  15  17  1   
 30  15  36  1   
 31  15  37  1   
 32  16  17  1   
 33  16  38  1   
 34  16  39  1   
 35  17  18  1   
 36  18  19  ar  
 37  18  20  ar  
 38  19  21  ar  
 39  20  22  ar  
 40  21  23  ar  
 41  21  40  1   
 42  22  23  ar  
 43  22  41  1   
 44  23  42  1   
@<TRIPOS>SUBSTRUCTURE
  1 ****  12 GROUP 4 **** **** 0

# MOE 2024.06 (io_trps.svl 2023.06)
