@<TRIPOS>MOLECULE
N-(2-Ethoxy-phenyl)-2-[4-(5-fluoro-benzoimidazol-1-yl)-piperidin-1-yl]-acetamide
54 57 1 0 0 
SMALL
USER_CHARGES


@<TRIPOS>ATOM
  1 F        2.4690    -4.6180    -0.5980 F     1 <1>  -0.1900 
  2 C        3.5160    -3.8780    -0.3400 C.ar  1 <1>   0.1900 
  3 C        4.3940    -4.2820     0.6370 C.ar  1 <1>  -0.1500 
  4 C        3.6860    -2.7050    -1.0810 C.ar  1 <1>  -0.1500 
  5 C        5.4970    -3.4690     0.8840 C.ar  1 <1>   0.2270 
  6 C        4.7790    -1.9040    -0.8330 C.ar  1 <1>  -0.1500 
  7 N        6.5040    -3.6450     1.7800 N.2   1 <1>  -0.5650 
  8 C        5.6840    -2.3000     0.1610 C.ar  1 <1>  -0.1520 
  9 C        7.2620    -2.6210     1.6030 C.2   1 <1>   0.0360 
 10 N        6.8350    -1.7560     0.6440 N.pl3 1 <1>   0.0480 
 11 C        7.5140    -0.5330     0.1540 C.3   1 <1>   0.1760 
 12 C        8.7180    -0.9180    -0.7150 C.3   1 <1>  -0.1600 
 13 C        7.9340     0.3760     1.3210 C.3   1 <1>  -0.1600 
 14 C        9.5010     0.3230    -1.1340 C.3   1 <1>   0.1100 
 15 C        8.7560     1.5630     0.8170 C.3   1 <1>   0.1100 
 16 N        9.9120     1.0530     0.0750 N.3   1 <1>  -0.8100 
 17 C       10.8870     2.1390    -0.2480 C.3   1 <1>   0.1710 
 18 C       12.2820     1.6260    -0.6130 C.2   1 <1>   0.5690 
 19 O       13.0220     2.3430    -1.2430 O.2   1 <1>  -0.5700 
 20 N       12.5940     0.3630    -0.2010 N.am  1 <1>  -0.5470 
 21 C       13.7050    -0.4820    -0.3690 C.ar  1 <1>   0.1170 
 22 C       13.5840    -1.8280    -0.0030 C.ar  1 <1>   0.0830 
 23 C       14.9170    -0.0310    -0.8780 C.ar  1 <1>  -0.1500 
 24 O       12.3790    -2.2390     0.4980 O.3   1 <1>  -0.3630 
 25 C       14.6670    -2.6890    -0.1550 C.ar  1 <1>  -0.1500 
 26 C       15.9900    -0.8920    -1.0260 C.ar  1 <1>  -0.1500 
 27 C       12.2400    -3.5030     1.1060 C.3   1 <1>   0.1200 
 28 C       15.8650    -2.2210    -0.6650 C.ar  1 <1>  -0.1500 
 29 C       10.8250    -3.6130     1.6650 C.3   1 <1>  -0.2400 
 30 H        4.2540    -5.1840     1.1990 H     1 <1>   0.1500 
 31 H        2.9600    -2.4500    -1.8320 H     1 <1>   0.1500 
 32 H        4.9360    -0.9970    -1.3890 H     1 <1>   0.1500 
 33 H        8.1690    -2.4440     2.1540 H     1 <1>   0.1500 
 34 H        6.8180     0.0130    -0.4560 H     1 <1>   0.0800 
 35 H        8.3820    -1.4400    -1.5930 H     1 <1>   0.0800 
 36 H        9.3820    -1.5640    -0.1690 H     1 <1>   0.0800 
 37 H        8.5390    -0.1670     2.0240 H     1 <1>   0.0800 
 38 H        7.0600     0.7390     1.8310 H     1 <1>   0.0800 
 39 H        8.8970     0.9560    -1.7630 H     1 <1>   0.0800 
 40 H       10.3660     0.0140    -1.6990 H     1 <1>   0.0800 
 41 H        9.0920     2.1400     1.6630 H     1 <1>   0.0800 
 42 H        8.1580     2.1990     0.1840 H     1 <1>   0.0800 
 43 H       11.0070     2.7770     0.6090 H     1 <1>   0.0800 
 44 H       10.5130     2.7400    -1.0580 H     1 <1>   0.0800 
 45 H       11.7980    -0.0990     0.2540 H     1 <1>   0.3700 
 46 H       15.0330     0.9990    -1.1600 H     1 <1>   0.1500 
 47 H       14.6020    -3.7260     0.1110 H     1 <1>   0.1500 
 48 H       16.9200    -0.5240    -1.4220 H     1 <1>   0.1500 
 49 H       12.9670    -3.5800     1.8970 H     1 <1>   0.0800 
 50 H       12.4130    -4.2620     0.3640 H     1 <1>   0.0800 
 51 H       16.7010    -2.8890    -0.7830 H     1 <1>   0.1500 
 52 H       10.6360    -2.8090     2.3540 H     1 <1>   0.0800 
 53 H       10.7120    -4.5460     2.1860 H     1 <1>   0.0800 
 54 H       10.1090    -3.5860     0.8650 H     1 <1>   0.0800 
@<TRIPOS>BOND
  1   1   2  1   
  2   2   3  ar  
  3   2   4  ar  
  4   3   5  ar  
  5   3  30  1   
  6   4   6  ar  
  7   4  31  1   
  8   5   7  1   
  9   5   8  ar  
 10   6   8  ar  
 11   6  32  1   
 12   7   9  2   
 13   8  10  1   
 14   9  10  1   
 15   9  33  1   
 16  10  11  1   
 17  11  12  1   
 18  11  13  1   
 19  11  34  1   
 20  12  14  1   
 21  12  35  1   
 22  12  36  1   
 23  13  15  1   
 24  13  37  1   
 25  13  38  1   
 26  14  16  1   
 27  14  39  1   
 28  14  40  1   
 29  15  16  1   
 30  15  41  1   
 31  15  42  1   
 32  16  17  1   
 33  17  18  1   
 34  17  43  1   
 35  17  44  1   
 36  18  19  2   
 37  18  20  am  
 38  20  21  1   
 39  20  45  1   
 40  21  22  ar  
 41  21  23  ar  
 42  22  24  1   
 43  22  25  ar  
 44  23  26  ar  
 45  23  46  1   
 46  24  27  1   
 47  25  28  ar  
 48  25  47  1   
 49  26  28  ar  
 50  26  48  1   
 51  27  29  1   
 52  27  49  1   
 53  27  50  1   
 54  28  51  1   
 55  29  52  1   
 56  29  53  1   
 57  29  54  1   
@<TRIPOS>SUBSTRUCTURE
  1 ****  12 GROUP 4 **** **** 0

# MOE 2024.06 (io_trps.svl 2023.06)
