@<TRIPOS>MOLECULE
2,2-Dimethyl-3-(3-methyl-piperidin-1-yl)-propionaldehyde
35 35 1 0 0 
SMALL
USER_CHARGES


@<TRIPOS>ATOM
  1 O        1.0570     2.6550    -2.2430 O.2   1 <1>  -0.5700 
  2 C        1.0420     1.8190    -1.3860 C.2   1 <1>   0.4490 
  3 C        1.4780     2.0960     0.0580 C.3   1 <1>   0.0610 
  4 C        2.4610     3.3000     0.1150 C.3   1 <1>   0.3430 
  5 C        0.2310     2.3120     0.9410 C.3   1 <1>  -0.2400 
  6 C        2.2280     0.8640     0.6020 C.3   1 <1>  -0.2400 
  7 N        1.9870     4.5640    -0.5400 N.4   1 <1>  -0.9590 
  8 C        3.1480     5.3270    -1.1130 C.3   1 <1>   0.3430 
  9 C        1.0740     5.3760     0.3310 C.3   1 <1>   0.3430 
 10 C        3.6030     6.4490    -0.1690 C.3   1 <1>  -0.0800 
 11 C        1.0760     6.8470    -0.0890 C.3   1 <1>  -0.1600 
 12 C        2.4740     7.4800     0.0310 C.3   1 <1>  -0.1600 
 13 C        4.8710     7.1340    -0.6940 C.3   1 <1>  -0.2400 
 14 H        0.6990     0.8190    -1.5890 H     1 <1>   0.0600 
 15 H        3.3650     2.9860    -0.3800 H     1 <1>   0.0800 
 16 H        2.7170     3.5030     1.1420 H     1 <1>   0.0800 
 17 H       -0.3350     1.4000     1.0190 H     1 <1>   0.0800 
 18 H       -0.4230     3.0520     0.5170 H     1 <1>   0.0800 
 19 H        0.5100     2.6160     1.9350 H     1 <1>   0.0800 
 20 H        1.5970    -0.0080     0.5830 H     1 <1>   0.0800 
 21 H        2.5420     1.0230     1.6190 H     1 <1>   0.0800 
 22 H        3.1010     0.6530     0.0070 H     1 <1>   0.0800 
 23 H        1.4420     4.2420    -1.3690 H     1 <1>   0.4500 
 24 H        2.8500     5.7740    -2.0480 H     1 <1>   0.0800 
 25 H        3.9690     4.6600    -1.3170 H     1 <1>   0.0800 
 26 H        1.4040     5.3140     1.3560 H     1 <1>   0.0800 
 27 H        0.0700     4.9910     0.2750 H     1 <1>   0.0800 
 28 H        3.8450     6.0050     0.7820 H     1 <1>   0.0800 
 29 H        0.3830     7.3960     0.5250 H     1 <1>   0.0800 
 30 H        0.7250     6.9170    -1.1050 H     1 <1>   0.0800 
 31 H        2.5490     8.2710    -0.6980 H     1 <1>   0.0800 
 32 H        2.5880     7.9320     1.0020 H     1 <1>   0.0800 
 33 H        4.6990     7.5800    -1.6580 H     1 <1>   0.0800 
 34 H        5.6760     6.4250    -0.7840 H     1 <1>   0.0800 
 35 H        5.1840     7.9080    -0.0140 H     1 <1>   0.0800 
@<TRIPOS>BOND
  1   1   2  2   
  2   2   3  1   
  3   2  14  1   
  4   3   4  1   
  5   3   5  1   
  6   3   6  1   
  7   4   7  1   
  8   4  15  1   
  9   4  16  1   
 10   5  17  1   
 11   5  18  1   
 12   5  19  1   
 13   6  20  1   
 14   6  21  1   
 15   6  22  1   
 16   7   8  1   
 17   7   9  1   
 18   7  23  1   
 19   8  10  1   
 20   8  24  1   
 21   8  25  1   
 22   9  11  1   
 23   9  26  1   
 24   9  27  1   
 25  10  12  1   
 26  10  13  1   
 27  10  28  1   
 28  11  12  1   
 29  11  29  1   
 30  11  30  1   
 31  12  31  1   
 32  12  32  1   
 33  13  33  1   
 34  13  34  1   
 35  13  35  1   
@<TRIPOS>SUBSTRUCTURE
  1 ****   7 GROUP 4 **** **** 0

# MOE 2024.06 (io_trps.svl 2023.06)
