@<TRIPOS>MOLECULE
NONAME
36 37 1 0 0 
SMALL
USER_CHARGES


@<TRIPOS>ATOM
  1 CL       2.0520    -0.2390     2.7240 Cl    1 <1>  -0.1770 
  2 C        2.5860    -0.9280     1.2070 C.ar  1 <1>   0.1770 
  3 C        2.1490    -2.1880     0.8150 C.ar  1 <1>   0.0820 
  4 C        3.4480    -0.1870     0.4220 C.ar  1 <1>  -0.1500 
  5 O        1.3020    -2.8650     1.6350 O.3   1 <1>  -0.3630 
  6 C        2.6000    -2.6920    -0.4010 C.ar  1 <1>  -0.1500 
  7 C        3.9070    -0.6850    -0.7920 C.ar  1 <1>  -0.0090 
  8 C        0.7930    -4.1350     1.2940 C.3   1 <1>   0.0400 
  9 C        3.4640    -1.9450    -1.1850 C.ar  1 <1>  -0.1500 
 10 S        5.0300     0.2840    -1.8390 S.o2  1 <1>   1.4470 
 11 O        4.2630     1.3220    -2.4920 O.2   1 <1>  -0.6500 
 12 O        5.8310    -0.6120    -2.6460 O.2   1 <1>  -0.6500 
 13 N        6.0600     1.0190    -0.7150 N.am  1 <1>  -0.8490 
 14 C        6.7370     2.1950    -1.2750 C.3   1 <1>   0.1960 
 15 C        7.0310     0.0760    -0.1450 C.3   1 <1>   0.1960 
 16 C        7.5360     2.9270    -0.1920 C.3   1 <1>  -0.1600 
 17 C        7.8250     0.7360     0.9840 C.3   1 <1>  -0.1600 
 18 C        8.5550     1.9950     0.4860 C.3   1 <1>  -0.1860 
 19 C        9.3220     2.6960     1.6010 C.2   1 <1>   0.9060 
 20 O       10.5390     2.8480     1.4630 O.co2 1 <1>  -0.9000 
 21 O        8.7120     3.0860     2.6030 O.co2 1 <1>  -0.9000 
 22 H        3.7650     0.7860     0.7590 H     1 <1>   0.1500 
 23 H        2.2920    -3.6590    -0.7530 H     1 <1>   0.1500 
 24 H        0.1440    -4.4570     2.0890 H     1 <1>   0.0800 
 25 H        1.6110    -4.8250     1.1900 H     1 <1>   0.0800 
 26 H        0.2350    -4.0540     0.3780 H     1 <1>   0.0800 
 27 H        3.8050    -2.3470    -2.1260 H     1 <1>   0.1500 
 28 H        6.0080     2.8780    -1.6780 H     1 <1>   0.0800 
 29 H        7.3940     1.8920    -2.0730 H     1 <1>   0.0800 
 30 H        7.7110    -0.2600    -0.9120 H     1 <1>   0.0800 
 31 H        6.5170    -0.7830     0.2510 H     1 <1>   0.0800 
 32 H        6.8570     3.3130     0.5490 H     1 <1>   0.0800 
 33 H        8.0540     3.7630    -0.6260 H     1 <1>   0.0800 
 34 H        8.5450     0.0410     1.3780 H     1 <1>   0.0800 
 35 H        7.1550     1.0010     1.7850 H     1 <1>   0.0800 
 36 H        9.2820     1.6980    -0.2470 H     1 <1>   0.0800 
@<TRIPOS>BOND
  1   1   2  1   
  2   2   3  ar  
  3   2   4  ar  
  4   3   5  1   
  5   3   6  ar  
  6   4   7  ar  
  7   4  22  1   
  8   5   8  1   
  9   6   9  ar  
 10   6  23  1   
 11   7   9  ar  
 12   7  10  1   
 13   8  24  1   
 14   8  25  1   
 15   8  26  1   
 16   9  27  1   
 17  10  11  2   
 18  10  12  2   
 19  10  13  am  
 20  13  14  1   
 21  13  15  1   
 22  14  16  1   
 23  14  28  1   
 24  14  29  1   
 25  15  17  1   
 26  15  30  1   
 27  15  31  1   
 28  16  18  1   
 29  16  32  1   
 30  16  33  1   
 31  17  18  1   
 32  17  34  1   
 33  17  35  1   
 34  18  19  1   
 35  18  36  1   
 36  19  20  ar  
 37  19  21  ar  
@<TRIPOS>SUBSTRUCTURE
  1 ****  13 GROUP 4 **** **** 0

# MOE 2024.06 (io_trps.svl 2023.06)
