@<TRIPOS>MOLECULE
N-(7,9-Dioxa-1,2,3,10b-tetraaza-dicyclopenta[a,g]naphthalen-4-ylmethyl)-N-(2-methoxy-ethyl)-acetamide
42 45 1 0 0 
SMALL
USER_CHARGES


@<TRIPOS>ATOM
  1 O        1.6120     1.0180     1.9200 O.2   1 <1>  -0.5700 
  2 C        1.8630     1.9140     1.1530 C.2   1 <1>   0.5690 
  3 N        2.2850     1.6710    -0.1270 N.am  1 <1>  -0.6600 
  4 C        1.7170     3.3290     1.6650 C.3   1 <1>  -0.1790 
  5 C        2.7020     2.7380    -1.0820 C.3   1 <1>   0.2780 
  6 C        2.2830     0.2760    -0.6720 C.3   1 <1>   0.1400 
  7 C        4.1770     3.1120    -0.9360 C.2   1 <1>  -0.0930 
  8 C        3.5930    -0.4440    -0.3530 C.3   1 <1>   0.1200 
  9 C        4.7130     3.9490    -1.9550 C.2   1 <1>   0.1410 
 10 C        4.9980     2.7200     0.0770 C.2   1 <1>  -0.1780 
 11 O        3.5980    -1.6660    -1.0200 O.3   1 <1>  -0.5600 
 12 N        4.1480     4.4620    -3.0000 N.2   1 <1>  -0.3380 
 13 N        5.9940     4.3250    -1.9180 N.pl3 1 <1>   0.5930 
 14 C        6.3720     3.1170     0.1310 C.ar  1 <1>   0.0280 
 15 C        4.7090    -2.4540    -0.7410 C.3   1 <1>   0.0400 
 16 N        5.0930     5.1590    -3.6090 N.2   1 <1>   0.0000 
 17 N        6.2100     5.0880    -2.9730 N.2   1 <1>  -0.4180 
 18 C        6.8840     3.9410    -0.8960 C.ar  1 <1>  -0.0230 
 19 C        7.2190     2.7120     1.1720 C.ar  1 <1>  -0.1500 
 20 C        8.2230     4.3490    -0.8790 C.ar  1 <1>  -0.1500 
 21 C        8.5270     3.1300     1.1590 C.ar  1 <1>   0.0820 
 22 C        9.0180     3.9270     0.1600 C.ar  1 <1>   0.0820 
 23 O        9.4930     2.8610     2.0440 O.3   1 <1>  -0.3630 
 24 O       10.3080     4.1910     0.3790 O.3   1 <1>  -0.3630 
 25 C       10.6680     3.5290     1.5890 C.3   1 <1>   0.4000 
 26 H        0.9450     3.8360     1.1170 H     1 <1>   0.0800 
 27 H        2.6440     3.8600     1.5680 H     1 <1>   0.0800 
 28 H        1.4410     3.3090     2.7030 H     1 <1>   0.0800 
 29 H        2.0990     3.6170    -0.9380 H     1 <1>   0.0800 
 30 H        2.5240     2.4010    -2.0890 H     1 <1>   0.0800 
 31 H        2.1370     0.2960    -1.7370 H     1 <1>   0.0800 
 32 H        1.4700    -0.2770    -0.2330 H     1 <1>   0.0800 
 33 H        3.6650    -0.6220     0.7070 H     1 <1>   0.0800 
 34 H        4.4340     0.1290    -0.7000 H     1 <1>   0.0800 
 35 H        4.6490     2.0940     0.8810 H     1 <1>   0.1500 
 36 H        4.6230    -3.3650    -1.3060 H     1 <1>   0.0800 
 37 H        4.7280    -2.6800     0.3110 H     1 <1>   0.0800 
 38 H        5.6010    -1.9280    -1.0330 H     1 <1>   0.0800 
 39 H        6.8600     2.0860     1.9680 H     1 <1>   0.1500 
 40 H        8.6310     4.9760    -1.6530 H     1 <1>   0.1500 
 41 H       11.4410     2.8070     1.3900 H     1 <1>   0.0800 
 42 H       10.9780     4.2550     2.3200 H     1 <1>   0.0800 
@<TRIPOS>BOND
  1   1   2  2   
  2   2   3  am  
  3   2   4  1   
  4   3   5  1   
  5   3   6  1   
  6   4  26  1   
  7   4  27  1   
  8   4  28  1   
  9   5   7  1   
 10   5  29  1   
 11   5  30  1   
 12   6   8  1   
 13   6  31  1   
 14   6  32  1   
 15   7   9  1   
 16   7  10  2   
 17   8  11  1   
 18   8  33  1   
 19   8  34  1   
 20   9  12  2   
 21   9  13  1   
 22  10  14  1   
 23  10  35  1   
 24  11  15  1   
 25  12  16  1   
 26  13  17  1   
 27  13  18  1   
 28  14  18  ar  
 29  14  19  ar  
 30  15  36  1   
 31  15  37  1   
 32  15  38  1   
 33  16  17  2   
 34  18  20  ar  
 35  19  21  ar  
 36  19  39  1   
 37  20  22  ar  
 38  20  40  1   
 39  21  22  ar  
 40  21  23  1   
 41  22  24  1   
 42  23  25  1   
 43  24  25  1   
 44  25  41  1   
 45  25  42  1   
@<TRIPOS>SUBSTRUCTURE
  1 ****  10 GROUP 4 **** **** 0

# MOE 2024.06 (io_trps.svl 2023.06)
