@<TRIPOS>MOLECULE
NONAME
51 54 1 0 0 
SMALL
USER_CHARGES


@<TRIPOS>ATOM
  1 S        0.1830    -0.0540    -2.1250 S.3   1 <1>  -0.2860 
  2 C        1.2040     1.0380    -1.1340 C.2   1 <1>   0.2420 
  3 C       -1.1780     1.0130    -2.8110 C.3   1 <1>   0.1310 
  4 N        1.0650     2.3180    -1.1760 N.2   1 <1>  -0.5650 
  5 N        2.1670     0.5610    -0.2890 N.pl3 1 <1>   0.0480 
  6 C       -2.5210     0.5420    -2.2690 C.2   1 <1>   0.5690 
  7 C        2.0000     2.7510    -0.2890 C.ar  1 <1>   0.2270 
  8 C        2.6870     1.6840     0.2720 C.ar  1 <1>   0.1050 
  9 C        2.6040    -0.8210     0.0540 C.3   1 <1>   0.1760 
 10 O       -3.2220    -0.0880    -3.0290 O.2   1 <1>  -0.5700 
 11 N       -2.9230     0.8140    -0.9800 N.am  1 <1>  -0.6600 
 12 C        2.3290     4.0410     0.1020 C.ar  1 <1>  -0.1500 
 13 N        3.6650     1.7760     1.1900 N.ar  1 <1>  -0.5670 
 14 C        3.1880    -1.5560    -1.1650 C.3   1 <1>  -0.1600 
 15 C        1.4770    -1.6250     0.7260 C.3   1 <1>  -0.1600 
 16 C       -2.1990     1.6870    -0.0160 C.3   1 <1>   0.1400 
 17 C       -4.1100     0.1410    -0.3860 C.3   1 <1>   0.1400 
 18 C        3.3290     4.1570     1.0380 C.ar  1 <1>  -0.1500 
 19 C        3.9550     3.0090     1.5420 C.ar  1 <1>   0.1600 
 20 C        3.6600    -2.9660    -0.7790 C.3   1 <1>  -0.1600 
 21 C        1.9580    -3.0340     1.1010 C.3   1 <1>  -0.1600 
 22 C       -1.7090     0.8440     1.1650 C.3   1 <1>  -0.1600 
 23 C       -3.6590    -0.7210     0.7990 C.3   1 <1>  -0.1600 
 24 C        2.5290    -3.7680    -0.1200 C.3   1 <1>  -0.1600 
 25 C       -2.8700     0.0950     1.8350 C.3   1 <1>  -0.1600 
 26 H       -1.1510     0.8920    -3.8770 H     1 <1>   0.0800 
 27 H       -0.9880     2.0390    -2.5680 H     1 <1>   0.0800 
 28 H        3.3980    -0.7320     0.7740 H     1 <1>   0.0800 
 29 H        1.8120     4.8820    -0.3220 H     1 <1>   0.1500 
 30 H        4.0210    -0.9980    -1.5550 H     1 <1>   0.0800 
 31 H        2.4480    -1.6460    -1.9380 H     1 <1>   0.0800 
 32 H        0.6380    -1.7200     0.0610 H     1 <1>   0.0800 
 33 H        1.1530    -1.1140     1.6150 H     1 <1>   0.0800 
 34 H       -2.8740     2.4470     0.3390 H     1 <1>   0.0800 
 35 H       -1.3710     2.1850    -0.4810 H     1 <1>   0.0800 
 36 H       -4.6050    -0.4780    -1.1150 H     1 <1>   0.0800 
 37 H       -4.8090     0.8890    -0.0540 H     1 <1>   0.0800 
 38 H        3.6410     5.1230     1.3910 H     1 <1>   0.1500 
 39 H        4.7330     3.1410     2.2740 H     1 <1>   0.1500 
 40 H        4.4890    -2.8920    -0.0960 H     1 <1>   0.0800 
 41 H        4.0030    -3.4840    -1.6580 H     1 <1>   0.0800 
 42 H        1.1360    -3.5990     1.5080 H     1 <1>   0.0800 
 43 H        2.7170    -2.9640     1.8620 H     1 <1>   0.0800 
 44 H       -1.2240     1.4830     1.8810 H     1 <1>   0.0800 
 45 H       -0.9810     0.1400     0.8070 H     1 <1>   0.0800 
 46 H       -3.0450    -1.5220     0.4250 H     1 <1>   0.0800 
 47 H       -4.5220    -1.1620     1.2660 H     1 <1>   0.0800 
 48 H        2.9000    -4.7320     0.1810 H     1 <1>   0.0800 
 49 H        1.7420    -3.9290    -0.8380 H     1 <1>   0.0800 
 50 H       -3.5290     0.8060     2.3030 H     1 <1>   0.0800 
 51 H       -2.4880    -0.5590     2.6000 H     1 <1>   0.0800 
@<TRIPOS>BOND
  1   1   2  1   
  2   1   3  1   
  3   2   4  2   
  4   2   5  1   
  5   3   6  1   
  6   3  26  1   
  7   3  27  1   
  8   4   7  1   
  9   5   8  1   
 10   5   9  1   
 11   6  10  2   
 12   6  11  am  
 13   7   8  ar  
 14   7  12  ar  
 15   8  13  ar  
 16   9  14  1   
 17   9  15  1   
 18   9  28  1   
 19  11  16  1   
 20  11  17  1   
 21  12  18  ar  
 22  12  29  1   
 23  13  19  ar  
 24  14  20  1   
 25  14  30  1   
 26  14  31  1   
 27  15  21  1   
 28  15  32  1   
 29  15  33  1   
 30  16  22  1   
 31  16  34  1   
 32  16  35  1   
 33  17  23  1   
 34  17  36  1   
 35  17  37  1   
 36  18  19  ar  
 37  18  38  1   
 38  19  39  1   
 39  20  24  1   
 40  20  40  1   
 41  20  41  1   
 42  21  24  1   
 43  21  42  1   
 44  21  43  1   
 45  22  25  1   
 46  22  44  1   
 47  22  45  1   
 48  23  25  1   
 49  23  46  1   
 50  23  47  1   
 51  24  48  1   
 52  24  49  1   
 53  25  50  1   
 54  25  51  1   
@<TRIPOS>SUBSTRUCTURE
  1 ****   2 GROUP 4 **** **** 0

# MOE 2024.06 (io_trps.svl 2023.06)
