@<TRIPOS>MOLECULE
1-(2,5-Dimethyl-benzyl)-3-ethyl-1H-thieno[3,2-d]pyrimidine-2,4-dione
40 42 1 0 0 
SMALL
USER_CHARGES


@<TRIPOS>ATOM
  1 S        1.4010    -0.9350     2.5740 S.3   1 <1>  -0.0800 
  2 C        2.4980    -0.9030     1.1860 C.2   1 <1>  -0.0450 
  3 C        1.0800    -2.6430     2.3320 C.2   1 <1>  -0.1100 
  4 C        3.2150     0.2270     0.7200 C.2   1 <1>   0.7150 
  5 C        2.5680    -2.1280     0.6140 C.2   1 <1>   0.0630 
  6 C        1.7650    -3.1150     1.2720 C.2   1 <1>  -0.1500 
  7 O        3.1370     1.3230     1.2540 O.2   1 <1>  -0.5700 
  8 N        4.0260     0.0390    -0.3860 N.am  1 <1>  -0.4200 
  9 N        3.3850    -2.2870    -0.5080 N.am  1 <1>  -0.4230 
 10 C        4.1080    -1.2050    -1.0020 C.2   1 <1>   0.6900 
 11 C        4.8090     1.1860    -0.9270 C.3   1 <1>   0.1400 
 12 C        3.4620    -3.6100    -1.2000 C.3   1 <1>   0.2840 
 13 O        4.8180    -1.3430    -1.9830 O.2   1 <1>  -0.5700 
 14 C        3.9830     1.9340    -1.9740 C.3   1 <1>  -0.2400 
 15 C        4.1010    -4.6900    -0.3240 C.ar  1 <1>  -0.1430 
 16 C        3.6020    -5.9910    -0.2800 C.ar  1 <1>  -0.1430 
 17 C        5.2170    -4.3680     0.4400 C.ar  1 <1>  -0.1500 
 18 C        4.2140    -6.9280     0.5400 C.ar  1 <1>  -0.1500 
 19 C        2.4060    -6.4350    -1.1110 C.3   1 <1>  -0.0970 
 20 C        5.8240    -5.3050     1.2570 C.ar  1 <1>  -0.1430 
 21 C        5.3150    -6.5890     1.3050 C.ar  1 <1>  -0.1500 
 22 C        7.0360    -4.9180     2.0830 C.3   1 <1>  -0.0970 
 23 H        0.4070    -3.1220     3.0210 H     1 <1>   0.1500 
 24 H        1.7370    -4.1340     0.9360 H     1 <1>   0.1500 
 25 H        5.7240     0.8300    -1.3700 H     1 <1>   0.0800 
 26 H        5.0780     1.8560    -0.1280 H     1 <1>   0.0800 
 27 H        4.0300    -3.5370    -2.1100 H     1 <1>   0.0800 
 28 H        2.4620    -3.8870    -1.4760 H     1 <1>   0.0800 
 29 H        3.7340     1.2790    -2.7910 H     1 <1>   0.0800 
 30 H        4.5530     2.7590    -2.3610 H     1 <1>   0.0800 
 31 H        3.0810     2.3210    -1.5330 H     1 <1>   0.0800 
 32 H        5.6240    -3.3740     0.4010 H     1 <1>   0.1500 
 33 H        3.8390    -7.9350     0.5890 H     1 <1>   0.1500 
 34 H        1.5130    -5.9410    -0.7740 H     1 <1>   0.0800 
 35 H        2.2530    -7.4960    -1.0300 H     1 <1>   0.0800 
 36 H        2.5690    -6.2040    -2.1490 H     1 <1>   0.0800 
 37 H        5.7730    -7.3320     1.9330 H     1 <1>   0.1500 
 38 H        6.8680    -3.9710     2.5630 H     1 <1>   0.0800 
 39 H        7.8990    -4.8380     1.4460 H     1 <1>   0.0800 
 40 H        7.2330    -5.6540     2.8420 H     1 <1>   0.0800 
@<TRIPOS>BOND
  1   1   2  1   
  2   1   3  1   
  3   2   4  1   
  4   2   5  2   
  5   3   6  2   
  6   3  23  1   
  7   4   7  2   
  8   4   8  am  
  9   5   6  1   
 10   5   9  1   
 11   6  24  1   
 12   8  10  am  
 13   8  11  1   
 14   9  10  am  
 15   9  12  1   
 16  10  13  2   
 17  11  14  1   
 18  11  25  1   
 19  11  26  1   
 20  12  15  1   
 21  12  27  1   
 22  12  28  1   
 23  14  29  1   
 24  14  30  1   
 25  14  31  1   
 26  15  16  ar  
 27  15  17  ar  
 28  16  18  ar  
 29  16  19  1   
 30  17  20  ar  
 31  17  32  1   
 32  18  21  ar  
 33  18  33  1   
 34  19  34  1   
 35  19  35  1   
 36  19  36  1   
 37  20  21  ar  
 38  20  22  1   
 39  21  37  1   
 40  22  38  1   
 41  22  39  1   
 42  22  40  1   
@<TRIPOS>SUBSTRUCTURE
  1 ****   9 GROUP 4 **** **** 0

# MOE 2024.06 (io_trps.svl 2023.06)
