@<TRIPOS>MOLECULE
NONAME
33 35 1 0 0 
SMALL
USER_CHARGES


@<TRIPOS>ATOM
  1 O       -0.7380     1.1550     0.7140 O.3   1 <1>  -0.6800 
  2 C       -1.7550     0.4140     0.1390 C.3   1 <1>   0.1200 
  3 C       -3.0410     0.6940     0.9210 C.3   1 <1>  -0.1600 
  4 C       -4.2960    -0.0550     0.4150 C.3   1 <1>   0.0000 
  5 C       -5.4950     0.3380     1.3090 C.3   1 <1>  -0.1600 
  6 C       -4.1160    -1.5900     0.4960 C.3   1 <1>  -0.1600 
  7 C       -4.6370     0.3240    -1.0460 C.3   1 <1>  -0.1600 
  8 C       -6.7820    -0.3760     0.8580 C.3   1 <1>  -0.0800 
  9 C       -5.3960    -2.3160     0.0380 C.3   1 <1>  -0.0800 
 10 C       -5.9190    -0.3930    -1.5110 C.3   1 <1>  -0.0800 
 11 C       -6.5690    -1.8990     0.9430 C.3   1 <1>  -0.1600 
 12 C       -7.0900     0.0150    -0.5990 C.3   1 <1>  -0.1600 
 13 C       -5.7100    -1.9160    -1.4160 C.3   1 <1>  -0.1600 
 14 H        0.1060     1.0060     0.2440 H     1 <1>   0.4000 
 15 H       -1.4820    -0.6250     0.1930 H     1 <1>   0.0800 
 16 H       -1.8480     0.7180    -0.8890 H     1 <1>   0.0800 
 17 H       -3.2330     1.7520     0.8830 H     1 <1>   0.0800 
 18 H       -2.8720     0.4280     1.9500 H     1 <1>   0.0800 
 19 H       -5.6480     1.4030     1.2680 H     1 <1>   0.0800 
 20 H       -5.2880     0.0810     2.3330 H     1 <1>   0.0800 
 21 H       -3.8830    -1.8780     1.5070 H     1 <1>   0.0800 
 22 H       -3.3010    -1.9060    -0.1290 H     1 <1>   0.0800 
 23 H       -3.8330     0.0480    -1.7030 H     1 <1>   0.0800 
 24 H       -4.7730     1.3880    -1.1240 H     1 <1>   0.0800 
 25 H       -7.6010    -0.0870     1.4930 H     1 <1>   0.0800 
 26 H       -5.2520    -3.3810     0.0990 H     1 <1>   0.0800 
 27 H       -6.1400    -0.1200    -2.5290 H     1 <1>   0.0800 
 28 H       -7.4650    -2.4090     0.6360 H     1 <1>   0.0800 
 29 H       -6.3630    -2.1810     1.9600 H     1 <1>   0.0800 
 30 H       -7.2510     1.0770    -0.6650 H     1 <1>   0.0800 
 31 H       -7.9930    -0.4730    -0.9240 H     1 <1>   0.0800 
 32 H       -4.9010    -2.2140    -2.0600 H     1 <1>   0.0800 
 33 H       -6.5970    -2.4260    -1.7490 H     1 <1>   0.0800 
@<TRIPOS>BOND
  1   1   2  1   
  2   1  14  1   
  3   2   3  1   
  4   2  15  1   
  5   2  16  1   
  6   3   4  1   
  7   3  17  1   
  8   3  18  1   
  9   4   5  1   
 10   4   6  1   
 11   4   7  1   
 12   5   8  1   
 13   5  19  1   
 14   5  20  1   
 15   6   9  1   
 16   6  21  1   
 17   6  22  1   
 18   7  10  1   
 19   7  23  1   
 20   7  24  1   
 21   8  11  1   
 22   8  12  1   
 23   8  25  1   
 24   9  11  1   
 25   9  13  1   
 26   9  26  1   
 27  10  12  1   
 28  10  13  1   
 29  10  27  1   
 30  11  28  1   
 31  11  29  1   
 32  12  30  1   
 33  12  31  1   
 34  13  32  1   
 35  13  33  1   
@<TRIPOS>SUBSTRUCTURE
  1 ****   4 GROUP 4 **** **** 0

# MOE 2024.06 (io_trps.svl 2023.06)
