@<TRIPOS>MOLECULE
3-Fluoro-N-[1-(4-oxo-4-p-tolyl-butyl)-piperidin-4-yl]-benzamide
56 58 1 0 0 
SMALL
USER_CHARGES


@<TRIPOS>ATOM
  1 F        1.0740    -0.5150     2.3980 F     1 <1>  -0.1900 
  2 C        1.5110    -1.2830     1.4370 C.ar  1 <1>   0.1900 
  3 C        2.7600    -1.0320     0.9070 C.ar  1 <1>  -0.1500 
  4 C        0.7050    -2.3120     0.9910 C.ar  1 <1>  -0.1500 
  5 C        3.2550    -1.8410    -0.1170 C.ar  1 <1>   0.0860 
  6 C        1.1790    -3.1150    -0.0310 C.ar  1 <1>  -0.1500 
  7 C        4.5710    -1.6260    -0.6950 C.2   1 <1>   0.5440 
  8 C        2.4330    -2.8770    -0.5720 C.ar  1 <1>  -0.1500 
  9 O        4.8270    -1.9940    -1.8240 O.2   1 <1>  -0.5700 
 10 N        5.5700    -1.0270     0.0230 N.am  1 <1>  -0.7300 
 11 C        6.9080    -0.7520    -0.5190 C.3   1 <1>   0.2200 
 12 C        7.8080    -1.9600    -0.2770 C.3   1 <1>  -0.1600 
 13 C        7.4890     0.4960     0.1370 C.3   1 <1>  -0.1600 
 14 C        9.2160    -1.6790    -0.7880 C.3   1 <1>   0.3430 
 15 C        8.9040     0.7470    -0.3800 C.3   1 <1>   0.3430 
 16 N        9.7630    -0.4490    -0.1300 N.4   1 <1>  -0.9590 
 17 C       11.1690    -0.1740    -0.5410 C.3   1 <1>   0.3430 
 18 C       12.1090    -1.2170     0.0620 C.3   1 <1>  -0.1600 
 19 C       13.5930    -0.8970    -0.2180 C.3   1 <1>  -0.0990 
 20 C       14.5570    -1.9290     0.3750 C.2   1 <1>   0.4230 
 21 O       14.0660    -2.8930     0.9070 O.2   1 <1>  -0.5700 
 22 C       15.9910    -1.7240     0.2840 C.ar  1 <1>   0.0860 
 23 C       16.8670    -2.6220     0.8990 C.ar  1 <1>  -0.1500 
 24 C       16.5730    -0.6530    -0.4030 C.ar  1 <1>  -0.1500 
 25 C       18.2390    -2.4630     0.8380 C.ar  1 <1>  -0.1500 
 26 C       17.9450    -0.4890    -0.4650 C.ar  1 <1>  -0.1500 
 27 C       18.7880    -1.3940     0.1540 C.ar  1 <1>  -0.1430 
 28 C       20.2940    -1.2150     0.0870 C.3   1 <1>  -0.0970 
 29 H        3.3290    -0.2060     1.2890 H     1 <1>   0.1500 
 30 H       -0.2630    -2.4740     1.4300 H     1 <1>   0.1500 
 31 H        0.5740    -3.9240    -0.4060 H     1 <1>   0.1500 
 32 H        2.7890    -3.5080    -1.3690 H     1 <1>   0.1500 
 33 H        5.4260    -0.8500     1.0180 H     1 <1>   0.3700 
 34 H        6.8240    -0.5830    -1.5820 H     1 <1>   0.0800 
 35 H        7.4100    -2.8070    -0.8090 H     1 <1>   0.0800 
 36 H        7.8430    -2.2070     0.7690 H     1 <1>   0.0800 
 37 H        7.5090     0.3900     1.2070 H     1 <1>   0.0800 
 38 H        6.8740     1.3440    -0.1090 H     1 <1>   0.0800 
 39 H        9.1880    -1.5410    -1.8580 H     1 <1>   0.0800 
 40 H        9.8440    -2.5300    -0.5750 H     1 <1>   0.0800 
 41 H        9.3180     1.6100     0.1170 H     1 <1>   0.0800 
 42 H        8.8660     0.9530    -1.4380 H     1 <1>   0.0800 
 43 H        9.7690    -0.6250     0.8850 H     1 <1>   0.4500 
 44 H       11.4630     0.8010    -0.1850 H     1 <1>   0.0800 
 45 H       11.2510    -0.1790    -1.6170 H     1 <1>   0.0800 
 46 H       11.8950    -2.1880    -0.3500 H     1 <1>   0.0800 
 47 H       11.9670    -1.2590     1.1280 H     1 <1>   0.0800 
 48 H       13.8330     0.0650     0.2000 H     1 <1>   0.0800 
 49 H       13.7560    -0.8600    -1.2800 H     1 <1>   0.0800 
 50 H       16.4630    -3.4630     1.4370 H     1 <1>   0.1500 
 51 H       15.9630     0.0750    -0.9030 H     1 <1>   0.1500 
 52 H       18.8780    -3.1770     1.3290 H     1 <1>   0.1500 
 53 H       18.3580     0.3480    -1.0000 H     1 <1>   0.1500 
 54 H       20.7880    -2.1700     0.1260 H     1 <1>   0.0800 
 55 H       20.6270    -0.6180     0.9170 H     1 <1>   0.0800 
 56 H       20.5760    -0.7260    -0.8280 H     1 <1>   0.0800 
@<TRIPOS>BOND
  1   1   2  1   
  2   2   3  ar  
  3   2   4  ar  
  4   3   5  ar  
  5   3  29  1   
  6   4   6  ar  
  7   4  30  1   
  8   5   7  1   
  9   5   8  ar  
 10   6   8  ar  
 11   6  31  1   
 12   7   9  2   
 13   7  10  am  
 14   8  32  1   
 15  10  11  1   
 16  10  33  1   
 17  11  12  1   
 18  11  13  1   
 19  11  34  1   
 20  12  14  1   
 21  12  35  1   
 22  12  36  1   
 23  13  15  1   
 24  13  37  1   
 25  13  38  1   
 26  14  16  1   
 27  14  39  1   
 28  14  40  1   
 29  15  16  1   
 30  15  41  1   
 31  15  42  1   
 32  16  17  1   
 33  16  43  1   
 34  17  18  1   
 35  17  44  1   
 36  17  45  1   
 37  18  19  1   
 38  18  46  1   
 39  18  47  1   
 40  19  20  1   
 41  19  48  1   
 42  19  49  1   
 43  20  21  2   
 44  20  22  1   
 45  22  23  ar  
 46  22  24  ar  
 47  23  25  ar  
 48  23  50  1   
 49  24  26  ar  
 50  24  51  1   
 51  25  27  ar  
 52  25  52  1   
 53  26  27  ar  
 54  26  53  1   
 55  27  28  1   
 56  28  54  1   
 57  28  55  1   
 58  28  56  1   
@<TRIPOS>SUBSTRUCTURE
  1 ****  16 GROUP 4 **** **** 0

# MOE 2024.06 (io_trps.svl 2023.06)
