@<TRIPOS>MOLECULE
1-(5-Methyl-[1,2,4]triazolo[1,5-a]pyrimidin-7-yl)-piperidine-4-carboxylic acid 3-chloro-benzylamide
49 52 1 0 0 
SMALL
USER_CHARGES


@<TRIPOS>ATOM
  1 CL      -0.3890     0.6910    -2.1730 Cl    1 <1>  -0.1770 
  2 C       -0.0230     2.1450    -1.2810 C.ar  1 <1>   0.1770 
  3 C       -0.8820     3.2250    -1.3640 C.ar  1 <1>  -0.1500 
  4 C        1.1180     2.1930    -0.5030 C.ar  1 <1>  -0.1500 
  5 C       -0.5980     4.3830    -0.6540 C.ar  1 <1>  -0.1440 
  6 C        1.4030     3.3480     0.2060 C.ar  1 <1>  -0.1500 
  7 C        0.5480     4.4360     0.1300 C.ar  1 <1>  -0.1500 
  8 C       -1.5420     5.5680    -0.7350 C.3   1 <1>   0.2840 
  9 N       -2.7310     5.2490     0.0730 N.am  1 <1>  -0.7300 
 10 C       -4.0070     5.4720    -0.3220 C.2   1 <1>   0.5690 
 11 O       -4.2590     6.0500    -1.3520 O.2   1 <1>  -0.5700 
 12 C       -5.1460     4.9490     0.5490 C.3   1 <1>  -0.0190 
 13 C       -5.7000     3.6340    -0.0310 C.3   1 <1>  -0.1600 
 14 C       -6.2720     5.9910     0.7040 C.3   1 <1>  -0.1600 
 15 C       -6.8990     3.1100     0.7620 C.3   1 <1>   0.2090 
 16 C       -7.4550     5.4310     1.4940 C.3   1 <1>   0.2090 
 17 N       -7.9320     4.1810     0.8410 N.pl3 1 <1>  -0.8380 
 18 C       -9.1390     4.0930     0.2040 C.2   1 <1>   0.4790 
 19 N       -9.8990     2.9570     0.2890 N.pl3 1 <1>  -0.3220 
 20 C       -9.6710     5.1130    -0.5500 C.2   1 <1>  -0.1360 
 21 N       -9.7190     1.7860     0.9930 N.2   1 <1>  -0.2600 
 22 C      -11.0830     2.9130    -0.3420 C.cat 1 <1>   0.9620 
 23 C      -10.9030     4.9530    -1.1730 C.2   1 <1>   0.3750 
 24 C      -10.7720     1.0980     0.7480 C.2   1 <1>   0.5030 
 25 N      -11.6260     3.8650    -1.0840 N.2   1 <1>  -0.6120 
 26 N      -11.6360     1.7480    -0.0730 N.pl3 1 <1>  -0.7000 
 27 C      -11.4760     6.0770    -2.0110 C.3   1 <1>  -0.1790 
 28 H       -1.7630     3.1560    -1.9770 H     1 <1>   0.1500 
 29 H        1.7710     1.3400    -0.4560 H     1 <1>   0.1500 
 30 H        2.2890     3.4000     0.8160 H     1 <1>   0.1500 
 31 H        0.7810     5.3280     0.6870 H     1 <1>   0.1500 
 32 H       -1.8210     5.7490    -1.7600 H     1 <1>   0.0800 
 33 H       -1.0730     6.4560    -0.3490 H     1 <1>   0.0800 
 34 H       -2.5270     4.7130     0.9170 H     1 <1>   0.3700 
 35 H       -4.7510     4.7430     1.5280 H     1 <1>   0.0800 
 36 H       -4.9260     2.8870    -0.0370 H     1 <1>   0.0800 
 37 H       -6.0030     3.7930    -1.0520 H     1 <1>   0.0800 
 38 H       -6.6170     6.3010    -0.2670 H     1 <1>   0.0800 
 39 H       -5.8880     6.8620     1.2040 H     1 <1>   0.0800 
 40 H       -6.5970     2.8290     1.7570 H     1 <1>   0.0800 
 41 H       -7.2870     2.2380     0.2670 H     1 <1>   0.0800 
 42 H       -8.2460     6.1610     1.5450 H     1 <1>   0.0800 
 43 H       -7.1490     5.2080     2.5030 H     1 <1>   0.0800 
 44 H       -9.1250     6.0290    -0.6680 H     1 <1>   0.1500 
 45 H      -10.9680     0.1110     1.1430 H     1 <1>   0.1500 
 46 H      -12.5460     1.4660    -0.4280 H     1 <1>   0.4500 
 47 H      -10.8120     6.9220    -2.0400 H     1 <1>   0.0800 
 48 H      -12.4180     6.3930    -1.6010 H     1 <1>   0.0800 
 49 H      -11.6380     5.7340    -3.0170 H     1 <1>   0.0800 
@<TRIPOS>BOND
  1   1   2  1   
  2   2   3  ar  
  3   2   4  ar  
  4   3   5  ar  
  5   3  28  1   
  6   4   6  ar  
  7   4  29  1   
  8   5   7  ar  
  9   5   8  1   
 10   6   7  ar  
 11   6  30  1   
 12   7  31  1   
 13   8   9  1   
 14   8  32  1   
 15   8  33  1   
 16   9  10  am  
 17   9  34  1   
 18  10  11  2   
 19  10  12  1   
 20  12  13  1   
 21  12  14  1   
 22  12  35  1   
 23  13  15  1   
 24  13  36  1   
 25  13  37  1   
 26  14  16  1   
 27  14  38  1   
 28  14  39  1   
 29  15  17  1   
 30  15  40  1   
 31  15  41  1   
 32  16  17  1   
 33  16  42  1   
 34  16  43  1   
 35  17  18  1   
 36  18  19  1   
 37  18  20  2   
 38  19  21  1   
 39  19  22  ar  
 40  20  23  1   
 41  20  44  1   
 42  21  24  2   
 43  22  25  1   
 44  22  26  ar  
 45  23  25  2   
 46  23  27  1   
 47  24  26  1   
 48  24  45  1   
 49  26  46  1   
 50  27  47  1   
 51  27  48  1   
 52  27  49  1   
@<TRIPOS>SUBSTRUCTURE
  1 ****  13 GROUP 4 **** **** 0

# MOE 2024.06 (io_trps.svl 2023.06)
