@<TRIPOS>MOLECULE
16335
41 43 1 0 0 
SMALL
USER_CHARGES


@<TRIPOS>ATOM
  1 N       -0.1190     0.1530     0.3330 N.4   1 <1>  -0.9590 
  2 C        0.3500     1.4870    -0.1580 C.3   1 <1>   0.4230 
  3 C        0.2050    -0.9720    -0.5930 C.3   1 <1>   0.5240 
  4 C       -1.5820     0.1140     0.6740 C.3   1 <1>   0.2630 
  5 C        1.8740     1.4670    -0.3910 C.3   1 <1>  -0.1600 
  6 C       -0.0150     2.5870     0.8590 C.3   1 <1>  -0.1600 
  7 C       -0.0330    -2.2680     0.1470 C.2   1 <1>  -0.1810 
  8 C        2.4210     2.8460    -0.7900 C.3   1 <1>  -0.1600 
  9 C        0.5360     3.9620     0.4550 C.3   1 <1>  -0.1600 
 10 C       -1.1770    -3.0780    -0.0330 C.ar  1 <1>   0.0000 
 11 C        0.7530    -2.8610     1.0800 C.2   1 <1>  -0.3020 
 12 C        2.0510     3.9120     0.2430 C.3   1 <1>  -0.1600 
 13 C       -1.0330    -4.1500     0.8410 C.ar  1 <1>  -0.1520 
 14 C       -2.3140    -3.0020    -0.8480 C.ar  1 <1>  -0.1500 
 15 N        0.1550    -4.0130     1.5100 N.pl3 1 <1>   0.0330 
 16 C       -2.0110    -5.1430     0.9290 C.ar  1 <1>  -0.1500 
 17 C       -3.2760    -3.9810    -0.7610 C.ar  1 <1>  -0.1500 
 18 C       -3.1260    -5.0510     0.1290 C.ar  1 <1>  -0.1500 
 19 H        0.3990    -0.0610     1.1950 H     1 <1>   0.4500 
 20 H       -0.1360     1.7170    -1.0930 H     1 <1>   0.0800 
 21 H        1.2400    -0.9410    -0.8840 H     1 <1>   0.0800 
 22 H       -0.4060    -0.9280    -1.4790 H     1 <1>   0.0800 
 23 H       -2.1770     0.3450    -0.1940 H     1 <1>   0.0800 
 24 H       -1.8100     0.8250     1.4510 H     1 <1>   0.0800 
 25 H       -1.8610    -0.8640     1.0330 H     1 <1>   0.0800 
 26 H        2.1330     0.7910    -1.1840 H     1 <1>   0.0800 
 27 H        2.3740     1.1510     0.5090 H     1 <1>   0.0800 
 28 H        0.3820     2.3310     1.8270 H     1 <1>   0.0800 
 29 H       -1.0810     2.6890     0.9410 H     1 <1>   0.0800 
 30 H        2.0250     3.1300    -1.7510 H     1 <1>   0.0800 
 31 H        3.4930     2.7980    -0.8830 H     1 <1>   0.0800 
 32 H        0.3080     4.6830     1.2230 H     1 <1>   0.0800 
 33 H        0.0600     4.2930    -0.4530 H     1 <1>   0.0800 
 34 H        1.7060    -2.5500     1.4740 H     1 <1>   0.1500 
 35 H        2.4000     4.8750    -0.0920 H     1 <1>   0.0800 
 36 H        2.5420     3.6970     1.1780 H     1 <1>   0.0800 
 37 H       -2.4310    -2.1890    -1.5400 H     1 <1>   0.1500 
 38 H        0.5210    -4.6800     2.2000 H     1 <1>   0.2700 
 39 H       -1.8880    -5.9660     1.6120 H     1 <1>   0.1500 
 40 H       -4.1560    -3.9410    -1.3790 H     1 <1>   0.1500 
 41 H       -3.8930    -5.8040     0.1780 H     1 <1>   0.1500 
@<TRIPOS>BOND
  1   1   2  1   
  2   1   3  1   
  3   1   4  1   
  4   1  19  1   
  5   2   5  1   
  6   2   6  1   
  7   2  20  1   
  8   3   7  1   
  9   3  21  1   
 10   3  22  1   
 11   4  23  1   
 12   4  24  1   
 13   4  25  1   
 14   5   8  1   
 15   5  26  1   
 16   5  27  1   
 17   6   9  1   
 18   6  28  1   
 19   6  29  1   
 20   7  10  1   
 21   7  11  2   
 22   8  12  1   
 23   8  30  1   
 24   8  31  1   
 25   9  12  1   
 26   9  32  1   
 27   9  33  1   
 28  10  13  ar  
 29  10  14  ar  
 30  11  15  1   
 31  11  34  1   
 32  12  35  1   
 33  12  36  1   
 34  13  15  1   
 35  13  16  ar  
 36  14  17  ar  
 37  14  37  1   
 38  15  38  1   
 39  16  18  ar  
 40  16  39  1   
 41  17  18  ar  
 42  17  40  1   
 43  18  41  1   
@<TRIPOS>SUBSTRUCTURE
  1 ****   3 GROUP 4 **** **** 0

# MOE 2024.06 (io_trps.svl 2023.06)
