@<TRIPOS>MOLECULE
9075
47 49 1 0 0 
SMALL
USER_CHARGES


@<TRIPOS>ATOM
  1 S       -0.1060     0.4670     0.7360 S.3   1 <1>  -0.0800 
  2 C       -0.5110    -1.1930     0.2760 C.2   1 <1>   0.1040 
  3 C        1.5900     0.1430     0.4870 C.2   1 <1>  -0.1400 
  4 N       -1.8310    -1.6200     0.2700 N.am  1 <1>  -0.4940 
  5 C        0.6190    -1.9120    -0.0370 C.2   1 <1>  -0.0860 
  6 C        1.8010    -1.1010     0.0980 C.2   1 <1>  -0.1810 
  7 C        2.7880     1.0220     0.6410 C.3   1 <1>   0.0200 
  8 C       -3.0400    -1.0360     0.5820 C.2   1 <1>   0.5440 
  9 C        0.6620    -3.2910    -0.4410 C.2   1 <1>   0.8060 
 10 C        3.2760    -1.3400    -0.1050 C.3   1 <1>   0.0210 
 11 C        3.9160     0.0360     0.2410 C.3   1 <1>  -0.1600 
 12 O       -3.1090     0.1430     0.8620 O.2   1 <1>  -0.5700 
 13 C       -4.2390    -1.8540     0.5430 C.ar  1 <1>   0.0860 
 14 O        1.6920    -3.8990    -0.6660 O.2   1 <1>  -0.5700 
 15 O       -0.5070    -3.9420    -0.5710 O.3   1 <1>  -0.4300 
 16 C       -5.4870    -1.2780     0.3070 C.ar  1 <1>  -0.1500 
 17 C       -4.1960    -3.2370     0.7290 C.ar  1 <1>  -0.1500 
 18 C       -0.5960    -5.3120    -0.9070 C.3   1 <1>   0.1200 
 19 C       -6.6420    -2.0480     0.2440 C.ar  1 <1>   0.0830 
 20 C       -5.3360    -4.0180     0.6610 C.ar  1 <1>   0.0830 
 21 C       -0.5160    -6.1370     0.3760 C.3   1 <1>  -0.2400 
 22 O       -7.8760    -1.5340     0.0160 O.3   1 <1>  -0.3630 
 23 C       -6.5650    -3.4180     0.4170 C.ar  1 <1>  -0.1500 
 24 O       -5.1700    -5.3510     0.8450 O.3   1 <1>  -0.3630 
 25 C       -8.0800    -0.1440    -0.1160 C.3   1 <1>   0.0400 
 26 C       -6.2740    -6.2300     0.8440 C.3   1 <1>   0.0400 
 27 H       -1.9310    -2.5870    -0.0440 H     1 <1>   0.3700 
 28 H        2.8870     1.3550     1.6590 H     1 <1>   0.0800 
 29 H        2.7330     1.8620    -0.0290 H     1 <1>   0.0800 
 30 H        3.4760    -1.6190    -1.1250 H     1 <1>   0.0800 
 31 H        3.6260    -2.1120     0.5580 H     1 <1>   0.0800 
 32 H        4.6100    -0.0770     1.0560 H     1 <1>   0.0800 
 33 H        4.4480     0.4160    -0.6130 H     1 <1>   0.0800 
 34 H       -5.5260    -0.2120     0.1740 H     1 <1>   0.1500 
 35 H       -3.2670    -3.7330     0.9420 H     1 <1>   0.1500 
 36 H        0.1940    -5.5690    -1.5940 H     1 <1>   0.0800 
 37 H       -1.5440    -5.4690    -1.3920 H     1 <1>   0.0800 
 38 H       -0.6120    -7.1810     0.1390 H     1 <1>   0.0800 
 39 H        0.4330    -5.9870     0.8590 H     1 <1>   0.0800 
 40 H       -1.3120    -5.8660     1.0470 H     1 <1>   0.0800 
 41 H       -7.4730    -3.9850     0.3570 H     1 <1>   0.1500 
 42 H       -9.1310     0.0280    -0.2610 H     1 <1>   0.0800 
 43 H       -7.5310     0.2110    -0.9710 H     1 <1>   0.0800 
 44 H       -7.7500     0.3450     0.7840 H     1 <1>   0.0800 
 45 H       -5.9110    -7.2250     1.0250 H     1 <1>   0.0800 
 46 H       -6.7560    -6.1860    -0.1170 H     1 <1>   0.0800 
 47 H       -6.9520    -5.9400     1.6280 H     1 <1>   0.0800 
@<TRIPOS>BOND
  1   1   2  1   
  2   1   3  1   
  3   2   4  1   
  4   2   5  2   
  5   3   6  2   
  6   3   7  1   
  7   4   8  am  
  8   4  27  1   
  9   5   6  1   
 10   5   9  1   
 11   6  10  1   
 12   7  11  1   
 13   7  28  1   
 14   7  29  1   
 15   8  12  2   
 16   8  13  1   
 17   9  14  2   
 18   9  15  1   
 19  10  11  1   
 20  10  30  1   
 21  10  31  1   
 22  11  32  1   
 23  11  33  1   
 24  13  16  ar  
 25  13  17  ar  
 26  15  18  1   
 27  16  19  ar  
 28  16  34  1   
 29  17  20  ar  
 30  17  35  1   
 31  18  21  1   
 32  18  36  1   
 33  18  37  1   
 34  19  22  1   
 35  19  23  ar  
 36  20  23  ar  
 37  20  24  1   
 38  21  38  1   
 39  21  39  1   
 40  21  40  1   
 41  22  25  1   
 42  23  41  1   
 43  24  26  1   
 44  25  42  1   
 45  25  43  1   
 46  25  44  1   
 47  26  45  1   
 48  26  46  1   
 49  26  47  1   
@<TRIPOS>SUBSTRUCTURE
  1 ****   4 GROUP 4 **** **** 0

# MOE 2024.06 (io_trps.svl 2023.06)
