@<TRIPOS>MOLECULE
NONAME
57 60 1 0 0 
SMALL
USER_CHARGES


@<TRIPOS>ATOM
  1 F       -1.8120    -2.0750     1.0220 F     1 <1>  -0.1960 
  2 C       -2.0480    -1.1730     0.1060 C.ar  1 <1>   0.1840 
  3 C       -2.9770    -0.1760     0.3640 C.ar  1 <1>  -0.1500 
  4 C       -1.3650    -1.2660    -1.0910 C.ar  1 <1>  -0.1560 
  5 C       -3.2120     0.7640    -0.6300 C.ar  1 <1>  -0.1560 
  6 C       -3.7170    -0.1090     1.6860 C.3   1 <1>   0.4930 
  7 C       -1.6190    -0.3250    -2.0720 C.ar  1 <1>  -0.1560 
  8 C       -2.5390     0.6850    -1.8400 C.ar  1 <1>  -0.1560 
  9 N       -5.0520    -0.7310     1.5100 N.pl3 1 <1>  -0.7670 
 10 C       -5.3570    -2.0230     1.4170 C.cat 1 <1>   1.0690 
 11 C       -6.2500    -0.0110     1.3100 C.2   1 <1>   0.2710 
 12 N       -6.6560    -2.1630     1.2080 N.pl3 1 <1>  -0.7030 
 13 N       -4.4950    -3.0370     1.4910 N.pl3 1 <1>  -0.7170 
 14 C       -6.6110     1.3740     1.2460 C.2   1 <1>   0.7000 
 15 C       -7.2170    -0.9320     1.1280 C.2   1 <1>   0.4210 
 16 C       -4.8170    -4.4900     1.4760 C.3   1 <1>   0.1610 
 17 O       -5.7750     2.2480     1.4070 O.2   1 <1>  -0.5740 
 18 N       -7.9380     1.6980     0.9930 N.am  1 <1>  -0.4250 
 19 N       -8.5410    -0.6300     0.8870 N.am  1 <1>  -0.4410 
 20 C       -5.0170    -5.0070     0.0390 C.3   1 <1>   0.1340 
 21 C       -8.9040     0.7080     0.8280 C.2   1 <1>   0.6870 
 22 C       -8.3610     3.1320     0.9200 C.3   1 <1>   0.0530 
 23 C       -9.5340    -1.7260     0.6730 C.3   1 <1>   0.0530 
 24 N       -6.1400    -5.9750    -0.0250 N.am  1 <1>  -0.7330 
 25 O      -10.0620     1.0180     0.6350 O.2   1 <1>  -0.5740 
 26 C       -7.4550    -5.6660     0.1390 C.2   1 <1>   0.5730 
 27 O       -7.7870    -4.5550     0.4890 O.2   1 <1>  -0.5740 
 28 C       -8.5100    -6.7410    -0.0920 C.3   1 <1>   0.0460 
 29 C       -8.3140    -7.5940    -1.3760 C.3   1 <1>  -0.0070 
 30 C       -9.8370    -6.2420    -0.7290 C.3   1 <1>  -0.0070 
 31 C       -9.8560    -7.5670    -1.5330 C.3   1 <1>  -0.0070 
 32 H       -0.6490    -2.0530    -1.2540 H     1 <1>   0.1440 
 33 H       -3.9150     1.5670    -0.4760 H     1 <1>   0.1440 
 34 H       -3.8150     0.9180     1.9960 H     1 <1>   0.0730 
 35 H       -3.1720    -0.6220     2.4600 H     1 <1>   0.0730 
 36 H       -1.0990    -0.3730    -3.0150 H     1 <1>   0.1440 
 37 H       -2.7280     1.4180    -2.6070 H     1 <1>   0.1440 
 38 H       -7.1310    -3.0610     1.0340 H     1 <1>   0.4450 
 39 H       -3.4950    -2.8160     1.5140 H     1 <1>   0.4450 
 40 H       -5.7110    -4.6540     2.0560 H     1 <1>   0.0730 
 41 H       -4.0190    -5.0390     1.9460 H     1 <1>   0.0730 
 42 H       -4.1160    -5.4840    -0.3070 H     1 <1>   0.0730 
 43 H       -5.2440    -4.1890    -0.6240 H     1 <1>   0.0730 
 44 H       -7.5210     3.7780     0.7330 H     1 <1>   0.0730 
 45 H       -8.8240     3.4180     1.8480 H     1 <1>   0.0730 
 46 H       -9.0720     3.2670     0.1230 H     1 <1>   0.0730 
 47 H       -9.4940    -2.4240     1.4920 H     1 <1>   0.0730 
 48 H       -9.3110    -2.2460    -0.2430 H     1 <1>   0.0730 
 49 H      -10.5360    -1.3370     0.6100 H     1 <1>   0.0730 
 50 H       -5.9000    -6.9210    -0.3420 H     1 <1>   0.3650 
 51 H       -8.6850    -7.3530     0.7760 H     1 <1>  -0.0070 
 52 H       -7.9110    -8.5740    -1.1900 H     1 <1>  -0.0070 
 53 H       -7.8110    -7.0630    -2.1670 H     1 <1>  -0.0070 
 54 H       -9.7080    -5.3800    -1.3620 H     1 <1>  -0.0070 
 55 H      -10.6470    -6.1450    -0.0290 H     1 <1>  -0.0070 
 56 H      -10.3420    -8.3690    -1.0040 H     1 <1>  -0.0070 
 57 H      -10.1880    -7.4560    -2.5500 H     1 <1>  -0.0070 
@<TRIPOS>BOND
  1   1   2  1   
  2   2   3  ar  
  3   2   4  ar  
  4   3   5  ar  
  5   3   6  1   
  6   4   7  ar  
  7   4  32  1   
  8   5   8  ar  
  9   5  33  1   
 10   6   9  1   
 11   6  34  1   
 12   6  35  1   
 13   7   8  ar  
 14   7  36  1   
 15   8  37  1   
 16   9  10  ar  
 17   9  11  1   
 18  10  12  ar  
 19  10  13  ar  
 20  11  14  1   
 21  11  15  2   
 22  12  15  1   
 23  12  38  1   
 24  13  16  1   
 25  13  39  1   
 26  14  17  2   
 27  14  18  am  
 28  15  19  1   
 29  16  20  1   
 30  16  40  1   
 31  16  41  1   
 32  18  21  am  
 33  18  22  1   
 34  19  21  am  
 35  19  23  1   
 36  20  24  1   
 37  20  42  1   
 38  20  43  1   
 39  21  25  2   
 40  22  44  1   
 41  22  45  1   
 42  22  46  1   
 43  23  47  1   
 44  23  48  1   
 45  23  49  1   
 46  24  26  am  
 47  24  50  1   
 48  26  27  2   
 49  26  28  1   
 50  28  29  1   
 51  28  30  1   
 52  28  51  1   
 53  29  31  1   
 54  29  52  1   
 55  29  53  1   
 56  30  31  1   
 57  30  54  1   
 58  30  55  1   
 59  31  56  1   
 60  31  57  1   
@<TRIPOS>SUBSTRUCTURE
  1 ****  12 GROUP 4 **** **** 0

# MOE 2024.06 (io_trps.svl 2023.06)
