@<TRIPOS>MOLECULE
NONAME
60 63 1 0 0 
SMALL
USER_CHARGES


@<TRIPOS>ATOM
  1 O       -3.4270    -0.6380    -0.9600 O.2   1 <1>  -0.5700 
  2 C       -3.0120    -1.2360     0.0130 C.2   1 <1>   0.5440 
  3 N       -3.7130    -1.1290     1.1840 N.am  1 <1>  -0.7300 
  4 C       -1.7890    -2.0180    -0.0550 C.ar  1 <1>   0.0860 
  5 C       -5.0180    -0.4890     1.4720 C.3   1 <1>   0.2200 
  6 C       -1.5400    -3.0700     0.8270 C.ar  1 <1>  -0.1500 
  7 C       -0.8100    -1.7420    -1.0110 C.ar  1 <1>  -0.1500 
  8 C       -6.1190    -0.9180     0.4130 C.3   1 <1>  -0.1600 
  9 C       -4.8040     1.0520     1.6770 C.3   1 <1>  -0.1600 
 10 C       -0.3690    -3.8040     0.7760 C.ar  1 <1>   0.0820 
 11 C        0.3640    -2.4700    -1.0760 C.ar  1 <1>  -0.1500 
 12 C       -6.4070     0.0830    -0.7630 C.3   1 <1>   0.4230 
 13 C       -5.7750     1.7010     0.7280 C.3   1 <1>   0.4230 
 14 O       -0.2370    -4.7970     1.6890 O.3   1 <1>  -0.3630 
 15 C        0.5920    -3.5000    -0.1830 C.ar  1 <1>  -0.1500 
 16 N       -5.4540     1.1600    -0.6010 N.4   1 <1>  -0.9590 
 17 C       -7.8210     0.7610    -0.8160 C.3   1 <1>  -0.1600 
 18 C       -6.8420     2.7700     0.6460 C.3   1 <1>  -0.1600 
 19 C        0.8990    -5.6340     1.7050 C.3   1 <1>   0.0400 
 20 C       -5.3050     2.0830    -1.7650 C.3   1 <1>   0.4860 
 21 C       -8.0990     2.0170     0.1000 C.3   1 <1>  -0.1600 
 22 C       -4.2320     3.1290    -1.5000 C.ar  1 <1>  -0.1430 
 23 C       -4.5360     4.4720    -1.6990 C.ar  1 <1>   0.0820 
 24 C       -2.9570     2.7710    -1.0820 C.ar  1 <1>  -0.1500 
 25 O       -5.7860     4.7700    -2.1410 O.3   1 <1>  -0.3630 
 26 C       -3.5700     5.4440    -1.4500 C.ar  1 <1>  -0.1500 
 27 C       -2.0010     3.7410    -0.8380 C.ar  1 <1>  -0.1500 
 28 C       -6.1660     6.0970    -2.4440 C.3   1 <1>   0.0400 
 29 C       -2.3090     5.0760    -1.0180 C.ar  1 <1>  -0.1500 
 30 H       -3.2720    -1.5450     2.0100 H     1 <1>   0.3700 
 31 H       -5.3410    -0.8920     2.4180 H     1 <1>   0.0800 
 32 H       -2.2660    -3.3440     1.5690 H     1 <1>   0.1500 
 33 H       -0.9730    -0.9440    -1.7150 H     1 <1>   0.1500 
 34 H       -7.0430    -1.0680     0.9420 H     1 <1>   0.0800 
 35 H       -5.8660    -1.8780    -0.0020 H     1 <1>   0.0800 
 36 H       -3.7980     1.3720     1.4720 H     1 <1>   0.0800 
 37 H       -5.0590     1.3280     2.6840 H     1 <1>   0.0800 
 38 H        1.1030    -2.2340    -1.8230 H     1 <1>   0.1500 
 39 H       -6.2200    -0.4290    -1.6940 H     1 <1>   0.0800 
 40 H       -6.5320     1.0610     1.1350 H     1 <1>   0.0800 
 41 H        1.5110    -4.0510    -0.2500 H     1 <1>   0.1500 
 42 H       -4.5380     0.6780    -0.5320 H     1 <1>   0.4500 
 43 H       -8.5750     0.0150    -0.6350 H     1 <1>   0.0800 
 44 H       -7.9720     1.0730    -1.8350 H     1 <1>   0.0800 
 45 H       -6.5510     3.5930     0.0240 H     1 <1>   0.0800 
 46 H       -7.0470     3.1610     1.6270 H     1 <1>   0.0800 
 47 H        0.7750    -6.3480     2.4990 H     1 <1>   0.0800 
 48 H        1.7730    -5.0340     1.8870 H     1 <1>   0.0800 
 49 H        0.9700    -6.1450     0.7620 H     1 <1>   0.0800 
 50 H       -6.2440     2.5700    -1.9660 H     1 <1>   0.0800 
 51 H       -5.0280     1.5190    -2.6390 H     1 <1>   0.0800 
 52 H       -8.6590     1.6690     0.9530 H     1 <1>   0.0800 
 53 H       -8.7400     2.7130    -0.4160 H     1 <1>   0.0800 
 54 H       -2.6860     1.7410    -0.9460 H     1 <1>   0.1500 
 55 H       -3.7760     6.4890    -1.5860 H     1 <1>   0.1500 
 56 H       -1.0150     3.4570    -0.5110 H     1 <1>   0.1500 
 57 H       -7.1800     6.0840    -2.8010 H     1 <1>   0.0800 
 58 H       -5.5150     6.4820    -3.2090 H     1 <1>   0.0800 
 59 H       -6.1020     6.6920    -1.5500 H     1 <1>   0.0800 
 60 H       -1.5640     5.8300    -0.8260 H     1 <1>   0.1500 
@<TRIPOS>BOND
  1   1   2  2   
  2   2   3  am  
  3   2   4  1   
  4   3   5  1   
  5   3  30  1   
  6   4   6  ar  
  7   4   7  ar  
  8   5   8  1   
  9   5   9  1   
 10   5  31  1   
 11   6  10  ar  
 12   6  32  1   
 13   7  11  ar  
 14   7  33  1   
 15   8  12  1   
 16   8  34  1   
 17   8  35  1   
 18   9  13  1   
 19   9  36  1   
 20   9  37  1   
 21  10  14  1   
 22  10  15  ar  
 23  11  15  ar  
 24  11  38  1   
 25  12  16  1   
 26  12  17  1   
 27  12  39  1   
 28  13  16  1   
 29  13  18  1   
 30  13  40  1   
 31  14  19  1   
 32  15  41  1   
 33  16  20  1   
 34  16  42  1   
 35  17  21  1   
 36  17  43  1   
 37  17  44  1   
 38  18  21  1   
 39  18  45  1   
 40  18  46  1   
 41  19  47  1   
 42  19  48  1   
 43  19  49  1   
 44  20  22  1   
 45  20  50  1   
 46  20  51  1   
 47  21  52  1   
 48  21  53  1   
 49  22  23  ar  
 50  22  24  ar  
 51  23  25  1   
 52  23  26  ar  
 53  24  27  ar  
 54  24  54  1   
 55  25  28  1   
 56  26  29  ar  
 57  26  55  1   
 58  27  29  ar  
 59  27  56  1   
 60  28  57  1   
 61  28  58  1   
 62  28  59  1   
 63  29  60  1   
@<TRIPOS>SUBSTRUCTURE
  1 ****   1 GROUP 4 **** **** 0

# MOE 2024.06 (io_trps.svl 2023.06)
