@<TRIPOS>MOLECULE
4-(4-Methoxy-benzoylamino)-piperidine-1-carboxylic acid (2-ethoxy-phenyl)-amide
56 58 1 0 0 
SMALL
USER_CHARGES


@<TRIPOS>ATOM
  1 O        0.4550    -0.1160     0.0910 O.2   1 <1>  -0.5700 
  2 C        0.8620     0.9900     0.3910 C.2   1 <1>   0.6900 
  3 N        2.0610     1.1310     1.0490 N.am  1 <1>  -0.6600 
  4 N        0.1630     2.1130     0.0590 N.am  1 <1>  -0.5470 
  5 C        3.0210    -0.0020     1.1500 C.3   1 <1>   0.1400 
  6 C        2.5090     2.3700     1.7430 C.3   1 <1>   0.1400 
  7 C       -1.0720     2.3480    -0.5690 C.ar  1 <1>   0.1170 
  8 C        4.3630     0.4250     0.5490 C.3   1 <1>  -0.1600 
  9 C        3.8350     2.8290     1.1350 C.3   1 <1>  -0.1600 
 10 C       -1.3440     3.6460    -1.0160 C.ar  1 <1>   0.0820 
 11 C       -2.0320     1.3590    -0.7560 C.ar  1 <1>  -0.1500 
 12 C        4.8740     1.7070     1.2090 C.3   1 <1>   0.2200 
 13 O       -0.3780     4.5920    -0.8040 O.3   1 <1>  -0.3630 
 14 C       -2.5550     3.9280    -1.6420 C.ar  1 <1>  -0.1500 
 15 C       -3.2330     1.6450    -1.3790 C.ar  1 <1>  -0.1500 
 16 N        6.0970     2.1450     0.5170 N.am  1 <1>  -0.7300 
 17 C       -0.5300     5.9100    -1.2780 C.3   1 <1>   0.1200 
 18 C       -3.4950     2.9280    -1.8230 C.ar  1 <1>  -0.1500 
 19 C        7.2850     2.4520     1.1210 C.2   1 <1>   0.5440 
 20 C        0.7300     6.6880    -0.9140 C.3   1 <1>  -0.2400 
 21 O        7.3510     2.3900     2.3340 O.2   1 <1>  -0.5700 
 22 C        8.4340     2.8630     0.3330 C.ar  1 <1>   0.0860 
 23 C        8.5910     2.4840    -1.0040 C.ar  1 <1>  -0.1500 
 24 C        9.4350     3.6610     0.8890 C.ar  1 <1>  -0.1500 
 25 C        9.6820     2.8960    -1.7460 C.ar  1 <1>  -0.1500 
 26 C       10.5310     4.0760     0.1540 C.ar  1 <1>  -0.1500 
 27 C       10.6600     3.6960    -1.1780 C.ar  1 <1>   0.0820 
 28 O       11.6930     4.0570    -1.9710 O.3   1 <1>  -0.3620 
 29 C       12.7500     4.8580    -1.4910 C.3   1 <1>   0.0400 
 30 H        0.7020     2.9670     0.1620 H     1 <1>   0.3700 
 31 H        2.6520    -0.8670     0.6250 H     1 <1>   0.0800 
 32 H        3.1440    -0.2680     2.1860 H     1 <1>   0.0800 
 33 H        2.6450     2.1510     2.7890 H     1 <1>   0.0800 
 34 H        1.7760     3.1530     1.6670 H     1 <1>   0.0800 
 35 H        4.2290     0.5760    -0.5070 H     1 <1>   0.0800 
 36 H        5.0790    -0.3630     0.6950 H     1 <1>   0.0800 
 37 H        4.1960     3.6830     1.6800 H     1 <1>   0.0800 
 38 H        3.6680     3.1180     0.1130 H     1 <1>   0.0800 
 39 H       -1.8480     0.3580    -0.4130 H     1 <1>   0.1500 
 40 H        5.0940     1.5010     2.2440 H     1 <1>   0.0800 
 41 H       -2.7900     4.9140    -1.9950 H     1 <1>   0.1500 
 42 H       -3.9620     0.8660    -1.5170 H     1 <1>   0.1500 
 43 H        5.9950     2.3000    -0.4850 H     1 <1>   0.3700 
 44 H       -1.3950     6.3450    -0.8070 H     1 <1>   0.0800 
 45 H       -0.6610     5.8760    -2.3460 H     1 <1>   0.0800 
 46 H       -4.4310     3.1480    -2.3080 H     1 <1>   0.1500 
 47 H        0.8590     6.7060     0.1530 H     1 <1>   0.0800 
 48 H        0.6450     7.7010    -1.2650 H     1 <1>   0.0800 
 49 H        1.5900     6.2370    -1.3750 H     1 <1>   0.0800 
 50 H        7.8570     1.8530    -1.4700 H     1 <1>   0.1500 
 51 H        9.3460     3.9590     1.9200 H     1 <1>   0.1500 
 52 H        9.7890     2.5980    -2.7740 H     1 <1>   0.1500 
 53 H       11.2700     4.6910     0.6310 H     1 <1>   0.1500 
 54 H       13.4480     5.0070    -2.2950 H     1 <1>   0.0800 
 55 H       13.2340     4.3480    -0.6770 H     1 <1>   0.0800 
 56 H       12.3540     5.8060    -1.1720 H     1 <1>   0.0800 
@<TRIPOS>BOND
  1   1   2  2   
  2   2   3  am  
  3   2   4  am  
  4   3   5  1   
  5   3   6  1   
  6   4   7  1   
  7   4  30  1   
  8   5   8  1   
  9   5  31  1   
 10   5  32  1   
 11   6   9  1   
 12   6  33  1   
 13   6  34  1   
 14   7  10  ar  
 15   7  11  ar  
 16   8  12  1   
 17   8  35  1   
 18   8  36  1   
 19   9  12  1   
 20   9  37  1   
 21   9  38  1   
 22  10  13  1   
 23  10  14  ar  
 24  11  15  ar  
 25  11  39  1   
 26  12  16  1   
 27  12  40  1   
 28  13  17  1   
 29  14  18  ar  
 30  14  41  1   
 31  15  18  ar  
 32  15  42  1   
 33  16  19  am  
 34  16  43  1   
 35  17  20  1   
 36  17  44  1   
 37  17  45  1   
 38  18  46  1   
 39  19  21  2   
 40  19  22  1   
 41  20  47  1   
 42  20  48  1   
 43  20  49  1   
 44  22  23  ar  
 45  22  24  ar  
 46  23  25  ar  
 47  23  50  1   
 48  24  26  ar  
 49  24  51  1   
 50  25  27  ar  
 51  25  52  1   
 52  26  27  ar  
 53  26  53  1   
 54  27  28  1   
 55  28  29  1   
 56  29  54  1   
 57  29  55  1   
 58  29  56  1   
@<TRIPOS>SUBSTRUCTURE
  1 ****   9 GROUP 4 **** **** 0

# MOE 2024.06 (io_trps.svl 2023.06)
