@<TRIPOS>MOLECULE
NONAME
57 60 1 0 0 
SMALL
USER_CHARGES


@<TRIPOS>ATOM
  1 S        2.2590     0.8470    -3.3960 S.3   1 <1>   0.1810 
  2 N        1.8680     1.5520    -1.9060 N.2   1 <1>  -0.2210 
  3 C        3.9410     0.8480    -3.0430 C.2   1 <1>  -0.1100 
  4 N        2.9050     1.7620    -1.2240 N.2   1 <1>  -0.2270 
  5 C        4.1050     1.3720    -1.8170 C.2   1 <1>   0.1410 
  6 C        5.3800     1.5700    -1.1470 C.2   1 <1>   0.7160 
  7 O        6.2850     2.0370    -1.8120 O.2   1 <1>  -0.5700 
  8 N        5.6050     1.2620     0.1820 N.am  1 <1>  -0.6600 
  9 C        6.8570     1.7010     0.9160 C.3   1 <1>   0.4250 
 10 C        4.5790     0.5810     1.0300 C.3   1 <1>   0.2840 
 11 C        6.6410     3.1060     1.4970 C.ar  1 <1>  -0.1440 
 12 C        8.1980     1.5340     0.1580 C.2   1 <1>   0.5690 
 13 C        5.1670    -0.5320     1.8890 C.ar  1 <1>  -0.1440 
 14 C        6.3540     4.2020     0.6910 C.ar  1 <1>  -0.1500 
 15 C        6.7360     3.2950     2.8700 C.ar  1 <1>  -0.1500 
 16 O        8.5810     0.4140    -0.1050 O.2   1 <1>  -0.5700 
 17 N        8.9410     2.6290    -0.1730 N.am  1 <1>  -0.7300 
 18 C        4.8530    -0.6050     3.2380 C.ar  1 <1>  -0.1500 
 19 C        6.0210    -1.4790     1.3400 C.ar  1 <1>  -0.1500 
 20 C        6.1690     5.4560     1.2440 C.ar  1 <1>  -0.1500 
 21 C        6.5520     4.5490     3.4250 C.ar  1 <1>  -0.1500 
 22 C       10.1480     2.6240    -1.0070 C.3   1 <1>   0.2200 
 23 C        5.3850    -1.6090     4.0280 C.ar  1 <1>  -0.1500 
 24 C        6.5550    -2.4810     2.1300 C.ar  1 <1>  -0.1500 
 25 C        6.2680     5.6310     2.6120 C.ar  1 <1>  -0.1500 
 26 C       11.2440     3.4230    -0.2970 C.3   1 <1>  -0.1600 
 27 C        9.8010     3.2380    -2.3670 C.3   1 <1>  -0.1600 
 28 C        6.2370    -2.5480     3.4740 C.ar  1 <1>  -0.1500 
 29 C       12.4950     3.5520    -1.1780 C.3   1 <1>  -0.1600 
 30 C       11.0490     3.3660    -3.2530 C.3   1 <1>  -0.1600 
 31 C       12.1520     4.1640    -2.5440 C.3   1 <1>  -0.1600 
 32 H        4.6330     0.4700    -3.7720 H     1 <1>   0.1500 
 33 H        6.9890     1.0530     1.7590 H     1 <1>   0.0800 
 34 H        3.8190     0.1280     0.4210 H     1 <1>   0.0800 
 35 H        4.1060     1.3190     1.6550 H     1 <1>   0.0800 
 36 H        6.2720     4.0930    -0.3770 H     1 <1>   0.1500 
 37 H        6.9560     2.4660     3.5210 H     1 <1>   0.1500 
 38 H        8.5680     3.5550     0.0480 H     1 <1>   0.3700 
 39 H        4.1910     0.1180     3.6830 H     1 <1>   0.1500 
 40 H        6.2850    -1.4350     0.2960 H     1 <1>   0.1500 
 41 H        5.9460     6.2960     0.6090 H     1 <1>   0.1500 
 42 H        6.6280     4.6830     4.4900 H     1 <1>   0.1500 
 43 H       10.4850     1.6110    -1.1530 H     1 <1>   0.0800 
 44 H        5.1360    -1.6610     5.0740 H     1 <1>   0.1500 
 45 H        7.2220    -3.2070     1.6960 H     1 <1>   0.1500 
 46 H        6.1240     6.6070     3.0420 H     1 <1>   0.1500 
 47 H       11.5050     2.9280     0.6220 H     1 <1>   0.0800 
 48 H       10.8790     4.4080    -0.0630 H     1 <1>   0.0800 
 49 H        9.3700     4.2130    -2.2230 H     1 <1>   0.0800 
 50 H        9.0740     2.6150    -2.8590 H     1 <1>   0.0800 
 51 H        6.6520    -3.3290     4.0870 H     1 <1>   0.1500 
 52 H       12.9280     2.5760    -1.3250 H     1 <1>   0.0800 
 53 H       13.2270     4.1650    -0.6810 H     1 <1>   0.0800 
 54 H       10.7870     3.8530    -4.1760 H     1 <1>   0.0800 
 55 H       11.4170     2.3830    -3.4910 H     1 <1>   0.0800 
 56 H       13.0340     4.1860    -3.1610 H     1 <1>   0.0800 
 57 H       11.8230     5.1800    -2.4050 H     1 <1>   0.0800 
@<TRIPOS>BOND
  1   1   2  1   
  2   1   3  1   
  3   2   4  2   
  4   3   5  2   
  5   3  32  1   
  6   4   5  1   
  7   5   6  1   
  8   6   7  2   
  9   6   8  am  
 10   8   9  1   
 11   8  10  1   
 12   9  11  1   
 13   9  12  1   
 14   9  33  1   
 15  10  13  1   
 16  10  34  1   
 17  10  35  1   
 18  11  14  ar  
 19  11  15  ar  
 20  12  16  2   
 21  12  17  am  
 22  13  18  ar  
 23  13  19  ar  
 24  14  20  ar  
 25  14  36  1   
 26  15  21  ar  
 27  15  37  1   
 28  17  22  1   
 29  17  38  1   
 30  18  23  ar  
 31  18  39  1   
 32  19  24  ar  
 33  19  40  1   
 34  20  25  ar  
 35  20  41  1   
 36  21  25  ar  
 37  21  42  1   
 38  22  26  1   
 39  22  27  1   
 40  22  43  1   
 41  23  28  ar  
 42  23  44  1   
 43  24  28  ar  
 44  24  45  1   
 45  25  46  1   
 46  26  29  1   
 47  26  47  1   
 48  26  48  1   
 49  27  30  1   
 50  27  49  1   
 51  27  50  1   
 52  28  51  1   
 53  29  31  1   
 54  29  52  1   
 55  29  53  1   
 56  30  31  1   
 57  30  54  1   
 58  30  55  1   
 59  31  56  1   
 60  31  57  1   
@<TRIPOS>SUBSTRUCTURE
  1 ****   9 GROUP 4 **** **** 0

# MOE 2024.06 (io_trps.svl 2023.06)
