@<TRIPOS>MOLECULE
NONAME
62 65 1 0 0 
SMALL
USER_CHARGES


@<TRIPOS>ATOM
  1 S       -0.1020     1.9400     1.2800 S.3   1 <1>  -0.2860 
  2 C        1.6790     2.1010     1.2620 C.2   1 <1>   0.2420 
  3 C       -0.5610     2.0010    -0.5170 C.3   1 <1>   0.1310 
  4 N        2.3190     2.7510     0.3590 N.2   1 <1>  -0.5650 
  5 N        2.4290     1.4810     2.2080 N.pl3 1 <1>   0.0480 
  6 C       -1.4530     0.8250    -0.8860 C.2   1 <1>   0.5690 
  7 C        3.6190     2.5580     0.7120 C.ar  1 <1>   0.2270 
  8 C        3.7120     1.7690     1.8490 C.ar  1 <1>  -0.1520 
  9 C        1.9990     0.2750     2.9410 C.3   1 <1>   0.1570 
 10 O       -2.2820     0.9920    -1.7490 O.2   1 <1>  -0.5700 
 11 N       -1.2960    -0.3780    -0.2670 N.am  1 <1>  -0.7300 
 12 C        4.7770     3.0120     0.0850 C.ar  1 <1>  -0.1500 
 13 C        4.9540     1.4080     2.3760 C.ar  1 <1>  -0.1500 
 14 C        1.7590    -0.8400     1.9410 C.2   1 <1>   0.5690 
 15 C       -2.1140    -1.5730    -0.5100 C.3   1 <1>   0.2200 
 16 C        6.0060     2.6610     0.6010 C.ar  1 <1>  -0.1500 
 17 C        6.0930     1.8590     1.7450 C.ar  1 <1>  -0.1500 
 18 O        0.6650    -1.3500     1.8860 O.2   1 <1>  -0.5700 
 19 N        2.7660    -1.2010     1.1020 N.am  1 <1>  -0.7300 
 20 C       -2.7240    -2.0340     0.8170 C.3   1 <1>  -0.1600 
 21 C       -1.2270    -2.6620    -1.1190 C.3   1 <1>  -0.1600 
 22 C        2.6430    -2.1540    -0.0080 C.3   1 <1>   0.2200 
 23 C       -3.5010    -3.3470     0.6450 C.3   1 <1>  -0.1600 
 24 C       -1.9990    -3.9770    -1.2970 C.3   1 <1>  -0.1600 
 25 C        3.9360    -2.9700    -0.1020 C.3   1 <1>  -0.1600 
 26 C        2.3820    -1.3700    -1.2980 C.3   1 <1>  -0.1600 
 27 C       -2.6140    -4.4390     0.0310 C.3   1 <1>  -0.1600 
 28 C        3.9150    -3.9030    -1.3210 C.3   1 <1>  -0.1600 
 29 C        2.3630    -2.2990    -2.5200 C.3   1 <1>  -0.1600 
 30 C        3.6570    -3.1180    -2.6150 C.3   1 <1>  -0.1600 
 31 H        0.3420     1.9700    -1.0950 H     1 <1>   0.0800 
 32 H       -1.0720     2.9310    -0.6830 H     1 <1>   0.0800 
 33 H        1.0930     0.4860     3.4760 H     1 <1>   0.0800 
 34 H        2.7590    -0.0180     3.6380 H     1 <1>   0.0800 
 35 H       -0.6080    -0.4910     0.4910 H     1 <1>   0.3700 
 36 H        4.6830     3.6260    -0.7920 H     1 <1>   0.1500 
 37 H        5.0220     0.7970     3.2600 H     1 <1>   0.1500 
 38 H       -2.9070    -1.3380    -1.2010 H     1 <1>   0.0800 
 39 H        6.9100     3.0040     0.1290 H     1 <1>   0.1500 
 40 H        7.0650     1.6010     2.1290 H     1 <1>   0.1500 
 41 H        3.6190    -0.6360     1.0700 H     1 <1>   0.3700 
 42 H       -3.3870    -1.2710     1.1860 H     1 <1>   0.0800 
 43 H       -1.9400    -2.1840     1.5390 H     1 <1>   0.0800 
 44 H       -0.3870    -2.8370    -0.4710 H     1 <1>   0.0800 
 45 H       -0.8640    -2.3280    -2.0740 H     1 <1>   0.0800 
 46 H        1.8180    -2.8230     0.1780 H     1 <1>   0.0800 
 47 H       -4.3510    -3.1770     0.0060 H     1 <1>   0.0800 
 48 H       -3.8680    -3.6760     1.6020 H     1 <1>   0.0800 
 49 H       -1.3360    -4.7370    -1.6720 H     1 <1>   0.0800 
 50 H       -2.7820    -3.8340    -2.0220 H     1 <1>   0.0800 
 51 H        4.0540    -3.5560     0.7920 H     1 <1>   0.0800 
 52 H        4.7770    -2.3040    -0.1900 H     1 <1>   0.0800 
 53 H        3.1510    -0.6290    -1.4330 H     1 <1>   0.0800 
 54 H        1.4350    -0.8640    -1.2240 H     1 <1>   0.0800 
 55 H       -3.1980    -5.3290    -0.1310 H     1 <1>   0.0800 
 56 H       -1.8250    -4.6840     0.7220 H     1 <1>   0.0800 
 57 H        3.1400    -4.6410    -1.1920 H     1 <1>   0.0800 
 58 H        4.8550    -4.4220    -1.3950 H     1 <1>   0.0800 
 59 H        2.2380    -1.7140    -3.4160 H     1 <1>   0.0800 
 60 H        1.5250    -2.9700    -2.4460 H     1 <1>   0.0800 
 61 H        3.5910    -3.8020    -3.4440 H     1 <1>   0.0800 
 62 H        4.4850    -2.4550    -2.8010 H     1 <1>   0.0800 
@<TRIPOS>BOND
  1   1   2  1   
  2   1   3  1   
  3   2   4  2   
  4   2   5  1   
  5   3   6  1   
  6   3  31  1   
  7   3  32  1   
  8   4   7  1   
  9   5   8  1   
 10   5   9  1   
 11   6  10  2   
 12   6  11  am  
 13   7   8  ar  
 14   7  12  ar  
 15   8  13  ar  
 16   9  14  1   
 17   9  33  1   
 18   9  34  1   
 19  11  15  1   
 20  11  35  1   
 21  12  16  ar  
 22  12  36  1   
 23  13  17  ar  
 24  13  37  1   
 25  14  18  2   
 26  14  19  am  
 27  15  20  1   
 28  15  21  1   
 29  15  38  1   
 30  16  17  ar  
 31  16  39  1   
 32  17  40  1   
 33  19  22  1   
 34  19  41  1   
 35  20  23  1   
 36  20  42  1   
 37  20  43  1   
 38  21  24  1   
 39  21  44  1   
 40  21  45  1   
 41  22  25  1   
 42  22  26  1   
 43  22  46  1   
 44  23  27  1   
 45  23  47  1   
 46  23  48  1   
 47  24  27  1   
 48  24  49  1   
 49  24  50  1   
 50  25  28  1   
 51  25  51  1   
 52  25  52  1   
 53  26  29  1   
 54  26  53  1   
 55  26  54  1   
 56  27  55  1   
 57  27  56  1   
 58  28  30  1   
 59  28  57  1   
 60  28  58  1   
 61  29  30  1   
 62  29  59  1   
 63  29  60  1   
 64  30  61  1   
 65  30  62  1   
@<TRIPOS>SUBSTRUCTURE
  1 ****  14 GROUP 4 **** **** 0

# MOE 2024.06 (io_trps.svl 2023.06)
