@<TRIPOS>MOLECULE
NONAME
58 60 1 0 0 
SMALL
USER_CHARGES


@<TRIPOS>ATOM
  1 S        0.1470     0.1050     1.4580 S.3   1 <1>  -0.2860 
  2 C        1.4440     0.8590     0.4860 C.2   1 <1>   0.2420 
  3 C       -1.3940     0.8910     0.7850 C.3   1 <1>   0.1310 
  4 N        1.2430     1.8820    -0.2650 N.2   1 <1>  -0.5650 
  5 N        2.7040     0.3550     0.4930 N.pl3 1 <1>   0.0480 
  6 C       -2.6230     0.0270     1.0570 C.2   1 <1>   0.5690 
  7 C        2.4690     2.0890    -0.8240 C.ar  1 <1>   0.2270 
  8 C        3.3850     1.1490    -0.3770 C.ar  1 <1>  -0.1520 
  9 C        3.2050    -0.8350     1.2070 C.3   1 <1>   0.1570 
 10 O       -2.4800    -1.1750     1.0390 O.2   1 <1>  -0.5700 
 11 N       -3.8560     0.5960     1.2910 N.am  1 <1>  -0.6600 
 12 C        2.8650     3.0670    -1.7350 C.ar  1 <1>  -0.1500 
 13 C        4.7040     1.1510    -0.8370 C.ar  1 <1>  -0.1500 
 14 C        2.9470    -2.0860     0.3940 C.2   1 <1>   0.5690 
 15 C       -4.1830     2.0460     1.1620 C.3   1 <1>   0.1400 
 16 C       -5.0310    -0.2480     1.6570 C.3   1 <1>   0.1400 
 17 C        4.1670     3.0800    -2.1860 C.ar  1 <1>  -0.1500 
 18 C        5.0840     2.1210    -1.7390 C.ar  1 <1>  -0.1500 
 19 O        3.9030    -2.6970    -0.0200 O.2   1 <1>  -0.5700 
 20 N        1.6580    -2.4730     0.1800 N.am  1 <1>  -0.7300 
 21 C       -5.2900     2.2380     0.1200 C.3   1 <1>  -0.1600 
 22 C       -6.1410    -0.0760     0.6160 C.3   1 <1>  -0.1600 
 23 C        1.1400    -3.5790    -0.6240 C.3   1 <1>   0.3000 
 24 C       -6.5340     1.3990     0.4490 C.3   1 <1>  -0.0800 
 25 C        1.6160    -4.9080    -0.0410 C.3   1 <1>  -0.2400 
 26 C        1.5850    -3.4090    -2.0760 C.3   1 <1>  -0.2400 
 27 C       -0.3830    -3.4920    -0.5400 C.3   1 <1>  -0.2400 
 28 C       -7.5970     1.5550    -0.6440 C.3   1 <1>  -0.2400 
 29 H       -1.2580     1.0050    -0.2740 H     1 <1>   0.0800 
 30 H       -1.4570     1.8500     1.2570 H     1 <1>   0.0800 
 31 H        2.7170    -0.9170     2.1580 H     1 <1>   0.0800 
 32 H        4.2600    -0.7280     1.3710 H     1 <1>   0.0800 
 33 H        2.1420     3.7880    -2.0650 H     1 <1>   0.1500 
 34 H        5.4030     0.4060    -0.4970 H     1 <1>   0.1500 
 35 H       -3.3280     2.6220     0.8640 H     1 <1>   0.0800 
 36 H       -4.5170     2.4140     2.1180 H     1 <1>   0.0800 
 37 H       -5.3890     0.0530     2.6260 H     1 <1>   0.0800 
 38 H       -4.7540    -1.2870     1.7170 H     1 <1>   0.0800 
 39 H        4.4910     3.8280    -2.8890 H     1 <1>   0.1500 
 40 H        6.0940     2.1470    -2.1100 H     1 <1>   0.1500 
 41 H        0.9010    -1.8930     0.5540 H     1 <1>   0.3700 
 42 H       -4.9060     1.9610    -0.8460 H     1 <1>   0.0800 
 43 H       -5.5570     3.2790     0.0810 H     1 <1>   0.0800 
 44 H       -6.9980    -0.6500     0.9210 H     1 <1>   0.0800 
 45 H       -5.7950    -0.4770    -0.3220 H     1 <1>   0.0800 
 46 H       -6.9490     1.7500     1.3800 H     1 <1>   0.0800 
 47 H        2.6850    -4.9920    -0.1150 H     1 <1>   0.0800 
 48 H        1.1810    -5.7270    -0.5840 H     1 <1>   0.0800 
 49 H        1.3280    -4.9900     0.9910 H     1 <1>   0.0800 
 50 H        1.2810    -2.4490    -2.4530 H     1 <1>   0.0800 
 51 H        1.1440    -4.1730    -2.6900 H     1 <1>   0.0800 
 52 H        2.6540    -3.4940    -2.1580 H     1 <1>   0.0800 
 53 H       -0.7340    -2.5550    -0.9350 H     1 <1>   0.0800 
 54 H       -0.7150    -3.5830     0.4790 H     1 <1>   0.0800 
 55 H       -0.8320    -4.2840    -1.1110 H     1 <1>   0.0800 
 56 H       -7.2200     1.2130    -1.5920 H     1 <1>   0.0800 
 57 H       -7.8850     2.5870    -0.7410 H     1 <1>   0.0800 
 58 H       -8.4730     0.9820    -0.3960 H     1 <1>   0.0800 
@<TRIPOS>BOND
  1   1   2  1   
  2   1   3  1   
  3   2   4  2   
  4   2   5  1   
  5   3   6  1   
  6   3  29  1   
  7   3  30  1   
  8   4   7  1   
  9   5   8  1   
 10   5   9  1   
 11   6  10  2   
 12   6  11  am  
 13   7   8  ar  
 14   7  12  ar  
 15   8  13  ar  
 16   9  14  1   
 17   9  31  1   
 18   9  32  1   
 19  11  15  1   
 20  11  16  1   
 21  12  17  ar  
 22  12  33  1   
 23  13  18  ar  
 24  13  34  1   
 25  14  19  2   
 26  14  20  am  
 27  15  21  1   
 28  15  35  1   
 29  15  36  1   
 30  16  22  1   
 31  16  37  1   
 32  16  38  1   
 33  17  18  ar  
 34  17  39  1   
 35  18  40  1   
 36  20  23  1   
 37  20  41  1   
 38  21  24  1   
 39  21  42  1   
 40  21  43  1   
 41  22  24  1   
 42  22  44  1   
 43  22  45  1   
 44  23  25  1   
 45  23  26  1   
 46  23  27  1   
 47  24  28  1   
 48  24  46  1   
 49  25  47  1   
 50  25  48  1   
 51  25  49  1   
 52  26  50  1   
 53  26  51  1   
 54  26  52  1   
 55  27  53  1   
 56  27  54  1   
 57  27  55  1   
 58  28  56  1   
 59  28  57  1   
 60  28  58  1   
@<TRIPOS>SUBSTRUCTURE
  1 ****   1 GROUP 4 **** **** 0

# MOE 2024.06 (io_trps.svl 2023.06)
