@<TRIPOS>MOLECULE
6808
49 51 1 0 0 
SMALL
USER_CHARGES


@<TRIPOS>ATOM
  1 O        0.3830     0.4870     1.4480 O.2   1 <1>  -0.5700 
  2 C        0.0830    -0.6690     1.2760 C.2   1 <1>   0.5690 
  3 N        1.0630    -1.5820     1.0580 N.am  1 <1>  -0.7300 
  4 C       -1.3910    -1.0590     1.3470 C.3   1 <1>   0.1810 
  5 C        0.9310    -3.0250     0.7970 C.3   1 <1>   0.2200 
  6 O       -1.8050    -1.7310     0.1660 O.3   1 <1>  -0.3630 
  7 C        1.9580    -3.7800     1.6460 C.3   1 <1>  -0.1600 
  8 C        1.1490    -3.2840    -0.6960 C.3   1 <1>  -0.1600 
  9 C       -2.9990    -2.3630     0.0990 C.ar  1 <1>   0.0820 
 10 C        1.9220    -5.2860     1.3440 C.3   1 <1>  -0.1600 
 11 C        1.1060    -4.7870    -1.0060 C.3   1 <1>  -0.1600 
 12 C       -4.0040    -2.2240     1.0520 C.ar  1 <1>  -0.1500 
 13 C       -3.2060    -3.1960    -0.9880 C.ar  1 <1>  -0.1500 
 14 C        2.1240    -5.5570    -0.1530 C.3   1 <1>  -0.1600 
 15 C       -5.1890    -2.9230     0.9110 C.ar  1 <1>  -0.1500 
 16 C       -4.3940    -3.8890    -1.1220 C.ar  1 <1>  -0.1500 
 17 C       -5.4060    -3.7670    -0.1740 C.ar  1 <1>   0.0000 
 18 C       -6.6460    -4.4950    -0.3130 C.ar  1 <1>   0.0000 
 19 C       -7.8650    -3.8290    -0.3870 C.ar  1 <1>  -0.1500 
 20 C       -6.6590    -5.8850    -0.3760 C.ar  1 <1>  -0.1500 
 21 C       -9.0540    -4.5240    -0.5170 C.ar  1 <1>  -0.1500 
 22 C       -7.8450    -6.5840    -0.5070 C.ar  1 <1>  -0.1500 
 23 C       -9.0510    -5.9080    -0.5770 C.ar  1 <1>  -0.1440 
 24 C      -10.3540    -6.6730    -0.7210 C.3   1 <1>  -0.0970 
 25 H        2.0100    -1.2070     0.9920 H     1 <1>   0.3700 
 26 H       -1.9930    -0.1750     1.4570 H     1 <1>   0.0800 
 27 H       -1.5410    -1.7130     2.1850 H     1 <1>   0.0800 
 28 H       -0.0540    -3.3620     1.0700 H     1 <1>   0.0800 
 29 H        1.7480    -3.6210     2.6890 H     1 <1>   0.0800 
 30 H        2.9450    -3.4060     1.4350 H     1 <1>   0.0800 
 31 H        2.1040    -2.8890    -0.9960 H     1 <1>   0.0800 
 32 H        0.3820    -2.7830    -1.2610 H     1 <1>   0.0800 
 33 H        0.9720    -5.6890     1.6530 H     1 <1>   0.0800 
 34 H        2.6900    -5.7860     1.9080 H     1 <1>   0.0800 
 35 H        1.3160    -4.9470    -2.0500 H     1 <1>   0.0800 
 36 H        0.1170    -5.1640    -0.8070 H     1 <1>   0.0800 
 37 H       -3.8840    -1.5800     1.9020 H     1 <1>   0.1500 
 38 H       -2.4310    -3.2960    -1.7270 H     1 <1>   0.1500 
 39 H        2.0290    -6.6130    -0.3440 H     1 <1>   0.0800 
 40 H        3.1210    -5.2610    -0.4360 H     1 <1>   0.0800 
 41 H       -5.9630    -2.8180     1.6510 H     1 <1>   0.1500 
 42 H       -4.5470    -4.5310    -1.9720 H     1 <1>   0.1500 
 43 H       -7.8790    -2.7550    -0.3460 H     1 <1>   0.1500 
 44 H       -5.7280    -6.4210    -0.3180 H     1 <1>   0.1500 
 45 H       -9.9810    -3.9830    -0.5740 H     1 <1>   0.1500 
 46 H       -7.8250    -7.6590    -0.5540 H     1 <1>   0.1500 
 47 H      -11.1620    -6.1310    -0.2630 H     1 <1>   0.0800 
 48 H      -10.2790    -7.6350    -0.2470 H     1 <1>   0.0800 
 49 H      -10.5780    -6.8160    -1.7630 H     1 <1>   0.0800 
@<TRIPOS>BOND
  1   1   2  2   
  2   2   3  am  
  3   2   4  1   
  4   3   5  1   
  5   3  25  1   
  6   4   6  1   
  7   4  26  1   
  8   4  27  1   
  9   5   7  1   
 10   5   8  1   
 11   5  28  1   
 12   6   9  1   
 13   7  10  1   
 14   7  29  1   
 15   7  30  1   
 16   8  11  1   
 17   8  31  1   
 18   8  32  1   
 19   9  12  ar  
 20   9  13  ar  
 21  10  14  1   
 22  10  33  1   
 23  10  34  1   
 24  11  14  1   
 25  11  35  1   
 26  11  36  1   
 27  12  15  ar  
 28  12  37  1   
 29  13  16  ar  
 30  13  38  1   
 31  14  39  1   
 32  14  40  1   
 33  15  17  ar  
 34  15  41  1   
 35  16  17  ar  
 36  16  42  1   
 37  17  18  1   
 38  18  19  ar  
 39  18  20  ar  
 40  19  21  ar  
 41  19  43  1   
 42  20  22  ar  
 43  20  44  1   
 44  21  23  ar  
 45  21  45  1   
 46  22  23  ar  
 47  22  46  1   
 48  23  24  1   
 49  24  47  1   
 50  24  48  1   
 51  24  49  1   
@<TRIPOS>SUBSTRUCTURE
  1 ****  13 GROUP 4 **** **** 0

# MOE 2024.06 (io_trps.svl 2023.06)
