@<TRIPOS>MOLECULE
NONAME
57 61 1 0 0 
SMALL
USER_CHARGES


@<TRIPOS>ATOM
  1 S        0.8960    -0.2180     2.4560 S.3   1 <1>  -0.2860 
  2 C        1.3830     1.0080     1.2480 C.2   1 <1>   0.2420 
  3 C       -0.7220     0.4170     3.1120 C.3   1 <1>   0.1310 
  4 N        1.0040     2.2330     1.3100 N.2   1 <1>  -0.5650 
  5 N        2.1510     0.6670     0.1820 N.pl3 1 <1>   0.0480 
  6 C       -1.8650    -0.4710     2.6340 C.2   1 <1>   0.5690 
  7 C        1.5640     2.7790     0.1960 C.ar  1 <1>   0.2270 
  8 C        2.2690     1.8260    -0.5240 C.ar  1 <1>  -0.1520 
  9 C        2.5030    -0.6960    -0.2650 C.3   1 <1>   0.1570 
 10 O       -2.2980    -1.2630     3.4390 O.2   1 <1>  -0.5700 
 11 N       -2.3720    -0.3510     1.3520 N.am  1 <1>  -0.4770 
 12 C        1.4970     4.0920    -0.2660 C.ar  1 <1>  -0.1500 
 13 C        2.9020     2.1570    -1.7250 C.ar  1 <1>  -0.1500 
 14 C        1.2660    -1.4070    -0.8000 C.2   1 <1>   0.5690 
 15 C       -3.4200    -1.0670     0.7540 C.ar  1 <1>   0.1170 
 16 C       -1.7790     0.5510     0.3210 C.3   1 <1>   0.1400 
 17 C        2.1270     4.4250    -1.4450 C.ar  1 <1>  -0.1500 
 18 C        2.8260     3.4560    -2.1740 C.ar  1 <1>  -0.1500 
 19 O        0.7090    -0.8950    -1.7450 O.2   1 <1>  -0.5700 
 20 N        0.7890    -2.5680    -0.2390 N.am  1 <1>  -0.6600 
 21 C       -3.5990    -0.7010    -0.5630 C.ar  1 <1>  -0.1430 
 22 C       -4.2410    -2.0490     1.2970 C.ar  1 <1>  -0.1500 
 23 C       -2.6230     0.3790    -0.9480 C.3   1 <1>  -0.0170 
 24 C        1.5210    -3.3750     0.7890 C.3   1 <1>   0.1400 
 25 C       -0.5690    -3.0670    -0.6290 C.3   1 <1>   0.1400 
 26 C       -4.5610    -1.2910    -1.3600 C.ar  1 <1>  -0.1500 
 27 C       -5.2120    -2.6490     0.5110 C.ar  1 <1>  -0.1500 
 28 C        1.0990    -4.8460     0.7300 C.3   1 <1>  -0.1600 
 29 C       -1.2290    -3.8140     0.5330 C.3   1 <1>  -0.1600 
 30 C       -5.3720    -2.2730    -0.8140 C.ar  1 <1>  -0.1500 
 31 C       -0.4060    -5.0300     0.9880 C.3   1 <1>  -0.1600 
 32 H       -0.8550     1.4320     2.7970 H     1 <1>   0.0800 
 33 H       -0.6530     0.3830     4.1830 H     1 <1>   0.0800 
 34 H        2.9350    -1.2190     0.5630 H     1 <1>   0.0800 
 35 H        3.2310    -0.6310    -1.0490 H     1 <1>   0.0800 
 36 H        0.9520     4.8160     0.3110 H     1 <1>   0.1500 
 37 H        3.4330     1.4090    -2.2870 H     1 <1>   0.1500 
 38 H       -0.7740     0.2430     0.1120 H     1 <1>   0.0800 
 39 H       -1.7900     1.5740     0.6550 H     1 <1>   0.0800 
 40 H        2.0850     5.4350    -1.8170 H     1 <1>   0.1500 
 41 H        3.3060     3.7400    -3.0960 H     1 <1>   0.1500 
 42 H       -4.1270    -2.3490     2.3220 H     1 <1>   0.1500 
 43 H       -2.0060     0.0750    -1.7760 H     1 <1>   0.0800 
 44 H       -3.1350     1.2910    -1.1920 H     1 <1>   0.0800 
 45 H        1.3030    -2.9820     1.7680 H     1 <1>   0.0800 
 46 H        2.5820    -3.3160     0.6200 H     1 <1>   0.0800 
 47 H       -0.4730    -3.7210    -1.4780 H     1 <1>   0.0800 
 48 H       -1.1960    -2.2400    -0.9160 H     1 <1>   0.0800 
 49 H       -4.6800    -0.9920    -2.3870 H     1 <1>   0.1500 
 50 H       -5.8440    -3.4100     0.9340 H     1 <1>   0.1500 
 51 H        1.6580    -5.4140     1.4530 H     1 <1>   0.0800 
 52 H        1.3470    -5.2300    -0.2450 H     1 <1>   0.0800 
 53 H       -2.2170    -4.1280     0.2460 H     1 <1>   0.0800 
 54 H       -1.3400    -3.1280     1.3550 H     1 <1>   0.0800 
 55 H       -6.1270    -2.7440    -1.4190 H     1 <1>   0.1500 
 56 H       -0.5800    -5.1860     2.0390 H     1 <1>   0.0800 
 57 H       -0.7420    -5.9110     0.4680 H     1 <1>   0.0800 
@<TRIPOS>BOND
  1   1   2  1   
  2   1   3  1   
  3   2   4  2   
  4   2   5  1   
  5   3   6  1   
  6   3  32  1   
  7   3  33  1   
  8   4   7  1   
  9   5   8  1   
 10   5   9  1   
 11   6  10  2   
 12   6  11  am  
 13   7   8  ar  
 14   7  12  ar  
 15   8  13  ar  
 16   9  14  1   
 17   9  34  1   
 18   9  35  1   
 19  11  15  1   
 20  11  16  1   
 21  12  17  ar  
 22  12  36  1   
 23  13  18  ar  
 24  13  37  1   
 25  14  19  2   
 26  14  20  am  
 27  15  21  ar  
 28  15  22  ar  
 29  16  23  1   
 30  16  38  1   
 31  16  39  1   
 32  17  18  ar  
 33  17  40  1   
 34  18  41  1   
 35  20  24  1   
 36  20  25  1   
 37  21  23  1   
 38  21  26  ar  
 39  22  27  ar  
 40  22  42  1   
 41  23  43  1   
 42  23  44  1   
 43  24  28  1   
 44  24  45  1   
 45  24  46  1   
 46  25  29  1   
 47  25  47  1   
 48  25  48  1   
 49  26  30  ar  
 50  26  49  1   
 51  27  30  ar  
 52  27  50  1   
 53  28  31  1   
 54  28  51  1   
 55  28  52  1   
 56  29  31  1   
 57  29  53  1   
 58  29  54  1   
 59  30  55  1   
 60  31  56  1   
 61  31  57  1   
@<TRIPOS>SUBSTRUCTURE
  1 ****  16 GROUP 4 **** **** 0

# MOE 2024.06 (io_trps.svl 2023.06)
