@<TRIPOS>MOLECULE
NONAME
24 24 1 0 0 
SMALL
USER_CHARGES


@<TRIPOS>ATOM
  1 CL       1.1380    -0.3660     2.6460 Cl    1 <1>  -0.1770 
  2 C        1.6410    -1.0630     1.1200 C.ar  1 <1>   0.1770 
  3 C        0.7450    -1.1770     0.0690 C.ar  1 <1>   0.1900 
  4 C        2.9410    -1.5100     0.9720 C.ar  1 <1>  -0.1500 
  5 F       -0.4880    -0.7560     0.2100 F     1 <1>  -0.1900 
  6 C        1.1170    -1.7320    -1.1410 C.ar  1 <1>  -0.1500 
  7 C        3.3310    -2.0780    -0.2410 C.ar  1 <1>   0.0820 
  8 C        2.4190    -2.1820    -1.2860 C.ar  1 <1>  -0.1500 
  9 O        4.5740    -2.5610    -0.4900 O.3   1 <1>  -0.3630 
 10 C        5.6580    -2.4250     0.4340 C.3   1 <1>   0.0940 
 11 C        6.1160    -0.9660     0.6310 C.2   1 <1>   0.9060 
 12 C        6.8060    -3.3340    -0.0460 C.3   1 <1>  -0.1600 
 13 O        6.7060    -0.3600    -0.2750 O.co2 1 <1>  -0.9000 
 14 O        5.9200    -0.4410     1.7370 O.co2 1 <1>  -0.9000 
 15 C        6.4100    -4.8150    -0.1360 C.3   1 <1>  -0.2400 
 16 H        3.6200    -1.4020     1.7960 H     1 <1>   0.1500 
 17 H        0.4080    -1.8070    -1.9450 H     1 <1>   0.1500 
 18 H        2.7480    -2.6170    -2.2130 H     1 <1>   0.1500 
 19 H        5.3190    -2.7870     1.3850 H     1 <1>   0.0800 
 20 H        7.6270    -3.2280     0.6410 H     1 <1>   0.0800 
 21 H        7.1450    -2.9800    -1.0050 H     1 <1>   0.0800 
 22 H        6.0670    -5.1670     0.8210 H     1 <1>   0.0800 
 23 H        5.6220    -4.9470    -0.8570 H     1 <1>   0.0800 
 24 H        7.2560    -5.4030    -0.4410 H     1 <1>   0.0800 
@<TRIPOS>BOND
  1   1   2  1   
  2   2   3  ar  
  3   2   4  ar  
  4   3   5  1   
  5   3   6  ar  
  6   4   7  ar  
  7   4  16  1   
  8   6   8  ar  
  9   6  17  1   
 10   7   8  ar  
 11   7   9  1   
 12   8  18  1   
 13   9  10  1   
 14  10  11  1   
 15  10  12  1   
 16  10  19  1   
 17  11  13  ar  
 18  11  14  ar  
 19  12  15  1   
 20  12  20  1   
 21  12  21  1   
 22  15  22  1   
 23  15  23  1   
 24  15  24  1   
@<TRIPOS>SUBSTRUCTURE
  1 ****   7 GROUP 4 **** **** 0

# MOE 2024.06 (io_trps.svl 2023.06)
