@<TRIPOS>MOLECULE
NONAME
54 56 1 0 0 
SMALL
USER_CHARGES


@<TRIPOS>ATOM
  1 F       -1.8010    -2.3090    -0.8930 F     1 <1>  -0.1970 
  2 C       -1.9680    -1.4070     0.0380 C.ar  1 <1>   0.1830 
  3 C       -2.8670    -0.3740    -0.1770 C.ar  1 <1>  -0.1510 
  4 C       -1.2450    -1.5370     1.2080 C.ar  1 <1>  -0.1570 
  5 C       -3.0300     0.5650     0.8320 C.ar  1 <1>  -0.1570 
  6 C       -3.6530    -0.2660    -1.4700 C.3   1 <1>   0.4930 
  7 C       -1.4270    -0.5960     2.2050 C.ar  1 <1>  -0.1570 
  8 C       -2.3160     0.4500     2.0150 C.ar  1 <1>  -0.1570 
  9 N       -5.0060    -0.8300    -1.2450 N.pl3 1 <1>  -0.7670 
 10 C       -5.3620    -2.1080    -1.1330 C.cat 1 <1>   1.0690 
 11 C       -6.1640    -0.0590    -1.0040 C.2   1 <1>   0.2710 
 12 N       -6.6570    -2.1930    -0.8760 N.pl3 1 <1>  -0.7040 
 13 N       -4.5470    -3.1570    -1.2320 N.pl3 1 <1>  -0.7180 
 14 C       -6.4620     1.3410    -0.9310 C.2   1 <1>   0.6990 
 15 C       -7.1630    -0.9390    -0.7840 C.2   1 <1>   0.4210 
 16 C       -4.9320    -4.5940    -1.1860 C.3   1 <1>   0.1610 
 17 O       -5.5960     2.1780    -1.1270 O.2   1 <1>  -0.5740 
 18 N       -7.7640     1.7210    -0.6290 N.am  1 <1>  -0.4250 
 19 N       -8.4630    -0.5780    -0.4990 N.am  1 <1>  -0.4410 
 20 C       -5.1340    -5.0740     0.2620 C.3   1 <1>   0.1330 
 21 C       -8.7640     0.7740    -0.4250 C.2   1 <1>   0.6860 
 22 C       -8.1210     3.1720    -0.5410 C.3   1 <1>   0.0530 
 23 C       -9.4980    -1.6280    -0.2570 C.3   1 <1>   0.0530 
 24 N       -6.3060    -5.9740     0.3540 N.am  1 <1>  -0.7340 
 25 O       -9.8990     1.1330    -0.1850 O.2   1 <1>  -0.5740 
 26 C       -7.6140    -5.6340     0.2150 C.2   1 <1>   0.5650 
 27 O       -7.9360    -4.5160    -0.1250 O.2   1 <1>  -0.5740 
 28 C       -8.6860    -6.6920     0.4870 C.3   1 <1>   0.1740 
 29 O       -8.1070    -7.9230     0.8470 O.3   1 <1>  -0.5640 
 30 C       -9.0350    -8.9250     1.1150 C.3   1 <1>   0.0320 
 31 H       -0.5550    -2.3520     1.3380 H     1 <1>   0.1430 
 32 H       -3.7070     1.3960     0.7100 H     1 <1>   0.1430 
 33 H       -3.1620    -0.8000    -2.2660 H     1 <1>   0.0730 
 34 H       -3.7170     0.7650    -1.7720 H     1 <1>   0.0730 
 35 H       -0.8750    -0.6720     3.1280 H     1 <1>   0.1430 
 36 H       -2.4480     1.1830     2.7940 H     1 <1>   0.1430 
 37 H       -7.1640    -3.0700    -0.6820 H     1 <1>   0.4450 
 38 H       -3.5400    -2.9810    -1.2930 H     1 <1>   0.4450 
 39 H       -4.1650    -5.1860    -1.6560 H     1 <1>   0.0730 
 40 H       -5.8410    -4.7290    -1.7490 H     1 <1>   0.0730 
 41 H       -5.3040    -4.2360     0.9170 H     1 <1>   0.0730 
 42 H       -4.2570    -5.5990     0.6010 H     1 <1>   0.0730 
 43 H       -7.2470     3.7810    -0.3880 H     1 <1>   0.0730 
 44 H       -8.7940     3.3370     0.2830 H     1 <1>   0.0730 
 45 H       -8.6070     3.4780    -1.4510 H     1 <1>   0.0730 
 46 H       -9.4970    -2.3390    -1.0650 H     1 <1>   0.0730 
 47 H      -10.4810    -1.1960    -0.1890 H     1 <1>   0.0730 
 48 H       -9.2850    -2.1420     0.6640 H     1 <1>   0.0730 
 49 H       -6.1400    -6.9430     0.6620 H     1 <1>   0.3640 
 50 H       -9.2770    -6.8380    -0.3990 H     1 <1>   0.0730 
 51 H       -9.3160    -6.3620     1.2930 H     1 <1>   0.0730 
 52 H       -8.4980    -9.8190     1.3770 H     1 <1>   0.0730 
 53 H       -9.6300    -9.1050     0.2360 H     1 <1>   0.0730 
 54 H       -9.6590    -8.6220     1.9390 H     1 <1>   0.0730 
@<TRIPOS>BOND
  1   1   2  1   
  2   2   3  ar  
  3   2   4  ar  
  4   3   5  ar  
  5   3   6  1   
  6   4   7  ar  
  7   4  31  1   
  8   5   8  ar  
  9   5  32  1   
 10   6   9  1   
 11   6  33  1   
 12   6  34  1   
 13   7   8  ar  
 14   7  35  1   
 15   8  36  1   
 16   9  10  ar  
 17   9  11  1   
 18  10  12  ar  
 19  10  13  ar  
 20  11  14  1   
 21  11  15  2   
 22  12  15  1   
 23  12  37  1   
 24  13  16  1   
 25  13  38  1   
 26  14  17  2   
 27  14  18  am  
 28  15  19  1   
 29  16  20  1   
 30  16  39  1   
 31  16  40  1   
 32  18  21  am  
 33  18  22  1   
 34  19  21  am  
 35  19  23  1   
 36  20  24  1   
 37  20  41  1   
 38  20  42  1   
 39  21  25  2   
 40  22  43  1   
 41  22  44  1   
 42  22  45  1   
 43  23  46  1   
 44  23  47  1   
 45  23  48  1   
 46  24  26  am  
 47  24  49  1   
 48  26  27  2   
 49  26  28  1   
 50  28  29  1   
 51  28  50  1   
 52  28  51  1   
 53  29  30  1   
 54  30  52  1   
 55  30  53  1   
 56  30  54  1   
@<TRIPOS>SUBSTRUCTURE
  1 ****  10 GROUP 4 **** **** 0

# MOE 2024.06 (io_trps.svl 2023.06)
