@<TRIPOS>MOLECULE
ka-00649
23 23 1 0 0 
SMALL
USER_CHARGES


@<TRIPOS>ATOM
  1 O       -0.0310     0.9560     1.3170 O.2   1 <1>  -0.5700 
  2 C        1.0910     1.2080     0.9330 C.2   1 <1>   0.8410 
  3 N        1.4370     2.5090     0.7190 N.am  1 <1>  -0.5390 
  4 N        2.0060     0.2180     0.7130 N.2   1 <1>  -0.6610 
  5 C        2.6690     2.8910     0.2950 C.2   1 <1>  -0.0290 
  6 C        3.1730     0.5690     0.3010 C.2   1 <1>   0.3760 
  7 C        3.6000     1.9060     0.0520 C.2   1 <1>   0.0290 
  8 C        2.8810     4.3900     0.1410 C.3   1 <1>  -0.1020 
  9 C        4.9370     2.1000    -0.4370 C.2   1 <1>   0.7060 
 10 O        5.2780     3.0550    -1.1050 O.2   1 <1>  -0.5700 
 11 O        5.8510     1.1680    -0.1400 O.3   1 <1>  -0.4300 
 12 C        7.2060     1.2590    -0.5340 C.3   1 <1>   0.1200 
 13 C        7.9640     2.0980     0.4930 C.3   1 <1>  -0.2400 
 14 H        0.6800     3.1630     0.9140 H     1 <1>   0.3700 
 15 H        3.8840    -0.2180     0.1230 H     1 <1>   0.0600 
 16 H        2.3440     4.9250     0.9040 H     1 <1>   0.0800 
 17 H        2.5260     4.7120    -0.8220 H     1 <1>   0.0800 
 18 H        3.9180     4.6560     0.2310 H     1 <1>   0.0800 
 19 H        7.2670     1.6890    -1.5200 H     1 <1>   0.0800 
 20 H        7.6040     0.2590    -0.5650 H     1 <1>   0.0800 
 21 H        7.5830     3.1030     0.5120 H     1 <1>   0.0800 
 22 H        9.0050     2.1380     0.2270 H     1 <1>   0.0800 
 23 H        7.8790     1.6590     1.4710 H     1 <1>   0.0800 
@<TRIPOS>BOND
  1   1   2  2   
  2   2   3  am  
  3   2   4  1   
  4   3   5  1   
  5   3  14  1   
  6   4   6  2   
  7   5   7  2   
  8   5   8  1   
  9   6   7  1   
 10   6  15  1   
 11   7   9  1   
 12   8  16  1   
 13   8  17  1   
 14   8  18  1   
 15   9  10  2   
 16   9  11  1   
 17  11  12  1   
 18  12  13  1   
 19  12  19  1   
 20  12  20  1   
 21  13  21  1   
 22  13  22  1   
 23  13  23  1   
@<TRIPOS>SUBSTRUCTURE
  1 ****   7 GROUP 4 **** **** 0

# MOE 2024.06 (io_trps.svl 2023.06)
