@<TRIPOS>MOLECULE
1-[2-(2-Methyl-piperidin-1-yl)-2-oxo-ethyl]-3-phenethyl-1H-thieno[3,2-d]pyrimidi
54 57 1 0 0 
SMALL
USER_CHARGES


@<TRIPOS>ATOM
  1 S        1.4270    -1.2240    -3.6300 S.3   1 <1>  -0.0800 
  2 C        2.3630    -1.2970    -2.1310 C.2   1 <1>  -0.0450 
  3 C        0.1600    -2.2220    -2.9350 C.2   1 <1>  -0.1100 
  4 C        3.6210    -0.6830    -1.9050 C.2   1 <1>   0.7150 
  5 C        1.7110    -2.0380    -1.2060 C.2   1 <1>   0.0630 
  6 C        0.4590    -2.5620    -1.6660 C.2   1 <1>  -0.1500 
  7 O        4.1870    -0.0040    -2.7450 O.2   1 <1>  -0.5700 
  8 N        4.1960    -0.8830    -0.6620 N.am  1 <1>  -0.4200 
  9 N        2.3090    -2.2100     0.0440 N.am  1 <1>  -0.4230 
 10 C        3.5380    -1.6190     0.3140 C.2   1 <1>   0.6900 
 11 C        5.5380    -0.2990    -0.3690 C.3   1 <1>   0.1400 
 12 C        1.6750    -3.1270     1.0500 C.3   1 <1>   0.2010 
 13 O        4.0450    -1.7480     1.4140 O.2   1 <1>  -0.5700 
 14 C        5.3940     1.1020     0.2290 C.3   1 <1>  -0.0160 
 15 C        1.6940    -4.5880     0.5950 C.2   1 <1>   0.5690 
 16 C        6.7670     1.6630     0.5560 C.ar  1 <1>  -0.1440 
 17 O        0.6300    -5.1620     0.5680 O.2   1 <1>  -0.5700 
 18 N        2.8280    -5.1850     0.1020 N.am  1 <1>  -0.6600 
 19 C        7.4650     2.3980    -0.3890 C.ar  1 <1>  -0.1500 
 20 C        7.3360     1.4360     1.7990 C.ar  1 <1>  -0.1500 
 21 C        4.1970    -5.0980     0.7140 C.3   1 <1>   0.2200 
 22 C        2.7560    -5.6220    -1.3230 C.3   1 <1>   0.1400 
 23 C        8.7200     2.9020    -0.0940 C.ar  1 <1>  -0.1500 
 24 C        8.5900     1.9400     2.0960 C.ar  1 <1>  -0.1500 
 25 C        5.0390    -6.3370     0.3530 C.3   1 <1>  -0.1600 
 26 C        4.1340    -5.0280     2.2450 C.3   1 <1>  -0.2400 
 27 C        3.5820    -6.8780    -1.5860 C.3   1 <1>  -0.1600 
 28 C        9.2830     2.6740     1.1490 C.ar  1 <1>  -0.1500 
 29 C        5.0280    -6.6720    -1.1390 C.3   1 <1>  -0.1600 
 30 H       -0.6870    -2.4520    -3.5580 H     1 <1>   0.1500 
 31 H       -0.1690    -3.1720    -1.0390 H     1 <1>   0.1500 
 32 H        6.1230    -0.2460    -1.2710 H     1 <1>   0.0800 
 33 H        6.0710    -0.9310     0.3210 H     1 <1>   0.0800 
 34 H        0.6500    -2.8310     1.1720 H     1 <1>   0.0800 
 35 H        2.1320    -3.0300     2.0120 H     1 <1>   0.0800 
 36 H        4.8040     1.0560     1.1280 H     1 <1>   0.0800 
 37 H        4.8980     1.7490    -0.4730 H     1 <1>   0.0800 
 38 H        7.0360     2.5810    -1.3600 H     1 <1>   0.1500 
 39 H        6.8060     0.8650     2.5420 H     1 <1>   0.1500 
 40 H        4.6940    -4.2230     0.3300 H     1 <1>   0.0800 
 41 H        3.1180    -4.8210    -1.9450 H     1 <1>   0.0800 
 42 H        1.7310    -5.8120    -1.5970 H     1 <1>   0.0800 
 43 H        9.2570     3.4730    -0.8310 H     1 <1>   0.1500 
 44 H        9.0270     1.7610     3.0630 H     1 <1>   0.1500 
 45 H        4.6640    -7.1860     0.9000 H     1 <1>   0.0800 
 46 H        6.0550    -6.1770     0.6670 H     1 <1>   0.0800 
 47 H        3.4760    -5.7870     2.6310 H     1 <1>   0.0800 
 48 H        3.8200    -4.0660     2.5890 H     1 <1>   0.0800 
 49 H        5.1130    -5.1900     2.6590 H     1 <1>   0.0800 
 50 H        3.5550    -7.1070    -2.6360 H     1 <1>   0.0800 
 51 H        3.1410    -7.7050    -1.0560 H     1 <1>   0.0800 
 52 H       10.2590     3.0660     1.3790 H     1 <1>   0.1500 
 53 H        5.5960    -7.5690    -1.3160 H     1 <1>   0.0800 
 54 H        5.4770    -5.8700    -1.6990 H     1 <1>   0.0800 
@<TRIPOS>BOND
  1   1   2  1   
  2   1   3  1   
  3   2   4  1   
  4   2   5  2   
  5   3   6  2   
  6   3  30  1   
  7   4   7  2   
  8   4   8  am  
  9   5   6  1   
 10   5   9  1   
 11   6  31  1   
 12   8  10  am  
 13   8  11  1   
 14   9  10  am  
 15   9  12  1   
 16  10  13  2   
 17  11  14  1   
 18  11  32  1   
 19  11  33  1   
 20  12  15  1   
 21  12  34  1   
 22  12  35  1   
 23  14  16  1   
 24  14  36  1   
 25  14  37  1   
 26  15  17  2   
 27  15  18  am  
 28  16  19  ar  
 29  16  20  ar  
 30  18  21  1   
 31  18  22  1   
 32  19  23  ar  
 33  19  38  1   
 34  20  24  ar  
 35  20  39  1   
 36  21  25  1   
 37  21  26  1   
 38  21  40  1   
 39  22  27  1   
 40  22  41  1   
 41  22  42  1   
 42  23  28  ar  
 43  23  43  1   
 44  24  28  ar  
 45  24  44  1   
 46  25  29  1   
 47  25  45  1   
 48  25  46  1   
 49  26  47  1   
 50  26  48  1   
 51  26  49  1   
 52  27  29  1   
 53  27  50  1   
 54  27  51  1   
 55  28  52  1   
 56  29  53  1   
 57  29  54  1   
@<TRIPOS>SUBSTRUCTURE
  1 ****  10 GROUP 4 **** **** 0

# MOE 2024.06 (io_trps.svl 2023.06)
