@<TRIPOS>MOLECULE
NONAME
28 28 1 0 0 
SMALL
USER_CHARGES


@<TRIPOS>ATOM
  1 O        0.1760    -1.1610     1.9870 O.2   1 <1>  -0.5700 
  2 C        0.1450    -1.6520     0.8900 C.2   1 <1>   0.6590 
  3 O        1.2340    -1.6280     0.1230 O.3   1 <1>  -0.4300 
  4 C       -1.1490    -2.2660     0.3670 C.3   1 <1>   0.0440 
  5 C        1.4300    -2.3840    -1.0540 C.3   1 <1>   0.0400 
  6 C       -1.0860    -3.7820     0.2090 C.ar  1 <1>  -0.1440 
  7 C       -0.6470    -4.5750     1.2600 C.ar  1 <1>  -0.1500 
  8 C       -1.4620    -4.3830    -0.9830 C.ar  1 <1>  -0.1500 
  9 C       -0.5740    -5.9500     1.1220 C.ar  1 <1>  -0.1500 
 10 C       -1.3900    -5.7580    -1.1230 C.ar  1 <1>  -0.1500 
 11 C       -0.9450    -6.5500    -0.0780 C.ar  1 <1>   0.0830 
 12 O       -0.9020    -7.8870    -0.3010 O.3   1 <1>  -0.3630 
 13 C       -0.4880    -8.7830     0.7030 C.3   1 <1>   0.1200 
 14 C       -0.5660   -10.1970     0.1340 C.3   1 <1>  -0.2400 
 15 H       -1.3950    -1.7980    -0.5670 H     1 <1>   0.0800 
 16 H       -1.9360    -2.0310     1.0590 H     1 <1>   0.0800 
 17 H        2.4000    -2.1390    -1.4500 H     1 <1>   0.0800 
 18 H        0.6700    -2.1340    -1.7720 H     1 <1>   0.0800 
 19 H        1.3950    -3.4310    -0.8080 H     1 <1>   0.0800 
 20 H       -0.3570    -4.1240     2.1960 H     1 <1>   0.1500 
 21 H       -1.8150    -3.7920    -1.8090 H     1 <1>   0.1500 
 22 H       -0.2280    -6.5310     1.9540 H     1 <1>   0.1500 
 23 H       -1.6800    -6.2280    -2.0450 H     1 <1>   0.1500 
 24 H       -1.1460    -8.6760     1.5480 H     1 <1>   0.0800 
 25 H        0.5230    -8.5410     0.9810 H     1 <1>   0.0800 
 26 H       -1.5760   -10.4230    -0.1560 H     1 <1>   0.0800 
 27 H       -0.2550   -10.9070     0.8780 H     1 <1>   0.0800 
 28 H        0.0820   -10.2880    -0.7200 H     1 <1>   0.0800 
@<TRIPOS>BOND
  1   1   2  2   
  2   2   3  1   
  3   2   4  1   
  4   3   5  1   
  5   4   6  1   
  6   4  15  1   
  7   4  16  1   
  8   5  17  1   
  9   5  18  1   
 10   5  19  1   
 11   6   7  ar  
 12   6   8  ar  
 13   7   9  ar  
 14   7  20  1   
 15   8  10  ar  
 16   8  21  1   
 17   9  11  ar  
 18   9  22  1   
 19  10  11  ar  
 20  10  23  1   
 21  11  12  1   
 22  12  13  1   
 23  13  14  1   
 24  13  24  1   
 25  13  25  1   
 26  14  26  1   
 27  14  27  1   
 28  14  28  1   
@<TRIPOS>SUBSTRUCTURE
  1 ****   7 GROUP 4 **** **** 0

# MOE 2024.06 (io_trps.svl 2023.06)
