@<TRIPOS>MOLECULE
ka-01215
18 17 1 0 0 
SMALL
USER_CHARGES


@<TRIPOS>ATOM
  1 S       -0.6880    -0.7020    -1.9320 S.2   1 <1>  -0.2860 
  2 P       -2.0020    -1.2800    -0.7390 P.3   1 <1>   0.5710 
  3 O       -2.4060    -2.8920    -0.4960 O.3   1 <1>  -0.3370 
  4 O       -2.9200    -0.2510     0.2180 O.3   1 <1>  -0.3370 
  5 C       -1.3490    -3.6120     0.0940 C.3   1 <1>   0.1790 
  6 C       -3.7740     0.5590    -0.5560 C.3   1 <1>   0.1790 
  7 C       -1.8060    -5.0630     0.2480 C.3   1 <1>  -0.1880 
  8 C       -4.5410     1.4720     0.4020 C.3   1 <1>  -0.1880 
  9 H       -1.1210    -3.1750     1.0540 H     1 <1>   0.1410 
 10 H       -0.4830    -3.5500    -0.5480 H     1 <1>   0.1410 
 11 H       -4.4500    -0.0750    -1.1090 H     1 <1>   0.1410 
 12 H       -3.1760     1.1400    -1.2420 H     1 <1>   0.1410 
 13 H       -2.6760    -5.1170     0.8790 H     1 <1>   0.1410 
 14 H       -1.0260    -5.6540     0.6960 H     1 <1>   0.1410 
 15 H       -2.0410    -5.4850    -0.7140 H     1 <1>   0.1410 
 16 H       -5.1240     0.8860     1.0910 H     1 <1>   0.1410 
 17 H       -5.2080     2.1120    -0.1480 H     1 <1>   0.1410 
 18 H       -3.8570     2.0910     0.9560 H     1 <1>   0.1410 
@<TRIPOS>BOND
  1   1   2  2   
  2   2   3  1   
  3   2   4  1   
  4   3   5  1   
  5   4   6  1   
  6   5   7  1   
  7   5   9  1   
  8   5  10  1   
  9   6   8  1   
 10   6  11  1   
 11   6  12  1   
 12   7  13  1   
 13   7  14  1   
 14   7  15  1   
 15   8  16  1   
 16   8  17  1   
 17   8  18  1   
@<TRIPOS>SUBSTRUCTURE
  1 ****   2 GROUP 4 **** **** 0

# MOE 2024.06 (io_trps.svl 2023.06)
