@<TRIPOS>MOLECULE
1-Pyrazin-2-yl-piperidine-4-carboxylic acid (3,5-dimethoxy-phenyl)-amide
47 49 1 0 0 
SMALL
USER_CHARGES


@<TRIPOS>ATOM
  1 O       -0.5490    -0.5640     1.1780 O.2   1 <1>  -0.5700 
  2 C       -0.7590    -1.3310     0.2700 C.2   1 <1>   0.5690 
  3 N        0.2310    -2.0080    -0.3890 N.am  1 <1>  -0.5470 
  4 C       -2.1960    -1.5980    -0.1760 C.3   1 <1>  -0.0190 
  5 C        1.6260    -1.9930    -0.2310 C.ar  1 <1>   0.1170 
  6 C       -3.1320    -0.3940     0.0560 C.3   1 <1>  -0.1600 
  7 C       -2.7680    -2.8420     0.5290 C.3   1 <1>  -0.1600 
  8 C        2.3180    -0.9350     0.3460 C.ar  1 <1>  -0.1500 
  9 C        2.3530    -3.0820    -0.6910 C.ar  1 <1>  -0.1500 
 10 C       -4.5630    -0.7020    -0.3860 C.3   1 <1>   0.2090 
 11 C       -4.2030    -3.1290     0.0840 C.3   1 <1>   0.2090 
 12 C        3.6970    -0.9610     0.4670 C.ar  1 <1>   0.0820 
 13 C        3.7310    -3.1260    -0.5790 C.ar  1 <1>   0.0820 
 14 N       -5.0420    -1.9230     0.3060 N.pl3 1 <1>  -0.8380 
 15 O        4.2760     0.1220     1.0440 O.3   1 <1>  -0.3630 
 16 C        4.4110    -2.0620     0.0030 C.ar  1 <1>  -0.1500 
 17 O        4.3390    -4.2400    -1.0610 O.3   1 <1>  -0.3620 
 18 C       -6.4140    -2.0930     0.3900 C.ar  1 <1>   0.4100 
 19 C        5.6670     0.1850     1.2700 C.3   1 <1>   0.0400 
 20 C        5.7370    -4.4070    -0.9830 C.3   1 <1>   0.0400 
 21 N       -6.9560    -3.0070    -0.4070 N.ar  1 <1>  -0.6200 
 22 C       -7.1830    -1.3140     1.2720 C.ar  1 <1>   0.1600 
 23 C       -8.2690    -3.0810    -0.2690 C.ar  1 <1>   0.1600 
 24 N       -8.4950    -1.3830     1.4070 N.ar  1 <1>  -0.6200 
 25 C       -9.0140    -2.3000     0.6030 C.ar  1 <1>   0.1600 
 26 H       -0.0990    -2.6790    -1.0790 H     1 <1>   0.3700 
 27 H       -2.1780    -1.7900    -1.2340 H     1 <1>   0.0800 
 28 H       -2.7660     0.4600    -0.4850 H     1 <1>   0.0800 
 29 H       -3.1440    -0.1360     1.1020 H     1 <1>   0.0800 
 30 H       -2.7610    -2.6890     1.5940 H     1 <1>   0.0800 
 31 H       -2.1570    -3.7010     0.3180 H     1 <1>   0.0800 
 32 H        1.7910    -0.0720     0.7090 H     1 <1>   0.1500 
 33 H        1.8500    -3.9160    -1.1420 H     1 <1>   0.1500 
 34 H       -4.5970    -0.8630    -1.4510 H     1 <1>   0.0800 
 35 H       -5.2040     0.1310    -0.1500 H     1 <1>   0.0800 
 36 H       -4.6040    -3.9540     0.6490 H     1 <1>   0.0800 
 37 H       -4.2290    -3.3910    -0.9610 H     1 <1>   0.0800 
 38 H        5.4760    -2.0880     0.0930 H     1 <1>   0.1500 
 39 H        5.8830     1.1200     1.7540 H     1 <1>   0.0800 
 40 H        6.1760     0.1380     0.3240 H     1 <1>   0.0800 
 41 H        5.9540    -0.6320     1.9070 H     1 <1>   0.0800 
 42 H        5.9840    -5.3590    -1.4160 H     1 <1>   0.0800 
 43 H        6.0340    -4.3880     0.0510 H     1 <1>   0.0800 
 44 H        6.2150    -3.6190    -1.5370 H     1 <1>   0.0800 
 45 H       -6.6540    -0.6080     1.8850 H     1 <1>   0.1500 
 46 H       -8.7830    -3.8000    -0.8810 H     1 <1>   0.1500 
 47 H      -10.0810    -2.4350     0.6410 H     1 <1>   0.1500 
@<TRIPOS>BOND
  1   1   2  2   
  2   2   3  am  
  3   2   4  1   
  4   3   5  1   
  5   3  26  1   
  6   4   6  1   
  7   4   7  1   
  8   4  27  1   
  9   5   8  ar  
 10   5   9  ar  
 11   6  10  1   
 12   6  28  1   
 13   6  29  1   
 14   7  11  1   
 15   7  30  1   
 16   7  31  1   
 17   8  12  ar  
 18   8  32  1   
 19   9  13  ar  
 20   9  33  1   
 21  10  14  1   
 22  10  34  1   
 23  10  35  1   
 24  11  14  1   
 25  11  36  1   
 26  11  37  1   
 27  12  15  1   
 28  12  16  ar  
 29  13  16  ar  
 30  13  17  1   
 31  14  18  1   
 32  15  19  1   
 33  16  38  1   
 34  17  20  1   
 35  18  21  ar  
 36  18  22  ar  
 37  19  39  1   
 38  19  40  1   
 39  19  41  1   
 40  20  42  1   
 41  20  43  1   
 42  20  44  1   
 43  21  23  ar  
 44  22  24  ar  
 45  22  45  1   
 46  23  25  ar  
 47  23  46  1   
 48  24  25  ar  
 49  25  47  1   
@<TRIPOS>SUBSTRUCTURE
  1 ****   2 GROUP 4 **** **** 0

# MOE 2024.06 (io_trps.svl 2023.06)
