@<TRIPOS>MOLECULE
NONAME
38 41 1 0 0 
SMALL
USER_CHARGES


@<TRIPOS>ATOM
  1 S       -0.1140    -0.2010     0.0870 S.3   1 <1>  -0.0800 
  2 C        1.6240     0.0600     0.0420 C.2   1 <1>   0.1660 
  3 C       -0.4010     1.5330     0.0610 C.2   1 <1>  -0.1400 
  4 N        2.5150    -0.9720     0.0360 N.2   1 <1>  -0.5760 
  5 C        1.9220     1.3910     0.0140 C.2   1 <1>  -0.0010 
  6 C        0.7500     2.2230     0.0350 C.2   1 <1>  -0.1810 
  7 C       -1.8100     2.0830     0.0730 C.3   1 <1>   0.0200 
  8 C        3.7600    -0.6320    -0.0030 C.2   1 <1>   0.3980 
  9 C        3.3030     1.7300    -0.0330 C.2   1 <1>   0.1870 
 10 C        0.7710     3.7430     0.0220 C.3   1 <1>   0.0210 
 11 C       -1.7730     3.5770    -0.3110 C.3   1 <1>  -0.0800 
 12 N        4.1960     0.7060    -0.0390 N.pl3 1 <1>   0.2940 
 13 C        4.7850    -1.7520    -0.0110 C.3   1 <1>  -0.1790 
 14 N        3.8940     2.8950    -0.0750 N.2   1 <1>  -0.3380 
 15 C       -0.6130     4.3150     0.3950 C.3   1 <1>  -0.1600 
 16 C       -3.1150     4.2520     0.0000 C.3   1 <1>  -0.2400 
 17 C        5.3490     1.3870    -0.0860 C.2   1 <1>   0.2430 
 18 N        5.2030     2.6680    -0.1080 N.2   1 <1>  -0.3380 
 19 S        6.9590     0.5860    -0.1170 S.3   1 <1>  -0.2860 
 20 C        8.1780     1.9910    -0.1710 C.3   1 <1>  -0.0360 
 21 C        9.6040     1.4830    -0.1870 C.2   1 <1>   0.9060 
 22 O       10.1510     1.2810    -1.2770 O.co2 1 <1>  -0.9000 
 23 O       10.1880     1.3170     0.8900 O.co2 1 <1>  -0.9000 
 24 H       -2.2190     1.9550     1.0590 H     1 <1>   0.0800 
 25 H       -2.4210     1.5400    -0.6260 H     1 <1>   0.0800 
 26 H        1.0520     4.0750    -0.9620 H     1 <1>   0.0800 
 27 H        1.5040     4.1070     0.7200 H     1 <1>   0.0800 
 28 H       -1.6030     3.6400    -1.3740 H     1 <1>   0.0800 
 29 H        5.3780    -1.7080    -0.9060 H     1 <1>   0.0800 
 30 H        4.2940    -2.7080     0.0210 H     1 <1>   0.0800 
 31 H        5.4270    -1.6750     0.8480 H     1 <1>   0.0800 
 32 H       -0.6340     5.3620     0.1470 H     1 <1>   0.0800 
 33 H       -0.7440     4.2280     1.4600 H     1 <1>   0.0800 
 34 H       -3.3170     4.2260     1.0560 H     1 <1>   0.0800 
 35 H       -3.9140     3.7490    -0.5160 H     1 <1>   0.0800 
 36 H       -3.0990     5.2780    -0.3220 H     1 <1>   0.0800 
 37 H        8.0180     2.5940     0.7010 H     1 <1>   0.0800 
 38 H        7.9840     2.5560    -1.0610 H     1 <1>   0.0800 
@<TRIPOS>BOND
  1   1   2  1   
  2   1   3  1   
  3   2   4  1   
  4   2   5  2   
  5   3   6  2   
  6   3   7  1   
  7   4   8  2   
  8   5   6  1   
  9   5   9  1   
 10   6  10  1   
 11   7  11  1   
 12   7  24  1   
 13   7  25  1   
 14   8  12  1   
 15   8  13  1   
 16   9  12  1   
 17   9  14  2   
 18  10  15  1   
 19  10  26  1   
 20  10  27  1   
 21  11  15  1   
 22  11  16  1   
 23  11  28  1   
 24  12  17  1   
 25  13  29  1   
 26  13  30  1   
 27  13  31  1   
 28  14  18  1   
 29  15  32  1   
 30  15  33  1   
 31  16  34  1   
 32  16  35  1   
 33  16  36  1   
 34  17  18  2   
 35  17  19  1   
 36  19  20  1   
 37  20  21  1   
 38  20  37  1   
 39  20  38  1   
 40  21  22  ar  
 41  21  23  ar  
@<TRIPOS>SUBSTRUCTURE
  1 ****   9 GROUP 4 **** **** 0

# MOE 2024.06 (io_trps.svl 2023.06)
