@<TRIPOS>MOLECULE
NONAME
41 44 1 0 0 
SMALL
USER_CHARGES


@<TRIPOS>ATOM
  1 S       -0.3670    -0.0760    -1.0590 S.3   1 <1>  -0.0800 
  2 C       -1.3140    -1.3630    -0.3110 C.2   1 <1>   0.4420 
  3 C        1.0710    -0.6850    -0.2730 C.ar  1 <1>   0.0400 
  4 N       -0.6320    -2.1470     0.4330 N.2   1 <1>  -0.5650 
  5 N       -2.6550    -1.3640    -0.6170 N.am  1 <1>  -0.4940 
  6 C        0.7060    -1.7900     0.4720 C.ar  1 <1>   0.2270 
  7 C        2.3630    -0.1980    -0.3410 C.ar  1 <1>  -0.1500 
  8 C       -3.6510    -2.2010    -0.1980 C.2   1 <1>   0.5690 
  9 C        1.6950    -2.4470     1.1920 C.ar  1 <1>  -0.1500 
 10 C        3.3360    -0.8670     0.3840 C.ar  1 <1>  -0.1500 
 11 O       -3.4670    -3.1400     0.5330 O.2   1 <1>  -0.5700 
 12 C       -5.0610    -1.9010    -0.7150 C.3   1 <1>  -0.0190 
 13 C        3.0020    -1.9850     1.1450 C.ar  1 <1>  -0.1500 
 14 C       -5.6100    -0.5920    -0.1120 C.3   1 <1>  -0.1600 
 15 C       -6.0590    -3.0480    -0.4510 C.3   1 <1>  -0.1600 
 16 C       -7.0140    -0.2680    -0.6270 C.3   1 <1>   0.2090 
 17 C       -7.4580    -2.7130    -0.9700 C.3   1 <1>   0.2090 
 18 N       -7.9100    -1.4270    -0.3720 N.pl3 1 <1>  -0.8380 
 19 C       -9.0650    -1.3200     0.3800 C.ar  1 <1>   0.7200 
 20 N       -9.5990    -2.4490     0.8450 N.ar  1 <1>  -0.6200 
 21 N       -9.5520    -0.0940     0.5750 N.ar  1 <1>  -0.6200 
 22 C      -10.6920    -2.3310     1.5570 C.ar  1 <1>   0.1600 
 23 C      -10.6470    -0.0060     1.2890 C.ar  1 <1>   0.1600 
 24 C      -11.2680    -1.1120     1.8130 C.ar  1 <1>  -0.1500 
 25 H       -2.9420    -0.6140    -1.2360 H     1 <1>   0.3700 
 26 H        2.5970     0.6660    -0.9360 H     1 <1>   0.1500 
 27 H        1.4250    -3.3080     1.7750 H     1 <1>   0.1500 
 28 H        4.3560    -0.5240     0.3600 H     1 <1>   0.1500 
 29 H       -4.9900    -1.7780    -1.7810 H     1 <1>   0.0800 
 30 H        3.7670    -2.4960     1.7040 H     1 <1>   0.1500 
 31 H       -4.9610     0.2320    -0.3440 H     1 <1>   0.0800 
 32 H       -5.6540    -0.6810     0.9600 H     1 <1>   0.0800 
 33 H       -6.1270    -3.2400     0.6060 H     1 <1>   0.0800 
 34 H       -5.7120    -3.9490    -0.9230 H     1 <1>   0.0800 
 35 H       -6.9900    -0.0740    -1.6860 H     1 <1>   0.0800 
 36 H       -7.3680     0.6220    -0.1360 H     1 <1>   0.0800 
 37 H       -8.1290    -3.5210    -0.7360 H     1 <1>   0.0800 
 38 H       -7.4370    -2.6100    -2.0410 H     1 <1>   0.0800 
 39 H      -11.1390    -3.2300     1.9460 H     1 <1>   0.1500 
 40 H      -11.0590     0.9740     1.4600 H     1 <1>   0.1500 
 41 H      -12.1640    -1.0270     2.3970 H     1 <1>   0.1500 
@<TRIPOS>BOND
  1   1   2  1   
  2   1   3  1   
  3   2   4  2   
  4   2   5  1   
  5   3   6  ar  
  6   3   7  ar  
  7   4   6  1   
  8   5   8  am  
  9   5  25  1   
 10   6   9  ar  
 11   7  10  ar  
 12   7  26  1   
 13   8  11  2   
 14   8  12  1   
 15   9  13  ar  
 16   9  27  1   
 17  10  13  ar  
 18  10  28  1   
 19  12  14  1   
 20  12  15  1   
 21  12  29  1   
 22  13  30  1   
 23  14  16  1   
 24  14  31  1   
 25  14  32  1   
 26  15  17  1   
 27  15  33  1   
 28  15  34  1   
 29  16  18  1   
 30  16  35  1   
 31  16  36  1   
 32  17  18  1   
 33  17  37  1   
 34  17  38  1   
 35  18  19  1   
 36  19  20  ar  
 37  19  21  ar  
 38  20  22  ar  
 39  21  23  ar  
 40  22  24  ar  
 41  22  39  1   
 42  23  24  ar  
 43  23  40  1   
 44  24  41  1   
@<TRIPOS>SUBSTRUCTURE
  1 ****   8 GROUP 4 **** **** 0

# MOE 2024.06 (io_trps.svl 2023.06)
