@<TRIPOS>MOLECULE
NONAME
43 45 1 0 0 
SMALL
USER_CHARGES


@<TRIPOS>ATOM
  1 O        0.9830    -0.8910    -0.0980 O.2   1 <1>  -0.5700 
  2 C        0.4640    -1.7860     0.5390 C.2   1 <1>   0.5440 
  3 N        1.1830    -2.3110     1.5790 N.am  1 <1>  -0.7300 
  4 C       -0.8470    -2.3010     0.1790 C.ar  1 <1>   0.0860 
  5 C        2.3580    -1.6730     2.2500 C.3   1 <1>   0.1400 
  6 C       -1.6750    -2.9530     1.0970 C.ar  1 <1>  -0.1500 
  7 C       -1.3400    -2.1550    -1.1180 C.ar  1 <1>  -0.1500 
  8 C        3.6860    -1.9500     1.5140 C.3   1 <1>   0.3430 
  9 C       -2.9160    -3.4440     0.7350 C.ar  1 <1>  -0.1500 
 10 C       -2.5780    -2.6440    -1.4860 C.ar  1 <1>  -0.1500 
 11 N        3.6870    -1.3530     0.1480 N.4   1 <1>  -0.9590 
 12 C       -3.3890    -3.3030    -0.5680 C.ar  1 <1>  -0.0230 
 13 C        4.4250    -2.1830    -0.8410 C.3   1 <1>   0.3430 
 14 C        4.1170     0.0730     0.1440 C.3   1 <1>   0.3430 
 15 N       -4.6660    -3.8080    -0.9550 N.pl3 1 <1>   0.5930 
 16 C        4.2110    -1.6190    -2.2460 C.3   1 <1>  -0.1600 
 17 C        3.9100     0.6720    -1.2490 C.3   1 <1>  -0.1600 
 18 N       -5.4400    -3.2780    -1.8900 N.2   1 <1>  -0.4180 
 19 C       -5.3210    -4.8680    -0.4980 C.2   1 <1>   0.0360 
 20 C        4.6220    -0.1440    -2.3350 C.3   1 <1>  -0.1600 
 21 N       -6.4980    -4.0020    -1.9610 N.2   1 <1>   0.0000 
 22 N       -6.4400    -5.0050    -1.0940 N.2   1 <1>  -0.3380 
 23 H        0.7790    -3.1100     2.0780 H     1 <1>   0.3700 
 24 H        2.4300    -2.0530     3.2550 H     1 <1>   0.0800 
 25 H        2.1970    -0.6100     2.3170 H     1 <1>   0.0800 
 26 H       -1.3530    -3.0690     2.1160 H     1 <1>   0.1500 
 27 H       -0.7390    -1.6440    -1.8530 H     1 <1>   0.1500 
 28 H        3.8140    -3.0180     1.4460 H     1 <1>   0.0800 
 29 H        4.5090    -1.5540     2.0850 H     1 <1>   0.0800 
 30 H       -3.5210    -3.9320     1.4810 H     1 <1>   0.1500 
 31 H       -2.9200    -2.5070    -2.5010 H     1 <1>   0.1500 
 32 H        2.6870    -1.3290    -0.1500 H     1 <1>   0.4500 
 33 H        4.0690    -3.2000    -0.8070 H     1 <1>   0.0800 
 34 H        5.4780    -2.1800    -0.6070 H     1 <1>   0.0800 
 35 H        5.1580     0.1420     0.4150 H     1 <1>   0.0800 
 36 H        3.5370     0.6350     0.8580 H     1 <1>   0.0800 
 37 H        3.1730    -1.7250    -2.5150 H     1 <1>   0.0800 
 38 H        4.7870    -2.1950    -2.9500 H     1 <1>   0.0800 
 39 H        4.2820     1.6820    -1.2580 H     1 <1>   0.0800 
 40 H        2.8550     0.7170    -1.4580 H     1 <1>   0.0800 
 41 H       -4.9380    -5.5120     0.2690 H     1 <1>   0.1500 
 42 H        4.3720     0.2470    -3.3080 H     1 <1>   0.0800 
 43 H        5.6890    -0.0580    -2.2110 H     1 <1>   0.0800 
@<TRIPOS>BOND
  1   1   2  2   
  2   2   3  am  
  3   2   4  1   
  4   3   5  1   
  5   3  23  1   
  6   4   6  ar  
  7   4   7  ar  
  8   5   8  1   
  9   5  24  1   
 10   5  25  1   
 11   6   9  ar  
 12   6  26  1   
 13   7  10  ar  
 14   7  27  1   
 15   8  11  1   
 16   8  28  1   
 17   8  29  1   
 18   9  12  ar  
 19   9  30  1   
 20  10  12  ar  
 21  10  31  1   
 22  11  13  1   
 23  11  14  1   
 24  11  32  1   
 25  12  15  1   
 26  13  16  1   
 27  13  33  1   
 28  13  34  1   
 29  14  17  1   
 30  14  35  1   
 31  14  36  1   
 32  15  18  1   
 33  15  19  1   
 34  16  20  1   
 35  16  37  1   
 36  16  38  1   
 37  17  20  1   
 38  17  39  1   
 39  17  40  1   
 40  18  21  2   
 41  19  22  2   
 42  19  41  1   
 43  20  42  1   
 44  20  43  1   
 45  21  22  1   
@<TRIPOS>SUBSTRUCTURE
  1 ****   4 GROUP 4 **** **** 0

# MOE 2024.06 (io_trps.svl 2023.06)
