@<TRIPOS>MOLECULE
NONAME
50 52 1 0 0 
SMALL
USER_CHARGES


@<TRIPOS>ATOM
  1 O       -0.4570     0.3250     1.2720 O.2   1 <1>  -0.5750 
  2 C        0.6770    -0.0700     1.1010 C.2   1 <1>   0.6860 
  3 N        1.7520     0.6720     1.5820 N.am  1 <1>  -0.4260 
  4 N        0.9000    -1.2580     0.4160 N.am  1 <1>  -0.4420 
  5 C        3.0610     0.2770     1.3410 C.2   1 <1>   0.6990 
  6 C        1.4790     1.9360     2.3350 C.3   1 <1>   0.0520 
  7 C        2.2070    -1.6390     0.1870 C.2   1 <1>   0.4200 
  8 C       -0.2440    -2.0760    -0.0860 C.3   1 <1>   0.0520 
  9 O        4.0050     0.9430     1.7320 O.2   1 <1>  -0.5750 
 10 C        3.2770    -0.9360     0.6120 C.2   1 <1>   0.2700 
 11 N        2.6520    -2.7360    -0.4800 N.pl3 1 <1>  -0.7040 
 12 N        4.4190    -1.6410     0.1870 N.pl3 1 <1>  -0.7670 
 13 C        3.9810    -2.7200    -0.4710 C.cat 1 <1>   1.0690 
 14 C        5.7950    -1.1430     0.5020 C.3   1 <1>   0.4920 
 15 N        4.7270    -3.6610    -1.0470 N.pl3 1 <1>  -0.7180 
 16 C        6.8360    -2.1440     0.0380 C.ar  1 <1>  -0.1510 
 17 C        4.3240    -4.9090    -1.7400 C.3   1 <1>   0.1600 
 18 C        7.3890    -2.0410    -1.2310 C.ar  1 <1>  -0.1580 
 19 C        7.1920    -3.2080     0.8550 C.ar  1 <1>  -0.1580 
 20 C        5.1210    -6.1010    -1.2000 C.3   1 <1>   0.1320 
 21 C        8.2670    -3.0080    -1.6860 C.ar  1 <1>  -0.1580 
 22 C        8.0710    -4.1730     0.3970 C.ar  1 <1>  -0.1580 
 23 N        4.5750    -7.3510    -1.7710 N.am  1 <1>  -0.7340 
 24 C        8.6040    -4.0760    -0.8750 C.ar  1 <1>  -0.1580 
 25 C        3.8650    -8.3310    -1.1670 C.2   1 <1>   0.5640 
 26 O        3.4980    -9.2790    -1.8080 O.2   1 <1>  -0.5750 
 27 C        3.5130    -8.2480     0.2980 C.3   1 <1>  -0.1860 
 28 H        0.6230     1.8090     2.9760 H     1 <1>   0.0720 
 29 H        1.2750     2.7330     1.6400 H     1 <1>   0.0720 
 30 H        2.3190     2.2120     2.9480 H     1 <1>   0.0720 
 31 H       -1.1420    -1.8520     0.4650 H     1 <1>   0.0720 
 32 H       -0.0360    -3.1240     0.0320 H     1 <1>   0.0720 
 33 H       -0.4180    -1.8580    -1.1260 H     1 <1>   0.0720 
 34 H        2.0840    -3.4460    -0.9320 H     1 <1>   0.4440 
 35 H        5.8900    -0.9910     1.5650 H     1 <1>   0.0720 
 36 H        5.9550    -0.1940     0.0170 H     1 <1>   0.0720 
 37 H        5.7480    -3.5230    -0.9780 H     1 <1>   0.4440 
 38 H        4.5130    -4.8050    -2.7960 H     1 <1>   0.0720 
 39 H        3.2740    -5.0940    -1.5920 H     1 <1>   0.0720 
 40 H        7.1430    -1.2140    -1.8780 H     1 <1>   0.1420 
 41 H        6.7890    -3.3010     1.8510 H     1 <1>   0.1420 
 42 H        5.0540    -6.1330    -0.1260 H     1 <1>   0.0720 
 43 H        6.1580    -6.0140    -1.4780 H     1 <1>   0.0720 
 44 H        8.6980    -2.9270    -2.6710 H     1 <1>   0.1420 
 45 H        8.3500    -4.9980     1.0320 H     1 <1>   0.1420 
 46 H        4.8080    -7.5530    -2.7490 H     1 <1>   0.3640 
 47 H        9.2940    -4.8240    -1.2290 H     1 <1>   0.1420 
 48 H        4.4090    -8.2780     0.8890 H     1 <1>   0.0720 
 49 H        2.8960    -9.0860     0.5680 H     1 <1>   0.0720 
 50 H        2.9720    -7.3430     0.4990 H     1 <1>   0.0720 
@<TRIPOS>BOND
  1   1   2  2   
  2   2   3  am  
  3   2   4  am  
  4   3   5  am  
  5   3   6  1   
  6   4   7  1   
  7   4   8  1   
  8   5   9  2   
  9   5  10  1   
 10   6  28  1   
 11   6  29  1   
 12   6  30  1   
 13   7  10  2   
 14   7  11  1   
 15   8  31  1   
 16   8  32  1   
 17   8  33  1   
 18  10  12  1   
 19  11  13  ar  
 20  11  34  1   
 21  12  13  ar  
 22  12  14  1   
 23  13  15  ar  
 24  14  16  1   
 25  14  35  1   
 26  14  36  1   
 27  15  17  1   
 28  15  37  1   
 29  16  18  ar  
 30  16  19  ar  
 31  17  20  1   
 32  17  38  1   
 33  17  39  1   
 34  18  21  ar  
 35  18  40  1   
 36  19  22  ar  
 37  19  41  1   
 38  20  23  1   
 39  20  42  1   
 40  20  43  1   
 41  21  24  ar  
 42  21  44  1   
 43  22  24  ar  
 44  22  45  1   
 45  23  25  am  
 46  23  46  1   
 47  24  47  1   
 48  25  26  2   
 49  25  27  1   
 50  27  48  1   
 51  27  49  1   
 52  27  50  1   
@<TRIPOS>SUBSTRUCTURE
  1 ****  13 GROUP 4 **** **** 0

# MOE 2024.06 (io_trps.svl 2023.06)
