@<TRIPOS>MOLECULE
4264
41 41 1 0 0 
SMALL
USER_CHARGES


@<TRIPOS>ATOM
  1 O       -4.8600    -2.6650    -1.7200 O.2   1 <1>  -0.5700 
  2 C       -5.3100    -1.7550    -1.0650 C.2   1 <1>   0.5690 
  3 N       -4.4890    -0.9520    -0.3330 N.am  1 <1>  -0.7300 
  4 C       -6.8160    -1.5110    -1.0600 C.3   1 <1>   0.1810 
  5 C       -3.0050    -0.9750    -0.3630 C.3   1 <1>   0.1400 
  6 O       -7.1500    -0.4230    -0.2080 O.3   1 <1>  -0.3620 
  7 C       -2.4620    -2.3820    -0.0390 C.3   1 <1>   0.3430 
  8 C       -8.4390    -0.0310    -0.0470 C.ar  1 <1>   0.0820 
  9 N       -0.9770    -2.5060    -0.2310 N.4   1 <1>  -0.9590 
 10 C       -8.6650     1.0350     0.8090 C.ar  1 <1>  -0.1500 
 11 C       -9.5180    -0.6370    -0.6870 C.ar  1 <1>  -0.1500 
 12 C       -0.6040    -3.9460    -0.2030 C.3   1 <1>   0.3430 
 13 C       -0.2020    -1.7090     0.7570 C.3   1 <1>   0.3430 
 14 C       -9.9500     1.4970     1.0300 C.ar  1 <1>  -0.1500 
 15 C      -10.8030    -0.1720    -0.4650 C.ar  1 <1>  -0.1500 
 16 C        0.7720    -4.1310    -0.8330 C.3   1 <1>  -0.2400 
 17 C        0.4420    -0.5350     0.0310 C.3   1 <1>  -0.2400 
 18 C      -11.0200     0.8930     0.3930 C.ar  1 <1>  -0.1500 
 19 H       -4.9430    -0.1660     0.1530 H     1 <1>   0.3700 
 20 H       -7.3190    -2.3900    -0.7030 H     1 <1>   0.0800 
 21 H       -7.1420    -1.2760    -2.0560 H     1 <1>   0.0800 
 22 H       -2.6360    -0.2630     0.3550 H     1 <1>   0.0800 
 23 H       -2.6850    -0.6820    -1.3480 H     1 <1>   0.0800 
 24 H       -2.9490    -3.0880    -0.6910 H     1 <1>   0.0800 
 25 H       -2.7220    -2.6350     0.9750 H     1 <1>   0.0800 
 26 H       -0.7490    -2.1630    -1.1740 H     1 <1>   0.4500 
 27 H       -7.8330     1.5020     1.3030 H     1 <1>   0.1500 
 28 H       -9.3860    -1.4640    -1.3580 H     1 <1>   0.1500 
 29 H       -1.3230    -4.5190    -0.7680 H     1 <1>   0.0800 
 30 H       -0.6040    -4.3140     0.8110 H     1 <1>   0.0800 
 31 H        0.5700    -2.3150     1.2050 H     1 <1>   0.0800 
 32 H       -0.8460    -1.3520     1.5450 H     1 <1>   0.0800 
 33 H      -10.1190     2.3250     1.6960 H     1 <1>   0.1500 
 34 H      -11.6380    -0.6390    -0.9580 H     1 <1>   0.1500 
 35 H        0.7790    -3.7700    -1.8470 H     1 <1>   0.0800 
 36 H        1.0090    -5.1800    -0.8560 H     1 <1>   0.0800 
 37 H        1.5390    -3.6360    -0.2660 H     1 <1>   0.0800 
 38 H        1.1180    -0.8830    -0.7300 H     1 <1>   0.0800 
 39 H        1.0110     0.0460     0.7360 H     1 <1>   0.0800 
 40 H       -0.2970     0.1100    -0.4070 H     1 <1>   0.0800 
 41 H      -12.0200     1.2520     0.5640 H     1 <1>   0.1500 
@<TRIPOS>BOND
  1   1   2  2   
  2   2   3  am  
  3   2   4  1   
  4   3   5  1   
  5   3  19  1   
  6   4   6  1   
  7   4  20  1   
  8   4  21  1   
  9   5   7  1   
 10   5  22  1   
 11   5  23  1   
 12   6   8  1   
 13   7   9  1   
 14   7  24  1   
 15   7  25  1   
 16   8  10  ar  
 17   8  11  ar  
 18   9  12  1   
 19   9  13  1   
 20   9  26  1   
 21  10  14  ar  
 22  10  27  1   
 23  11  15  ar  
 24  11  28  1   
 25  12  16  1   
 26  12  29  1   
 27  12  30  1   
 28  13  17  1   
 29  13  31  1   
 30  13  32  1   
 31  14  18  ar  
 32  14  33  1   
 33  15  18  ar  
 34  15  34  1   
 35  16  35  1   
 36  16  36  1   
 37  16  37  1   
 38  17  38  1   
 39  17  39  1   
 40  17  40  1   
 41  18  41  1   
@<TRIPOS>SUBSTRUCTURE
  1 ****   3 GROUP 4 **** **** 0

# MOE 2024.06 (io_trps.svl 2023.06)
