@<TRIPOS>MOLECULE
4-(5-Methyl-1H-benzoimidazol-2-yl)-piperidine-1-carboxylic acid (2-fluoro-phenyl)-amide
47 50 1 0 0 
SMALL
USER_CHARGES


@<TRIPOS>ATOM
  1 F       -1.7620     0.9870    -2.0090 F     1 <1>  -0.1900 
  2 C       -0.8440     1.8850    -1.7410 C.ar  1 <1>   0.1900 
  3 C       -1.1470     2.9100    -0.8460 C.ar  1 <1>   0.1170 
  4 C        0.3830     1.7600    -2.3630 C.ar  1 <1>  -0.1500 
  5 N       -2.4210     2.9670    -0.2470 N.am  1 <1>  -0.5470 
  6 C       -0.1350     3.8290    -0.5820 C.ar  1 <1>  -0.1500 
  7 C        1.3670     2.6930    -2.0850 C.ar  1 <1>  -0.1500 
  8 C       -3.0960     3.9630     0.3950 C.2   1 <1>   0.6900 
  9 C        1.1040     3.7230    -1.1950 C.ar  1 <1>  -0.1500 
 10 O       -2.6550     5.0960     0.4380 O.2   1 <1>  -0.5700 
 11 N       -4.3060     3.6700     0.9710 N.am  1 <1>  -0.6600 
 12 C       -5.2800     4.7480     1.2900 C.3   1 <1>   0.1400 
 13 C       -4.7130     2.3120     1.4230 C.3   1 <1>   0.1400 
 14 C       -6.6430     4.4020     0.6810 C.3   1 <1>  -0.1600 
 15 C       -6.0600     1.9530     0.7970 C.3   1 <1>  -0.1600 
 16 C       -7.1300     3.0120     1.1200 C.3   1 <1>   0.1000 
 17 C       -8.4730     2.6850     0.4710 C.2   1 <1>   0.0070 
 18 N       -9.6160     3.3110     0.8570 N.pl3 1 <1>   0.0330 
 19 N       -8.6550     1.8200    -0.4680 N.2   1 <1>  -0.5650 
 20 C      -10.6080     2.7950     0.0910 C.ar  1 <1>  -0.1520 
 21 C       -9.9920     1.8690    -0.7270 C.ar  1 <1>   0.2270 
 22 C      -11.9820     3.0300     0.0170 C.ar  1 <1>  -0.1500 
 23 C      -10.7470     1.1500    -1.6500 C.ar  1 <1>  -0.1500 
 24 C      -12.7280     2.3160    -0.8980 C.ar  1 <1>  -0.1430 
 25 C      -12.1040     1.3760    -1.7310 C.ar  1 <1>  -0.1500 
 26 C      -14.2250     2.5300    -1.0240 C.3   1 <1>  -0.0970 
 27 H        0.5630     0.9510    -3.0480 H     1 <1>   0.1500 
 28 H       -3.0180     2.1740    -0.4630 H     1 <1>   0.3700 
 29 H       -0.3080     4.6350     0.1080 H     1 <1>   0.1500 
 30 H        2.3320     2.6200    -2.5570 H     1 <1>   0.1500 
 31 H        1.8680     4.4500    -0.9760 H     1 <1>   0.1500 
 32 H       -4.9420     5.6910     0.8950 H     1 <1>   0.0800 
 33 H       -5.3600     4.8420     2.3600 H     1 <1>   0.0800 
 34 H       -4.7990     2.3150     2.4970 H     1 <1>   0.0800 
 35 H       -3.9770     1.5730     1.1580 H     1 <1>   0.0800 
 36 H       -6.5590     4.4280    -0.3920 H     1 <1>   0.0800 
 37 H       -7.3550     5.1520     0.9710 H     1 <1>   0.0800 
 38 H       -6.3840     0.9950     1.1630 H     1 <1>   0.0800 
 39 H       -5.9410     1.8700    -0.2690 H     1 <1>   0.0800 
 40 H       -7.2730     3.0200     2.1870 H     1 <1>   0.0800 
 41 H       -9.7210     4.0290     1.5750 H     1 <1>   0.2700 
 42 H      -12.4380     3.7570     0.6650 H     1 <1>   0.1500 
 43 H      -10.2490     0.4350    -2.2770 H     1 <1>   0.1500 
 44 H      -12.6960     0.8250    -2.4400 H     1 <1>   0.1500 
 45 H      -14.5670     3.2750    -0.3280 H     1 <1>   0.0800 
 46 H      -14.7430     1.6100    -0.8240 H     1 <1>   0.0800 
 47 H      -14.4650     2.8550    -2.0200 H     1 <1>   0.0800 
@<TRIPOS>BOND
  1   1   2  1   
  2   2   3  ar  
  3   2   4  ar  
  4   3   5  1   
  5   3   6  ar  
  6   4   7  ar  
  7   4  27  1   
  8   5   8  am  
  9   5  28  1   
 10   6   9  ar  
 11   6  29  1   
 12   7   9  ar  
 13   7  30  1   
 14   8  10  2   
 15   8  11  am  
 16   9  31  1   
 17  11  12  1   
 18  11  13  1   
 19  12  14  1   
 20  12  32  1   
 21  12  33  1   
 22  13  15  1   
 23  13  34  1   
 24  13  35  1   
 25  14  16  1   
 26  14  36  1   
 27  14  37  1   
 28  15  16  1   
 29  15  38  1   
 30  15  39  1   
 31  16  17  1   
 32  16  40  1   
 33  17  18  1   
 34  17  19  2   
 35  18  20  1   
 36  18  41  1   
 37  19  21  1   
 38  20  21  ar  
 39  20  22  ar  
 40  21  23  ar  
 41  22  24  ar  
 42  22  42  1   
 43  23  25  ar  
 44  23  43  1   
 45  24  25  ar  
 46  24  26  1   
 47  25  44  1   
 48  26  45  1   
 49  26  46  1   
 50  26  47  1   
@<TRIPOS>SUBSTRUCTURE
  1 ****  15 GROUP 4 **** **** 0

# MOE 2024.06 (io_trps.svl 2023.06)
