@<TRIPOS>MOLECULE
4-Benzyl-5-cyclopropyl-4H-[1,2,4]triazole-3-thiol
29 31 1 0 0 
SMALL
USER_CHARGES


@<TRIPOS>ATOM
  1 S       -0.9780    -0.6920     2.1640 S.3   1 <1>  -0.9360 
  2 C       -2.2510     0.0150     1.4510 C.cat 1 <1>   0.7360 
  3 N       -2.6530     1.2430     1.6870 N.pl3 1 <1>  -0.3930 
  4 N       -3.0400    -0.5230     0.5460 N.pl3 1 <1>  -0.7640 
  5 N       -3.7410     1.5420     0.9180 N.2   1 <1>  -0.2600 
  6 C       -3.9490     0.4630     0.2490 C.2   1 <1>   0.5800 
  7 C       -2.8910    -1.8970     0.0310 C.3   1 <1>   0.4970 
  8 C       -5.0630     0.2800    -0.7770 C.3   1 <1>  -0.0270 
  9 C       -4.1930    -2.6730     0.1800 C.ar  1 <1>  -0.1440 
 10 C       -6.2630     1.1820    -0.8170 C.3   1 <1>  -0.2000 
 11 C       -6.4090    -0.2380    -0.3650 C.3   1 <1>  -0.2000 
 12 C       -4.8280    -3.2170    -0.9280 C.ar  1 <1>  -0.1500 
 13 C       -4.7550    -2.8470     1.4370 C.ar  1 <1>  -0.1500 
 14 C       -6.0130    -3.9170    -0.7810 C.ar  1 <1>  -0.1500 
 15 C       -5.9410    -3.5450     1.5840 C.ar  1 <1>  -0.1500 
 16 C       -6.5710    -4.0800     0.4740 C.ar  1 <1>  -0.1500 
 17 H       -2.1710     1.8380     2.3600 H     1 <1>   0.4500 
 18 H       -2.1170    -2.4210     0.5660 H     1 <1>   0.0800 
 19 H       -2.5980    -1.8520    -1.0030 H     1 <1>   0.0800 
 20 H       -4.6760    -0.0450    -1.7260 H     1 <1>   0.1000 
 21 H       -6.6700     1.4630    -1.7740 H     1 <1>   0.1000 
 22 H       -6.3650     1.9640    -0.0830 H     1 <1>   0.1000 
 23 H       -6.5830    -0.4400     0.6790 H     1 <1>   0.1000 
 24 H       -6.9040    -0.9470    -1.0050 H     1 <1>   0.1000 
 25 H       -4.4080    -3.1030    -1.9130 H     1 <1>   0.1500 
 26 H       -4.2680    -2.4360     2.3070 H     1 <1>   0.1500 
 27 H       -6.5020    -4.3380    -1.6430 H     1 <1>   0.1500 
 28 H       -6.3700    -3.6740     2.5620 H     1 <1>   0.1500 
 29 H       -7.4920    -4.6240     0.5890 H     1 <1>   0.1500 
@<TRIPOS>BOND
  1   1   2  1   
  2   2   3  ar  
  3   2   4  ar  
  4   3   5  1   
  5   3  17  1   
  6   4   6  1   
  7   4   7  1   
  8   5   6  2   
  9   6   8  1   
 10   7   9  1   
 11   7  18  1   
 12   7  19  1   
 13   8  10  1   
 14   8  11  1   
 15   8  20  1   
 16   9  12  ar  
 17   9  13  ar  
 18  10  11  1   
 19  10  21  1   
 20  10  22  1   
 21  11  23  1   
 22  11  24  1   
 23  12  14  ar  
 24  12  25  1   
 25  13  15  ar  
 26  13  26  1   
 27  14  16  ar  
 28  14  27  1   
 29  15  16  ar  
 30  15  28  1   
 31  16  29  1   
@<TRIPOS>SUBSTRUCTURE
  1 ****   4 GROUP 4 **** **** 0

# MOE 2024.06 (io_trps.svl 2023.06)
