@<TRIPOS>MOLECULE
4-(3-Methyl-piperidine-1-sulfonyl)-thiophene-2-carboxylic acid phenylamide
44 46 1 0 0 
SMALL
USER_CHARGES


@<TRIPOS>ATOM
  1 S       -0.1790    -0.0020    -2.1220 S.o2  1 <1>   1.5010 
  2 O       -1.0100    -1.1850    -2.1860 O.2   1 <1>  -0.6500 
  3 O       -0.1620     0.9150    -3.2400 O.2   1 <1>  -0.6500 
  4 N       -0.6570     0.8760    -0.7530 N.am  1 <1>  -0.8490 
  5 C        1.5240    -0.4820    -1.7360 C.2   1 <1>  -0.0630 
  6 C       -0.8550     0.0410     0.4500 C.3   1 <1>   0.1960 
  7 C       -1.7650     1.7930    -1.0650 C.3   1 <1>   0.1960 
  8 C        2.1180    -1.6350    -2.1060 C.2   1 <1>  -0.1100 
  9 C        2.4150     0.3680    -1.0050 C.2   1 <1>  -0.1500 
 10 C       -2.3420    -0.1840     0.7720 C.3   1 <1>  -0.0800 
 11 C       -2.4340     2.3080     0.2120 C.3   1 <1>  -0.1600 
 12 S        3.7750    -1.7080    -1.5550 S.3   1 <1>  -0.0800 
 13 C        3.6670    -0.1160    -0.8020 C.2   1 <1>  -0.0450 
 14 C       -3.0510     1.1600     1.0320 C.3   1 <1>  -0.1600 
 15 C       -2.5170    -1.1280     1.9690 C.3   1 <1>  -0.2400 
 16 C        4.8100     0.4380    -0.1220 C.2   1 <1>   0.7150 
 17 O        4.7120     1.5060     0.4480 O.2   1 <1>  -0.5700 
 18 N        5.9950    -0.2580    -0.1130 N.am  1 <1>  -0.5470 
 19 C        7.2560     0.0370     0.4270 C.ar  1 <1>   0.1170 
 20 C        8.1310    -1.0140     0.6790 C.ar  1 <1>  -0.1500 
 21 C        7.6840     1.3320     0.7060 C.ar  1 <1>  -0.1500 
 22 C        9.3920    -0.7830     1.2000 C.ar  1 <1>  -0.1500 
 23 C        8.9430     1.5670     1.2280 C.ar  1 <1>  -0.1500 
 24 C        9.8000     0.5100     1.4760 C.ar  1 <1>  -0.1500 
 25 H       -0.3970     0.5430     1.2860 H     1 <1>   0.0800 
 26 H       -0.3580    -0.9090     0.3370 H     1 <1>   0.0800 
 27 H       -2.5030     1.2820    -1.6650 H     1 <1>   0.0800 
 28 H       -1.3860     2.6210    -1.6410 H     1 <1>   0.0800 
 29 H        1.7370    -2.4740    -2.6640 H     1 <1>   0.1500 
 30 H        2.0820     1.3310    -0.6500 H     1 <1>   0.1500 
 31 H       -2.7920    -0.6580    -0.0850 H     1 <1>   0.0800 
 32 H       -3.1980     3.0210    -0.0430 H     1 <1>   0.0800 
 33 H       -1.6920     2.8220     0.7980 H     1 <1>   0.0800 
 34 H       -2.9950     1.4220     2.0740 H     1 <1>   0.0800 
 35 H       -4.0920     1.0520     0.7790 H     1 <1>   0.0800 
 36 H       -2.0560    -0.7180     2.8500 H     1 <1>   0.0800 
 37 H       -2.0690    -2.0840     1.7580 H     1 <1>   0.0800 
 38 H       -3.5630    -1.2850     2.1680 H     1 <1>   0.0800 
 39 H        5.9250    -1.1720    -0.5540 H     1 <1>   0.3700 
 40 H        7.8280    -2.0240     0.4730 H     1 <1>   0.1500 
 41 H        7.0380     2.1690     0.5150 H     1 <1>   0.1500 
 42 H       10.0570    -1.6070     1.3920 H     1 <1>   0.1500 
 43 H        9.2550     2.5750     1.4400 H     1 <1>   0.1500 
 44 H       10.7800     0.6930     1.8820 H     1 <1>   0.1500 
@<TRIPOS>BOND
  1   1   2  2   
  2   1   3  2   
  3   1   4  am  
  4   1   5  1   
  5   4   6  1   
  6   4   7  1   
  7   5   8  2   
  8   5   9  1   
  9   6  10  1   
 10   6  25  1   
 11   6  26  1   
 12   7  11  1   
 13   7  27  1   
 14   7  28  1   
 15   8  12  1   
 16   8  29  1   
 17   9  13  2   
 18   9  30  1   
 19  10  14  1   
 20  10  15  1   
 21  10  31  1   
 22  11  14  1   
 23  11  32  1   
 24  11  33  1   
 25  12  13  1   
 26  13  16  1   
 27  14  34  1   
 28  14  35  1   
 29  15  36  1   
 30  15  37  1   
 31  15  38  1   
 32  16  17  2   
 33  16  18  am  
 34  18  19  1   
 35  18  39  1   
 36  19  20  ar  
 37  19  21  ar  
 38  20  22  ar  
 39  20  40  1   
 40  21  23  ar  
 41  21  41  1   
 42  22  24  ar  
 43  22  42  1   
 44  23  24  ar  
 45  23  43  1   
 46  24  44  1   
@<TRIPOS>SUBSTRUCTURE
  1 ****   9 GROUP 4 **** **** 0

# MOE 2024.06 (io_trps.svl 2023.06)
