@<TRIPOS>MOLECULE
11217
46 47 1 0 0 
SMALL
USER_CHARGES


@<TRIPOS>ATOM
  1 O        0.1060    -0.5850    -1.2670 O.2   1 <1>  -0.5700 
  2 C        0.0470    -1.6640    -0.7150 C.2   1 <1>   0.6160 
  3 N        1.2320    -2.2140    -0.3530 N.am  1 <1>  -0.7300 
  4 C       -1.2160    -2.3080    -0.4770 C.2   1 <1>  -0.1360 
  5 C        1.5120    -3.3340     0.5610 C.3   1 <1>   0.2200 
  6 C       -2.4470    -1.7790    -0.6760 C.2   1 <1>  -0.1780 
  7 C        2.7080    -2.9660     1.4300 C.3   1 <1>  -0.1600 
  8 C        2.0190    -4.5200    -0.2500 C.3   1 <1>  -0.1600 
  9 C       -3.7390    -2.3790    -0.4590 C.ar  1 <1>   0.0280 
 10 C        3.9510    -3.2580     0.5810 C.3   1 <1>  -0.1600 
 11 C        3.5020    -4.2370    -0.5130 C.3   1 <1>  -0.1600 
 12 C       -4.8930    -1.6100    -0.6030 C.ar  1 <1>  -0.1500 
 13 C       -3.9050    -3.7190    -0.1060 C.ar  1 <1>  -0.1500 
 14 C       -6.1530    -2.1420    -0.4020 C.ar  1 <1>  -0.1500 
 15 C       -5.1610    -4.2600     0.0970 C.ar  1 <1>  -0.1500 
 16 C       -6.2960    -3.4800    -0.0480 C.ar  1 <1>   0.0830 
 17 O       -7.4870    -4.0840     0.1680 O.3   1 <1>  -0.3630 
 18 C       -8.7040    -3.3840     0.0460 C.3   1 <1>   0.1200 
 19 C       -9.8460    -4.3530     0.3540 C.3   1 <1>  -0.1600 
 20 C      -11.2100    -3.6580     0.2410 C.3   1 <1>  -0.1600 
 21 C      -12.3500    -4.6320     0.5490 C.3   1 <1>  -0.2400 
 22 H        2.0560    -1.6890    -0.6460 H     1 <1>   0.3700 
 23 H       -1.1240    -3.3070    -0.1090 H     1 <1>   0.1500 
 24 H        0.6470    -3.5770     1.1550 H     1 <1>   0.0800 
 25 H       -2.4950    -0.7690    -1.0480 H     1 <1>   0.1500 
 26 H        2.6680    -1.9460     1.7720 H     1 <1>   0.0800 
 27 H        2.7160    -3.6140     2.2900 H     1 <1>   0.0800 
 28 H        1.9350    -5.4080     0.3510 H     1 <1>   0.0800 
 29 H        1.4590    -4.6620    -1.1580 H     1 <1>   0.0800 
 30 H        4.3110    -2.3500     0.1290 H     1 <1>   0.0800 
 31 H        4.7360    -3.6790     1.1850 H     1 <1>   0.0800 
 32 H        4.0790    -5.1450    -0.4930 H     1 <1>   0.0800 
 33 H        3.6170    -3.7740    -1.4780 H     1 <1>   0.0800 
 34 H       -4.8010    -0.5740    -0.8760 H     1 <1>   0.1500 
 35 H       -3.0490    -4.3560     0.0100 H     1 <1>   0.1500 
 36 H       -7.0080    -1.5060    -0.5250 H     1 <1>   0.1500 
 37 H       -5.2730    -5.2940     0.3680 H     1 <1>   0.1500 
 38 H       -8.6980    -2.5680     0.7480 H     1 <1>   0.0800 
 39 H       -8.7820    -3.0120    -0.9600 H     1 <1>   0.0800 
 40 H       -9.8040    -5.1750    -0.3390 H     1 <1>   0.0800 
 41 H       -9.7210    -4.7360     1.3520 H     1 <1>   0.0800 
 42 H      -11.2540    -2.8320     0.9300 H     1 <1>   0.0800 
 43 H      -11.3370    -3.2700    -0.7560 H     1 <1>   0.0800 
 44 H      -12.2550    -5.0180     1.5500 H     1 <1>   0.0800 
 45 H      -12.3380    -5.4570    -0.1420 H     1 <1>   0.0800 
 46 H      -13.2970    -4.1300     0.4650 H     1 <1>   0.0800 
@<TRIPOS>BOND
  1   1   2  2   
  2   2   3  am  
  3   2   4  1   
  4   3   5  1   
  5   3  22  1   
  6   4   6  2   
  7   4  23  1   
  8   5   7  1   
  9   5   8  1   
 10   5  24  1   
 11   6   9  1   
 12   6  25  1   
 13   7  10  1   
 14   7  26  1   
 15   7  27  1   
 16   8  11  1   
 17   8  28  1   
 18   8  29  1   
 19   9  12  ar  
 20   9  13  ar  
 21  10  11  1   
 22  10  30  1   
 23  10  31  1   
 24  11  32  1   
 25  11  33  1   
 26  12  14  ar  
 27  12  34  1   
 28  13  15  ar  
 29  13  35  1   
 30  14  16  ar  
 31  14  36  1   
 32  15  16  ar  
 33  15  37  1   
 34  16  17  1   
 35  17  18  1   
 36  18  19  1   
 37  18  38  1   
 38  18  39  1   
 39  19  20  1   
 40  19  40  1   
 41  19  41  1   
 42  20  21  1   
 43  20  42  1   
 44  20  43  1   
 45  21  44  1   
 46  21  45  1   
 47  21  46  1   
@<TRIPOS>SUBSTRUCTURE
  1 ****  13 GROUP 4 **** **** 0

# MOE 2024.06 (io_trps.svl 2023.06)
