@<TRIPOS>MOLECULE
NONAME
42 44 1 0 0 
SMALL
USER_CHARGES


@<TRIPOS>ATOM
  1 CL      -2.1580     3.5670    -1.9720 Cl    1 <1>  -0.1770 
  2 C       -2.7280     2.4670    -0.7380 C.ar  1 <1>   0.1770 
  3 C       -1.8520     1.9370     0.1950 C.ar  1 <1>   0.1770 
  4 C       -4.0690     2.1340    -0.7090 C.ar  1 <1>  -0.1500 
  5 CL      -0.1520     2.3520     0.1690 Cl    1 <1>  -0.1770 
  6 C       -2.3140     1.0660     1.1650 C.ar  1 <1>  -0.1500 
  7 C       -4.5510     1.2630     0.2610 C.ar  1 <1>   0.1170 
  8 C       -3.6580     0.7320     1.1920 C.ar  1 <1>  -0.1500 
  9 N       -5.9160     0.9490     0.2500 N.am  1 <1>  -0.5470 
 10 C       -6.7490     0.5250     1.2460 C.2   1 <1>   0.5690 
 11 O       -6.3840     0.3650     2.3840 O.2   1 <1>  -0.5700 
 12 C       -8.2010     0.2360     0.9210 C.3   1 <1>  -0.0990 
 13 C       -8.9630     1.4840     0.4490 C.3   1 <1>   0.2510 
 14 N      -10.3790     1.3710     0.9000 N.3   1 <1>  -0.9000 
 15 C       -8.8020     1.7080    -1.0810 C.2   1 <1>   0.5690 
 16 C      -11.1900     0.5710    -0.0330 C.3   1 <1>   0.1900 
 17 O       -7.7310     2.0210    -1.5420 O.2   1 <1>  -0.5700 
 18 N       -9.8600     1.5320    -1.9090 N.am  1 <1>  -0.7300 
 19 C      -11.2340     1.2390    -1.4360 C.3   1 <1>   0.2200 
 20 C      -12.5930     0.3650     0.5670 C.3   1 <1>  -0.1600 
 21 C      -12.0370     2.5580    -1.4640 C.3   1 <1>  -0.1600 
 22 C      -13.6790     1.2970    -0.0020 C.3   1 <1>  -0.1600 
 23 C      -13.1100     2.6690    -0.3660 C.3   1 <1>  -0.1600 
 24 H       -4.7360     2.5560    -1.4400 H     1 <1>   0.1500 
 25 H       -1.6310     0.6560     1.8870 H     1 <1>   0.1500 
 26 H       -4.0120     0.0500     1.9450 H     1 <1>   0.1500 
 27 H       -6.3950     1.2090    -0.6230 H     1 <1>   0.3700 
 28 H       -8.6620    -0.1380     1.8190 H     1 <1>   0.0800 
 29 H       -8.2490    -0.5370     0.1780 H     1 <1>   0.0800 
 30 H       -8.5400     2.3370     0.9510 H     1 <1>   0.0800 
 31 H      -10.7880     2.3130     0.8920 H     1 <1>   0.3600 
 32 H      -10.7350    -0.4010    -0.1300 H     1 <1>   0.0800 
 33 H       -9.7320     1.7370    -2.9020 H     1 <1>   0.3700 
 34 H      -11.6950     0.5400    -2.1140 H     1 <1>   0.0800 
 35 H      -12.5410     0.4790     1.6360 H     1 <1>   0.0800 
 36 H      -12.9000    -0.6480     0.3790 H     1 <1>   0.0800 
 37 H      -12.5160     2.6320    -2.4240 H     1 <1>   0.0800 
 38 H      -11.3760     3.4020    -1.3650 H     1 <1>   0.0800 
 39 H      -14.4690     1.4080     0.7210 H     1 <1>   0.0800 
 40 H      -14.1080     0.8530    -0.8850 H     1 <1>   0.0800 
 41 H      -13.9000     3.3200    -0.6990 H     1 <1>   0.0800 
 42 H      -12.6800     3.1100     0.5180 H     1 <1>   0.0800 
@<TRIPOS>BOND
  1   1   2  1   
  2   2   3  ar  
  3   2   4  ar  
  4   3   5  1   
  5   3   6  ar  
  6   4   7  ar  
  7   4  24  1   
  8   6   8  ar  
  9   6  25  1   
 10   7   8  ar  
 11   7   9  1   
 12   8  26  1   
 13   9  10  am  
 14   9  27  1   
 15  10  11  2   
 16  10  12  1   
 17  12  13  1   
 18  12  28  1   
 19  12  29  1   
 20  13  14  1   
 21  13  15  1   
 22  13  30  1   
 23  14  16  1   
 24  14  31  1   
 25  15  17  2   
 26  15  18  am  
 27  16  19  1   
 28  16  20  1   
 29  16  32  1   
 30  18  19  1   
 31  18  33  1   
 32  19  21  1   
 33  19  34  1   
 34  20  22  1   
 35  20  35  1   
 36  20  36  1   
 37  21  23  1   
 38  21  37  1   
 39  21  38  1   
 40  22  23  1   
 41  22  39  1   
 42  22  40  1   
 43  23  41  1   
 44  23  42  1   
@<TRIPOS>SUBSTRUCTURE
  1 ****   9 GROUP 4 **** **** 0

# MOE 2024.06 (io_trps.svl 2023.06)
