@<TRIPOS>MOLECULE
Cyclobutanecarboxylic acid [2-(3-cyano-6,7-dimethyl-quinolin-2-ylamino)-ethyl]-amide
46 48 1 0 0 
SMALL
USER_CHARGES


@<TRIPOS>ATOM
  1 O        1.0930     0.5030    -0.0930 O.2   1 <1>  -0.5700 
  2 C        1.4120     1.6100    -0.4550 C.2   1 <1>   0.5770 
  3 N        2.7080     1.9160    -0.7280 N.am  1 <1>  -0.7300 
  4 C        0.3470     2.6870    -0.6190 C.3   1 <1>   0.0530 
  5 C        3.8360     0.9520    -0.6400 C.3   1 <1>   0.1400 
  6 C        0.7230     4.0830    -0.0510 C.3   1 <1>   0.0000 
  7 C       -0.7950     2.6620     0.4340 C.3   1 <1>   0.0000 
  8 C        4.2340     0.7070     0.8200 C.3   1 <1>   0.2090 
  9 C       -0.7550     4.2110     0.3980 C.3   1 <1>   0.0000 
 10 N        5.4320    -0.1740     0.8880 N.pl3 1 <1>  -0.8690 
 11 C        6.7360     0.2680     0.7820 C.ar  1 <1>   0.4100 
 12 N        6.9000     1.5210     0.4520 N.ar  1 <1>  -0.6200 
 13 C        7.8190    -0.6210     1.0170 C.ar  1 <1>   0.0730 
 14 C        8.1630     1.9910     0.3320 C.ar  1 <1>   0.3100 
 15 C        7.5560    -1.9790     1.3740 C.1   1 <1>   0.4840 
 16 C        9.0970    -0.1540     0.8970 C.ar  1 <1>  -0.1500 
 17 C        9.3010     1.1890     0.5440 C.ar  1 <1>   0.0000 
 18 C        8.3580     3.3350    -0.0190 C.ar  1 <1>  -0.1500 
 19 N        7.3370    -3.0620     1.6590 N.1   1 <1>  -0.5570 
 20 C       10.5770     1.7600     0.3950 C.ar  1 <1>  -0.1500 
 21 C        9.6070     3.8830    -0.1610 C.ar  1 <1>  -0.1430 
 22 C       10.7400     3.0780     0.0500 C.ar  1 <1>  -0.1430 
 23 C        9.7470     5.3500    -0.5440 C.3   1 <1>  -0.0970 
 24 C       12.1430     3.6500    -0.0990 C.3   1 <1>  -0.0970 
 25 H        2.9590     2.8660    -1.0080 H     1 <1>   0.3700 
 26 H       -0.0340     2.7500    -1.6250 H     1 <1>   0.0000 
 27 H        4.6790     1.3460    -1.1810 H     1 <1>   0.0800 
 28 H        3.5400     0.0190    -1.0870 H     1 <1>   0.0800 
 29 H        1.0130     4.7960    -0.8030 H     1 <1>   0.0000 
 30 H        1.4030     4.0350     0.7830 H     1 <1>   0.0000 
 31 H       -0.4880     2.2660     1.3880 H     1 <1>   0.0000 
 32 H       -1.7160     2.2410     0.0690 H     1 <1>   0.0000 
 33 H        3.4170     0.2380     1.3420 H     1 <1>   0.0800 
 34 H        4.4530     1.6470     1.2960 H     1 <1>   0.0800 
 35 H       -1.3880     4.6260    -0.3670 H     1 <1>   0.0000 
 36 H       -0.8790     4.6730     1.3620 H     1 <1>   0.0000 
 37 H        5.2400    -1.1470     1.1490 H     1 <1>   0.4000 
 38 H        9.9490    -0.7880     1.0650 H     1 <1>   0.1500 
 39 H        7.4740     3.9250    -0.1730 H     1 <1>   0.1500 
 40 H       11.4340     1.1320     0.5610 H     1 <1>   0.1500 
 41 H        8.7830     5.8100    -0.6630 H     1 <1>   0.0800 
 42 H       10.2790     5.4400    -1.4740 H     1 <1>   0.0800 
 43 H       10.2820     5.8830     0.2210 H     1 <1>   0.0800 
 44 H       12.8890     2.9010     0.0960 H     1 <1>   0.0800 
 45 H       12.2880     4.4580     0.5950 H     1 <1>   0.0800 
 46 H       12.2880     4.0160    -1.0990 H     1 <1>   0.0800 
@<TRIPOS>BOND
  1   1   2  2   
  2   2   3  am  
  3   2   4  1   
  4   3   5  1   
  5   3  25  1   
  6   4   6  1   
  7   4   7  1   
  8   4  26  1   
  9   5   8  1   
 10   5  27  1   
 11   5  28  1   
 12   6   9  1   
 13   6  29  1   
 14   6  30  1   
 15   7   9  1   
 16   7  31  1   
 17   7  32  1   
 18   8  10  1   
 19   8  33  1   
 20   8  34  1   
 21   9  35  1   
 22   9  36  1   
 23  10  11  1   
 24  10  37  1   
 25  11  12  ar  
 26  11  13  ar  
 27  12  14  ar  
 28  13  15  1   
 29  13  16  ar  
 30  14  17  ar  
 31  14  18  ar  
 32  15  19  3   
 33  16  17  ar  
 34  16  38  1   
 35  17  20  ar  
 36  18  21  ar  
 37  18  39  1   
 38  20  22  ar  
 39  20  40  1   
 40  21  22  ar  
 41  21  23  1   
 42  22  24  1   
 43  23  41  1   
 44  23  42  1   
 45  23  43  1   
 46  24  44  1   
 47  24  45  1   
 48  24  46  1   
@<TRIPOS>SUBSTRUCTURE
  1 ****  12 GROUP 4 **** **** 0

# MOE 2024.06 (io_trps.svl 2023.06)
