@<TRIPOS>MOLECULE
9352
47 48 1 0 0 
SMALL
USER_CHARGES


@<TRIPOS>ATOM
  1 O        0.1880    -0.4080    -2.4460 O.2   1 <1>  -0.5700 
  2 C        0.4580    -1.3830    -1.7900 C.2   1 <1>   0.5690 
  3 N        1.7450    -1.5980    -1.4160 N.am  1 <1>  -0.5470 
  4 C       -0.6530    -2.3440    -1.3820 C.3   1 <1>  -0.0990 
  5 C        2.3690    -2.6450    -0.7150 C.ar  1 <1>   0.1170 
  6 C       -2.0070    -1.6510    -1.1420 C.3   1 <1>  -0.1600 
  7 C        3.3010    -2.3520     0.2860 C.ar  1 <1>   0.0820 
  8 C        2.0990    -3.9750    -1.0170 C.ar  1 <1>  -0.1500 
  9 C       -3.0700    -2.6500    -0.6840 C.3   1 <1>   0.1200 
 10 O        3.5680    -1.0340     0.5280 O.3   1 <1>  -0.3630 
 11 C        3.9140    -3.3870     0.9830 C.ar  1 <1>  -0.1500 
 12 C        2.7090    -5.0050    -0.3210 C.ar  1 <1>  -0.1430 
 13 O       -4.2760    -1.9510    -0.4830 O.3   1 <1>  -0.3630 
 14 C        4.4670    -0.6410     1.5410 C.3   1 <1>   0.0400 
 15 C        3.6150    -4.7050     0.6810 C.ar  1 <1>  -0.1500 
 16 C        2.4030    -6.4550    -0.6540 C.3   1 <1>  -0.0970 
 17 C       -5.3980    -2.5940    -0.0660 C.ar  1 <1>   0.0820 
 18 C       -6.5350    -1.8190     0.0910 C.ar  1 <1>  -0.1500 
 19 C       -5.4570    -3.9590     0.2050 C.ar  1 <1>  -0.1500 
 20 C       -7.7250    -2.3870     0.5130 C.ar  1 <1>  -0.1500 
 21 C       -6.6460    -4.5270     0.6270 C.ar  1 <1>  -0.1500 
 22 C       -7.7840    -3.7520     0.7830 C.ar  1 <1>   0.0820 
 23 O       -8.9070    -4.3930     1.2010 O.3   1 <1>  -0.3620 
 24 C      -10.1160    -3.6920     1.3910 C.3   1 <1>   0.0400 
 25 H        2.3330    -0.7720    -1.5380 H     1 <1>   0.3700 
 26 H       -0.3630    -2.8460    -0.4770 H     1 <1>   0.0800 
 27 H       -0.7600    -3.0770    -2.1600 H     1 <1>   0.0800 
 28 H       -2.3340    -1.1800    -2.0530 H     1 <1>   0.0800 
 29 H       -1.8870    -0.8910    -0.3890 H     1 <1>   0.0800 
 30 H        1.4130    -4.2040    -1.8100 H     1 <1>   0.1500 
 31 H       -2.7850    -3.1080     0.2480 H     1 <1>   0.0800 
 32 H       -3.2360    -3.4020    -1.4360 H     1 <1>   0.0800 
 33 H        4.6280    -3.1950     1.7610 H     1 <1>   0.1500 
 34 H        4.5050     0.4340     1.5550 H     1 <1>   0.0800 
 35 H        5.4410    -1.0380     1.3180 H     1 <1>   0.0800 
 36 H        4.1080    -1.0050     2.4880 H     1 <1>   0.0800 
 37 H        4.0970    -5.4980     1.2270 H     1 <1>   0.1500 
 38 H        1.5200    -6.5310    -1.2620 H     1 <1>   0.0800 
 39 H        2.2450    -7.0160     0.2490 H     1 <1>   0.0800 
 40 H        3.2290    -6.8860    -1.1910 H     1 <1>   0.0800 
 41 H       -6.4800    -0.7670    -0.1200 H     1 <1>   0.1500 
 42 H       -4.5970    -4.5910     0.0960 H     1 <1>   0.1500 
 43 H       -8.5860    -1.7570     0.6230 H     1 <1>   0.1500 
 44 H       -6.7030    -5.5800     0.8380 H     1 <1>   0.1500 
 45 H      -10.8600    -4.3940     1.7190 H     1 <1>   0.0800 
 46 H      -10.4150    -3.2530     0.4560 H     1 <1>   0.0800 
 47 H       -9.9670    -2.9380     2.1430 H     1 <1>   0.0800 
@<TRIPOS>BOND
  1   1   2  2   
  2   2   3  am  
  3   2   4  1   
  4   3   5  1   
  5   3  25  1   
  6   4   6  1   
  7   4  26  1   
  8   4  27  1   
  9   5   7  ar  
 10   5   8  ar  
 11   6   9  1   
 12   6  28  1   
 13   6  29  1   
 14   7  10  1   
 15   7  11  ar  
 16   8  12  ar  
 17   8  30  1   
 18   9  13  1   
 19   9  31  1   
 20   9  32  1   
 21  10  14  1   
 22  11  15  ar  
 23  11  33  1   
 24  12  15  ar  
 25  12  16  1   
 26  13  17  1   
 27  14  34  1   
 28  14  35  1   
 29  14  36  1   
 30  15  37  1   
 31  16  38  1   
 32  16  39  1   
 33  16  40  1   
 34  17  18  ar  
 35  17  19  ar  
 36  18  20  ar  
 37  18  41  1   
 38  19  21  ar  
 39  19  42  1   
 40  20  22  ar  
 41  20  43  1   
 42  21  22  ar  
 43  21  44  1   
 44  22  23  1   
 45  23  24  1   
 46  24  45  1   
 47  24  46  1   
 48  24  47  1   
@<TRIPOS>SUBSTRUCTURE
  1 ****   9 GROUP 4 **** **** 0

# MOE 2024.06 (io_trps.svl 2023.06)
