@<TRIPOS>MOLECULE
NONAME
55 56 1 0 0 
SMALL
USER_CHARGES


@<TRIPOS>ATOM
  1 O        0.0400    -0.2250    -1.9390 O.2   1 <1>  -0.5700 
  2 C       -0.7300    -0.6280    -1.0930 C.2   1 <1>   0.5690 
  3 N       -0.9300    -1.9670    -0.8730 N.am  1 <1>  -0.4770 
  4 C       -1.4880     0.3690    -0.2090 C.3   1 <1>   0.2610 
  5 C       -1.4400    -2.3990     0.3760 C.ar  1 <1>   0.1170 
  6 C       -0.4480    -2.9350    -1.9120 C.3   1 <1>   0.2010 
  7 O       -1.5910    -0.1070     1.1290 O.3   1 <1>  -0.3630 
  8 C       -2.9010     0.6630    -0.7460 C.3   1 <1>  -0.1600 
  9 C       -1.7580    -1.4400     1.3500 C.ar  1 <1>   0.0830 
 10 C       -1.6060    -3.7420     0.7090 C.ar  1 <1>  -0.1500 
 11 C        0.9930    -3.3480    -1.6470 C.2   1 <1>   0.5690 
 12 C       -3.6690     1.6880     0.1020 C.3   1 <1>  -0.2400 
 13 C       -2.2290    -1.8190     2.5920 C.ar  1 <1>  -0.1500 
 14 C       -2.0760    -4.1240     1.9550 C.ar  1 <1>  -0.1440 
 15 O        1.2450    -4.4890    -1.3410 O.2   1 <1>  -0.5700 
 16 N        1.9720    -2.4050    -1.7130 N.am  1 <1>  -0.7300 
 17 C       -2.3910    -3.1580     2.8960 C.ar  1 <1>  -0.1500 
 18 C       -2.2570    -5.5940     2.2890 C.3   1 <1>  -0.0970 
 19 C        3.4310    -2.6720    -1.6050 C.3   1 <1>   0.1400 
 20 C        3.8350    -3.4630    -0.3370 C.3   1 <1>   0.3430 
 21 N        3.6830    -2.7020     0.9550 N.4   1 <1>  -0.9590 
 22 C        4.5090    -3.3500     2.0080 C.3   1 <1>   0.3430 
 23 C        2.2590    -2.5880     1.3790 C.3   1 <1>   0.3430 
 24 C        4.7000    -2.4020     3.1870 C.3   1 <1>  -0.2400 
 25 C        1.9170    -1.1080     1.4900 C.3   1 <1>  -0.2400 
 26 H       -0.9270     1.2850    -0.1690 H     1 <1>   0.0800 
 27 H       -0.4980    -2.4750    -2.8830 H     1 <1>   0.0800 
 28 H       -1.0800    -3.8010    -1.9450 H     1 <1>   0.0800 
 29 H       -3.4610    -0.2540    -0.7990 H     1 <1>   0.0800 
 30 H       -2.8110     1.0440    -1.7490 H     1 <1>   0.0800 
 31 H       -1.3690    -4.5180     0.0060 H     1 <1>   0.1500 
 32 H       -3.8250     1.3130     1.0990 H     1 <1>   0.0800 
 33 H       -4.6310     1.8850    -0.3390 H     1 <1>   0.0800 
 34 H       -3.1240     2.6130     0.1630 H     1 <1>   0.0800 
 35 H       -2.4700    -1.0650     3.3200 H     1 <1>   0.1500 
 36 H        1.6840    -1.4490    -1.9850 H     1 <1>   0.3700 
 37 H       -2.7650    -3.4430     3.8650 H     1 <1>   0.1500 
 38 H       -2.0780    -5.7680     3.3360 H     1 <1>   0.0800 
 39 H       -1.5710    -6.2010     1.7250 H     1 <1>   0.0800 
 40 H       -3.2610    -5.9000     2.0560 H     1 <1>   0.0800 
 41 H        3.9700    -1.7410    -1.6390 H     1 <1>   0.0800 
 42 H        3.7240    -3.2480    -2.4670 H     1 <1>   0.0800 
 43 H        4.8710    -3.7360    -0.4520 H     1 <1>   0.0800 
 44 H        3.2700    -4.3790    -0.2940 H     1 <1>   0.0800 
 45 H        4.0310    -1.7470     0.8130 H     1 <1>   0.4500 
 46 H        5.4790    -3.5970     1.6060 H     1 <1>   0.0800 
 47 H        4.0400    -4.2640     2.3390 H     1 <1>   0.0800 
 48 H        2.1110    -3.0650     2.3350 H     1 <1>   0.0800 
 49 H        1.6050    -3.0660     0.6700 H     1 <1>   0.0800 
 50 H        5.1420    -1.4750     2.8670 H     1 <1>   0.0800 
 51 H        5.3660    -2.8570     3.8990 H     1 <1>   0.0800 
 52 H        3.7700    -2.2080     3.6900 H     1 <1>   0.0800 
 53 H        2.5730    -0.6050     2.1780 H     1 <1>   0.0800 
 54 H        0.9160    -1.0070     1.8650 H     1 <1>   0.0800 
 55 H        1.9620    -0.6310     0.5280 H     1 <1>   0.0800 
@<TRIPOS>BOND
  1   1   2  2   
  2   2   3  am  
  3   2   4  1   
  4   3   5  1   
  5   3   6  1   
  6   4   7  1   
  7   4   8  1   
  8   4  26  1   
  9   5   9  ar  
 10   5  10  ar  
 11   6  11  1   
 12   6  27  1   
 13   6  28  1   
 14   7   9  1   
 15   8  12  1   
 16   8  29  1   
 17   8  30  1   
 18   9  13  ar  
 19  10  14  ar  
 20  10  31  1   
 21  11  15  2   
 22  11  16  am  
 23  12  32  1   
 24  12  33  1   
 25  12  34  1   
 26  13  17  ar  
 27  13  35  1   
 28  14  17  ar  
 29  14  18  1   
 30  16  19  1   
 31  16  36  1   
 32  17  37  1   
 33  18  38  1   
 34  18  39  1   
 35  18  40  1   
 36  19  20  1   
 37  19  41  1   
 38  19  42  1   
 39  20  21  1   
 40  20  43  1   
 41  20  44  1   
 42  21  22  1   
 43  21  23  1   
 44  21  45  1   
 45  22  24  1   
 46  22  46  1   
 47  22  47  1   
 48  23  25  1   
 49  23  48  1   
 50  23  49  1   
 51  24  50  1   
 52  24  51  1   
 53  24  52  1   
 54  25  53  1   
 55  25  54  1   
 56  25  55  1   
@<TRIPOS>SUBSTRUCTURE
  1 ****   5 GROUP 4 **** **** 0

# MOE 2024.06 (io_trps.svl 2023.06)
