@<TRIPOS>MOLECULE
NONAME
51 54 1 0 0 
SMALL
USER_CHARGES


@<TRIPOS>ATOM
  1 CL      -2.0930    -1.7110     0.3140 Cl    1 <1>  -0.1770 
  2 C       -0.5560    -2.4930     0.0310 C.ar  1 <1>   0.1770 
  3 C       -0.3670    -3.2160    -1.1310 C.ar  1 <1>  -0.1500 
  4 C        0.4490    -2.3770     0.9710 C.ar  1 <1>  -0.1500 
  5 C        0.8520    -3.8340    -1.3520 C.ar  1 <1>  -0.1500 
  6 C        1.6650    -2.9970     0.7410 C.ar  1 <1>  -0.1500 
  7 C        1.8830    -3.7370    -0.4210 C.ar  1 <1>   0.1170 
  8 N        3.1020    -4.3730    -0.7030 N.am  1 <1>  -0.5470 
  9 C        4.0810    -4.8310     0.1280 C.2   1 <1>   0.6900 
 10 O        3.9950    -4.7610     1.3360 O.2   1 <1>  -0.5700 
 11 N        5.1810    -5.3970    -0.4350 N.am  1 <1>  -0.7300 
 12 C        6.2380    -6.0450     0.3610 C.3   1 <1>   0.2200 
 13 C        7.0060    -4.9750     1.2200 C.3   1 <1>  -0.1600 
 14 C        7.1380    -6.9040    -0.5850 C.3   1 <1>  -0.1600 
 15 C        8.5490    -5.0970     1.2950 C.3   1 <1>   0.4230 
 16 C        8.5030    -7.0180     0.0840 C.3   1 <1>   0.4230 
 17 N        8.8900    -5.5910    -0.0230 N.4   1 <1>  -0.9590 
 18 C        9.1400    -6.2000     2.2020 C.3   1 <1>  -0.1600 
 19 C        9.4010    -7.3970     1.2530 C.3   1 <1>  -0.1600 
 20 C       10.2720    -5.2720    -0.4830 C.3   1 <1>   0.4860 
 21 C       10.3360    -3.7780    -0.7210 C.ar  1 <1>  -0.1430 
 22 C        9.7690    -3.2270    -1.8620 C.ar  1 <1>  -0.1500 
 23 C       10.9520    -2.9480     0.2050 C.ar  1 <1>  -0.1500 
 24 C        9.8070    -1.8590    -2.0660 C.ar  1 <1>  -0.1500 
 25 C       10.9890    -1.5800    -0.0020 C.ar  1 <1>  -0.1500 
 26 C       10.4140    -1.0360    -1.1360 C.ar  1 <1>  -0.1500 
 27 H       -1.1650    -3.2910    -1.8480 H     1 <1>   0.1500 
 28 H        0.2810    -1.8100     1.8690 H     1 <1>   0.1500 
 29 H        0.9980    -4.3990    -2.2540 H     1 <1>   0.1500 
 30 H        2.4460    -2.8980     1.4730 H     1 <1>   0.1500 
 31 H        3.2630    -4.5520    -1.6870 H     1 <1>   0.3700 
 32 H        5.1110    -5.6850    -1.4080 H     1 <1>   0.3700 
 33 H        5.7590    -6.7200     1.0560 H     1 <1>   0.0800 
 34 H        6.6050    -4.9740     2.2190 H     1 <1>   0.0800 
 35 H        6.7960    -3.9980     0.8200 H     1 <1>   0.0800 
 36 H        7.2240    -6.4810    -1.5710 H     1 <1>   0.0800 
 37 H        6.7070    -7.8860    -0.6820 H     1 <1>   0.0800 
 38 H        8.9930    -4.1350     1.5000 H     1 <1>   0.0800 
 39 H        7.8190    -7.2240     0.8880 H     1 <1>   0.0800 
 40 H        8.2600    -5.1090    -0.6720 H     1 <1>   0.4500 
 41 H        8.4440    -6.4540     2.9840 H     1 <1>   0.0800 
 42 H       10.0560    -5.8670     2.6580 H     1 <1>   0.0800 
 43 H       10.4330    -7.4790     0.9600 H     1 <1>   0.0800 
 44 H        9.1040    -8.3320     1.6990 H     1 <1>   0.0800 
 45 H       10.4890    -5.7910    -1.4020 H     1 <1>   0.0800 
 46 H       11.0000    -5.5580     0.2580 H     1 <1>   0.0800 
 47 H        9.2980    -3.8470    -2.6050 H     1 <1>   0.1500 
 48 H       11.4120    -3.3490     1.0930 H     1 <1>   0.1500 
 49 H        9.3680    -1.4290    -2.9520 H     1 <1>   0.1500 
 50 H       11.4670    -0.9350     0.7160 H     1 <1>   0.1500 
 51 H       10.4430     0.0290    -1.2960 H     1 <1>   0.1500 
@<TRIPOS>BOND
  1   1   2  1   
  2   2   3  ar  
  3   2   4  ar  
  4   3   5  ar  
  5   3  27  1   
  6   4   6  ar  
  7   4  28  1   
  8   5   7  ar  
  9   5  29  1   
 10   6   7  ar  
 11   6  30  1   
 12   7   8  1   
 13   8   9  am  
 14   8  31  1   
 15   9  10  2   
 16   9  11  am  
 17  11  12  1   
 18  11  32  1   
 19  12  13  1   
 20  12  14  1   
 21  12  33  1   
 22  13  15  1   
 23  13  34  1   
 24  13  35  1   
 25  14  16  1   
 26  14  36  1   
 27  14  37  1   
 28  15  17  1   
 29  15  18  1   
 30  15  38  1   
 31  16  17  1   
 32  16  19  1   
 33  16  39  1   
 34  17  20  1   
 35  17  40  1   
 36  18  19  1   
 37  18  41  1   
 38  18  42  1   
 39  19  43  1   
 40  19  44  1   
 41  20  21  1   
 42  20  45  1   
 43  20  46  1   
 44  21  22  ar  
 45  21  23  ar  
 46  22  24  ar  
 47  22  47  1   
 48  23  25  ar  
 49  23  48  1   
 50  24  26  ar  
 51  24  49  1   
 52  25  26  ar  
 53  25  50  1   
 54  26  51  1   
@<TRIPOS>SUBSTRUCTURE
  1 ****  11 GROUP 4 **** **** 0

# MOE 2024.06 (io_trps.svl 2023.06)
