@<TRIPOS>MOLECULE
NONAME
43 45 1 0 0 
SMALL
USER_CHARGES


@<TRIPOS>ATOM
  1 S        0.8060     0.4040    -2.0370 S.3   1 <1>  -0.3320 
  2 C        0.5190     2.0550    -1.4150 C.ar  1 <1>   0.4120 
  3 C       -0.8210    -0.4750    -1.8270 C.3   1 <1>   0.1310 
  4 N       -0.6580     2.3010    -0.9490 N.ar  1 <1>  -0.6200 
  5 C        1.5760     2.9840    -1.4540 C.ar  1 <1>   0.0000 
  6 C       -0.6320    -1.9850    -1.8280 C.2   1 <1>   0.5690 
  7 C       -0.8450     3.5430    -0.4710 C.ar  1 <1>   0.5880 
  8 C        1.2590     4.2420    -0.9320 C.ar  1 <1>   0.3100 
  9 C        2.8780     2.7640    -1.9550 C.ar  1 <1>  -0.1500 
 10 O       -0.9970    -2.5870    -2.8070 O.2   1 <1>  -0.5700 
 11 N       -0.1070    -2.7060    -0.8020 N.am  1 <1>  -0.7300 
 12 N        0.0280     4.4980    -0.4420 N.ar  1 <1>  -0.6200 
 13 C       -2.2370     3.8160     0.0800 C.3   1 <1>  -0.0680 
 14 C        2.2380     5.2460    -0.9200 C.ar  1 <1>  -0.1500 
 15 C        3.8180     3.7600    -1.9320 C.ar  1 <1>  -0.1500 
 16 C        0.4750    -2.4210     0.5170 C.3   1 <1>   0.3000 
 17 C       -2.4560     4.6130     1.3350 C.3   1 <1>  -0.2000 
 18 C       -2.7090     3.1380     1.3340 C.3   1 <1>  -0.2000 
 19 C        3.4970     5.0160    -1.4090 C.ar  1 <1>  -0.1500 
 20 C        1.9780    -2.2180     0.3470 C.3   1 <1>  -0.2400 
 21 C       -0.1680    -1.2170     1.2070 C.3   1 <1>  -0.2400 
 22 C        0.2230    -3.6690     1.3620 C.3   1 <1>  -0.2400 
 23 H       -1.4350    -0.1790    -2.6560 H     1 <1>   0.0800 
 24 H       -1.2830    -0.1470    -0.9180 H     1 <1>   0.0800 
 25 H        3.1320     1.8000    -2.3610 H     1 <1>   0.1500 
 26 H       -0.0480    -3.6990    -1.0280 H     1 <1>   0.3700 
 27 H       -2.9520     3.9380    -0.7120 H     1 <1>   0.1000 
 28 H        1.9690     6.2040    -0.5130 H     1 <1>   0.1500 
 29 H        4.8110     3.5890    -2.3150 H     1 <1>   0.1500 
 30 H       -3.2930     5.2890     1.3720 H     1 <1>   0.1000 
 31 H       -1.5950     4.9930     1.8580 H     1 <1>   0.1000 
 32 H       -2.0240     2.4950     1.8600 H     1 <1>   0.1000 
 33 H       -3.7230     2.7810     1.3730 H     1 <1>   0.1000 
 34 H        4.2450     5.7900    -1.3970 H     1 <1>   0.1500 
 35 H        2.1780    -1.3510    -0.2540 H     1 <1>   0.0800 
 36 H        2.4260    -3.0750    -0.1230 H     1 <1>   0.0800 
 37 H        2.4440    -2.0740     1.3050 H     1 <1>   0.0800 
 38 H       -1.2390    -1.2980     1.1920 H     1 <1>   0.0800 
 39 H        0.1390    -0.2970     0.7480 H     1 <1>   0.0800 
 40 H        0.1500    -1.1730     2.2330 H     1 <1>   0.0800 
 41 H       -0.8340    -3.8390     1.4720 H     1 <1>   0.0800 
 42 H        0.6470    -3.5480     2.3420 H     1 <1>   0.0800 
 43 H        0.6730    -4.5350     0.9100 H     1 <1>   0.0800 
@<TRIPOS>BOND
  1   1   2  1   
  2   1   3  1   
  3   2   4  ar  
  4   2   5  ar  
  5   3   6  1   
  6   3  23  1   
  7   3  24  1   
  8   4   7  ar  
  9   5   8  ar  
 10   5   9  ar  
 11   6  10  2   
 12   6  11  am  
 13   7  12  ar  
 14   7  13  1   
 15   8  12  ar  
 16   8  14  ar  
 17   9  15  ar  
 18   9  25  1   
 19  11  16  1   
 20  11  26  1   
 21  13  17  1   
 22  13  18  1   
 23  13  27  1   
 24  14  19  ar  
 25  14  28  1   
 26  15  19  ar  
 27  15  29  1   
 28  16  20  1   
 29  16  21  1   
 30  16  22  1   
 31  17  18  1   
 32  17  30  1   
 33  17  31  1   
 34  18  32  1   
 35  18  33  1   
 36  19  34  1   
 37  20  35  1   
 38  20  36  1   
 39  20  37  1   
 40  21  38  1   
 41  21  39  1   
 42  21  40  1   
 43  22  41  1   
 44  22  42  1   
 45  22  43  1   
@<TRIPOS>SUBSTRUCTURE
  1 ****   2 GROUP 4 **** **** 0

# MOE 2024.06 (io_trps.svl 2023.06)
