@<TRIPOS>MOLECULE
8945
51 53 1 0 0 
SMALL
USER_CHARGES


@<TRIPOS>ATOM
  1 S       -0.3550    -0.1240    -0.8780 S.3   1 <1>  -0.0800 
  2 C       -1.7810    -0.1750     0.1460 C.2   1 <1>   0.1040 
  3 C       -0.2590    -1.8710    -0.9140 C.2   1 <1>  -0.1400 
  4 N       -2.3290     1.0610     0.4430 N.am  1 <1>  -0.4940 
  5 C       -2.1030    -1.4670     0.4750 C.2   1 <1>  -0.0860 
  6 C       -1.2250    -2.4190    -0.1630 C.2   1 <1>  -0.1810 
  7 C        0.8150    -2.5650    -1.7210 C.3   1 <1>   0.0200 
  8 C       -3.6120     1.4620     0.6900 C.2   1 <1>   0.6160 
  9 C       -3.1510    -1.8720     1.3730 C.2   1 <1>   0.7160 
 10 C       -1.3430    -3.9320    -0.0270 C.3   1 <1>   0.0210 
 11 C        0.4650    -4.0600    -1.8410 C.3   1 <1>  -0.1600 
 12 O       -3.7400     2.5470     1.2150 O.2   1 <1>  -0.5700 
 13 C       -4.7520     0.6650     0.3350 C.2   1 <1>  -0.1360 
 14 O       -3.9010    -2.7940     1.1280 O.2   1 <1>  -0.5700 
 15 N       -3.3600    -1.2240     2.5380 N.am  1 <1>  -0.8000 
 16 C       -0.0590    -4.6380    -0.5110 C.3   1 <1>  -0.1600 
 17 C       -6.0430     0.8860     0.6750 C.2   1 <1>  -0.1780 
 18 C       -7.1920     0.0820     0.3510 C.ar  1 <1>   0.0280 
 19 C       -8.4690     0.6380     0.3900 C.ar  1 <1>  -0.1500 
 20 C       -7.0870    -1.2650     0.0010 C.ar  1 <1>  -0.1500 
 21 C       -9.5940    -0.1050     0.0860 C.ar  1 <1>  -0.1500 
 22 C       -8.2070    -2.0150    -0.3040 C.ar  1 <1>  -0.1500 
 23 C       -9.4690    -1.4460    -0.2670 C.ar  1 <1>   0.0830 
 24 O      -10.5140    -2.2470    -0.5800 O.3   1 <1>  -0.3630 
 25 C      -11.8400    -1.7730    -0.5680 C.3   1 <1>   0.1200 
 26 C      -12.7630    -2.9260    -0.9630 C.3   1 <1>  -0.1600 
 27 C      -14.2320    -2.4880    -0.9720 C.3   1 <1>  -0.2400 
 28 H       -1.6890     1.8570     0.4250 H     1 <1>   0.3700 
 29 H        0.8870    -2.1260    -2.7000 H     1 <1>   0.0800 
 30 H        1.7590    -2.4450    -1.2200 H     1 <1>   0.0800 
 31 H       -1.5240    -4.1990     0.9990 H     1 <1>   0.0800 
 32 H       -2.1830    -4.2640    -0.6110 H     1 <1>   0.0800 
 33 H       -0.2980    -4.1780    -2.5920 H     1 <1>   0.0800 
 34 H        1.3340    -4.6070    -2.1650 H     1 <1>   0.0800 
 35 H       -4.5110    -0.1850    -0.2710 H     1 <1>   0.1500 
 36 H       -4.1450    -1.4990     3.1270 H     1 <1>   0.3700 
 37 H       -2.8310    -0.3970     2.8130 H     1 <1>   0.3700 
 38 H        0.7030    -4.5230     0.2410 H     1 <1>   0.0800 
 39 H       -0.2540    -5.6900    -0.6220 H     1 <1>   0.0800 
 40 H       -6.2720     1.7620     1.2580 H     1 <1>   0.1500 
 41 H       -8.5800     1.6730     0.6600 H     1 <1>   0.1500 
 42 H       -6.1240    -1.7430    -0.0250 H     1 <1>   0.1500 
 43 H      -10.5550     0.3700     0.1290 H     1 <1>   0.1500 
 44 H       -8.1090    -3.0510    -0.5720 H     1 <1>   0.1500 
 45 H      -12.0680    -1.4270     0.4260 H     1 <1>   0.0800 
 46 H      -11.9180    -0.9640    -1.2730 H     1 <1>   0.0800 
 47 H      -12.4910    -3.2750    -1.9440 H     1 <1>   0.0800 
 48 H      -12.6370    -3.7340    -0.2630 H     1 <1>   0.0800 
 49 H      -14.3840    -1.6910    -1.6780 H     1 <1>   0.0800 
 50 H      -14.5310    -2.1500     0.0050 H     1 <1>   0.0800 
 51 H      -14.8600    -3.3160    -1.2530 H     1 <1>   0.0800 
@<TRIPOS>BOND
  1   1   2  1   
  2   1   3  1   
  3   2   4  1   
  4   2   5  2   
  5   3   6  2   
  6   3   7  1   
  7   4   8  am  
  8   4  28  1   
  9   5   6  1   
 10   5   9  1   
 11   6  10  1   
 12   7  11  1   
 13   7  29  1   
 14   7  30  1   
 15   8  12  2   
 16   8  13  1   
 17   9  14  2   
 18   9  15  am  
 19  10  16  1   
 20  10  31  1   
 21  10  32  1   
 22  11  16  1   
 23  11  33  1   
 24  11  34  1   
 25  13  17  2   
 26  13  35  1   
 27  15  36  1   
 28  15  37  1   
 29  16  38  1   
 30  16  39  1   
 31  17  18  1   
 32  17  40  1   
 33  18  19  ar  
 34  18  20  ar  
 35  19  21  ar  
 36  19  41  1   
 37  20  22  ar  
 38  20  42  1   
 39  21  23  ar  
 40  21  43  1   
 41  22  23  ar  
 42  22  44  1   
 43  23  24  1   
 44  24  25  1   
 45  25  26  1   
 46  25  45  1   
 47  25  46  1   
 48  26  27  1   
 49  26  47  1   
 50  26  48  1   
 51  27  49  1   
 52  27  50  1   
 53  27  51  1   
@<TRIPOS>SUBSTRUCTURE
  1 ****  13 GROUP 4 **** **** 0

# MOE 2024.06 (io_trps.svl 2023.06)
