@<TRIPOS>MOLECULE
2193
50 51 1 0 0 
SMALL
USER_CHARGES


@<TRIPOS>ATOM
  1 O       -2.1990     3.9110     0.5640 O.2   1 <1>  -0.5700 
  2 C       -1.8330     2.9260    -0.0430 C.2   1 <1>   0.5690 
  3 N       -2.6890     1.9500    -0.4500 N.am  1 <1>  -0.4300 
  4 C       -0.3490     2.7470    -0.3240 C.3   1 <1>   0.1810 
  5 N       -4.0890     1.7890    -0.0400 N.am  1 <1>  -0.4300 
  6 O       -0.1460     1.6890    -1.2530 O.3   1 <1>  -0.3630 
  7 C       -4.5490     1.2400     1.1150 C.2   1 <1>   0.5690 
  8 C        1.0550     1.0740    -1.3690 C.ar  1 <1>   0.0830 
  9 O       -5.7400     1.0830     1.2680 O.2   1 <1>  -0.5700 
 10 C       -3.6250     0.8150     2.2630 C.3   1 <1>   0.1810 
 11 C        1.0700    -0.1300    -2.0520 C.ar  1 <1>  -0.1500 
 12 C        2.2370     1.5800    -0.8360 C.ar  1 <1>  -0.1500 
 13 O       -2.3730     0.2700     1.8580 O.3   1 <1>  -0.3630 
 14 C        2.2470    -0.8440    -2.1950 C.ar  1 <1>  -0.1430 
 15 C        3.4190     0.8720    -0.9750 C.ar  1 <1>  -0.1430 
 16 C       -2.2730    -0.8600     1.1140 C.ar  1 <1>   0.0830 
 17 C        3.4170    -0.3370    -1.6540 C.ar  1 <1>  -0.1500 
 18 C        2.2650    -2.1670    -2.9380 C.3   1 <1>  -0.0970 
 19 C        4.7150     1.4100    -0.3970 C.3   1 <1>  -0.0970 
 20 C       -3.3460    -1.6890     0.8050 C.ar  1 <1>  -0.1500 
 21 C       -1.0140    -1.1740     0.6350 C.ar  1 <1>  -0.1500 
 22 C       -3.1630    -2.8130     0.0120 C.ar  1 <1>  -0.1430 
 23 C       -0.8250    -2.2950    -0.1500 C.ar  1 <1>  -0.1500 
 24 C       -1.8940    -3.1180    -0.4700 C.ar  1 <1>  -0.1430 
 25 C       -4.3650    -3.6900    -0.3100 C.3   1 <1>  -0.0970 
 26 C       -1.6450    -4.3410    -1.3420 C.3   1 <1>  -0.0970 
 27 H       -2.2530     1.1300    -0.8970 H     1 <1>   0.3700 
 28 H        0.1440     2.4990     0.5970 H     1 <1>   0.0800 
 29 H        0.0630     3.6480    -0.7380 H     1 <1>   0.0800 
 30 H       -4.8030     2.1380    -0.6860 H     1 <1>   0.3700 
 31 H       -4.1190     0.0880     2.8800 H     1 <1>   0.0800 
 32 H       -3.4110     1.6800     2.8630 H     1 <1>   0.0800 
 33 H        0.1510    -0.5040    -2.4640 H     1 <1>   0.1500 
 34 H        2.2520     2.5200    -0.3190 H     1 <1>   0.1500 
 35 H        4.3350    -0.8870    -1.7640 H     1 <1>   0.1500 
 36 H        1.2650    -2.5030    -3.1480 H     1 <1>   0.0800 
 37 H        2.7590    -2.9150    -2.3440 H     1 <1>   0.0800 
 38 H        2.7930    -2.0550    -3.8670 H     1 <1>   0.0800 
 39 H        4.5180     2.1410     0.3670 H     1 <1>   0.0800 
 40 H        5.2970     1.8700    -1.1750 H     1 <1>   0.0800 
 41 H        5.2870     0.6110     0.0390 H     1 <1>   0.0800 
 42 H       -4.3290    -1.4730     1.1760 H     1 <1>   0.1500 
 43 H       -0.1800    -0.5400     0.8770 H     1 <1>   0.1500 
 44 H        0.1640    -2.5180    -0.5080 H     1 <1>   0.1500 
 45 H       -5.2630    -3.2950     0.1290 H     1 <1>   0.0800 
 46 H       -4.2100    -4.6820     0.0740 H     1 <1>   0.0800 
 47 H       -4.5080    -3.7440    -1.3740 H     1 <1>   0.0800 
 48 H       -1.9250    -5.2340    -0.8120 H     1 <1>   0.0800 
 49 H       -0.6060    -4.4200    -1.6080 H     1 <1>   0.0800 
 50 H       -2.2220    -4.2730    -2.2460 H     1 <1>   0.0800 
@<TRIPOS>BOND
  1   1   2  2   
  2   2   3  am  
  3   2   4  1   
  4   3   5  1   
  5   3  27  1   
  6   4   6  1   
  7   4  28  1   
  8   4  29  1   
  9   5   7  am  
 10   5  30  1   
 11   6   8  1   
 12   7   9  2   
 13   7  10  1   
 14   8  11  ar  
 15   8  12  ar  
 16  10  13  1   
 17  10  31  1   
 18  10  32  1   
 19  11  14  ar  
 20  11  33  1   
 21  12  15  ar  
 22  12  34  1   
 23  13  16  1   
 24  14  17  ar  
 25  14  18  1   
 26  15  17  ar  
 27  15  19  1   
 28  16  20  ar  
 29  16  21  ar  
 30  17  35  1   
 31  18  36  1   
 32  18  37  1   
 33  18  38  1   
 34  19  39  1   
 35  19  40  1   
 36  19  41  1   
 37  20  22  ar  
 38  20  42  1   
 39  21  23  ar  
 40  21  43  1   
 41  22  24  ar  
 42  22  25  1   
 43  23  24  ar  
 44  23  44  1   
 45  24  26  1   
 46  25  45  1   
 47  25  46  1   
 48  25  47  1   
 49  26  48  1   
 50  26  49  1   
 51  26  50  1   
@<TRIPOS>SUBSTRUCTURE
  1 ****  21 GROUP 4 **** **** 0

# MOE 2024.06 (io_trps.svl 2023.06)
