@<TRIPOS>MOLECULE
4-(4-Ethoxy-benzoylamino)-piperidine-1-carboxylic acid (4-fluoro-phenyl)-amide
52 54 1 0 0 
SMALL
USER_CHARGES


@<TRIPOS>ATOM
  1 F        2.4630    -0.2440     4.7900 F     1 <1>  -0.1900 
  2 C        3.3510    -0.2470     3.8300 C.ar  1 <1>   0.1900 
  3 C        3.1930     0.6270     2.7720 C.ar  1 <1>  -0.1500 
  4 C        4.4160    -1.1230     3.9080 C.ar  1 <1>  -0.1500 
  5 C        4.1380     0.6190     1.7600 C.ar  1 <1>  -0.1500 
  6 C        5.3530    -1.1180     2.8880 C.ar  1 <1>  -0.1500 
  7 C        5.2250    -0.2520     1.8020 C.ar  1 <1>   0.1170 
  8 N        6.1610    -0.2080     0.7590 N.am  1 <1>  -0.5470 
  9 C        7.0230    -1.1530     0.2800 C.2   1 <1>   0.6900 
 10 O        6.9720    -2.3030     0.6730 O.2   1 <1>  -0.5700 
 11 N        7.9350    -0.7880    -0.6800 N.am  1 <1>  -0.6600 
 12 C        8.4830     0.5900    -0.8260 C.3   1 <1>   0.1400 
 13 C        8.6550    -1.8210    -1.4770 C.3   1 <1>   0.1400 
 14 C        9.9590     0.5930    -0.4250 C.3   1 <1>  -0.1600 
 15 C       10.1300    -1.8400    -1.0740 C.3   1 <1>  -0.1600 
 16 C       10.7440    -0.4480    -1.2240 C.3   1 <1>   0.2200 
 17 N       12.1330    -0.4790    -0.7380 N.am  1 <1>  -0.7300 
 18 C       13.1880     0.1550    -1.3340 C.2   1 <1>   0.5440 
 19 O       12.9730     0.8250    -2.3250 O.2   1 <1>  -0.5700 
 20 C       14.5270     0.0480    -0.7810 C.ar  1 <1>   0.0860 
 21 C       14.9360    -1.0620    -0.0350 C.ar  1 <1>  -0.1500 
 22 C       15.4660     1.0610    -0.9770 C.ar  1 <1>  -0.1500 
 23 C       16.2090    -1.1500     0.5000 C.ar  1 <1>  -0.1500 
 24 C       16.7400     0.9810    -0.4470 C.ar  1 <1>  -0.1500 
 25 C       17.1240    -0.1210     0.2980 C.ar  1 <1>   0.0830 
 26 O       18.3850    -0.1240     0.7850 O.3   1 <1>  -0.3620 
 27 C       18.8920    -1.2010     1.5370 C.3   1 <1>   0.1200 
 28 C       20.3350    -0.8770     1.9130 C.3   1 <1>  -0.2400 
 29 H        2.3500     1.2940     2.7470 H     1 <1>   0.1500 
 30 H        4.5080    -1.7910     4.7450 H     1 <1>   0.1500 
 31 H        4.0260     1.2920     0.9300 H     1 <1>   0.1500 
 32 H        6.1880    -1.7930     2.9390 H     1 <1>   0.1500 
 33 H        6.1160     0.6090     0.1620 H     1 <1>   0.3700 
 34 H        7.9500     1.2890    -0.2070 H     1 <1>   0.0800 
 35 H        8.3810     0.9010    -1.8520 H     1 <1>   0.0800 
 36 H        8.5610    -1.5850    -2.5230 H     1 <1>   0.0800 
 37 H        8.2210    -2.7950    -1.3190 H     1 <1>   0.0800 
 38 H       10.0330     0.3850     0.6280 H     1 <1>   0.0800 
 39 H       10.3730     1.5680    -0.6110 H     1 <1>   0.0800 
 40 H       10.6570    -2.5360    -1.7020 H     1 <1>   0.0800 
 41 H       10.2000    -2.1740    -0.0540 H     1 <1>   0.0800 
 42 H       10.7340    -0.1730    -2.2670 H     1 <1>   0.0800 
 43 H       12.2610    -0.9120     0.1750 H     1 <1>   0.3700 
 44 H       14.2500    -1.8740     0.1230 H     1 <1>   0.1500 
 45 H       15.1860     1.9250    -1.5580 H     1 <1>   0.1500 
 46 H       16.4740    -2.0220     1.0670 H     1 <1>   0.1500 
 47 H       17.4480     1.7740    -0.6080 H     1 <1>   0.1500 
 48 H       18.8460    -2.0900     0.9330 H     1 <1>   0.0800 
 49 H       18.2860    -1.3150     2.4190 H     1 <1>   0.0800 
 50 H       20.9270    -0.7480     1.0240 H     1 <1>   0.0800 
 51 H       20.7520    -1.6820     2.4900 H     1 <1>   0.0800 
 52 H       20.3700     0.0220     2.5010 H     1 <1>   0.0800 
@<TRIPOS>BOND
  1   1   2  1   
  2   2   3  ar  
  3   2   4  ar  
  4   3   5  ar  
  5   3  29  1   
  6   4   6  ar  
  7   4  30  1   
  8   5   7  ar  
  9   5  31  1   
 10   6   7  ar  
 11   6  32  1   
 12   7   8  1   
 13   8   9  am  
 14   8  33  1   
 15   9  10  2   
 16   9  11  am  
 17  11  12  1   
 18  11  13  1   
 19  12  14  1   
 20  12  34  1   
 21  12  35  1   
 22  13  15  1   
 23  13  36  1   
 24  13  37  1   
 25  14  16  1   
 26  14  38  1   
 27  14  39  1   
 28  15  16  1   
 29  15  40  1   
 30  15  41  1   
 31  16  17  1   
 32  16  42  1   
 33  17  18  am  
 34  17  43  1   
 35  18  19  2   
 36  18  20  1   
 37  20  21  ar  
 38  20  22  ar  
 39  21  23  ar  
 40  21  44  1   
 41  22  24  ar  
 42  22  45  1   
 43  23  25  ar  
 44  23  46  1   
 45  24  25  ar  
 46  24  47  1   
 47  25  26  1   
 48  26  27  1   
 49  27  28  1   
 50  27  48  1   
 51  27  49  1   
 52  28  50  1   
 53  28  51  1   
 54  28  52  1   
@<TRIPOS>SUBSTRUCTURE
  1 ****  14 GROUP 4 **** **** 0

# MOE 2024.06 (io_trps.svl 2023.06)
