@<TRIPOS>MOLECULE
7252
33 34 1 0 0 
SMALL
USER_CHARGES


@<TRIPOS>ATOM
  1 BR       0.9110    -0.9460    -2.2380 Br    1 <1>  -0.1110 
  2 C       -0.0330     0.6130    -1.6040 C.ar  1 <1>   0.1110 
  3 C       -0.1190     0.8530    -0.2380 C.ar  1 <1>   0.0830 
  4 C       -0.5810     1.4650    -2.5440 C.ar  1 <1>  -0.1500 
  5 O        0.4600    -0.0330     0.6180 O.3   1 <1>  -0.3630 
  6 C       -0.7800     2.0030     0.1840 C.ar  1 <1>  -0.1500 
  7 C       -1.2350     2.6040    -2.1060 C.ar  1 <1>  -0.1500 
  8 C        0.9290     0.3830     1.8980 C.3   1 <1>   0.1810 
  9 C       -1.3320     2.8690    -0.7480 C.ar  1 <1>  -0.1500 
 10 C        1.9980     1.4670     1.7930 C.2   1 <1>   0.5690 
 11 O        2.1090     2.2640     2.6940 O.2   1 <1>  -0.5700 
 12 N        2.7800     1.5150     0.6840 N.am  1 <1>  -0.7300 
 13 C        3.7210     2.5860     0.3340 C.3   1 <1>   0.2200 
 14 C        3.0980     3.4330    -0.7680 C.3   1 <1>  -0.1600 
 15 C        4.9340     1.9640    -0.3450 C.3   1 <1>  -0.1600 
 16 C        3.3440     2.6680    -2.0740 C.3   1 <1>  -0.1600 
 17 C        4.5090     1.7090    -1.7970 C.3   1 <1>  -0.1600 
 18 H       -0.4940     1.2430    -3.5920 H     1 <1>   0.1500 
 19 H       -0.8770     2.2400     1.2270 H     1 <1>   0.1500 
 20 H       -1.6690     3.2840    -2.8200 H     1 <1>   0.1500 
 21 H        1.3510    -0.4770     2.3810 H     1 <1>   0.0800 
 22 H        0.0960     0.7290     2.4800 H     1 <1>   0.0800 
 23 H       -1.8410     3.7570    -0.4140 H     1 <1>   0.1500 
 24 H        2.5650     0.8760    -0.0850 H     1 <1>   0.3700 
 25 H        3.9810     3.1650     1.2060 H     1 <1>   0.0800 
 26 H        3.6190     4.3730    -0.8100 H     1 <1>   0.0800 
 27 H        2.0540     3.6260    -0.5910 H     1 <1>   0.0800 
 28 H        5.2680     1.0710     0.1550 H     1 <1>   0.0800 
 29 H        5.7340     2.6830    -0.3360 H     1 <1>   0.0800 
 30 H        3.5750     3.3470    -2.8770 H     1 <1>   0.0800 
 31 H        2.4660     2.1040    -2.3400 H     1 <1>   0.0800 
 32 H        4.1730     0.6920    -1.9070 H     1 <1>   0.0800 
 33 H        5.3290     1.8780    -2.4730 H     1 <1>   0.0800 
@<TRIPOS>BOND
  1   1   2  1   
  2   2   3  ar  
  3   2   4  ar  
  4   3   5  1   
  5   3   6  ar  
  6   4   7  ar  
  7   4  18  1   
  8   5   8  1   
  9   6   9  ar  
 10   6  19  1   
 11   7   9  ar  
 12   7  20  1   
 13   8  10  1   
 14   8  21  1   
 15   8  22  1   
 16   9  23  1   
 17  10  11  2   
 18  10  12  am  
 19  12  13  1   
 20  12  24  1   
 21  13  14  1   
 22  13  15  1   
 23  13  25  1   
 24  14  16  1   
 25  14  26  1   
 26  14  27  1   
 27  15  17  1   
 28  15  28  1   
 29  15  29  1   
 30  16  17  1   
 31  16  30  1   
 32  16  31  1   
 33  17  32  1   
 34  17  33  1   
@<TRIPOS>SUBSTRUCTURE
  1 ****  12 GROUP 4 **** **** 0

# MOE 2024.06 (io_trps.svl 2023.06)
