@<TRIPOS>MOLECULE
NONAME
44 48 1 0 0 
SMALL
USER_CHARGES


@<TRIPOS>ATOM
  1 F       -0.4970     0.4160    -1.0370 F     1 <1>  -0.1900 
  2 C       -1.6450     0.9980    -0.8170 C.ar  1 <1>   0.1900 
  3 C       -2.3970     0.5990     0.2710 C.ar  1 <1>  -0.1500 
  4 C       -2.0660     1.9920    -1.6780 C.ar  1 <1>  -0.1500 
  5 C       -3.6140     1.2190     0.5010 C.ar  1 <1>  -0.1500 
  6 C       -3.2840     2.6040    -1.4370 C.ar  1 <1>  -0.1500 
  7 C       -4.0660     2.2230    -0.3490 C.ar  1 <1>  -0.1430 
  8 C       -5.4130     2.8940    -0.0770 C.3   1 <1>   0.4330 
  9 N       -6.1480     3.0760    -1.3400 N.pl3 1 <1>  -0.8690 
 10 C       -5.2870     4.2300     0.6860 C.3   1 <1>  -0.0800 
 11 C       -7.4460     3.5400    -1.2110 C.ar  1 <1>   0.1000 
 12 C       -6.6820     5.1570     0.5960 C.3   1 <1>   0.0630 
 13 C       -4.0220     5.1840     0.2500 C.3   1 <1>  -0.0800 
 14 C       -7.7710     4.5120    -0.2660 C.ar  1 <1>  -0.1430 
 15 C       -8.4550     3.0200    -2.0100 C.ar  1 <1>  -0.1500 
 16 C       -6.2580     6.6320     0.0150 C.3   1 <1>  -0.0800 
 17 C       -5.1320     5.9210     0.1550 C.3   1 <1>  -0.1600 
 18 C       -3.6070     6.6630    -0.3100 C.3   1 <1>  -0.1600 
 19 C       -9.0860     4.9170    -0.1200 C.ar  1 <1>  -0.1500 
 20 C       -9.7620     3.4360    -1.8540 C.ar  1 <1>  -0.1500 
 21 C       -4.9940     7.5970    -0.3590 C.3   1 <1>  -0.1600 
 22 C      -10.1190     4.3900    -0.8990 C.ar  1 <1>  -0.1790 
 23 C      -11.5010     4.8170    -0.7260 C.2   1 <1>   0.9790 
 24 O      -12.4070     4.3490    -1.4400 O.co2 1 <1>  -0.9000 
 25 O      -11.8040     5.6560     0.1440 O.co2 1 <1>  -0.9000 
 26 H       -2.0350    -0.1790     0.9180 H     1 <1>   0.1500 
 27 H       -1.4540     2.2790    -2.5140 H     1 <1>   0.1500 
 28 H       -4.2070     0.9130     1.3460 H     1 <1>   0.1500 
 29 H       -3.6280     3.3850    -2.0950 H     1 <1>   0.1500 
 30 H       -6.0050     2.2300     0.5310 H     1 <1>   0.0800 
 31 H       -6.0350     2.2630    -1.9470 H     1 <1>   0.4000 
 32 H       -5.1450     3.9520     1.7180 H     1 <1>   0.0800 
 33 H       -7.0860     5.2740     1.5910 H     1 <1>   0.0800 
 34 H       -3.4320     5.1500     1.1550 H     1 <1>   0.0800 
 35 H       -8.2160     2.2860    -2.7540 H     1 <1>   0.1500 
 36 H       -6.8060     6.6580    -0.9180 H     1 <1>   0.0800 
 37 H       -5.2540     5.5470    -0.9550 H     1 <1>   0.0800 
 38 H       -5.0190     6.2730     1.2700 H     1 <1>   0.0800 
 39 H       -3.1840     6.5750    -1.2990 H     1 <1>   0.0800 
 40 H       -2.8640     7.1250     0.3210 H     1 <1>   0.0800 
 41 H       -9.3420     5.6670     0.6100 H     1 <1>   0.1500 
 42 H      -10.5390     3.0230    -2.4760 H     1 <1>   0.1500 
 43 H       -4.9240     8.4090     0.3490 H     1 <1>   0.0800 
 44 H       -5.1200     8.0300    -1.3390 H     1 <1>   0.0800 
@<TRIPOS>BOND
  1   1   2  1   
  2   2   3  ar  
  3   2   4  ar  
  4   3   5  ar  
  5   3  26  1   
  6   4   6  ar  
  7   4  27  1   
  8   5   7  ar  
  9   5  28  1   
 10   6   7  ar  
 11   6  29  1   
 12   7   8  1   
 13   8   9  1   
 14   8  10  1   
 15   8  30  1   
 16   9  11  1   
 17   9  31  1   
 18  10  12  1   
 19  10  13  1   
 20  10  32  1   
 21  11  14  ar  
 22  11  15  ar  
 23  12  14  1   
 24  12  16  1   
 25  12  33  1   
 26  13  17  1   
 27  13  18  1   
 28  13  34  1   
 29  14  19  ar  
 30  15  20  ar  
 31  15  35  1   
 32  16  17  1   
 33  16  21  1   
 34  16  36  1   
 35  17  37  1   
 36  17  38  1   
 37  18  21  1   
 38  18  39  1   
 39  18  40  1   
 40  19  22  ar  
 41  19  41  1   
 42  20  22  ar  
 43  20  42  1   
 44  21  43  1   
 45  21  44  1   
 46  22  23  1   
 47  23  24  ar  
 48  23  25  ar  
@<TRIPOS>SUBSTRUCTURE
  1 ****   9 GROUP 4 **** **** 0

# MOE 2024.06 (io_trps.svl 2023.06)
