@<TRIPOS>MOLECULE
3-(4-Fluoro-benzyl)-1-[2-(3-methyl-piperidin-1-yl)-2-oxo-ethyl]-1H-thieno[3,2-d]
51 54 1 0 0 
SMALL
USER_CHARGES


@<TRIPOS>ATOM
  1 S        1.0510    -1.0860     2.9700 S.3   1 <1>  -0.0800 
  2 C        1.7330    -1.0510     1.3380 C.2   1 <1>  -0.0450 
  3 C        0.3650    -2.6770     2.6900 C.2   1 <1>  -0.1100 
  4 C        2.4810     0.0130     0.7740 C.2   1 <1>   0.7150 
  5 C        1.4410    -2.1970     0.6800 C.2   1 <1>   0.0630 
  6 C        0.6540    -3.1140     1.4490 C.2   1 <1>  -0.1500 
  7 O        2.7530     1.0310     1.3900 O.2   1 <1>  -0.5700 
  8 N        2.8970    -0.1470    -0.5330 N.am  1 <1>  -0.4200 
  9 N        1.9230    -2.3490    -0.6240 N.am  1 <1>  -0.4230 
 10 C        2.5900    -1.2970    -1.2420 C.2   1 <1>   0.6900 
 11 C        3.7700     0.8790    -1.1550 C.3   1 <1>   0.2840 
 12 C        1.8280    -3.6820    -1.3170 C.3   1 <1>   0.2010 
 13 O        2.9160    -1.3890    -2.4120 O.2   1 <1>  -0.5700 
 14 C        5.2300     0.4870    -0.9710 C.ar  1 <1>  -0.1430 
 15 C        2.4780    -4.8300    -0.5410 C.2   1 <1>   0.5690 
 16 C        5.8930     0.8020     0.2090 C.ar  1 <1>  -0.1500 
 17 C        5.9030    -0.1880    -1.9840 C.ar  1 <1>  -0.1500 
 18 O        1.7500    -5.7440    -0.2250 O.2   1 <1>  -0.5700 
 19 N        3.8120    -4.8290    -0.2020 N.am  1 <1>  -0.6600 
 20 C        7.2210     0.4490     0.3810 C.ar  1 <1>  -0.1500 
 21 C        7.2310    -0.5450    -1.8250 C.ar  1 <1>  -0.1500 
 22 C        4.3450    -5.7760     0.8170 C.3   1 <1>   0.1400 
 23 C        4.8300    -3.8530    -0.6770 C.3   1 <1>   0.1400 
 24 C        7.8660    -0.2190    -0.6420 C.ar  1 <1>   0.1900 
 25 C        4.8340    -4.9840     2.0420 C.3   1 <1>  -0.0800 
 26 C        5.3220    -3.0230     0.5130 C.3   1 <1>  -0.1600 
 27 F        9.1160    -0.5580    -0.4830 F     1 <1>  -0.1900 
 28 C        5.8670    -3.9190     1.6350 C.3   1 <1>  -0.1600 
 29 C        5.4260    -5.9260     3.0980 C.3   1 <1>  -0.2400 
 30 H       -0.1930    -3.1240     3.4940 H     1 <1>   0.1500 
 31 H        0.3320    -4.0610     1.0530 H     1 <1>   0.1500 
 32 H        3.5930     1.8440    -0.7110 H     1 <1>   0.0800 
 33 H        3.5410     0.9680    -2.2030 H     1 <1>   0.0800 
 34 H        2.2800    -3.6460    -2.2910 H     1 <1>   0.0800 
 35 H        0.7890    -3.9140    -1.4590 H     1 <1>   0.0800 
 36 H        5.3770     1.3240     1.0000 H     1 <1>   0.1500 
 37 H        5.3930    -0.4400    -2.9000 H     1 <1>   0.1500 
 38 H        7.7470     0.6860     1.2880 H     1 <1>   0.1500 
 39 H        7.7660    -1.0650    -2.5990 H     1 <1>   0.1500 
 40 H        5.1580    -6.3340     0.3880 H     1 <1>   0.0800 
 41 H        3.5850    -6.4760     1.1210 H     1 <1>   0.0800 
 42 H        4.4360    -3.2150    -1.4450 H     1 <1>   0.0800 
 43 H        5.6570    -4.3950    -1.1020 H     1 <1>   0.0800 
 44 H        3.9790    -4.4910     2.4760 H     1 <1>   0.0800 
 45 H        4.5130    -2.4240     0.8890 H     1 <1>   0.0800 
 46 H        6.0960    -2.3550     0.1830 H     1 <1>   0.0800 
 47 H        6.7660    -4.4020     1.2930 H     1 <1>   0.0800 
 48 H        6.1210    -3.3110     2.4870 H     1 <1>   0.0800 
 49 H        6.2800    -6.4490     2.7050 H     1 <1>   0.0800 
 50 H        4.6910    -6.6490     3.4050 H     1 <1>   0.0800 
 51 H        5.7330    -5.3680     3.9650 H     1 <1>   0.0800 
@<TRIPOS>BOND
  1   1   2  1   
  2   1   3  1   
  3   2   4  1   
  4   2   5  2   
  5   3   6  2   
  6   3  30  1   
  7   4   7  2   
  8   4   8  am  
  9   5   6  1   
 10   5   9  1   
 11   6  31  1   
 12   8  10  am  
 13   8  11  1   
 14   9  10  am  
 15   9  12  1   
 16  10  13  2   
 17  11  14  1   
 18  11  32  1   
 19  11  33  1   
 20  12  15  1   
 21  12  34  1   
 22  12  35  1   
 23  14  16  ar  
 24  14  17  ar  
 25  15  18  2   
 26  15  19  am  
 27  16  20  ar  
 28  16  36  1   
 29  17  21  ar  
 30  17  37  1   
 31  19  22  1   
 32  19  23  1   
 33  20  24  ar  
 34  20  38  1   
 35  21  24  ar  
 36  21  39  1   
 37  22  25  1   
 38  22  40  1   
 39  22  41  1   
 40  23  26  1   
 41  23  42  1   
 42  23  43  1   
 43  24  27  1   
 44  25  28  1   
 45  25  29  1   
 46  25  44  1   
 47  26  28  1   
 48  26  45  1   
 49  26  46  1   
 50  28  47  1   
 51  28  48  1   
 52  29  49  1   
 53  29  50  1   
 54  29  51  1   
@<TRIPOS>SUBSTRUCTURE
  1 ****  26 GROUP 4 **** **** 0

# MOE 2024.06 (io_trps.svl 2023.06)
