@<TRIPOS>MOLECULE
NONAME
39 40 1 0 0 
SMALL
USER_CHARGES


@<TRIPOS>ATOM
  1 S       -0.3580    -1.3970     0.2050 S.3   1 <1>  -0.2860 
  2 C       -1.8190    -0.5120    -0.3520 C.2   1 <1>   0.2420 
  3 C        0.9620    -0.7570    -0.9400 C.3   1 <1>   0.1310 
  4 N       -1.7990     0.3700    -1.2870 N.2   1 <1>  -0.3380 
  5 N       -3.0290    -0.7120     0.1690 N.pl3 1 <1>   0.0480 
  6 C        2.3260    -1.3400    -0.6020 C.2   1 <1>   0.5690 
  7 N       -3.0600     0.7910    -1.4140 N.2   1 <1>  -0.3380 
  8 C       -3.7740     0.1420    -0.5520 C.2   1 <1>   0.0060 
  9 C       -3.4270    -1.6440     1.2460 C.3   1 <1>   0.0160 
 10 O        3.1730    -1.3960    -1.4550 O.2   1 <1>  -0.5700 
 11 N        2.6030    -1.7830     0.6420 N.am  1 <1>  -0.8000 
 12 C       -5.2700     0.3430    -0.3800 C.3   1 <1>   0.3000 
 13 O       -5.9130    -0.9110    -0.2700 O.3   1 <1>  -0.3630 
 14 C       -7.2300    -1.0170     0.0520 C.ar  1 <1>   0.0830 
 15 C       -7.7440    -2.2930     0.2960 C.ar  1 <1>  -0.1430 
 16 C       -8.0590     0.0970     0.1490 C.ar  1 <1>  -0.1500 
 17 C       -9.0790    -2.4340     0.6670 C.ar  1 <1>  -0.1430 
 18 C       -6.8430    -3.5220     0.1610 C.3   1 <1>  -0.0970 
 19 C       -9.3840    -0.0540     0.5060 C.ar  1 <1>  -0.1500 
 20 C       -9.8880    -1.3130     0.7670 C.ar  1 <1>  -0.1500 
 21 C       -9.6960    -3.7930     0.9730 C.3   1 <1>  -0.0970 
 22 H        0.9790     0.3120    -0.8450 H     1 <1>   0.0800 
 23 H        0.6750    -1.0290    -1.9390 H     1 <1>   0.0800 
 24 H       -2.6000    -1.8080     1.9120 H     1 <1>   0.0800 
 25 H       -3.7280    -2.5790     0.8080 H     1 <1>   0.0800 
 26 H       -4.2490    -1.2300     1.8000 H     1 <1>   0.0800 
 27 H        3.5200    -2.1800     0.8460 H     1 <1>   0.3700 
 28 H        1.9060    -1.8070     1.3870 H     1 <1>   0.3700 
 29 H       -5.6750     0.8570    -1.2340 H     1 <1>   0.0800 
 30 H       -5.4590     0.9060     0.5160 H     1 <1>   0.0800 
 31 H       -7.7030     1.0890    -0.0490 H     1 <1>   0.1500 
 32 H       -6.0190    -3.3370    -0.5020 H     1 <1>   0.0800 
 33 H       -7.3870    -4.3540    -0.2450 H     1 <1>   0.0800 
 34 H       -6.4570    -3.7950     1.1260 H     1 <1>   0.0800 
 35 H      -10.0260     0.8070     0.5820 H     1 <1>   0.1500 
 36 H      -10.9220    -1.4130     1.0470 H     1 <1>   0.1500 
 37 H       -9.0800    -4.3350     1.6670 H     1 <1>   0.0800 
 38 H       -9.7940    -4.3640     0.0670 H     1 <1>   0.0800 
 39 H      -10.6720    -3.6850     1.4110 H     1 <1>   0.0800 
@<TRIPOS>BOND
  1   1   2  1   
  2   1   3  1   
  3   2   4  2   
  4   2   5  1   
  5   3   6  1   
  6   3  22  1   
  7   3  23  1   
  8   4   7  1   
  9   5   8  1   
 10   5   9  1   
 11   6  10  2   
 12   6  11  am  
 13   7   8  2   
 14   8  12  1   
 15   9  24  1   
 16   9  25  1   
 17   9  26  1   
 18  11  27  1   
 19  11  28  1   
 20  12  13  1   
 21  12  29  1   
 22  12  30  1   
 23  13  14  1   
 24  14  15  ar  
 25  14  16  ar  
 26  15  17  ar  
 27  15  18  1   
 28  16  19  ar  
 29  16  31  1   
 30  17  20  ar  
 31  17  21  1   
 32  18  32  1   
 33  18  33  1   
 34  18  34  1   
 35  19  20  ar  
 36  19  35  1   
 37  20  36  1   
 38  21  37  1   
 39  21  38  1   
 40  21  39  1   
@<TRIPOS>SUBSTRUCTURE
  1 ****   5 GROUP 4 **** **** 0

# MOE 2024.06 (io_trps.svl 2023.06)
