@<TRIPOS>MOLECULE
NONAME
37 38 1 0 0 
SMALL
USER_CHARGES


@<TRIPOS>ATOM
  1 S       -0.0400    -0.4880    -0.0970 S.3   1 <1>  -0.0800 
  2 C       -1.2120     0.7900    -0.0380 C.2   1 <1>   0.4420 
  3 C        1.2170     0.7040     0.0480 C.2   1 <1>   0.3250 
  4 N       -0.6420     1.9350     0.1010 N.2   1 <1>  -0.3380 
  5 N       -2.5810     0.5170    -0.0820 N.am  1 <1>  -0.4240 
  6 N        0.7160     1.8860     0.1440 N.2   1 <1>  -0.3380 
  7 C        2.6050     0.3020     0.0590 C.ar  1 <1>   0.0530 
  8 C       -3.1210    -0.6540    -0.5860 C.2   1 <1>   0.5690 
  9 C       -3.4810     1.6190     0.3720 C.3   1 <1>   0.0600 
 10 C        3.0260    -1.0110    -0.1860 C.ar  1 <1>  -0.1500 
 11 C        3.6030     1.2440     0.3200 C.ar  1 <1>  -0.1500 
 12 O       -2.5620    -1.3000    -1.4400 O.2   1 <1>  -0.5700 
 13 C       -4.4780    -1.1750    -0.0760 C.3   1 <1>  -0.0190 
 14 C        4.3630    -1.3630    -0.1650 C.ar  1 <1>  -0.1500 
 15 C        4.9410     0.9000     0.3420 C.ar  1 <1>  -0.1500 
 16 C       -4.3950    -2.6520     0.3460 C.3   1 <1>  -0.2400 
 17 C       -5.5810    -1.0050    -1.1350 C.3   1 <1>  -0.2400 
 18 C        5.3350    -0.4050     0.1010 C.ar  1 <1>   0.0830 
 19 O        6.6630    -0.6630     0.1410 O.3   1 <1>  -0.3630 
 20 C        7.1720    -1.9580    -0.0910 C.3   1 <1>   0.0400 
 21 H       -3.1010     2.5710     0.0440 H     1 <1>   0.0800 
 22 H       -3.5370     1.6190     1.4470 H     1 <1>   0.0800 
 23 H       -4.4670     1.5060    -0.0380 H     1 <1>   0.0800 
 24 H        2.3050    -1.7790    -0.4000 H     1 <1>   0.1500 
 25 H        3.3240     2.2660     0.5100 H     1 <1>   0.1500 
 26 H       -4.7630    -0.6230     0.8010 H     1 <1>   0.0800 
 27 H        4.6310    -2.3840    -0.3590 H     1 <1>   0.1500 
 28 H        5.6910     1.6420     0.5460 H     1 <1>   0.1500 
 29 H       -4.1430    -3.2700    -0.4980 H     1 <1>   0.0800 
 30 H       -5.3350    -2.9850     0.7490 H     1 <1>   0.0800 
 31 H       -3.6350    -2.7800     1.0970 H     1 <1>   0.0800 
 32 H       -5.3410    -1.5800    -2.0140 H     1 <1>   0.0800 
 33 H       -5.6740     0.0270    -1.4240 H     1 <1>   0.0800 
 34 H       -6.5280    -1.3400    -0.7520 H     1 <1>   0.0800 
 35 H        8.2430    -1.9150    -0.0070 H     1 <1>   0.0800 
 36 H        6.8960    -2.2690    -1.0820 H     1 <1>   0.0800 
 37 H        6.7740    -2.6270     0.6510 H     1 <1>   0.0800 
@<TRIPOS>BOND
  1   1   2  1   
  2   1   3  1   
  3   2   4  2   
  4   2   5  1   
  5   3   6  2   
  6   3   7  1   
  7   4   6  1   
  8   5   8  am  
  9   5   9  1   
 10   7  10  ar  
 11   7  11  ar  
 12   8  12  2   
 13   8  13  1   
 14   9  21  1   
 15   9  22  1   
 16   9  23  1   
 17  10  14  ar  
 18  10  24  1   
 19  11  15  ar  
 20  11  25  1   
 21  13  16  1   
 22  13  17  1   
 23  13  26  1   
 24  14  18  ar  
 25  14  27  1   
 26  15  18  ar  
 27  15  28  1   
 28  16  29  1   
 29  16  30  1   
 30  16  31  1   
 31  17  32  1   
 32  17  33  1   
 33  17  34  1   
 34  18  19  1   
 35  19  20  1   
 36  20  35  1   
 37  20  36  1   
 38  20  37  1   
@<TRIPOS>SUBSTRUCTURE
  1 ****   1 GROUP 4 **** **** 0

# MOE 2024.06 (io_trps.svl 2023.06)
