@<TRIPOS>MOLECULE
N-Cyclopentyl-2-(4-furan-2-ylmethyl-5-phenyl-4H-[1,2,4]triazol-3-ylsulfanyl)-acetamide
49 52 1 0 0 
SMALL
USER_CHARGES


@<TRIPOS>ATOM
  1 S        0.5660    -1.0370     0.0580 S.3   1 <1>  -0.2860 
  2 C       -1.1550    -1.0820    -0.4440 C.2   1 <1>   0.2420 
  3 C        1.3690    -2.2580    -1.0950 C.3   1 <1>   0.1310 
  4 N       -1.6010    -1.8290    -1.3890 N.2   1 <1>  -0.3380 
  5 N       -2.0890    -0.3370     0.1310 N.pl3 1 <1>   0.0480 
  6 C        2.8820    -2.2430    -0.9530 C.2   1 <1>   0.5690 
  7 N       -2.9080    -1.5790    -1.4570 N.2   1 <1>  -0.3380 
  8 C       -3.1970    -0.6820    -0.5530 C.2   1 <1>   0.1330 
  9 C       -1.9370     0.6020     1.2580 C.3   1 <1>   0.2760 
 10 O        3.5030    -3.2260    -1.2770 O.2   1 <1>  -0.5700 
 11 N        3.4990    -1.1280    -0.4810 N.am  1 <1>  -0.7300 
 12 C       -4.5150    -0.1520    -0.3010 C.ar  1 <1>   0.0530 
 13 C       -1.4670     1.9630     0.7760 C.2   1 <1>  -0.0400 
 14 C        4.9440    -0.9590    -0.2730 C.3   1 <1>   0.2200 
 15 C       -5.5820    -1.0120    -0.0530 C.ar  1 <1>  -0.1500 
 16 C       -4.7710     1.2190    -0.2910 C.ar  1 <1>  -0.1500 
 17 O       -1.3820     2.9350     1.6630 O.3   1 <1>  -0.2800 
 18 C       -1.1000     2.4100    -0.4470 C.2   1 <1>  -0.1500 
 19 C        5.1920    -0.6580     1.2000 C.3   1 <1>  -0.1600 
 20 C        5.3910     0.3190    -0.9700 C.3   1 <1>  -0.1600 
 21 C       -6.8480    -0.5270     0.2170 C.ar  1 <1>  -0.1500 
 22 C       -6.0350     1.7100    -0.0200 C.ar  1 <1>  -0.1500 
 23 C       -0.9630     4.0160     1.0350 C.2   1 <1>  -0.0100 
 24 C       -0.7690     3.7600    -0.2750 C.2   1 <1>  -0.1500 
 25 C        4.8940     0.8360     1.3760 C.3   1 <1>  -0.1600 
 26 C        5.0240     1.4640    -0.0190 C.3   1 <1>  -0.1600 
 27 C       -7.0770     0.8370     0.2380 C.ar  1 <1>  -0.1500 
 28 H        1.0870    -1.9900    -2.0960 H     1 <1>   0.0800 
 29 H        0.9770    -3.2290    -0.8540 H     1 <1>   0.0800 
 30 H       -1.2250     0.2030     1.9570 H     1 <1>   0.0800 
 31 H       -2.8810     0.7050     1.7620 H     1 <1>   0.0800 
 32 H        2.9320    -0.3390    -0.1680 H     1 <1>   0.3700 
 33 H        5.4850    -1.8270    -0.6140 H     1 <1>   0.0800 
 34 H       -5.4100    -2.0740    -0.0760 H     1 <1>   0.1500 
 35 H       -3.9780     1.9130    -0.5060 H     1 <1>   0.1500 
 36 H       -1.0560     1.8780    -1.3830 H     1 <1>   0.1500 
 37 H        6.2320    -0.8340     1.4120 H     1 <1>   0.0800 
 38 H        4.6000    -1.2810     1.8470 H     1 <1>   0.0800 
 39 H        4.9470     0.4270    -1.9450 H     1 <1>   0.0800 
 40 H        6.4600     0.2880    -1.0830 H     1 <1>   0.0800 
 41 H       -7.6570    -1.2110     0.4080 H     1 <1>   0.1500 
 42 H       -6.2120     2.7720    -0.0130 H     1 <1>   0.1500 
 43 H       -0.8310     4.9250     1.5960 H     1 <1>   0.1500 
 44 H       -0.4330     4.4260    -1.0510 H     1 <1>   0.1500 
 45 H        5.5780     1.2840     2.0750 H     1 <1>   0.0800 
 46 H        3.8890     0.9680     1.7410 H     1 <1>   0.0800 
 47 H        4.0820     1.8960    -0.3100 H     1 <1>   0.0800 
 48 H        5.7780     2.2330    -0.0350 H     1 <1>   0.0800 
 49 H       -8.0620     1.2170     0.4490 H     1 <1>   0.1500 
@<TRIPOS>BOND
  1   1   2  1   
  2   1   3  1   
  3   2   4  2   
  4   2   5  1   
  5   3   6  1   
  6   3  28  1   
  7   3  29  1   
  8   4   7  1   
  9   5   8  1   
 10   5   9  1   
 11   6  10  2   
 12   6  11  am  
 13   7   8  2   
 14   8  12  1   
 15   9  13  1   
 16   9  30  1   
 17   9  31  1   
 18  11  14  1   
 19  11  32  1   
 20  12  15  ar  
 21  12  16  ar  
 22  13  17  1   
 23  13  18  2   
 24  14  19  1   
 25  14  20  1   
 26  14  33  1   
 27  15  21  ar  
 28  15  34  1   
 29  16  22  ar  
 30  16  35  1   
 31  17  23  1   
 32  18  24  1   
 33  18  36  1   
 34  19  25  1   
 35  19  37  1   
 36  19  38  1   
 37  20  26  1   
 38  20  39  1   
 39  20  40  1   
 40  21  27  ar  
 41  21  41  1   
 42  22  27  ar  
 43  22  42  1   
 44  23  24  2   
 45  23  43  1   
 46  24  44  1   
 47  25  26  1   
 48  25  45  1   
 49  25  46  1   
 50  26  47  1   
 51  26  48  1   
 52  27  49  1   
@<TRIPOS>SUBSTRUCTURE
  1 ****   2 GROUP 4 **** **** 0

# MOE 2024.06 (io_trps.svl 2023.06)
