@<TRIPOS>MOLECULE
NONAME
56 58 1 0 0 
SMALL
USER_CHARGES


@<TRIPOS>ATOM
  1 CL      -0.5850    -0.4370    -0.1210 Cl    1 <1>  -0.1840 
  2 C       -1.7320     0.8680     0.0230 C.ar  1 <1>   0.1700 
  3 C       -2.2510     1.4440    -1.1200 C.ar  1 <1>  -0.1570 
  4 C       -2.1110     1.3020     1.2790 C.ar  1 <1>  -0.1570 
  5 C       -3.1740     2.4690    -1.0040 C.ar  1 <1>  -0.1570 
  6 C       -3.0340     2.3270     1.3920 C.ar  1 <1>  -0.1570 
  7 C       -3.5760     2.9090     0.2520 C.ar  1 <1>  -0.1500 
  8 C       -4.6350     3.9920     0.3760 C.3   1 <1>   0.4930 
  9 N       -6.0080     3.4070     0.3460 N.pl3 1 <1>  -0.7670 
 10 C       -6.4560     2.1450     0.3150 C.cat 1 <1>   1.0690 
 11 C       -7.1490     4.2370     0.3500 C.2   1 <1>   0.2710 
 12 N       -7.7800     2.1430     0.2940 N.pl3 1 <1>  -0.7030 
 13 N       -5.7200     1.0350     0.2960 N.pl3 1 <1>  -0.7180 
 14 C       -7.3660     5.6510     0.3810 C.2   1 <1>   0.7000 
 15 C       -8.2210     3.4220     0.3120 C.2   1 <1>   0.4210 
 16 C       -6.1870    -0.3740     0.4020 C.3   1 <1>   0.1610 
 17 O       -6.4210     6.4220     0.4100 O.2   1 <1>  -0.5740 
 18 N       -8.6740     6.1160     0.3740 N.am  1 <1>  -0.4250 
 19 N       -9.5270     3.8650     0.2860 N.am  1 <1>  -0.4410 
 20 C       -6.6480    -0.9190    -0.9620 C.3   1 <1>   0.1330 
 21 C       -9.7510     5.2350     0.3040 C.2   1 <1>   0.6870 
 22 C       -8.9480     7.5870     0.4050 C.3   1 <1>   0.0530 
 23 C      -10.6490     2.8810     0.2070 C.3   1 <1>   0.0530 
 24 N       -7.8690    -1.7490    -0.8130 N.am  1 <1>  -0.7330 
 25 O      -10.8840     5.6670     0.2530 O.2   1 <1>  -0.5740 
 26 C       -9.1010    -1.2760    -0.4870 C.2   1 <1>   0.5650 
 27 O       -9.2580    -0.1120    -0.1910 O.2   1 <1>  -0.5740 
 28 C      -10.2900    -2.2400    -0.4800 C.3   1 <1>  -0.0260 
 29 C      -11.4260    -1.7470    -1.3900 C.3   1 <1>  -0.2460 
 30 C      -10.8180    -2.4650     0.9460 C.3   1 <1>  -0.2460 
 31 H       -1.9280     1.0940    -2.0850 H     1 <1>   0.1430 
 32 H       -1.6820     0.8420     2.1530 H     1 <1>   0.1430 
 33 H       -3.5720     2.9170    -1.9010 H     1 <1>   0.1430 
 34 H       -3.3220     2.6630     2.3760 H     1 <1>   0.1430 
 35 H       -4.5260     4.6930    -0.4350 H     1 <1>   0.0730 
 36 H       -4.4970     4.5350     1.2970 H     1 <1>   0.0730 
 37 H       -8.3640     1.2970     0.2050 H     1 <1>   0.4450 
 38 H       -4.7010     1.1620     0.2690 H     1 <1>   0.4450 
 39 H       -6.9970    -0.4190     1.1100 H     1 <1>   0.0730 
 40 H       -5.3870    -0.9880     0.7800 H     1 <1>   0.0730 
 41 H       -5.8660    -1.5120    -1.4040 H     1 <1>   0.0730 
 42 H       -6.8770    -0.1060    -1.6310 H     1 <1>   0.0730 
 43 H       -8.1040     8.1310     0.7910 H     1 <1>   0.0730 
 44 H       -9.7970     7.7920     1.0350 H     1 <1>   0.0730 
 45 H       -9.1640     7.9340    -0.5900 H     1 <1>   0.0730 
 46 H      -10.5620     2.1600     1.0010 H     1 <1>   0.0730 
 47 H      -10.6180     2.3680    -0.7380 H     1 <1>   0.0730 
 48 H      -11.6030     3.3720     0.3000 H     1 <1>   0.0730 
 49 H       -7.7760    -2.7370    -1.0700 H     1 <1>   0.3650 
 50 H       -9.9560    -3.1890    -0.8600 H     1 <1>   0.0730 
 51 H      -11.8130    -0.8080    -1.0360 H     1 <1>   0.0730 
 52 H      -12.2290    -2.4640    -1.4100 H     1 <1>   0.0730 
 53 H      -11.0650    -1.6120    -2.3950 H     1 <1>   0.0730 
 54 H      -11.1820    -1.5410     1.3620 H     1 <1>   0.0730 
 55 H      -10.0330    -2.8400     1.5790 H     1 <1>   0.0730 
 56 H      -11.6220    -3.1790     0.9400 H     1 <1>   0.0730 
@<TRIPOS>BOND
  1   1   2  1   
  2   2   3  ar  
  3   2   4  ar  
  4   3   5  ar  
  5   3  31  1   
  6   4   6  ar  
  7   4  32  1   
  8   5   7  ar  
  9   5  33  1   
 10   6   7  ar  
 11   6  34  1   
 12   7   8  1   
 13   8   9  1   
 14   8  35  1   
 15   8  36  1   
 16   9  10  ar  
 17   9  11  1   
 18  10  12  ar  
 19  10  13  ar  
 20  11  14  1   
 21  11  15  2   
 22  12  15  1   
 23  12  37  1   
 24  13  16  1   
 25  13  38  1   
 26  14  17  2   
 27  14  18  am  
 28  15  19  1   
 29  16  20  1   
 30  16  39  1   
 31  16  40  1   
 32  18  21  am  
 33  18  22  1   
 34  19  21  am  
 35  19  23  1   
 36  20  24  1   
 37  20  41  1   
 38  20  42  1   
 39  21  25  2   
 40  22  43  1   
 41  22  44  1   
 42  22  45  1   
 43  23  46  1   
 44  23  47  1   
 45  23  48  1   
 46  24  26  am  
 47  24  49  1   
 48  26  27  2   
 49  26  28  1   
 50  28  29  1   
 51  28  30  1   
 52  28  50  1   
 53  29  51  1   
 54  29  52  1   
 55  29  53  1   
 56  30  54  1   
 57  30  55  1   
 58  30  56  1   
@<TRIPOS>SUBSTRUCTURE
  1 ****  10 GROUP 4 **** **** 0

# MOE 2024.06 (io_trps.svl 2023.06)
