@<TRIPOS>MOLECULE
1-(2,3-Dihydro-benzo[1,4]dioxin-6-yl)-2-methyl-propylamine
33 34 1 0 0 
SMALL
USER_CHARGES


@<TRIPOS>ATOM
  1 O       -0.2760     1.4500     1.6050 O.3   1 <1>  -0.3630 
  2 C       -1.2070     1.5740     0.6270 C.ar  1 <1>   0.0830 
  3 C        1.0830     1.4510     1.2050 C.3   1 <1>   0.1200 
  4 C       -0.8550     1.9710    -0.6620 C.ar  1 <1>   0.0830 
  5 C       -2.5270     1.2910     0.9270 C.ar  1 <1>  -0.1500 
  6 C        1.3180     2.4930     0.1010 C.3   1 <1>   0.1200 
  7 O        0.4280     2.2750    -0.9780 O.3   1 <1>  -0.3630 
  8 C       -1.8260     2.0640    -1.6400 C.ar  1 <1>  -0.1500 
  9 C       -3.5110     1.3860    -0.0490 C.ar  1 <1>  -0.1430 
 10 C       -3.1470     1.7740    -1.3380 C.ar  1 <1>  -0.1500 
 11 C       -4.9410     1.0400     0.3440 C.3   1 <1>   0.5660 
 12 N       -5.4410     0.0690    -0.6340 N.4   1 <1>  -0.8530 
 13 C       -5.9050     2.2480     0.4660 C.3   1 <1>  -0.0800 
 14 C       -6.2170     2.9860    -0.8520 C.3   1 <1>  -0.2400 
 15 C       -5.3860     3.2680     1.4940 C.3   1 <1>  -0.2400 
 16 H        1.3280     0.4670     0.8460 H     1 <1>   0.0800 
 17 H        1.6830     1.6700     2.0700 H     1 <1>   0.0800 
 18 H       -2.7560     0.9990     1.9370 H     1 <1>   0.1500 
 19 H        2.3220     2.4280    -0.2780 H     1 <1>   0.0800 
 20 H        1.1490     3.4850     0.4810 H     1 <1>   0.0800 
 21 H       -1.5390     2.3700    -2.6320 H     1 <1>   0.1500 
 22 H       -3.8680     1.8670    -2.1300 H     1 <1>   0.1500 
 23 H       -4.9000     0.5610     1.3100 H     1 <1>   0.0800 
 24 H       -5.5640     0.5430    -1.5300 H     1 <1>   0.4500 
 25 H       -6.3300    -0.3380    -0.3350 H     1 <1>   0.4500 
 26 H       -4.7370    -0.6660    -0.7530 H     1 <1>   0.4500 
 27 H       -6.8360     1.8710     0.8550 H     1 <1>   0.0800 
 28 H       -5.3400     3.4710    -1.2440 H     1 <1>   0.0800 
 29 H       -6.9500     3.7540    -0.6690 H     1 <1>   0.0800 
 30 H       -6.6240     2.3300    -1.6000 H     1 <1>   0.0800 
 31 H       -4.4720     3.7290     1.1580 H     1 <1>   0.0800 
 32 H       -5.2000     2.7970     2.4440 H     1 <1>   0.0800 
 33 H       -6.1130     4.0480     1.6490 H     1 <1>   0.0800 
@<TRIPOS>BOND
  1   1   2  1   
  2   1   3  1   
  3   2   4  ar  
  4   2   5  ar  
  5   3   6  1   
  6   3  16  1   
  7   3  17  1   
  8   4   7  1   
  9   4   8  ar  
 10   5   9  ar  
 11   5  18  1   
 12   6   7  1   
 13   6  19  1   
 14   6  20  1   
 15   8  10  ar  
 16   8  21  1   
 17   9  10  ar  
 18   9  11  1   
 19  10  22  1   
 20  11  12  1   
 21  11  13  1   
 22  11  23  1   
 23  12  24  1   
 24  12  25  1   
 25  12  26  1   
 26  13  14  1   
 27  13  15  1   
 28  13  27  1   
 29  14  28  1   
 30  14  29  1   
 31  14  30  1   
 32  15  31  1   
 33  15  32  1   
 34  15  33  1   
@<TRIPOS>SUBSTRUCTURE
  1 ****   5 GROUP 4 **** **** 0

# MOE 2024.06 (io_trps.svl 2023.06)
