@<TRIPOS>MOLECULE
2-{2-[1-Cyclopentyl-3-(2-fluoro-phenyl)-ureido]-acetylamino}-4,5-dimethyl-thiophene-3-carboxylic acid amide
55 57 1 0 0 
SMALL
USER_CHARGES


@<TRIPOS>ATOM
  1 S       -0.1320    -0.1600     0.6470 S.3   1 <1>  -0.0800 
  2 C        0.9120     1.0200    -0.1280 C.2   1 <1>   0.1040 
  3 C       -0.9570     1.0720     1.5770 C.2   1 <1>  -0.1400 
  4 N        1.8690     0.5810    -1.0360 N.am  1 <1>  -0.4940 
  5 C        0.6230     2.2820     0.3190 C.2   1 <1>  -0.0860 
  6 C       -0.4480     2.2870     1.2970 C.2   1 <1>  -0.1810 
  7 C       -2.0540     0.5620     2.4920 C.3   1 <1>  -0.0600 
  8 C        2.1600    -0.6510    -1.5690 C.2   1 <1>   0.5690 
  9 C        1.2900     3.4840    -0.1240 C.2   1 <1>   0.7160 
 10 C       -0.9260     3.5840     1.9390 C.3   1 <1>  -0.0590 
 11 O        1.4440    -1.6190    -1.4810 O.2   1 <1>  -0.5700 
 12 C        3.4740    -0.7960    -2.3390 C.3   1 <1>   0.2010 
 13 O        0.6990     4.5260    -0.3220 O.2   1 <1>  -0.5700 
 14 N        2.6210     3.5330    -0.3510 N.am  1 <1>  -0.8000 
 15 N        4.7070    -0.6310    -1.4760 N.am  1 <1>  -0.6600 
 16 C        5.0100     0.6080    -0.9740 C.2   1 <1>   0.6900 
 17 C        5.5340    -1.8460    -1.1950 C.3   1 <1>   0.2200 
 18 O        4.4430     1.5910    -1.4170 O.2   1 <1>  -0.5700 
 19 N        5.8800     0.7310     0.0680 N.am  1 <1>  -0.5470 
 20 C        5.9500    -2.5910    -2.4710 C.3   1 <1>  -0.1600 
 21 C        4.7740    -2.8570    -0.3260 C.3   1 <1>  -0.1600 
 22 C        6.3680     1.8720     0.7310 C.ar  1 <1>   0.1170 
 23 C        5.2340    -3.9420    -2.4360 C.3   1 <1>  -0.1600 
 24 C        5.0300    -4.2270    -0.9530 C.3   1 <1>  -0.1600 
 25 C        6.7490     1.7980     2.0710 C.ar  1 <1>   0.1900 
 26 C        6.5140     3.1060     0.1040 C.ar  1 <1>  -0.1500 
 27 F        6.6450     0.6480     2.6930 F     1 <1>  -0.1900 
 28 C        7.2340     2.8790     2.7790 C.ar  1 <1>  -0.1500 
 29 C        6.9980     4.2050     0.7970 C.ar  1 <1>  -0.1500 
 30 C        7.3570     4.0970     2.1320 C.ar  1 <1>  -0.1500 
 31 H        2.5600     1.2890    -1.3110 H     1 <1>   0.3700 
 32 H       -1.6370    -0.1150     3.2150 H     1 <1>   0.0800 
 33 H       -2.7920     0.0370     1.9120 H     1 <1>   0.0800 
 34 H       -2.5370     1.3670     3.0110 H     1 <1>   0.0800 
 35 H       -1.6270     3.3980     2.7290 H     1 <1>   0.0800 
 36 H       -1.4040     4.2030     1.2010 H     1 <1>   0.0800 
 37 H       -0.0910     4.1210     2.3520 H     1 <1>   0.0800 
 38 H        3.4930    -0.0630    -3.1250 H     1 <1>   0.0800 
 39 H        3.4720    -1.7620    -2.8060 H     1 <1>   0.0800 
 40 H        3.0220     4.4070    -0.6850 H     1 <1>   0.3700 
 41 H        3.2720     2.7470    -0.2670 H     1 <1>   0.3700 
 42 H        6.4420    -1.5690    -0.6870 H     1 <1>   0.0800 
 43 H        6.0320    -0.1420     0.5690 H     1 <1>   0.3700 
 44 H        7.0100    -2.7710    -2.4260 H     1 <1>   0.0800 
 45 H        5.7420    -2.0420    -3.3720 H     1 <1>   0.0800 
 46 H        3.7160    -2.6640    -0.3380 H     1 <1>   0.0800 
 47 H        5.1160    -2.8330     0.6930 H     1 <1>   0.0800 
 48 H        5.8050    -4.7160    -2.9200 H     1 <1>   0.0800 
 49 H        4.2750    -3.8660    -2.9190 H     1 <1>   0.0800 
 50 H        4.2130    -4.9070    -0.7810 H     1 <1>   0.0800 
 51 H        5.9320    -4.6490    -0.5420 H     1 <1>   0.0800 
 52 H        6.2540     3.2140    -0.9340 H     1 <1>   0.1500 
 53 H        7.5090     2.7700     3.8130 H     1 <1>   0.1500 
 54 H        7.1000     5.1520     0.2930 H     1 <1>   0.1500 
 55 H        7.7320     4.9560     2.6620 H     1 <1>   0.1500 
@<TRIPOS>BOND
  1   1   2  1   
  2   1   3  1   
  3   2   4  1   
  4   2   5  2   
  5   3   6  2   
  6   3   7  1   
  7   4   8  am  
  8   4  31  1   
  9   5   6  1   
 10   5   9  1   
 11   6  10  1   
 12   7  32  1   
 13   7  33  1   
 14   7  34  1   
 15   8  11  2   
 16   8  12  1   
 17   9  13  2   
 18   9  14  am  
 19  10  35  1   
 20  10  36  1   
 21  10  37  1   
 22  12  15  1   
 23  12  38  1   
 24  12  39  1   
 25  14  40  1   
 26  14  41  1   
 27  15  16  am  
 28  15  17  1   
 29  16  18  2   
 30  16  19  am  
 31  17  20  1   
 32  17  21  1   
 33  17  42  1   
 34  19  22  1   
 35  19  43  1   
 36  20  23  1   
 37  20  44  1   
 38  20  45  1   
 39  21  24  1   
 40  21  46  1   
 41  21  47  1   
 42  22  25  ar  
 43  22  26  ar  
 44  23  24  1   
 45  23  48  1   
 46  23  49  1   
 47  24  50  1   
 48  24  51  1   
 49  25  27  1   
 50  25  28  ar  
 51  26  29  ar  
 52  26  52  1   
 53  28  30  ar  
 54  28  53  1   
 55  29  30  ar  
 56  29  54  1   
 57  30  55  1   
@<TRIPOS>SUBSTRUCTURE
  1 ****  16 GROUP 4 **** **** 0

# MOE 2024.06 (io_trps.svl 2023.06)
