@<TRIPOS>MOLECULE
NONAME
45 45 1 0 0 
SMALL
USER_CHARGES


@<TRIPOS>ATOM
  1 O       -0.5240     1.7350    -2.7720 O.2   1 <1>  -0.5700 
  2 C       -0.8540     1.7140    -1.6090 C.2   1 <1>   0.5690 
  3 N        0.0280     1.8480    -0.5900 N.am  1 <1>  -0.7300 
  4 C       -2.3290     1.5210    -1.2650 C.3   1 <1>  -0.0190 
  5 C        1.5010     1.8140    -0.6600 C.3   1 <1>   0.1140 
  6 C       -2.9060     2.7450    -0.5340 C.3   1 <1>  -0.1600 
  7 C       -2.5600     0.2530    -0.4250 C.3   1 <1>  -0.1600 
  8 C        2.0770     0.9840     0.5260 C.2   1 <1>   0.9060 
  9 C        2.0780     3.2550    -0.6910 C.3   1 <1>  -0.0800 
 10 C       -4.3920     2.5570    -0.2010 C.3   1 <1>  -0.1600 
 11 C       -4.0450     0.0570    -0.0920 C.3   1 <1>  -0.1600 
 12 O        3.2680     0.6050     0.4490 O.co2 1 <1>  -0.9000 
 13 O        1.3040     0.7470     1.4910 O.co2 1 <1>  -0.9000 
 14 C        1.8630     4.0270     0.6240 C.3   1 <1>  -0.2400 
 15 C        1.5440     4.0970    -1.8620 C.3   1 <1>  -0.2400 
 16 C       -4.6570     1.2800     0.6290 C.3   1 <1>  -0.0800 
 17 C       -6.1720     1.0810     0.9180 C.3   1 <1>  -0.0800 
 18 C       -6.7930     2.2850     1.6490 C.3   1 <1>  -0.2400 
 19 C       -6.4460    -0.1760     1.7620 C.3   1 <1>  -0.2400 
 20 H       -0.2820     1.6380     0.3530 H     1 <1>   0.3700 
 21 H       -2.8580     1.4060    -2.1950 H     1 <1>   0.0800 
 22 H        1.8030     1.3010    -1.5720 H     1 <1>   0.0800 
 23 H       -2.7820     3.6170    -1.1520 H     1 <1>   0.0800 
 24 H       -2.3570     2.9100     0.3780 H     1 <1>   0.0800 
 25 H       -1.9980     0.3170     0.4920 H     1 <1>   0.0800 
 26 H       -2.1950    -0.6030    -0.9670 H     1 <1>   0.0800 
 27 H        3.1560     3.1470    -0.8280 H     1 <1>   0.0800 
 28 H       -4.9560     2.5110    -1.1170 H     1 <1>   0.0800 
 29 H       -4.7120     3.4270     0.3420 H     1 <1>   0.0800 
 30 H       -4.1210    -0.8180     0.5270 H     1 <1>   0.0800 
 31 H       -4.5890    -0.1310    -1.0020 H     1 <1>   0.0800 
 32 H        0.7960     4.1310     0.8240 H     1 <1>   0.0800 
 33 H        2.3170     5.0160     0.5560 H     1 <1>   0.0800 
 34 H        2.3250     3.4900     1.4530 H     1 <1>   0.0800 
 35 H        0.4820     4.3030    -1.7250 H     1 <1>   0.0800 
 36 H        1.6750     3.5470    -2.7950 H     1 <1>   0.0800 
 37 H        2.0880     5.0390    -1.9240 H     1 <1>   0.0800 
 38 H       -4.1480     1.3910     1.5720 H     1 <1>   0.0800 
 39 H       -6.6870     0.9660    -0.0210 H     1 <1>   0.0800 
 40 H       -6.2440     2.5050     2.5470 H     1 <1>   0.0800 
 41 H       -7.8140     2.0770     1.9160 H     1 <1>   0.0800 
 42 H       -6.8010     3.1570     1.0220 H     1 <1>   0.0800 
 43 H       -5.8640    -0.1570     2.6670 H     1 <1>   0.0800 
 44 H       -6.2120    -1.0700     1.2150 H     1 <1>   0.0800 
 45 H       -7.4870    -0.2310     2.0280 H     1 <1>   0.0800 
@<TRIPOS>BOND
  1   1   2  2   
  2   2   3  am  
  3   2   4  1   
  4   3   5  1   
  5   3  20  1   
  6   4   6  1   
  7   4   7  1   
  8   4  21  1   
  9   5   8  1   
 10   5   9  1   
 11   5  22  1   
 12   6  10  1   
 13   6  23  1   
 14   6  24  1   
 15   7  11  1   
 16   7  25  1   
 17   7  26  1   
 18   8  12  ar  
 19   8  13  ar  
 20   9  14  1   
 21   9  15  1   
 22   9  27  1   
 23  10  16  1   
 24  10  28  1   
 25  10  29  1   
 26  11  16  1   
 27  11  30  1   
 28  11  31  1   
 29  14  32  1   
 30  14  33  1   
 31  14  34  1   
 32  15  35  1   
 33  15  36  1   
 34  15  37  1   
 35  16  17  1   
 36  16  38  1   
 37  17  18  1   
 38  17  19  1   
 39  17  39  1   
 40  18  40  1   
 41  18  41  1   
 42  18  42  1   
 43  19  43  1   
 44  19  44  1   
 45  19  45  1   
@<TRIPOS>SUBSTRUCTURE
  1 ****   4 GROUP 4 **** **** 0

# MOE 2024.06 (io_trps.svl 2023.06)
