@<TRIPOS>MOLECULE
(3-Oxo-2,3-dihydro-benzo[1,4]oxazin-4-yl)-acetic acid 1-[(furan-2-ylmethyl)-carbamoyl]-2-methyl-propyl ester
50 52 1 0 0 
SMALL
USER_CHARGES


@<TRIPOS>ATOM
  1 O       -0.7320     1.2520     2.2070 O.2   1 <1>  -0.5700 
  2 C       -0.0640     2.0340     1.5710 C.2   1 <1>   0.5690 
  3 N       -0.5280     2.6610     0.4410 N.am  1 <1>  -0.4770 
  4 C        1.3600     2.3210     2.0300 C.3   1 <1>   0.1810 
  5 C        0.2750     3.6430    -0.1950 C.ar  1 <1>   0.1170 
  6 C       -1.9600     2.4350     0.0360 C.3   1 <1>   0.2010 
  7 O        1.7980     3.6250     1.6720 O.3   1 <1>  -0.3630 
  8 C        1.4220     4.1150     0.4610 C.ar  1 <1>   0.0830 
  9 C       -0.0260     4.1860    -1.4430 C.ar  1 <1>  -0.1500 
 10 C       -2.9050     3.5220     0.5370 C.2   1 <1>   0.6590 
 11 C        2.2090     5.1040    -0.0980 C.ar  1 <1>  -0.1500 
 12 C        0.7680     5.1720    -2.0040 C.ar  1 <1>  -0.1500 
 13 O       -3.8370     3.2770     1.2630 O.2   1 <1>  -0.5700 
 14 O       -2.6660     4.7530     0.1050 O.3   1 <1>  -0.4300 
 15 C        1.8840     5.6360    -1.3320 C.ar  1 <1>  -0.1500 
 16 C       -3.4710     5.8630     0.4770 C.3   1 <1>   0.2610 
 17 C       -4.7820     5.8470    -0.3360 C.2   1 <1>   0.5690 
 18 C       -2.6280     7.1570     0.3360 C.3   1 <1>  -0.0800 
 19 O       -4.9030     6.5260    -1.3300 O.2   1 <1>  -0.5700 
 20 N       -5.7920     5.0400     0.0770 N.am  1 <1>  -0.7300 
 21 C       -1.2790     7.0570     1.0700 C.3   1 <1>  -0.2400 
 22 C       -3.3870     8.3820     0.8750 C.3   1 <1>  -0.2400 
 23 C       -7.0780     4.8670    -0.6300 C.3   1 <1>   0.3200 
 24 C       -7.5850     3.4400    -0.4910 C.2   1 <1>  -0.0400 
 25 O       -8.7470     3.1440    -1.0430 O.3   1 <1>  -0.2800 
 26 C       -7.0670     2.3490     0.1180 C.2   1 <1>  -0.1500 
 27 C       -8.9950     1.8720    -0.8030 C.2   1 <1>  -0.0100 
 28 C       -7.9940     1.3190    -0.0880 C.2   1 <1>  -0.1500 
 29 H        2.0290     1.6130     1.5770 H     1 <1>   0.0800 
 30 H        1.4240     2.2350     3.0990 H     1 <1>   0.0800 
 31 H       -2.3040     1.4940     0.4240 H     1 <1>   0.0800 
 32 H       -2.0330     2.3720    -1.0320 H     1 <1>   0.0800 
 33 H       -0.8830     3.8590    -1.9990 H     1 <1>   0.1500 
 34 H        3.0750     5.4550     0.4350 H     1 <1>   0.1500 
 35 H        0.5140     5.5830    -2.9670 H     1 <1>   0.1500 
 36 H        2.4970     6.4060    -1.7680 H     1 <1>   0.1500 
 37 H       -3.7190     5.7470     1.5170 H     1 <1>   0.0800 
 38 H       -2.4350     7.3190    -0.7120 H     1 <1>   0.0800 
 39 H       -5.6120     4.3620     0.8270 H     1 <1>   0.3700 
 40 H       -1.4270     6.8510     2.1160 H     1 <1>   0.0800 
 41 H       -0.7310     7.9780     0.9760 H     1 <1>   0.0800 
 42 H       -0.6740     6.2750     0.6500 H     1 <1>   0.0800 
 43 H       -3.6150     8.2620     1.9190 H     1 <1>   0.0800 
 44 H       -4.3060     8.5300     0.3360 H     1 <1>   0.0800 
 45 H       -2.7920     9.2700     0.7550 H     1 <1>   0.0800 
 46 H       -6.9570     5.1010    -1.6750 H     1 <1>   0.0800 
 47 H       -7.8030     5.5430    -0.2130 H     1 <1>   0.0800 
 48 H       -6.1430     2.2410     0.6580 H     1 <1>   0.1500 
 49 H       -9.9070     1.4420    -1.1780 H     1 <1>   0.1500 
 50 H       -7.8950     0.3090     0.2660 H     1 <1>   0.1500 
@<TRIPOS>BOND
  1   1   2  2   
  2   2   3  am  
  3   2   4  1   
  4   3   5  1   
  5   3   6  1   
  6   4   7  1   
  7   4  29  1   
  8   4  30  1   
  9   5   8  ar  
 10   5   9  ar  
 11   6  10  1   
 12   6  31  1   
 13   6  32  1   
 14   7   8  1   
 15   8  11  ar  
 16   9  12  ar  
 17   9  33  1   
 18  10  13  2   
 19  10  14  1   
 20  11  15  ar  
 21  11  34  1   
 22  12  15  ar  
 23  12  35  1   
 24  14  16  1   
 25  15  36  1   
 26  16  17  1   
 27  16  18  1   
 28  16  37  1   
 29  17  19  2   
 30  17  20  am  
 31  18  21  1   
 32  18  22  1   
 33  18  38  1   
 34  20  23  1   
 35  20  39  1   
 36  21  40  1   
 37  21  41  1   
 38  21  42  1   
 39  22  43  1   
 40  22  44  1   
 41  22  45  1   
 42  23  24  1   
 43  23  46  1   
 44  23  47  1   
 45  24  25  1   
 46  24  26  2   
 47  25  27  1   
 48  26  28  1   
 49  26  48  1   
 50  27  28  2   
 51  27  49  1   
 52  28  50  1   
@<TRIPOS>SUBSTRUCTURE
  1 ****  14 GROUP 4 **** **** 0

# MOE 2024.06 (io_trps.svl 2023.06)
