@<TRIPOS>MOLECULE
1825
31 31 1 0 0 
SMALL
USER_CHARGES


@<TRIPOS>ATOM
  1 O        0.0530     0.4670     0.5130 O.2   1 <1>  -0.5700 
  2 C        0.4010    -0.6910     0.3940 C.2   1 <1>   0.7800 
  3 O       -0.5230    -1.6410     0.2420 O.3   1 <1>  -0.4300 
  4 N        1.7140    -1.0430     0.3980 N.am  1 <1>  -0.5470 
  5 C       -1.8940    -1.3190     0.2000 C.3   1 <1>   0.1200 
  6 C        2.4110    -2.2550     0.3120 C.ar  1 <1>   0.1170 
  7 C       -2.6840    -2.6150     0.0220 C.3   1 <1>  -0.1600 
  8 C        3.7430    -2.2560    -0.1430 C.ar  1 <1>  -0.1790 
  9 C        1.8140    -3.4570     0.6870 C.ar  1 <1>  -0.1500 
 10 C       -4.1920    -2.3420    -0.0340 C.3   1 <1>  -0.1600 
 11 C        4.4610    -1.0430    -0.5190 C.2   1 <1>   0.9790 
 12 C        4.3970    -3.4890    -0.2310 C.ar  1 <1>  -0.1500 
 13 C        2.4870    -4.6580     0.5940 C.ar  1 <1>  -0.1500 
 14 C       -4.9820    -3.6420    -0.2120 C.3   1 <1>  -0.2400 
 15 O        5.5240    -1.1110    -1.1600 O.co2 1 <1>  -0.9000 
 16 O        4.0440     0.0900    -0.2040 O.co2 1 <1>  -0.9000 
 17 C        3.7870    -4.6740     0.1270 C.ar  1 <1>  -0.1500 
 18 H        2.3510    -0.2310     0.2920 H     1 <1>   0.3700 
 19 H       -2.0580    -0.6480    -0.6260 H     1 <1>   0.0800 
 20 H       -2.1550    -0.8290     1.1230 H     1 <1>   0.0800 
 21 H       -2.4680    -3.2730     0.8460 H     1 <1>   0.0800 
 22 H       -2.3720    -3.0910    -0.8920 H     1 <1>   0.0800 
 23 H        0.8110    -3.4620     1.0640 H     1 <1>   0.1500 
 24 H       -4.4100    -1.6800    -0.8550 H     1 <1>   0.0800 
 25 H       -4.5060    -1.8590     0.8770 H     1 <1>   0.0800 
 26 H        5.4140    -3.5050    -0.5910 H     1 <1>   0.1500 
 27 H        2.0060    -5.5750     0.8830 H     1 <1>   0.1500 
 28 H       -4.6980    -4.1310    -1.1280 H     1 <1>   0.0800 
 29 H       -6.0360    -3.4310    -0.2490 H     1 <1>   0.0800 
 30 H       -4.7960    -4.3110     0.6100 H     1 <1>   0.0800 
 31 H        4.3250    -5.6010     0.0450 H     1 <1>   0.1500 
@<TRIPOS>BOND
  1   1   2  2   
  2   2   3  1   
  3   2   4  am  
  4   3   5  1   
  5   4   6  1   
  6   4  18  1   
  7   5   7  1   
  8   5  19  1   
  9   5  20  1   
 10   6   8  ar  
 11   6   9  ar  
 12   7  10  1   
 13   7  21  1   
 14   7  22  1   
 15   8  11  1   
 16   8  12  ar  
 17   9  13  ar  
 18   9  23  1   
 19  10  14  1   
 20  10  24  1   
 21  10  25  1   
 22  11  15  ar  
 23  11  16  ar  
 24  12  17  ar  
 25  12  26  1   
 26  13  17  ar  
 27  13  27  1   
 28  14  28  1   
 29  14  29  1   
 30  14  30  1   
 31  17  31  1   
@<TRIPOS>SUBSTRUCTURE
  1 ****   4 GROUP 4 **** **** 0

# MOE 2024.06 (io_trps.svl 2023.06)
