@<TRIPOS>MOLECULE
NONAME
59 62 1 0 0 
SMALL
USER_CHARGES


@<TRIPOS>ATOM
  1 S       -0.6020    -0.5120     0.1040 S.3   1 <1>   0.1810 
  2 N       -0.1400     0.8630    -0.7660 N.2   1 <1>  -0.2210 
  3 C       -2.0670     0.2170     0.6250 C.2   1 <1>  -0.1100 
  4 N       -1.0080     1.7680    -0.6670 N.2   1 <1>  -0.2270 
  5 C       -2.1250     1.4580     0.1060 C.2   1 <1>   0.1410 
  6 C       -3.1840     2.4430     0.2700 C.2   1 <1>   0.7160 
  7 O       -2.8990     3.6230     0.3880 O.2   1 <1>  -0.5700 
  8 N       -4.5200     2.0670     0.3440 N.am  1 <1>  -0.2860 
  9 C       -4.9490     0.7750    -0.0290 C.ar  1 <1>   0.1170 
 10 C       -5.5540     3.0600     0.4340 C.2   1 <1>   0.1230 
 11 C       -5.5340    -0.1150     0.8830 C.ar  1 <1>  -0.1440 
 12 C       -4.7970     0.3860    -1.3560 C.ar  1 <1>  -0.1500 
 13 C       -5.8100     3.7210     1.6250 C.2   1 <1>   0.1000 
 14 C       -6.3080     3.2730    -0.7640 C.2   1 <1>   0.6160 
 15 C       -5.9680    -1.3650     0.4430 C.ar  1 <1>  -0.1440 
 16 C       -5.6900     0.2990     2.3480 C.3   1 <1>  -0.0960 
 17 C       -5.2110    -0.8570    -1.7820 C.ar  1 <1>  -0.1500 
 18 N       -6.9090     4.5780     1.7410 N.pl3 1 <1>  -0.6000 
 19 C       -5.0300     3.6050     2.8230 C.2   1 <1>  -0.1500 
 20 O       -5.7760     3.3580    -1.8620 O.2   1 <1>  -0.5700 
 21 N       -7.6750     3.3350    -0.8030 N.am  1 <1>  -0.7300 
 22 C       -5.7960    -1.7270    -0.8850 C.ar  1 <1>  -0.1500 
 23 C       -6.6400    -2.3760     1.3650 C.3   1 <1>  -0.0970 
 24 C       -7.2610     5.2170     2.9120 C.2   1 <1>  -0.0500 
 25 C       -5.3600     4.2330     3.9820 C.2   1 <1>  -0.1500 
 26 C       -8.5040     2.3620    -0.0700 C.3   1 <1>   0.2200 
 27 C       -6.5130     5.0550     4.0290 C.2   1 <1>  -0.1500 
 28 C       -8.7070     1.1180    -0.9390 C.3   1 <1>  -0.1600 
 29 C       -9.8440     3.0090     0.2900 C.3   1 <1>  -0.1600 
 30 C       -9.6180     0.1020    -0.2360 C.3   1 <1>  -0.1600 
 31 C      -10.7660     2.0020     0.9930 C.3   1 <1>  -0.1600 
 32 C      -10.9620     0.7380     0.1440 C.3   1 <1>  -0.1600 
 33 H       -2.7260    -0.3530     1.2520 H     1 <1>   0.1500 
 34 H       -4.3580     1.0680    -2.0650 H     1 <1>   0.1500 
 35 H       -4.7870     0.7580     2.7020 H     1 <1>   0.0800 
 36 H       -5.8860    -0.5330     2.9960 H     1 <1>   0.0800 
 37 H       -6.5000     0.9980     2.4480 H     1 <1>   0.0800 
 38 H       -5.0850    -1.1440    -2.8120 H     1 <1>   0.1500 
 39 H       -7.4850     4.7060     0.8950 H     1 <1>   0.4000 
 40 H       -4.1410     3.0060     2.7900 H     1 <1>   0.1500 
 41 H       -8.0070     3.4940    -1.7560 H     1 <1>   0.3700 
 42 H       -6.1210    -2.6920    -1.2340 H     1 <1>   0.1500 
 43 H       -7.4660    -1.9190     1.8790 H     1 <1>   0.0800 
 44 H       -5.9330    -2.7440     2.0860 H     1 <1>   0.0800 
 45 H       -7.0210    -3.2140     0.8100 H     1 <1>   0.0800 
 46 H       -8.1410     5.8390     2.8960 H     1 <1>   0.1500 
 47 H       -4.7640     4.1360     4.8720 H     1 <1>   0.1500 
 48 H       -8.0060     2.0710     0.8410 H     1 <1>   0.0800 
 49 H       -6.7630     5.5400     4.9560 H     1 <1>   0.1500 
 50 H       -7.7560     0.6560    -1.1400 H     1 <1>   0.0800 
 51 H       -9.1520     1.3990    -1.8780 H     1 <1>   0.0800 
 52 H      -10.3260     3.3620    -0.6040 H     1 <1>   0.0800 
 53 H       -9.6770     3.8470     0.9440 H     1 <1>   0.0800 
 54 H       -9.1280    -0.2590     0.6520 H     1 <1>   0.0800 
 55 H       -9.7850    -0.7400    -0.8850 H     1 <1>   0.0800 
 56 H      -11.7220     2.4590     1.1840 H     1 <1>   0.0800 
 57 H      -10.3380     1.7290     1.9430 H     1 <1>   0.0800 
 58 H      -11.5560     0.0250     0.6910 H     1 <1>   0.0800 
 59 H      -11.5010     0.9920    -0.7530 H     1 <1>   0.0800 
@<TRIPOS>BOND
  1   1   2  1   
  2   1   3  1   
  3   2   4  2   
  4   3   5  2   
  5   3  33  1   
  6   4   5  1   
  7   5   6  1   
  8   6   7  2   
  9   6   8  am  
 10   8   9  1   
 11   8  10  1   
 12   9  11  ar  
 13   9  12  ar  
 14  10  13  2   
 15  10  14  1   
 16  11  15  ar  
 17  11  16  1   
 18  12  17  ar  
 19  12  34  1   
 20  13  18  1   
 21  13  19  1   
 22  14  20  2   
 23  14  21  am  
 24  15  22  ar  
 25  15  23  1   
 26  16  35  1   
 27  16  36  1   
 28  16  37  1   
 29  17  22  ar  
 30  17  38  1   
 31  18  24  1   
 32  18  39  1   
 33  19  25  2   
 34  19  40  1   
 35  21  26  1   
 36  21  41  1   
 37  22  42  1   
 38  23  43  1   
 39  23  44  1   
 40  23  45  1   
 41  24  27  2   
 42  24  46  1   
 43  25  27  1   
 44  25  47  1   
 45  26  28  1   
 46  26  29  1   
 47  26  48  1   
 48  27  49  1   
 49  28  30  1   
 50  28  50  1   
 51  28  51  1   
 52  29  31  1   
 53  29  52  1   
 54  29  53  1   
 55  30  32  1   
 56  30  54  1   
 57  30  55  1   
 58  31  32  1   
 59  31  56  1   
 60  31  57  1   
 61  32  58  1   
 62  32  59  1   
@<TRIPOS>SUBSTRUCTURE
  1 ****   8 GROUP 4 **** **** 0

# MOE 2024.06 (io_trps.svl 2023.06)
