@<TRIPOS>MOLECULE
22447
41 41 1 0 0 
SMALL
USER_CHARGES


@<TRIPOS>ATOM
  1 S        0.1430     0.6550    -0.2980 S.3   1 <1>  -0.0800 
  2 C       -0.2300    -1.0410    -0.0560 C.2   1 <1>   0.1040 
  3 C        1.8650     0.3630    -0.2080 C.2   1 <1>  -0.1400 
  4 N       -1.5580    -1.4420    -0.0310 N.am  1 <1>  -0.4940 
  5 C        0.9200    -1.7780     0.0830 C.2   1 <1>  -0.0860 
  6 C        2.1100    -0.9470    -0.0070 C.2   1 <1>  -0.1810 
  7 C        2.7290     1.6000    -0.3690 C.3   1 <1>  -0.0600 
  8 C       -2.7470    -0.7950    -0.1940 C.2   1 <1>   0.7800 
  9 C        0.9310    -3.2100     0.2880 C.2   1 <1>   0.8060 
 10 C        3.5140    -1.5270     0.1240 C.3   1 <1>  -0.0590 
 11 O       -2.8780     0.3870    -0.4320 O.2   1 <1>  -0.5700 
 12 O       -3.8180    -1.5750    -0.0740 O.3   1 <1>  -0.4300 
 13 O        1.9260    -3.9080     0.2480 O.2   1 <1>  -0.5700 
 14 O       -0.2430    -3.8160     0.5350 O.3   1 <1>  -0.4300 
 15 C       -5.1170    -1.0440    -0.2190 C.3   1 <1>   0.1200 
 16 C       -0.3740    -5.2130     0.7090 C.3   1 <1>   0.1200 
 17 C       -6.1250    -2.1780    -0.0270 C.3   1 <1>  -0.1600 
 18 C       -0.5360    -5.8650    -0.6630 C.3   1 <1>  -0.2400 
 19 C       -7.5640    -1.6690    -0.1710 C.3   1 <1>  -0.1600 
 20 C       -8.5730    -2.8050     0.0210 C.3   1 <1>  -0.2400 
 21 H       -1.7030    -2.4340     0.1530 H     1 <1>   0.3700 
 22 H        2.5280     2.0590    -1.3210 H     1 <1>   0.0800 
 23 H        3.7740     1.3620    -0.3190 H     1 <1>   0.0800 
 24 H        2.4990     2.3050     0.4090 H     1 <1>   0.0800 
 25 H        4.2660    -0.7630     0.0800 H     1 <1>   0.0800 
 26 H        3.7010    -2.2230    -0.6740 H     1 <1>   0.0800 
 27 H        3.6160    -2.0390     1.0640 H     1 <1>   0.0800 
 28 H       -5.2010    -0.6150    -1.2040 H     1 <1>   0.0800 
 29 H       -5.2550    -0.2750     0.5230 H     1 <1>   0.0800 
 30 H       -1.2500    -5.3860     1.3100 H     1 <1>   0.0800 
 31 H        0.4870    -5.5960     1.2310 H     1 <1>   0.0800 
 32 H       -5.9930    -2.6030     0.9520 H     1 <1>   0.0800 
 33 H       -5.9400    -2.9400    -0.7640 H     1 <1>   0.0800 
 34 H       -1.3940    -5.4630    -1.1710 H     1 <1>   0.0800 
 35 H       -0.6750    -6.9240    -0.5440 H     1 <1>   0.0800 
 36 H        0.3450    -5.7070    -1.2600 H     1 <1>   0.0800 
 37 H       -7.7000    -1.2380    -1.1490 H     1 <1>   0.0800 
 38 H       -7.7520    -0.9010     0.5610 H     1 <1>   0.0800 
 39 H       -8.4190    -3.5740    -0.7150 H     1 <1>   0.0800 
 40 H       -9.5750    -2.4280    -0.0830 H     1 <1>   0.0800 
 41 H       -8.4700    -3.2370     1.0010 H     1 <1>   0.0800 
@<TRIPOS>BOND
  1   1   2  1   
  2   1   3  1   
  3   2   4  1   
  4   2   5  2   
  5   3   6  2   
  6   3   7  1   
  7   4   8  am  
  8   4  21  1   
  9   5   6  1   
 10   5   9  1   
 11   6  10  1   
 12   7  22  1   
 13   7  23  1   
 14   7  24  1   
 15   8  11  2   
 16   8  12  1   
 17   9  13  2   
 18   9  14  1   
 19  10  25  1   
 20  10  26  1   
 21  10  27  1   
 22  12  15  1   
 23  14  16  1   
 24  15  17  1   
 25  15  28  1   
 26  15  29  1   
 27  16  18  1   
 28  16  30  1   
 29  16  31  1   
 30  17  19  1   
 31  17  32  1   
 32  17  33  1   
 33  18  34  1   
 34  18  35  1   
 35  18  36  1   
 36  19  20  1   
 37  19  37  1   
 38  19  38  1   
 39  20  39  1   
 40  20  40  1   
 41  20  41  1   
@<TRIPOS>SUBSTRUCTURE
  1 ****   4 GROUP 4 **** **** 0

# MOE 2024.06 (io_trps.svl 2023.06)
