@<TRIPOS>MOLECULE
ka-00992
50 52 1 0 0 
SMALL
USER_CHARGES


@<TRIPOS>ATOM
  1 S        0.1610    -1.1970    -0.2590 S.o2  1 <1>   1.4470 
  2 O        0.7050    -2.1920    -1.1600 O.2   1 <1>  -0.6500 
  3 O        0.8120     0.0790    -0.1220 O.2   1 <1>  -0.6500 
  4 N        0.3220    -1.8890     1.2690 N.am  1 <1>  -0.9140 
  5 C       -1.6320    -1.0260    -0.4490 C.ar  1 <1>  -0.0090 
  6 C       -0.0230    -3.3220     1.3850 C.3   1 <1>   0.1960 
  7 C       -2.3100     0.0380     0.1340 C.ar  1 <1>  -0.1500 
  8 C       -2.3800    -1.9680    -1.1470 C.ar  1 <1>  -0.1500 
  9 C        1.1490    -4.3390     1.1570 C.3   1 <1>   0.5670 
 10 C       -3.6850     0.1530     0.0350 C.ar  1 <1>  -0.1500 
 11 C       -3.7550    -1.8580    -1.2500 C.ar  1 <1>  -0.1500 
 12 N        2.3070    -3.8250     0.3450 N.4   1 <1>  -0.9590 
 13 C        0.5850    -5.6090     0.5260 C.ar  1 <1>  -0.1430 
 14 C       -4.4160    -0.7980    -0.6550 C.ar  1 <1>  -0.1430 
 15 C        3.1620    -4.8990    -0.2750 C.3   1 <1>   0.3430 
 16 C        3.1730    -2.8530     1.1010 C.3   1 <1>   0.3430 
 17 C        0.6160    -6.7970     1.2450 C.ar  1 <1>  -0.1500 
 18 C        0.0460    -5.6070    -0.7570 C.ar  1 <1>  -0.1500 
 19 C       -5.9250    -0.6730    -0.7680 C.3   1 <1>  -0.0970 
 20 C        4.3280    -4.2960    -1.0790 C.3   1 <1>   0.1200 
 21 C        4.3290    -2.3370     0.2240 C.3   1 <1>   0.1200 
 22 C        0.1170    -7.9620     0.6910 C.ar  1 <1>  -0.1500 
 23 C       -0.4520    -6.7740    -1.3080 C.ar  1 <1>  -0.1500 
 24 O        5.0650    -3.4140    -0.2820 O.3   1 <1>  -0.5600 
 25 C       -0.4160    -7.9520    -0.5850 C.ar  1 <1>  -0.1500 
 26 H       -0.2620    -1.3150     1.8830 H     1 <1>   0.4200 
 27 H       -0.8360    -3.5490     0.7150 H     1 <1>   0.0800 
 28 H       -0.4020    -3.5030     2.3760 H     1 <1>   0.0800 
 29 H       -1.7600     0.7960     0.6690 H     1 <1>   0.1500 
 30 H       -1.8890    -2.7990    -1.6260 H     1 <1>   0.1500 
 31 H        1.5270    -4.6100     2.1280 H     1 <1>   0.0800 
 32 H       -4.1860     0.9890     0.4930 H     1 <1>   0.1500 
 33 H       -4.3130    -2.5980    -1.7980 H     1 <1>   0.1500 
 34 H        1.8760    -3.2910    -0.4330 H     1 <1>   0.4500 
 35 H        2.5700    -5.5150    -0.9330 H     1 <1>   0.0800 
 36 H        3.5670    -5.5350     0.4950 H     1 <1>   0.0800 
 37 H        3.5930    -3.3330     1.9690 H     1 <1>   0.0800 
 38 H        2.5980    -2.0080     1.4360 H     1 <1>   0.0800 
 39 H        1.0240    -6.8360     2.2410 H     1 <1>   0.1500 
 40 H        0.0090    -4.7060    -1.3460 H     1 <1>   0.1500 
 41 H       -6.1790    -0.1270    -1.6590 H     1 <1>   0.0800 
 42 H       -6.3270    -0.1540     0.0830 H     1 <1>   0.0800 
 43 H       -6.3810    -1.6460    -0.8170 H     1 <1>   0.0800 
 44 H        3.9680    -3.7650    -1.9440 H     1 <1>   0.0800 
 45 H        4.9950    -5.0740    -1.4080 H     1 <1>   0.0800 
 46 H        4.9960    -1.7290     0.8090 H     1 <1>   0.0800 
 47 H        3.9580    -1.7480    -0.5980 H     1 <1>   0.0800 
 48 H        0.1410    -8.8830     1.2510 H     1 <1>   0.1500 
 49 H       -0.8690    -6.7710    -2.3020 H     1 <1>   0.1500 
 50 H       -0.8050    -8.8600    -1.0140 H     1 <1>   0.1500 
@<TRIPOS>BOND
  1   1   2  2   
  2   1   3  2   
  3   1   4  am  
  4   1   5  1   
  5   4   6  1   
  6   4  26  1   
  7   5   7  ar  
  8   5   8  ar  
  9   6   9  1   
 10   6  27  1   
 11   6  28  1   
 12   7  10  ar  
 13   7  29  1   
 14   8  11  ar  
 15   8  30  1   
 16   9  12  1   
 17   9  13  1   
 18   9  31  1   
 19  10  14  ar  
 20  10  32  1   
 21  11  14  ar  
 22  11  33  1   
 23  12  15  1   
 24  12  16  1   
 25  12  34  1   
 26  13  17  ar  
 27  13  18  ar  
 28  14  19  1   
 29  15  20  1   
 30  15  35  1   
 31  15  36  1   
 32  16  21  1   
 33  16  37  1   
 34  16  38  1   
 35  17  22  ar  
 36  17  39  1   
 37  18  23  ar  
 38  18  40  1   
 39  19  41  1   
 40  19  42  1   
 41  19  43  1   
 42  20  24  1   
 43  20  44  1   
 44  20  45  1   
 45  21  24  1   
 46  21  46  1   
 47  21  47  1   
 48  22  25  ar  
 49  22  48  1   
 50  23  25  ar  
 51  23  49  1   
 52  25  50  1   
@<TRIPOS>SUBSTRUCTURE
  1 ****   6 GROUP 4 **** **** 0

# MOE 2024.06 (io_trps.svl 2023.06)
