@<TRIPOS>MOLECULE
ka-03491
30 30 1 0 0 
SMALL
USER_CHARGES


@<TRIPOS>ATOM
  1 O       -0.6890    -0.3140    -0.4530 O.2   1 <1>  -0.5700 
  2 C       -1.4710     0.6010    -0.2780 C.2   1 <1>   0.7060 
  3 O       -2.7650     0.2310    -0.2510 O.3   1 <1>  -0.2270 
  4 C       -1.0890     1.9760    -0.0650 C.2   1 <1>   0.0290 
  5 C       -3.7240     1.0120     0.2510 C.2   1 <1>  -0.0610 
  6 C       -2.0920     2.7500     0.6210 C.2   1 <1>   0.5410 
  7 C        0.1250     2.5180    -0.4740 C.2   1 <1>  -0.0380 
  8 C       -3.4190     2.2390     0.6990 C.2   1 <1>  -0.1360 
  9 C       -5.0980     0.3730     0.2650 C.3   1 <1>  -0.1020 
 10 O       -1.8910     3.8370     1.1430 O.2   1 <1>  -0.5700 
 11 N        0.5140     3.7730    -0.1310 N.pl3 1 <1>  -0.8690 
 12 C        1.1180     1.7630    -1.3570 C.3   1 <1>  -0.1020 
 13 C        1.7780     4.5000    -0.3830 C.3   1 <1>   0.2090 
 14 C        2.0380     5.4390     0.7940 C.3   1 <1>  -0.1600 
 15 C        3.3390     6.2280     0.6100 C.3   1 <1>  -0.2400 
 16 H       -4.1500     2.8980     1.1310 H     1 <1>   0.1500 
 17 H       -5.3960     0.1220    -0.7380 H     1 <1>   0.0800 
 18 H       -5.8270     1.0440     0.6840 H     1 <1>   0.0800 
 19 H       -5.0780    -0.5270     0.8540 H     1 <1>   0.0800 
 20 H       -0.1460     4.3240     0.4510 H     1 <1>   0.4000 
 21 H        1.6070     2.4310    -2.0420 H     1 <1>   0.0800 
 22 H        0.6380     1.0200    -1.9650 H     1 <1>   0.0800 
 23 H        1.8610     1.2870    -0.7430 H     1 <1>   0.0800 
 24 H        1.6870     5.0650    -1.2950 H     1 <1>   0.0800 
 25 H        2.5940     3.8060    -0.4780 H     1 <1>   0.0800 
 26 H        2.1010     4.8590     1.6980 H     1 <1>   0.0800 
 27 H        1.2170     6.1290     0.8860 H     1 <1>   0.0800 
 28 H        4.1780     5.5590     0.5350 H     1 <1>   0.0800 
 29 H        3.4960     6.8790     1.4520 H     1 <1>   0.0800 
 30 H        3.2930     6.8290    -0.2820 H     1 <1>   0.0800 
@<TRIPOS>BOND
  1   1   2  2   
  2   2   3  1   
  3   2   4  1   
  4   3   5  1   
  5   4   6  1   
  6   4   7  2   
  7   5   8  2   
  8   5   9  1   
  9   6   8  1   
 10   6  10  2   
 11   7  11  1   
 12   7  12  1   
 13   8  16  1   
 14   9  17  1   
 15   9  18  1   
 16   9  19  1   
 17  11  13  1   
 18  11  20  1   
 19  12  21  1   
 20  12  22  1   
 21  12  23  1   
 22  13  14  1   
 23  13  24  1   
 24  13  25  1   
 25  14  15  1   
 26  14  26  1   
 27  14  27  1   
 28  15  28  1   
 29  15  29  1   
 30  15  30  1   
@<TRIPOS>SUBSTRUCTURE
  1 ****   4 GROUP 4 **** **** 0

# MOE 2024.06 (io_trps.svl 2023.06)
