@<TRIPOS>MOLECULE
6440
47 48 1 0 0 
SMALL
USER_CHARGES


@<TRIPOS>ATOM
  1 O       -0.8300     0.0260     0.9160 O.2   1 <1>  -0.5700 
  2 C       -0.2010    -0.9340     0.5420 C.2   1 <1>   0.5690 
  3 N        1.0890    -1.0840     0.9540 N.am  1 <1>  -0.5470 
  4 C       -0.8500    -1.9030    -0.4420 C.3   1 <1>   0.1810 
  5 C        2.0810    -2.0220     0.6100 C.ar  1 <1>   0.1170 
  6 O       -1.4240    -3.0190     0.2230 O.3   1 <1>  -0.3630 
  7 C        3.3710    -1.5800     0.2980 C.ar  1 <1>   0.0830 
  8 C        1.8150    -3.3840     0.5920 C.ar  1 <1>  -0.1500 
  9 C       -2.7700    -3.1720     0.2480 C.ar  1 <1>   0.0830 
 10 O        3.6050    -0.2340     0.3630 O.3   1 <1>  -0.3630 
 11 C        4.3520    -2.5000    -0.0600 C.ar  1 <1>  -0.1500 
 12 C        2.7860    -4.3000     0.2320 C.ar  1 <1>   0.0830 
 13 C       -3.3280    -4.4260    -0.0140 C.ar  1 <1>  -0.1430 
 14 C       -3.5880    -2.0870     0.5460 C.ar  1 <1>  -0.1500 
 15 C        4.8720     0.3060     0.0540 C.3   1 <1>   0.0400 
 16 C        4.0610    -3.8540    -0.0990 C.ar  1 <1>  -0.1500 
 17 O        2.4170    -5.6080     0.2270 O.3   1 <1>  -0.3630 
 18 C       -4.7120    -4.5490     0.0070 C.ar  1 <1>  -0.1500 
 19 C       -2.5000    -5.6810    -0.3230 C.3   1 <1>   0.0630 
 20 C       -4.9620    -2.2310     0.5610 C.ar  1 <1>  -0.1500 
 21 C        3.3380    -6.6250    -0.0980 C.3   1 <1>   0.0400 
 22 C       -5.5240    -3.4640     0.2890 C.ar  1 <1>  -0.1500 
 23 C       -1.6490    -6.1090     0.8770 C.3   1 <1>  -0.2400 
 24 C       -1.6430    -5.5270    -1.5850 C.3   1 <1>  -0.2400 
 25 H        1.4450    -0.2590     1.4390 H     1 <1>   0.3700 
 26 H       -0.1100    -2.2790    -1.1220 H     1 <1>   0.0800 
 27 H       -1.6070    -1.3980    -1.0140 H     1 <1>   0.0800 
 28 H        0.8480    -3.7510     0.8710 H     1 <1>   0.1500 
 29 H        5.3470    -2.1880    -0.3120 H     1 <1>   0.1500 
 30 H       -3.1590    -1.1290     0.7770 H     1 <1>   0.1500 
 31 H        4.8170     1.3730     0.1700 H     1 <1>   0.0800 
 32 H        5.1160     0.0620    -0.9650 H     1 <1>   0.0800 
 33 H        5.6000    -0.0980     0.7340 H     1 <1>   0.0800 
 34 H        4.8370    -4.5400    -0.3820 H     1 <1>   0.1500 
 35 H       -5.1750    -5.4990    -0.1940 H     1 <1>   0.1500 
 36 H       -3.1840    -6.4900    -0.5170 H     1 <1>   0.0800 
 37 H       -5.5900    -1.3880     0.7890 H     1 <1>   0.1500 
 38 H        2.8290    -7.5700    -0.0250 H     1 <1>   0.0800 
 39 H        4.1540    -6.5950     0.6020 H     1 <1>   0.0800 
 40 H        3.6850    -6.4740    -1.1050 H     1 <1>   0.0800 
 41 H       -6.5940    -3.5810     0.2990 H     1 <1>   0.1500 
 42 H       -0.8970    -5.3740     1.0980 H     1 <1>   0.0800 
 43 H       -1.1590    -7.0440     0.6740 H     1 <1>   0.0800 
 44 H       -2.2730    -6.2270     1.7450 H     1 <1>   0.0800 
 45 H       -0.8380    -4.8340    -1.4260 H     1 <1>   0.0800 
 46 H       -2.2490    -5.1730    -2.3990 H     1 <1>   0.0800 
 47 H       -1.2180    -6.4760    -1.8600 H     1 <1>   0.0800 
@<TRIPOS>BOND
  1   1   2  2   
  2   2   3  am  
  3   2   4  1   
  4   3   5  1   
  5   3  25  1   
  6   4   6  1   
  7   4  26  1   
  8   4  27  1   
  9   5   7  ar  
 10   5   8  ar  
 11   6   9  1   
 12   7  10  1   
 13   7  11  ar  
 14   8  12  ar  
 15   8  28  1   
 16   9  13  ar  
 17   9  14  ar  
 18  10  15  1   
 19  11  16  ar  
 20  11  29  1   
 21  12  16  ar  
 22  12  17  1   
 23  13  18  ar  
 24  13  19  1   
 25  14  20  ar  
 26  14  30  1   
 27  15  31  1   
 28  15  32  1   
 29  15  33  1   
 30  16  34  1   
 31  17  21  1   
 32  18  22  ar  
 33  18  35  1   
 34  19  23  1   
 35  19  24  1   
 36  19  36  1   
 37  20  22  ar  
 38  20  37  1   
 39  21  38  1   
 40  21  39  1   
 41  21  40  1   
 42  22  41  1   
 43  23  42  1   
 44  23  43  1   
 45  23  44  1   
 46  24  45  1   
 47  24  46  1   
 48  24  47  1   
@<TRIPOS>SUBSTRUCTURE
  1 ****   6 GROUP 4 **** **** 0

# MOE 2024.06 (io_trps.svl 2023.06)
