@<TRIPOS>MOLECULE
ka-04984
29 30 1 0 0 
SMALL
USER_CHARGES


@<TRIPOS>ATOM
  1 O       -0.8980     0.8140    -1.1460 O.2   1 <1>  -0.5200 
  2 N       -1.4680     0.5840    -0.0460 N.pl3 1 <1>   0.8360 
  3 O       -0.7740     0.7050     0.9990 O.2   1 <1>  -0.5200 
  4 C       -2.7160    -0.0030    -0.0050 C.2   1 <1>   0.2190 
  5 C       -2.7750    -1.3970     0.0520 C.2   1 <1>   0.6160 
  6 C       -3.9100     0.7430     0.0130 C.2   1 <1>  -0.1500 
  7 O       -1.7810    -2.1360    -0.0080 O.2   1 <1>  -0.5700 
  8 N       -4.0160    -2.0280     0.2000 N.am  1 <1>  -0.4690 
  9 O       -3.8620     1.9620     0.1900 O.3   1 <1>  -0.8500 
 10 C       -5.1710     0.0650    -0.1240 C.2   1 <1>   0.0140 
 11 C       -5.1830    -1.3210    -0.0460 C.2   1 <1>   0.2180 
 12 C       -4.0190    -3.3250     0.9420 C.3   1 <1>   0.0600 
 13 C       -6.4330     0.7270    -0.3240 C.2   1 <1>   0.6160 
 14 N       -6.3810    -2.0010    -0.2120 N.am  1 <1>  -0.4690 
 15 O       -6.5860     1.8370    -0.8170 O.2   1 <1>  -0.5700 
 16 N       -7.5920     0.0310    -0.0170 N.am  1 <1>  -0.4200 
 17 C       -7.5820    -1.3410    -0.0280 C.2   1 <1>   0.6900 
 18 C       -6.4420    -3.3330    -0.8810 C.3   1 <1>   0.0600 
 19 C       -8.8740     0.7720     0.1450 C.3   1 <1>   0.0600 
 20 O       -8.6160    -1.9760     0.0930 O.2   1 <1>  -0.5700 
 21 H       -3.2350    -3.3280     1.6790 H     1 <1>   0.0800 
 22 H       -3.8490    -4.1340     0.2540 H     1 <1>   0.0800 
 23 H       -4.9560    -3.4680     1.4510 H     1 <1>   0.0800 
 24 H       -5.5230    -3.5340    -1.4040 H     1 <1>   0.0800 
 25 H       -7.2460    -3.3460    -1.5970 H     1 <1>   0.0800 
 26 H       -6.6200    -4.0980    -0.1470 H     1 <1>   0.0800 
 27 H       -8.6850     1.7360     0.5840 H     1 <1>   0.0800 
 28 H       -9.5450     0.2260     0.7840 H     1 <1>   0.0800 
 29 H       -9.3290     0.9090    -0.8200 H     1 <1>   0.0800 
@<TRIPOS>BOND
  1   1   2  2   
  2   2   3  2   
  3   2   4  1   
  4   4   5  1   
  5   4   6  2   
  6   5   7  2   
  7   5   8  am  
  8   6   9  1   
  9   6  10  1   
 10   8  11  1   
 11   8  12  1   
 12  10  11  2   
 13  10  13  1   
 14  11  14  1   
 15  12  21  1   
 16  12  22  1   
 17  12  23  1   
 18  13  15  2   
 19  13  16  am  
 20  14  17  am  
 21  14  18  1   
 22  16  17  am  
 23  16  19  1   
 24  17  20  2   
 25  18  24  1   
 26  18  25  1   
 27  18  26  1   
 28  19  27  1   
 29  19  28  1   
 30  19  29  1   
@<TRIPOS>SUBSTRUCTURE
  1 ****  10 GROUP 4 **** **** 0

# MOE 2024.06 (io_trps.svl 2023.06)
