@<TRIPOS>MOLECULE
NONAME
62 64 1 0 0 
SMALL
USER_CHARGES


@<TRIPOS>ATOM
  1 F       -1.7080    -2.0280     1.0940 F     1 <1>  -0.1960 
  2 C       -1.8700    -1.1710     0.1190 C.ar  1 <1>   0.1840 
  3 C       -2.8890    -0.2350     0.2080 C.ar  1 <1>  -0.1490 
  4 C       -1.0180    -1.2470    -0.9650 C.ar  1 <1>  -0.1560 
  5 C       -3.0400     0.6600    -0.8420 C.ar  1 <1>  -0.1560 
  6 C       -3.8080    -0.1810     1.4140 C.3   1 <1>   0.4930 
  7 C       -1.1880    -0.3500    -2.0050 C.ar  1 <1>  -0.1560 
  8 C       -2.1960     0.5990    -1.9400 C.ar  1 <1>  -0.1560 
  9 N       -5.0540    -0.9220     1.1010 N.pl3 1 <1>  -0.7670 
 10 C       -5.2550    -2.2380     1.0680 C.cat 1 <1>   1.0690 
 11 C       -6.2670    -0.3120     0.7100 C.2   1 <1>   0.2720 
 12 N       -6.5080    -2.4910     0.7280 N.pl3 1 <1>  -0.7030 
 13 N       -4.3440    -3.1760     1.3290 N.pl3 1 <1>  -0.7170 
 14 C       -6.7150     1.0330     0.5040 C.2   1 <1>   0.7000 
 15 C       -7.1410    -1.3160     0.4960 C.2   1 <1>   0.4220 
 16 C       -4.4930    -4.6420     1.1140 C.3   1 <1>   0.1620 
 17 O       -5.9660     1.9790     0.6870 O.2   1 <1>  -0.5740 
 18 N       -8.0270     1.2340     0.0920 N.am  1 <1>  -0.4250 
 19 N       -8.4520    -1.1340     0.1070 N.am  1 <1>  -0.4410 
 20 C       -5.2170    -5.3220     2.2900 C.3   1 <1>   0.1340 
 21 C       -8.9000     0.1650    -0.0840 C.2   1 <1>   0.6870 
 22 C       -8.5350     2.6240    -0.1350 C.3   1 <1>   0.0540 
 23 C       -9.3500    -2.3150    -0.0780 C.3   1 <1>   0.0540 
 24 N       -6.1570    -6.3510     1.7860 N.am  1 <1>  -0.7330 
 25 O      -10.0540     0.3700    -0.4000 O.2   1 <1>  -0.5740 
 26 C       -7.3320    -6.0910     1.1590 C.2   1 <1>   0.5650 
 27 O       -7.6850    -4.9520     0.9530 O.2   1 <1>  -0.5740 
 28 C       -8.2060    -7.2460     0.7090 C.3   1 <1>  -0.1050 
 29 C       -7.9490    -7.7290    -0.7380 C.3   1 <1>  -0.0070 
 30 C       -8.9000    -8.8960    -1.0390 C.3   1 <1>  -0.2450 
 31 C       -6.5040    -8.2200    -0.9130 C.3   1 <1>  -0.2450 
 32 C       -8.2220    -6.6060    -1.7500 C.3   1 <1>  -0.2450 
 33 H       -0.2370    -1.9870    -0.9980 H     1 <1>   0.1440 
 34 H       -3.8090     1.4160    -0.8180 H     1 <1>   0.1440 
 35 H       -4.0280     0.8440     1.6560 H     1 <1>   0.0740 
 36 H       -3.3320    -0.6130     2.2780 H     1 <1>   0.0740 
 37 H       -0.5360    -0.3860    -2.8620 H     1 <1>   0.1440 
 38 H       -2.3200     1.2980    -2.7510 H     1 <1>   0.1440 
 39 H       -6.9390    -3.4270     0.7050 H     1 <1>   0.4460 
 40 H       -3.3820    -2.8680     1.4950 H     1 <1>   0.4460 
 41 H       -3.5190    -5.0860     0.9900 H     1 <1>   0.0740 
 42 H       -5.0440    -4.8040     0.2020 H     1 <1>   0.0740 
 43 H       -5.7820    -4.5970     2.8520 H     1 <1>   0.0740 
 44 H       -4.5020    -5.7820     2.9500 H     1 <1>   0.0740 
 45 H       -7.7260     3.3080    -0.3230 H     1 <1>   0.0740 
 46 H       -9.0810     2.9540     0.7320 H     1 <1>   0.0740 
 47 H       -9.1940     2.6430    -0.9870 H     1 <1>   0.0740 
 48 H      -10.3040    -2.0180    -0.4780 H     1 <1>   0.0740 
 49 H       -9.5130    -2.8000     0.8690 H     1 <1>   0.0740 
 50 H       -8.9010    -3.0160    -0.7600 H     1 <1>   0.0740 
 51 H       -5.8910    -7.3300     1.9380 H     1 <1>   0.3650 
 52 H       -9.2320    -6.9370     0.8000 H     1 <1>   0.0740 
 53 H       -8.0650    -8.0660     1.3890 H     1 <1>   0.0740 
 54 H       -8.7280    -9.7130    -0.3600 H     1 <1>   0.0740 
 55 H       -8.7530    -9.2570    -2.0420 H     1 <1>   0.0740 
 56 H       -9.9260    -8.5850    -0.9420 H     1 <1>   0.0740 
 57 H       -6.3650    -8.6230    -1.9010 H     1 <1>   0.0740 
 58 H       -6.2790    -8.9950    -0.2020 H     1 <1>   0.0740 
 59 H       -5.8020    -7.4170    -0.7840 H     1 <1>   0.0740 
 60 H       -8.1140    -6.9730    -2.7560 H     1 <1>   0.0740 
 61 H       -7.5350    -5.7900    -1.6190 H     1 <1>   0.0740 
 62 H       -9.2240    -6.2300    -1.6350 H     1 <1>   0.0740 
@<TRIPOS>BOND
  1   1   2  1   
  2   2   3  ar  
  3   2   4  ar  
  4   3   5  ar  
  5   3   6  1   
  6   4   7  ar  
  7   4  33  1   
  8   5   8  ar  
  9   5  34  1   
 10   6   9  1   
 11   6  35  1   
 12   6  36  1   
 13   7   8  ar  
 14   7  37  1   
 15   8  38  1   
 16   9  10  ar  
 17   9  11  1   
 18  10  12  ar  
 19  10  13  ar  
 20  11  14  1   
 21  11  15  2   
 22  12  15  1   
 23  12  39  1   
 24  13  16  1   
 25  13  40  1   
 26  14  17  2   
 27  14  18  am  
 28  15  19  1   
 29  16  20  1   
 30  16  41  1   
 31  16  42  1   
 32  18  21  am  
 33  18  22  1   
 34  19  21  am  
 35  19  23  1   
 36  20  24  1   
 37  20  43  1   
 38  20  44  1   
 39  21  25  2   
 40  22  45  1   
 41  22  46  1   
 42  22  47  1   
 43  23  48  1   
 44  23  49  1   
 45  23  50  1   
 46  24  26  am  
 47  24  51  1   
 48  26  27  2   
 49  26  28  1   
 50  28  29  1   
 51  28  52  1   
 52  28  53  1   
 53  29  30  1   
 54  29  31  1   
 55  29  32  1   
 56  30  54  1   
 57  30  55  1   
 58  30  56  1   
 59  31  57  1   
 60  31  58  1   
 61  31  59  1   
 62  32  60  1   
 63  32  61  1   
 64  32  62  1   
@<TRIPOS>SUBSTRUCTURE
  1 ****  12 GROUP 4 **** **** 0

# MOE 2024.06 (io_trps.svl 2023.06)
