@<TRIPOS>MOLECULE
4-(1-Ethyl-1H-benzoimidazol-2-yl)-piperazine-1-carboxylic acid (4-ethoxy-phenyl)-amide
57 60 1 0 0 
SMALL
USER_CHARGES


@<TRIPOS>ATOM
  1 O       -0.2120     0.1210    -0.4320 O.2   1 <1>  -0.5740 
  2 C       -0.6190    -0.7360     0.3290 C.2   1 <1>   0.6870 
  3 N       -1.9650    -0.8310     0.5790 N.am  1 <1>  -0.6640 
  4 N        0.2310    -1.5960     0.9600 N.am  1 <1>  -0.5510 
  5 C       -2.6310    -2.1160     0.9390 C.3   1 <1>   0.1340 
  6 C       -2.8520     0.2850     0.1330 C.3   1 <1>   0.1340 
  7 C        1.5940    -1.8580     0.7560 C.ar  1 <1>   0.1110 
  8 C       -3.8860    -2.3410     0.0790 C.3   1 <1>   0.1610 
  9 C       -4.3020     0.1010     0.6030 C.3   1 <1>   0.1610 
 10 C        2.3400    -2.3880     1.8030 C.ar  1 <1>  -0.1560 
 11 C        2.2300    -1.6320    -0.4610 C.ar  1 <1>  -0.1560 
 12 N       -4.8840    -1.2190     0.1810 N.pl3 1 <1>  -0.5960 
 13 C        3.6820    -2.6810     1.6390 C.ar  1 <1>  -0.1560 
 14 C        3.5720    -1.9210    -0.6300 C.ar  1 <1>  -0.1560 
 15 C       -6.1680    -1.3870    -0.2070 C.cat 1 <1>   1.0690 
 16 C        4.3090    -2.4510     0.4260 C.ar  1 <1>   0.0760 
 17 N       -6.5360    -2.3920    -0.9990 N.pl3 1 <1>  -0.7030 
 18 N       -7.2500    -0.6450     0.1050 N.pl3 1 <1>  -0.7670 
 19 O        5.6290    -2.7650     0.3490 O.3   1 <1>  -0.3680 
 20 C       -7.8900    -2.3150    -1.2370 C.ar  1 <1>   0.3040 
 21 C       -8.3490    -1.2150    -0.5390 C.ar  1 <1>   0.3040 
 22 C       -7.4210     0.4410     1.0980 C.3   1 <1>   0.3490 
 23 C        6.3570    -2.5300    -0.8330 C.3   1 <1>   0.1140 
 24 C       -8.7480    -3.1060    -1.9910 C.ar  1 <1>  -0.1160 
 25 C       -9.7010    -0.8820    -0.5730 C.ar  1 <1>  -0.1160 
 26 C       -7.5870     1.7770     0.3780 C.3   1 <1>  -0.2460 
 27 C        7.7990    -2.9650    -0.5960 C.3   1 <1>  -0.2460 
 28 C      -10.0870    -2.7710    -2.0270 C.ar  1 <1>  -0.1560 
 29 C      -10.5610    -1.6650    -1.3200 C.ar  1 <1>  -0.1560 
 30 H       -0.1590    -1.9980     1.8040 H     1 <1>   0.3650 
 31 H       -2.9000    -2.0990     1.9810 H     1 <1>   0.0730 
 32 H       -1.9540    -2.9390     0.7820 H     1 <1>   0.0730 
 33 H       -2.8250     0.3470    -0.9410 H     1 <1>   0.0730 
 34 H       -2.4640     1.2120     0.5210 H     1 <1>   0.0730 
 35 H       -4.3460    -3.2650     0.3870 H     1 <1>   0.0730 
 36 H       -3.5740    -2.4460    -0.9470 H     1 <1>   0.0730 
 37 H       -4.8800     0.9070     0.1930 H     1 <1>   0.0730 
 38 H       -4.3250     0.1760     1.6770 H     1 <1>   0.0730 
 39 H        1.8760    -2.5720     2.7530 H     1 <1>   0.1440 
 40 H        1.6730    -1.2260    -1.2860 H     1 <1>   0.1440 
 41 H        4.2560    -3.0890     2.4510 H     1 <1>   0.1440 
 42 H        4.0200    -1.7270    -1.5850 H     1 <1>   0.1440 
 43 H       -5.9060    -3.0680    -1.4180 H     1 <1>   0.4450 
 44 H       -6.5840     0.4790     1.7720 H     1 <1>   0.0730 
 45 H       -8.2970     0.2440     1.6940 H     1 <1>   0.0730 
 46 H        6.3090    -1.4780    -1.0580 H     1 <1>   0.0730 
 47 H        5.9120    -3.1040    -1.6270 H     1 <1>   0.0730 
 48 H       -8.3760    -3.9580    -2.5320 H     1 <1>   0.1440 
 49 H      -10.0720    -0.0320    -0.0300 H     1 <1>   0.1440 
 50 H       -7.6750     2.5670     1.1030 H     1 <1>   0.0730 
 51 H       -6.7430     1.9910    -0.2510 H     1 <1>   0.0730 
 52 H       -8.4780     1.7790    -0.2230 H     1 <1>   0.0730 
 53 H        8.2290    -2.3960     0.2090 H     1 <1>   0.0730 
 54 H        8.3800    -2.7960    -1.4850 H     1 <1>   0.0730 
 55 H        7.8340    -4.0120    -0.3560 H     1 <1>   0.0730 
 56 H      -10.7800    -3.3650    -2.6030 H     1 <1>   0.1440 
 57 H      -11.6120    -1.4250    -1.3620 H     1 <1>   0.1440 
@<TRIPOS>BOND
  1   1   2  2   
  2   2   3  am  
  3   2   4  am  
  4   3   5  1   
  5   3   6  1   
  6   4   7  1   
  7   4  30  1   
  8   5   8  1   
  9   5  31  1   
 10   5  32  1   
 11   6   9  1   
 12   6  33  1   
 13   6  34  1   
 14   7  10  ar  
 15   7  11  ar  
 16   8  12  1   
 17   8  35  1   
 18   8  36  1   
 19   9  12  1   
 20   9  37  1   
 21   9  38  1   
 22  10  13  ar  
 23  10  39  1   
 24  11  14  ar  
 25  11  40  1   
 26  12  15  ar  
 27  13  16  ar  
 28  13  41  1   
 29  14  16  ar  
 30  14  42  1   
 31  15  17  ar  
 32  15  18  ar  
 33  16  19  1   
 34  17  20  1   
 35  17  43  1   
 36  18  21  1   
 37  18  22  1   
 38  19  23  1   
 39  20  21  ar  
 40  20  24  ar  
 41  21  25  ar  
 42  22  26  1   
 43  22  44  1   
 44  22  45  1   
 45  23  27  1   
 46  23  46  1   
 47  23  47  1   
 48  24  28  ar  
 49  24  48  1   
 50  25  29  ar  
 51  25  49  1   
 52  26  50  1   
 53  26  51  1   
 54  26  52  1   
 55  27  53  1   
 56  27  54  1   
 57  27  55  1   
 58  28  29  ar  
 59  28  56  1   
 60  29  57  1   
@<TRIPOS>SUBSTRUCTURE
  1 ****   3 GROUP 4 **** **** 0

# MOE 2024.06 (io_trps.svl 2023.06)
