@<TRIPOS>MOLECULE
1-Benzothiazol-2-yl-piperidine-4-carboxylic acid 2-fluoro-benzylamide
46 49 1 0 0 
SMALL
USER_CHARGES


@<TRIPOS>ATOM
  1 S        0.9200    -0.0700     0.8900 S.3   1 <1>  -0.0800 
  2 C        1.8610    -0.5330    -0.5390 C.2   1 <1>   0.4620 
  3 C        0.1910    -1.6570     0.9250 C.ar  1 <1>   0.0400 
  4 N        1.6420    -1.7370    -0.9300 N.2   1 <1>  -0.5650 
  5 N        2.7300     0.3750    -1.1090 N.pl3 1 <1>  -0.8220 
  6 C        0.7150    -2.3810    -0.1280 C.ar  1 <1>   0.2270 
  7 C       -0.7410    -2.1580     1.8140 C.ar  1 <1>  -0.1500 
  8 C        3.0600     1.7080    -0.5430 C.3   1 <1>   0.2090 
  9 C        3.5680    -0.0130    -2.2720 C.3   1 <1>   0.2090 
 10 C        0.2750    -3.6870    -0.3010 C.ar  1 <1>  -0.1500 
 11 C       -1.1670    -3.4630     1.6260 C.ar  1 <1>  -0.1500 
 12 C        4.5080     1.6800    -0.0520 C.3   1 <1>  -0.1600 
 13 C        5.0280    -0.0720    -1.8210 C.3   1 <1>  -0.1600 
 14 C       -0.6600    -4.2210     0.5730 C.ar  1 <1>  -0.1500 
 15 C        5.4800     1.2530    -1.1730 C.3   1 <1>  -0.0190 
 16 C        6.9160     1.1620    -0.6700 C.2   1 <1>   0.5690 
 17 O        7.7570     1.8740    -1.1630 O.2   1 <1>  -0.5700 
 18 N        7.2130     0.2740     0.3090 N.am  1 <1>  -0.7300 
 19 C        8.5680    -0.0240     0.8030 C.3   1 <1>   0.2840 
 20 C        8.8220    -1.5070     0.6060 C.ar  1 <1>  -0.1430 
 21 C        8.6990    -2.4170     1.6450 C.ar  1 <1>   0.1900 
 22 C        9.1790    -1.9930    -0.6440 C.ar  1 <1>  -0.1500 
 23 F        8.3570    -1.9950     2.8340 F     1 <1>  -0.1900 
 24 C        8.9210    -3.7710     1.4770 C.ar  1 <1>  -0.1500 
 25 C        9.4050    -3.3480    -0.8320 C.ar  1 <1>  -0.1500 
 26 C        9.2770    -4.2380     0.2240 C.ar  1 <1>  -0.1500 
 27 H       -1.1170    -1.5500     2.6180 H     1 <1>   0.1500 
 28 H        2.4060     1.9720     0.2680 H     1 <1>   0.0800 
 29 H        2.9460     2.4540    -1.3110 H     1 <1>   0.0800 
 30 H        3.4480     0.7170    -3.0540 H     1 <1>   0.0800 
 31 H        3.2660    -0.9700    -2.6630 H     1 <1>   0.0800 
 32 H        0.6720    -4.2640    -1.1150 H     1 <1>   0.1500 
 33 H       -1.8920    -3.8930     2.2940 H     1 <1>   0.1500 
 34 H        4.5710     0.9980     0.7760 H     1 <1>   0.0800 
 35 H        4.7810     2.6570     0.3060 H     1 <1>   0.0800 
 36 H        5.6520    -0.2910    -2.6690 H     1 <1>   0.0800 
 37 H        5.1280    -0.8850    -1.1230 H     1 <1>   0.0800 
 38 H       -0.9990    -5.2340     0.4370 H     1 <1>   0.1500 
 39 H        5.4560     2.0140    -1.9340 H     1 <1>   0.0800 
 40 H        6.4850    -0.3490     0.6610 H     1 <1>   0.3700 
 41 H        8.6390     0.2480     1.8420 H     1 <1>   0.0800 
 42 H        9.2990     0.5480     0.2560 H     1 <1>   0.0800 
 43 H        9.2770    -1.3140    -1.4750 H     1 <1>   0.1500 
 44 H        8.8140    -4.4420     2.3110 H     1 <1>   0.1500 
 45 H        9.6810    -3.7120    -1.8070 H     1 <1>   0.1500 
 46 H        9.4540    -5.2880     0.0680 H     1 <1>   0.1500 
@<TRIPOS>BOND
  1   1   2  1   
  2   1   3  1   
  3   2   4  2   
  4   2   5  1   
  5   3   6  ar  
  6   3   7  ar  
  7   4   6  1   
  8   5   8  1   
  9   5   9  1   
 10   6  10  ar  
 11   7  11  ar  
 12   7  27  1   
 13   8  12  1   
 14   8  28  1   
 15   8  29  1   
 16   9  13  1   
 17   9  30  1   
 18   9  31  1   
 19  10  14  ar  
 20  10  32  1   
 21  11  14  ar  
 22  11  33  1   
 23  12  15  1   
 24  12  34  1   
 25  12  35  1   
 26  13  15  1   
 27  13  36  1   
 28  13  37  1   
 29  14  38  1   
 30  15  16  1   
 31  15  39  1   
 32  16  17  2   
 33  16  18  am  
 34  18  19  1   
 35  18  40  1   
 36  19  20  1   
 37  19  41  1   
 38  19  42  1   
 39  20  21  ar  
 40  20  22  ar  
 41  21  23  1   
 42  21  24  ar  
 43  22  25  ar  
 44  22  43  1   
 45  24  26  ar  
 46  24  44  1   
 47  25  26  ar  
 48  25  45  1   
 49  26  46  1   
@<TRIPOS>SUBSTRUCTURE
  1 ****  13 GROUP 4 **** **** 0

# MOE 2024.06 (io_trps.svl 2023.06)
