@<TRIPOS>MOLECULE
NONAME
55 58 1 0 0 
SMALL
USER_CHARGES


@<TRIPOS>ATOM
  1 O        0.2150     0.6760    -1.6250 O.2   1 <1>  -0.5700 
  2 C        0.4290     1.4250    -0.6920 C.2   1 <1>   0.5440 
  3 N       -0.6490     1.9800    -0.0570 N.am  1 <1>  -0.7300 
  4 C        1.7840     1.6990    -0.2500 C.ar  1 <1>   0.0860 
  5 C       -2.0380     1.7920    -0.5040 C.3   1 <1>   0.2200 
  6 C        2.7770     0.7280    -0.3690 C.ar  1 <1>  -0.1500 
  7 C        2.1390     2.9310     0.3040 C.ar  1 <1>  -0.1500 
  8 C       -2.9010     2.9900    -0.0750 C.3   1 <1>  -0.1600 
  9 C       -2.5770     0.4560     0.0360 C.3   1 <1>  -0.1600 
 10 C        4.0770     0.9540     0.0660 C.ar  1 <1>   0.0830 
 11 C        3.4320     3.1830     0.7450 C.ar  1 <1>   0.0830 
 12 C       -4.4020     2.6720    -0.1790 C.3   1 <1>   0.4230 
 13 C       -4.1040     0.3690    -0.0920 C.3   1 <1>   0.4230 
 14 O        5.0610     0.0140    -0.0410 O.3   1 <1>  -0.3630 
 15 C        4.4010     2.1870     0.6330 C.ar  1 <1>   0.0830 
 16 O        3.8050     4.3810     1.2820 O.3   1 <1>  -0.3630 
 17 N       -4.6450     1.5040     0.6920 N.4   1 <1>  -0.8520 
 18 C       -4.7930     2.1730    -1.5740 C.3   1 <1>  -0.1600 
 19 C       -4.5690     0.6540    -1.5280 C.3   1 <1>  -0.1600 
 20 C        4.8060    -1.2730    -0.5600 C.3   1 <1>   0.0400 
 21 O        5.6560     2.4180     1.0940 O.3   1 <1>  -0.3630 
 22 C        2.9240     5.4780     1.3610 C.3   1 <1>   0.0400 
 23 C       -6.0660     1.4080     1.1180 C.3   1 <1>   0.2960 
 24 C        6.5970     2.8260     0.1300 C.3   1 <1>   0.0400 
 25 C       -6.3620     0.3960     2.1760 C.3   1 <1>  -0.2000 
 26 C       -6.9500     0.2370     0.8120 C.3   1 <1>  -0.2000 
 27 H       -0.4940     2.4920     0.8120 H     1 <1>   0.3700 
 28 H       -2.0370     1.7460    -1.5820 H     1 <1>   0.0800 
 29 H        2.4990    -0.2090    -0.8130 H     1 <1>   0.1500 
 30 H        1.3870     3.6900     0.3730 H     1 <1>   0.1500 
 31 H       -2.6730     3.8280    -0.7110 H     1 <1>   0.0800 
 32 H       -2.6760     3.2730     0.9370 H     1 <1>   0.0800 
 33 H       -2.3010     0.3270     1.0670 H     1 <1>   0.0800 
 34 H       -2.1310    -0.3470    -0.5230 H     1 <1>   0.0800 
 35 H       -4.9920     3.5240     0.1200 H     1 <1>   0.0800 
 36 H       -4.4610    -0.5810     0.2710 H     1 <1>   0.0800 
 37 H       -4.0810     1.6070     1.5400 H     1 <1>   0.4500 
 38 H       -4.2150     2.6480    -2.3490 H     1 <1>   0.0800 
 39 H       -5.8330     2.3870    -1.7540 H     1 <1>   0.0800 
 40 H       -5.4890     0.1360    -1.7290 H     1 <1>   0.0800 
 41 H       -3.8430     0.3260    -2.2530 H     1 <1>   0.0800 
 42 H        5.7230    -1.8320    -0.5270 H     1 <1>   0.0800 
 43 H        4.4710    -1.1800    -1.5780 H     1 <1>   0.0800 
 44 H        4.0630    -1.7550     0.0500 H     1 <1>   0.0800 
 45 H        3.4640     6.3060     1.7850 H     1 <1>   0.0800 
 46 H        2.0990     5.2190     2.0000 H     1 <1>   0.0800 
 47 H        2.5880     5.7300     0.3710 H     1 <1>   0.0800 
 48 H       -6.5340     2.3750     1.2320 H     1 <1>   0.1000 
 49 H        7.5370     2.9850     0.6260 H     1 <1>   0.0800 
 50 H        6.2560     3.7420    -0.3190 H     1 <1>   0.0800 
 51 H        6.6950     2.0530    -0.6110 H     1 <1>   0.0800 
 52 H       -7.0330     0.6550     2.9780 H     1 <1>   0.1000 
 53 H       -5.6110    -0.3100     2.4830 H     1 <1>   0.1000 
 54 H       -6.6250    -0.6050     0.2300 H     1 <1>   0.1000 
 55 H       -8.0070     0.4110     0.7010 H     1 <1>   0.1000 
@<TRIPOS>BOND
  1   1   2  2   
  2   2   3  am  
  3   2   4  1   
  4   3   5  1   
  5   3  27  1   
  6   4   6  ar  
  7   4   7  ar  
  8   5   8  1   
  9   5   9  1   
 10   5  28  1   
 11   6  10  ar  
 12   6  29  1   
 13   7  11  ar  
 14   7  30  1   
 15   8  12  1   
 16   8  31  1   
 17   8  32  1   
 18   9  13  1   
 19   9  33  1   
 20   9  34  1   
 21  10  14  1   
 22  10  15  ar  
 23  11  15  ar  
 24  11  16  1   
 25  12  17  1   
 26  12  18  1   
 27  12  35  1   
 28  13  17  1   
 29  13  19  1   
 30  13  36  1   
 31  14  20  1   
 32  15  21  1   
 33  16  22  1   
 34  17  23  1   
 35  17  37  1   
 36  18  19  1   
 37  18  38  1   
 38  18  39  1   
 39  19  40  1   
 40  19  41  1   
 41  20  42  1   
 42  20  43  1   
 43  20  44  1   
 44  21  24  1   
 45  22  45  1   
 46  22  46  1   
 47  22  47  1   
 48  23  25  1   
 49  23  26  1   
 50  23  48  1   
 51  24  49  1   
 52  24  50  1   
 53  24  51  1   
 54  25  26  1   
 55  25  52  1   
 56  25  53  1   
 57  26  54  1   
 58  26  55  1   
@<TRIPOS>SUBSTRUCTURE
  1 ****   3 GROUP 4 **** **** 0

# MOE 2024.06 (io_trps.svl 2023.06)
