@<TRIPOS>MOLECULE
NONAME
32 33 1 0 0 
SMALL
USER_CHARGES


@<TRIPOS>ATOM
  1 O        0.5200     0.4800     0.5390 O.2   1 <1>  -0.5700 
  2 C        0.6970     1.5970     0.0820 C.2   1 <1>   0.7150 
  3 N        1.9200     1.8680    -0.5030 N.am  1 <1>  -0.6600 
  4 C       -0.3740     2.5690     0.1880 C.2   1 <1>   0.0550 
  5 C        2.8470     0.7820    -0.9420 C.3   1 <1>   0.1400 
  6 C        2.5260     3.2310    -0.5900 C.3   1 <1>   0.1400 
  7 O       -0.4420     3.6570    -0.5800 O.3   1 <1>  -0.2800 
  8 C       -1.4650     2.5630     1.0060 C.2   1 <1>  -0.1500 
  9 C        4.1990     0.8880    -0.2190 C.3   1 <1>   0.1100 
 10 C        3.9030     3.2690     0.0970 C.3   1 <1>   0.1100 
 11 C       -1.5250     4.3330    -0.2710 C.2   1 <1>  -0.0100 
 12 C       -2.2070     3.7070     0.7110 C.2   1 <1>  -0.1500 
 13 N        4.8130     2.2180    -0.4130 N.3   1 <1>  -0.8100 
 14 C        6.1380     2.2870     0.2720 C.3   1 <1>   0.1710 
 15 C        6.9910     3.5030    -0.1100 C.2   1 <1>   0.5690 
 16 O        7.7680     3.9700     0.6830 O.2   1 <1>  -0.5700 
 17 N        6.8620     4.0400    -1.3380 N.am  1 <1>  -0.8000 
 18 H        3.0080     0.8660    -2.0020 H     1 <1>   0.0800 
 19 H        2.4170    -0.1870    -0.7520 H     1 <1>   0.0800 
 20 H        1.8970     3.9600    -0.1130 H     1 <1>   0.0800 
 21 H        2.6340     3.5050    -1.6240 H     1 <1>   0.0800 
 22 H       -1.7190     1.8180     1.7400 H     1 <1>   0.1500 
 23 H        4.8560     0.1300    -0.6080 H     1 <1>   0.0800 
 24 H        4.0500     0.6970     0.8300 H     1 <1>   0.0800 
 25 H        3.7630     3.1470     1.1580 H     1 <1>   0.0800 
 26 H        4.3400     4.2390    -0.0670 H     1 <1>   0.0800 
 27 H       -1.7400     5.2470    -0.7960 H     1 <1>   0.1500 
 28 H       -3.1280     3.9990     1.1830 H     1 <1>   0.1500 
 29 H        6.7110     1.4140     0.0170 H     1 <1>   0.0800 
 30 H        5.9980     2.2860     1.3390 H     1 <1>   0.0800 
 31 H        7.4120     4.8500    -1.6200 H     1 <1>   0.3700 
 32 H        6.1590     3.6770    -1.9860 H     1 <1>   0.3700 
@<TRIPOS>BOND
  1   1   2  2   
  2   2   3  am  
  3   2   4  1   
  4   3   5  1   
  5   3   6  1   
  6   4   7  1   
  7   4   8  2   
  8   5   9  1   
  9   5  18  1   
 10   5  19  1   
 11   6  10  1   
 12   6  20  1   
 13   6  21  1   
 14   7  11  1   
 15   8  12  1   
 16   8  22  1   
 17   9  13  1   
 18   9  23  1   
 19   9  24  1   
 20  10  13  1   
 21  10  25  1   
 22  10  26  1   
 23  11  12  2   
 24  11  27  1   
 25  12  28  1   
 26  13  14  1   
 27  14  15  1   
 28  14  29  1   
 29  14  30  1   
 30  15  16  2   
 31  15  17  am  
 32  17  31  1   
 33  17  32  1   
@<TRIPOS>SUBSTRUCTURE
  1 ****   6 GROUP 4 **** **** 0

# MOE 2024.06 (io_trps.svl 2023.06)
