@<TRIPOS>MOLECULE
N-{1-[3-(1,3-Dioxo-1,3-dihydro-isoindol-2-yl)-propyl]-piperidin-4-yl}-benzamide
55 58 1 0 0 
SMALL
USER_CHARGES


@<TRIPOS>ATOM
  1 O        1.6070     1.4470     2.2270 O.2   1 <1>  -0.5700 
  2 C        1.3110     2.1110     1.2560 C.2   1 <1>   0.5440 
  3 N        1.9840     2.0370     0.0660 N.am  1 <1>  -0.4200 
  4 C        0.2770     3.1000     1.1390 C.ar  1 <1>   0.0860 
  5 C        1.4540     2.9580    -0.7960 C.2   1 <1>   0.5440 
  6 C        3.0910     1.1150    -0.2390 C.3   1 <1>   0.1400 
  7 C        0.3650     3.6280    -0.1420 C.ar  1 <1>   0.0860 
  8 C       -0.6920     3.5600     2.0220 C.ar  1 <1>  -0.1500 
  9 O        1.8990     3.1570    -1.9070 O.2   1 <1>  -0.5700 
 10 C        4.4190     1.8290     0.0240 C.3   1 <1>  -0.1600 
 11 C       -0.5140     4.6220    -0.5530 C.ar  1 <1>  -0.1500 
 12 C       -1.5680     4.5500     1.6110 C.ar  1 <1>  -0.1500 
 13 C        5.5930     0.9100    -0.3010 C.3   1 <1>   0.3430 
 14 C       -1.4800     5.0790     0.3290 C.ar  1 <1>  -0.1500 
 15 N        6.8830     1.5850     0.0190 N.4   1 <1>  -0.9590 
 16 C        7.2010     2.6810    -0.9530 C.3   1 <1>   0.3430 
 17 C        7.9840     0.5780     0.1000 C.3   1 <1>   0.3430 
 18 C        8.4930     3.3870    -0.5460 C.3   1 <1>  -0.1600 
 19 C        9.2790     1.2580     0.5290 C.3   1 <1>  -0.1600 
 20 C        9.6320     2.3780    -0.4460 C.3   1 <1>   0.2200 
 21 N       10.8590     3.0450     0.0060 N.am  1 <1>  -0.7300 
 22 C       12.1170     2.6220    -0.3280 C.2   1 <1>   0.5440 
 23 O       12.2140     1.6110    -0.9970 O.2   1 <1>  -0.5700 
 24 C       13.2960     3.3380     0.1280 C.ar  1 <1>   0.0860 
 25 C       14.5040     2.6690     0.3320 C.ar  1 <1>  -0.1500 
 26 C       13.2750     4.7120     0.3830 C.ar  1 <1>  -0.1500 
 27 C       15.6320     3.3300     0.7820 C.ar  1 <1>  -0.1500 
 28 C       14.4000     5.3800     0.8350 C.ar  1 <1>  -0.1500 
 29 C       15.5800     4.6890     1.0370 C.ar  1 <1>  -0.1500 
 30 H        3.0190     0.8160    -1.2720 H     1 <1>   0.0800 
 31 H        3.0010     0.2380     0.3810 H     1 <1>   0.0800 
 32 H       -0.7500     3.1420     3.0140 H     1 <1>   0.1500 
 33 H        4.4560     2.1110     1.0620 H     1 <1>   0.0800 
 34 H        4.4540     2.7100    -0.5920 H     1 <1>   0.0800 
 35 H       -0.4360     5.0240    -1.5490 H     1 <1>   0.1500 
 36 H       -2.3230     4.9140     2.2880 H     1 <1>   0.1500 
 37 H        5.5690     0.6330    -1.3430 H     1 <1>   0.0800 
 38 H        5.5010     0.0110     0.2890 H     1 <1>   0.0800 
 39 H       -2.1670     5.8490     0.0210 H     1 <1>   0.1500 
 40 H        6.7890     2.0110     0.9520 H     1 <1>   0.4500 
 41 H        6.3990     3.4000    -0.9810 H     1 <1>   0.0800 
 42 H        7.3160     2.2670    -1.9420 H     1 <1>   0.0800 
 43 H        8.1280     0.1130    -0.8620 H     1 <1>   0.0800 
 44 H        7.7330    -0.1910     0.8140 H     1 <1>   0.0800 
 45 H        8.3460     3.8910     0.3930 H     1 <1>   0.0800 
 46 H        8.7360     4.1230    -1.2920 H     1 <1>   0.0800 
 47 H       10.0700     0.5280     0.5260 H     1 <1>   0.0800 
 48 H        9.1780     1.6400     1.5290 H     1 <1>   0.0800 
 49 H        9.8090     1.9520    -1.4230 H     1 <1>   0.0800 
 50 H       10.7620     3.8000     0.6860 H     1 <1>   0.3700 
 51 H       14.5530     1.6120     0.1320 H     1 <1>   0.1500 
 52 H       12.3730     5.2720     0.2190 H     1 <1>   0.1500 
 53 H       16.5500     2.7890     0.9330 H     1 <1>   0.1500 
 54 H       14.3620     6.4390     1.0260 H     1 <1>   0.1500 
 55 H       16.4570     5.2050     1.3880 H     1 <1>   0.1500 
@<TRIPOS>BOND
  1   1   2  2   
  2   2   3  am  
  3   2   4  1   
  4   3   5  am  
  5   3   6  1   
  6   4   7  ar  
  7   4   8  ar  
  8   5   7  1   
  9   5   9  2   
 10   6  10  1   
 11   6  30  1   
 12   6  31  1   
 13   7  11  ar  
 14   8  12  ar  
 15   8  32  1   
 16  10  13  1   
 17  10  33  1   
 18  10  34  1   
 19  11  14  ar  
 20  11  35  1   
 21  12  14  ar  
 22  12  36  1   
 23  13  15  1   
 24  13  37  1   
 25  13  38  1   
 26  14  39  1   
 27  15  16  1   
 28  15  17  1   
 29  15  40  1   
 30  16  18  1   
 31  16  41  1   
 32  16  42  1   
 33  17  19  1   
 34  17  43  1   
 35  17  44  1   
 36  18  20  1   
 37  18  45  1   
 38  18  46  1   
 39  19  20  1   
 40  19  47  1   
 41  19  48  1   
 42  20  21  1   
 43  20  49  1   
 44  21  22  am  
 45  21  50  1   
 46  22  23  2   
 47  22  24  1   
 48  24  25  ar  
 49  24  26  ar  
 50  25  27  ar  
 51  25  51  1   
 52  26  28  ar  
 53  26  52  1   
 54  27  29  ar  
 55  27  53  1   
 56  28  29  ar  
 57  28  54  1   
 58  29  55  1   
@<TRIPOS>SUBSTRUCTURE
  1 ****  16 GROUP 4 **** **** 0

# MOE 2024.06 (io_trps.svl 2023.06)
