@<TRIPOS>MOLECULE
4-(Cyclohexanecarbonyl-amino)-piperidine-1-carboxylic acid (4-methoxy-phenyl)-amide
55 57 1 0 0 
SMALL
USER_CHARGES


@<TRIPOS>ATOM
  1 O        0.3540    -0.2780    -0.3410 O.2   1 <1>  -0.5700 
  2 C        0.9380     0.7630    -0.5780 C.2   1 <1>   0.6900 
  3 N        2.1630     0.7420    -1.1890 N.am  1 <1>  -0.6600 
  4 N        0.4220     1.9720    -0.2150 N.am  1 <1>  -0.5470 
  5 C        2.6550     1.8120    -2.0970 C.3   1 <1>   0.1400 
  6 C        3.0730    -0.4210    -1.0260 C.3   1 <1>   0.1400 
  7 C       -0.8270     2.3240     0.3150 C.ar  1 <1>   0.1170 
  8 C        4.0030     2.3280    -1.5910 C.3   1 <1>  -0.1600 
  9 C        4.4300     0.0700    -0.5140 C.3   1 <1>  -0.1600 
 10 C       -1.9760     1.5730     0.0930 C.ar  1 <1>  -0.1500 
 11 C       -0.9300     3.4820     1.0770 C.ar  1 <1>  -0.1500 
 12 C        4.9920     1.1680    -1.4240 C.3   1 <1>   0.2200 
 13 C       -3.1960     1.9610     0.6190 C.ar  1 <1>  -0.1500 
 14 C       -2.1470     3.8760     1.6050 C.ar  1 <1>  -0.1500 
 15 N        6.2970     1.6500    -0.9190 N.am  1 <1>  -0.7300 
 16 C       -3.2870     3.1210     1.3820 C.ar  1 <1>   0.0830 
 17 C        6.5550     2.2990     0.2510 C.2   1 <1>   0.5690 
 18 O       -4.4410     3.5780     1.9370 O.3   1 <1>  -0.3630 
 19 O        5.6870     2.5880     1.0390 O.2   1 <1>  -0.5700 
 20 C        8.0050     2.6690     0.5640 C.3   1 <1>  -0.0190 
 21 C       -5.6430     2.8530     1.7970 C.3   1 <1>   0.0400 
 22 C        8.5040     1.9530     1.8340 C.3   1 <1>  -0.1600 
 23 C        8.1800     4.1940     0.6980 C.3   1 <1>  -0.1600 
 24 C        9.9570     2.3270     2.1590 C.3   1 <1>  -0.1600 
 25 C        9.6330     4.5690     1.0220 C.3   1 <1>  -0.1600 
 26 C       10.1220     3.8480     2.2850 C.3   1 <1>  -0.1600 
 27 H        1.1380     2.6890    -0.1710 H     1 <1>   0.3700 
 28 H        1.9470     2.6200    -2.1580 H     1 <1>   0.0800 
 29 H        2.7680     1.4010    -3.0850 H     1 <1>   0.0800 
 30 H        3.1850    -0.9180    -1.9740 H     1 <1>   0.0800 
 31 H        2.6580    -1.1260    -0.3240 H     1 <1>   0.0800 
 32 H        3.8430     2.8240    -0.6520 H     1 <1>   0.0800 
 33 H        4.3960     3.0420    -2.2910 H     1 <1>   0.0800 
 34 H        5.1140    -0.7570    -0.4750 H     1 <1>   0.0800 
 35 H        4.2970     0.4480     0.4850 H     1 <1>   0.0800 
 36 H       -1.9170     0.6760    -0.4980 H     1 <1>   0.1500 
 37 H       -0.0560     4.0770     1.2640 H     1 <1>   0.1500 
 38 H        5.1580     0.7350    -2.3960 H     1 <1>   0.0800 
 39 H       -4.0550     1.3490     0.4240 H     1 <1>   0.1500 
 40 H       -2.2210     4.7710     2.1960 H     1 <1>   0.1500 
 41 H        7.0870     1.4280    -1.5240 H     1 <1>   0.3700 
 42 H        8.6160     2.3420    -0.2570 H     1 <1>   0.0800 
 43 H       -6.4150     3.3840     2.3240 H     1 <1>   0.0800 
 44 H       -5.5130     1.8760     2.2270 H     1 <1>   0.0800 
 45 H       -5.8910     2.7870     0.7530 H     1 <1>   0.0800 
 46 H        8.4260     0.8880     1.7020 H     1 <1>   0.0800 
 47 H        7.8730     2.2260     2.6640 H     1 <1>   0.0800 
 48 H        7.5370     4.5560     1.4830 H     1 <1>   0.0800 
 49 H        7.8790     4.6740    -0.2170 H     1 <1>   0.0800 
 50 H       10.6050     1.9620     1.3800 H     1 <1>   0.0800 
 51 H       10.2510     1.8570     3.0810 H     1 <1>   0.0800 
 52 H        9.7060     5.6340     1.1660 H     1 <1>   0.0800 
 53 H       10.2660     4.3050     0.1920 H     1 <1>   0.0800 
 54 H       11.1570     4.0850     2.4590 H     1 <1>   0.0800 
 55 H        9.5570     4.1960     3.1330 H     1 <1>   0.0800 
@<TRIPOS>BOND
  1   1   2  2   
  2   2   3  am  
  3   2   4  am  
  4   3   5  1   
  5   3   6  1   
  6   4   7  1   
  7   4  27  1   
  8   5   8  1   
  9   5  28  1   
 10   5  29  1   
 11   6   9  1   
 12   6  30  1   
 13   6  31  1   
 14   7  10  ar  
 15   7  11  ar  
 16   8  12  1   
 17   8  32  1   
 18   8  33  1   
 19   9  12  1   
 20   9  34  1   
 21   9  35  1   
 22  10  13  ar  
 23  10  36  1   
 24  11  14  ar  
 25  11  37  1   
 26  12  15  1   
 27  12  38  1   
 28  13  16  ar  
 29  13  39  1   
 30  14  16  ar  
 31  14  40  1   
 32  15  17  am  
 33  15  41  1   
 34  16  18  1   
 35  17  19  2   
 36  17  20  1   
 37  18  21  1   
 38  20  22  1   
 39  20  23  1   
 40  20  42  1   
 41  21  43  1   
 42  21  44  1   
 43  21  45  1   
 44  22  24  1   
 45  22  46  1   
 46  22  47  1   
 47  23  25  1   
 48  23  48  1   
 49  23  49  1   
 50  24  26  1   
 51  24  50  1   
 52  24  51  1   
 53  25  26  1   
 54  25  52  1   
 55  25  53  1   
 56  26  54  1   
 57  26  55  1   
@<TRIPOS>SUBSTRUCTURE
  1 ****   3 GROUP 4 **** **** 0

# MOE 2024.06 (io_trps.svl 2023.06)
