@<TRIPOS>MOLECULE
7640
49 51 1 0 0 
SMALL
USER_CHARGES


@<TRIPOS>ATOM
  1 CL      -0.1590     1.9350    -0.7830 Cl    1 <1>  -0.1770 
  2 C        1.5830     2.0410    -0.7300 C.ar  1 <1>   0.1770 
  3 C        2.2920     1.1550     0.0590 C.ar  1 <1>  -0.1500 
  4 C        2.2240     3.0100    -1.4770 C.ar  1 <1>  -0.1500 
  5 C        3.6750     1.2330     0.1080 C.ar  1 <1>  -0.1440 
  6 C        3.6050     3.0930    -1.4350 C.ar  1 <1>  -0.1500 
  7 C        4.3330     2.2080    -0.6410 C.ar  1 <1>   0.0830 
  8 C        4.4560     0.2660     0.9870 C.3   1 <1>  -0.0960 
  9 O        5.6860     2.2540    -0.5690 O.3   1 <1>  -0.3630 
 10 C        6.3730     3.4900    -0.7320 C.3   1 <1>   0.1810 
 11 C        7.8390     3.3490    -0.3480 C.2   1 <1>   0.5690 
 12 O        8.4610     4.3540    -0.1120 O.2   1 <1>  -0.5700 
 13 N        8.3610     2.0800    -0.3040 N.am  1 <1>  -0.4940 
 14 C        9.6200     1.5690    -0.0290 C.2   1 <1>   0.1040 
 15 S       10.9490     2.6660     0.3770 S.3   1 <1>  -0.0800 
 16 C       10.0370     0.2590    -0.0110 C.2   1 <1>  -0.0860 
 17 C       12.0410     1.3160     0.5420 C.2   1 <1>  -0.1400 
 18 C       11.4370     0.1640     0.3100 C.2   1 <1>  -0.1810 
 19 C        9.2250    -0.8980    -0.2670 C.2   1 <1>   0.8060 
 20 C       13.4950     1.2690     0.8800 C.3   1 <1>   0.0200 
 21 C       12.4200    -0.9840     0.4390 C.3   1 <1>   0.1620 
 22 O        9.5720    -2.0350    -0.0040 O.2   1 <1>  -0.5700 
 23 O        8.0110    -0.7120    -0.8100 O.3   1 <1>  -0.4300 
 24 C       13.7570    -0.2580     0.8010 C.3   1 <1>  -0.1600 
 25 C       12.5470    -1.8470    -0.8190 C.2   1 <1>   0.6590 
 26 C        7.1800    -1.8020    -1.1590 C.3   1 <1>   0.0400 
 27 O       12.1950    -1.4760    -1.9120 O.2   1 <1>  -0.5700 
 28 O       13.0980    -3.0430    -0.6340 O.3   1 <1>  -0.4300 
 29 C       13.2590    -3.9560    -1.7000 C.3   1 <1>   0.0400 
 30 H        1.7550     0.4160     0.6260 H     1 <1>   0.1500 
 31 H        1.6460     3.6850    -2.0830 H     1 <1>   0.1500 
 32 H        4.0940     3.8430    -2.0280 H     1 <1>   0.1500 
 33 H        3.8010    -0.4360     1.4700 H     1 <1>   0.0800 
 34 H        4.9910     0.8120     1.7430 H     1 <1>   0.0800 
 35 H        5.1640    -0.2800     0.3910 H     1 <1>   0.0800 
 36 H        5.9070     4.2260    -0.1020 H     1 <1>   0.0800 
 37 H        6.3070     3.7890    -1.7610 H     1 <1>   0.0800 
 38 H        7.6570     1.3680    -0.5270 H     1 <1>   0.3700 
 39 H       13.6700     1.6580     1.8670 H     1 <1>   0.0800 
 40 H       14.0720     1.8120     0.1510 H     1 <1>   0.0800 
 41 H       12.1090    -1.6130     1.2530 H     1 <1>   0.0800 
 42 H       14.1230    -0.6180     1.7460 H     1 <1>   0.0800 
 43 H       14.5030    -0.4540     0.0510 H     1 <1>   0.0800 
 44 H        7.7020    -2.4240    -1.8670 H     1 <1>   0.0800 
 45 H        6.2780    -1.4170    -1.6020 H     1 <1>   0.0800 
 46 H        6.9490    -2.3650    -0.2710 H     1 <1>   0.0800 
 47 H       13.7220    -4.8480    -1.3180 H     1 <1>   0.0800 
 48 H       13.8810    -3.5060    -2.4540 H     1 <1>   0.0800 
 49 H       12.2890    -4.1860    -2.1070 H     1 <1>   0.0800 
@<TRIPOS>BOND
  1   1   2  1   
  2   2   3  ar  
  3   2   4  ar  
  4   3   5  ar  
  5   3  30  1   
  6   4   6  ar  
  7   4  31  1   
  8   5   7  ar  
  9   5   8  1   
 10   6   7  ar  
 11   6  32  1   
 12   7   9  1   
 13   8  33  1   
 14   8  34  1   
 15   8  35  1   
 16   9  10  1   
 17  10  11  1   
 18  10  36  1   
 19  10  37  1   
 20  11  12  2   
 21  11  13  am  
 22  13  14  1   
 23  13  38  1   
 24  14  15  1   
 25  14  16  2   
 26  15  17  1   
 27  16  18  1   
 28  16  19  1   
 29  17  18  2   
 30  17  20  1   
 31  18  21  1   
 32  19  22  2   
 33  19  23  1   
 34  20  24  1   
 35  20  39  1   
 36  20  40  1   
 37  21  24  1   
 38  21  25  1   
 39  21  41  1   
 40  23  26  1   
 41  24  42  1   
 42  24  43  1   
 43  25  27  2   
 44  25  28  1   
 45  26  44  1   
 46  26  45  1   
 47  26  46  1   
 48  28  29  1   
 49  29  47  1   
 50  29  48  1   
 51  29  49  1   
@<TRIPOS>SUBSTRUCTURE
  1 ****  13 GROUP 4 **** **** 0

# MOE 2024.06 (io_trps.svl 2023.06)
