@<TRIPOS>MOLECULE
NONAME
61 64 1 0 0 
SMALL
USER_CHARGES


@<TRIPOS>ATOM
  1 F       -1.3500     0.0620     1.0440 F     1 <1>  -0.1900 
  2 C       -2.4490    -0.0100     0.3360 C.ar  1 <1>   0.1900 
  3 C       -3.5360    -0.6840     0.8590 C.ar  1 <1>  -0.1500 
  4 C       -2.4800     0.5910    -0.9080 C.ar  1 <1>  -0.1500 
  5 C       -4.6940    -0.7560     0.1050 C.ar  1 <1>  -0.1500 
  6 C       -3.6460     0.5100    -1.6490 C.ar  1 <1>  -0.1500 
  7 C       -4.7610    -0.1600    -1.1540 C.ar  1 <1>   0.1000 
  8 N       -5.9110    -0.2190    -1.9340 N.pl3 1 <1>  -0.8380 
  9 C       -6.2420    -1.5190    -2.5880 C.3   1 <1>   0.2090 
 10 C       -7.1190     0.5240    -1.4600 C.3   1 <1>   0.2090 
 11 C       -7.2220    -2.3660    -1.7530 C.3   1 <1>   0.1100 
 12 C       -8.1060    -0.3630    -0.6740 C.3   1 <1>   0.1100 
 13 N       -8.4480    -1.6180    -1.3880 N.3   1 <1>  -0.8100 
 14 C       -9.4530    -2.4500    -0.6730 C.3   1 <1>   0.5130 
 15 C      -10.8090    -1.7220    -0.6810 C.ar  1 <1>  -0.1430 
 16 C       -9.0330    -3.0500     0.6840 C.2   1 <1>   0.0060 
 17 C      -11.2820    -0.9400     0.3770 C.ar  1 <1>   0.0830 
 18 C      -11.6040    -1.8660    -1.8110 C.ar  1 <1>  -0.1500 
 19 N       -7.9200    -2.8870     1.3070 N.2   1 <1>  -0.3380 
 20 N       -9.8090    -3.8640     1.3930 N.pl3 1 <1>   0.3140 
 21 O      -10.4870    -0.7770     1.4640 O.3   1 <1>  -0.3630 
 22 C      -12.5400    -0.3520     0.2950 C.ar  1 <1>  -0.1500 
 23 C      -12.8530    -1.2770    -1.8900 C.ar  1 <1>  -0.1500 
 24 N       -8.0070    -3.6050     2.4160 N.2   1 <1>   0.0000 
 25 N       -9.1380    -4.2030     2.4780 N.2   1 <1>  -0.4180 
 26 C      -11.1760    -4.4040     1.1070 C.3   1 <1>   0.1760 
 27 C      -10.8820    -0.0300     2.5920 C.3   1 <1>   0.0400 
 28 C      -13.3290    -0.5180    -0.8280 C.ar  1 <1>   0.0830 
 29 C      -11.1320    -5.9310     0.9490 C.3   1 <1>  -0.2400 
 30 C      -12.1670    -4.0050     2.2110 C.3   1 <1>  -0.2400 
 31 O      -14.5430     0.0870    -0.8160 O.3   1 <1>  -0.3620 
 32 C      -15.4020     0.0320    -1.9330 C.3   1 <1>   0.0400 
 33 H       -3.4770    -1.1400     1.8300 H     1 <1>   0.1500 
 34 H       -1.6160     1.1070    -1.2820 H     1 <1>   0.1500 
 35 H       -5.5500    -1.2760     0.4920 H     1 <1>   0.1500 
 36 H       -3.7120     0.9650    -2.6200 H     1 <1>   0.1500 
 37 H       -5.3350    -2.0770    -2.7460 H     1 <1>   0.0800 
 38 H       -6.6800    -1.3210    -3.5500 H     1 <1>   0.0800 
 39 H       -7.6280     0.9330    -2.3150 H     1 <1>   0.0800 
 40 H       -6.8110     1.3460    -0.8390 H     1 <1>   0.0800 
 41 H       -6.7050    -2.6990    -0.8720 H     1 <1>   0.0800 
 42 H       -7.4900    -3.2360    -2.3240 H     1 <1>   0.0800 
 43 H       -8.9990     0.2120    -0.5080 H     1 <1>   0.0800 
 44 H       -7.6800    -0.5800     0.2870 H     1 <1>   0.0800 
 45 H       -9.5960    -3.3120    -1.3000 H     1 <1>   0.0800 
 46 H      -11.2470    -2.4400    -2.6490 H     1 <1>   0.1500 
 47 H      -12.9360     0.2490     1.0900 H     1 <1>   0.1500 
 48 H      -13.4340    -1.4160    -2.7820 H     1 <1>   0.1500 
 49 H      -11.5250    -3.9900     0.1820 H     1 <1>   0.0800 
 50 H      -10.0840    -0.0720     3.3120 H     1 <1>   0.0800 
 51 H      -11.7720    -0.4670     3.0090 H     1 <1>   0.0800 
 52 H      -11.0530     0.9900     2.2950 H     1 <1>   0.0800 
 53 H      -12.1080    -6.3050     0.6980 H     1 <1>   0.0800 
 54 H      -10.4500    -6.2060     0.1640 H     1 <1>   0.0800 
 55 H      -10.8160    -6.3960     1.8670 H     1 <1>   0.0800 
 56 H      -13.1520    -4.3600     1.9700 H     1 <1>   0.0800 
 57 H      -12.2080    -2.9340     2.3030 H     1 <1>   0.0800 
 58 H      -11.8720    -4.4270     3.1560 H     1 <1>   0.0800 
 59 H      -16.2870     0.5980    -1.7030 H     1 <1>   0.0800 
 60 H      -15.6640    -0.9940    -2.1230 H     1 <1>   0.0800 
 61 H      -14.9020     0.4660    -2.7810 H     1 <1>   0.0800 
@<TRIPOS>BOND
  1   1   2  1   
  2   2   3  ar  
  3   2   4  ar  
  4   3   5  ar  
  5   3  33  1   
  6   4   6  ar  
  7   4  34  1   
  8   5   7  ar  
  9   5  35  1   
 10   6   7  ar  
 11   6  36  1   
 12   7   8  1   
 13   8   9  1   
 14   8  10  1   
 15   9  11  1   
 16   9  37  1   
 17   9  38  1   
 18  10  12  1   
 19  10  39  1   
 20  10  40  1   
 21  11  13  1   
 22  11  41  1   
 23  11  42  1   
 24  12  13  1   
 25  12  43  1   
 26  12  44  1   
 27  13  14  1   
 28  14  15  1   
 29  14  16  1   
 30  14  45  1   
 31  15  17  ar  
 32  15  18  ar  
 33  16  19  2   
 34  16  20  1   
 35  17  21  1   
 36  17  22  ar  
 37  18  23  ar  
 38  18  46  1   
 39  19  24  1   
 40  20  25  1   
 41  20  26  1   
 42  21  27  1   
 43  22  28  ar  
 44  22  47  1   
 45  23  28  ar  
 46  23  48  1   
 47  24  25  2   
 48  26  29  1   
 49  26  30  1   
 50  26  49  1   
 51  27  50  1   
 52  27  51  1   
 53  27  52  1   
 54  28  31  1   
 55  29  53  1   
 56  29  54  1   
 57  29  55  1   
 58  30  56  1   
 59  30  57  1   
 60  30  58  1   
 61  31  32  1   
 62  32  59  1   
 63  32  60  1   
 64  32  61  1   
@<TRIPOS>SUBSTRUCTURE
  1 ****  13 GROUP 4 **** **** 0

# MOE 2024.06 (io_trps.svl 2023.06)
