@<TRIPOS>MOLECULE
594
46 46 1 0 0 
SMALL
USER_CHARGES


@<TRIPOS>ATOM
  1 O       -0.7880    -0.9810     1.9790 O.2   1 <1>  -0.5700 
  2 C       -1.0930    -1.4010     0.8800 C.2   1 <1>   0.5440 
  3 N       -0.0950    -1.8580     0.0710 N.am  1 <1>  -0.7300 
  4 C       -2.4760    -1.4070     0.4360 C.ar  1 <1>   0.0860 
  5 C        1.3640    -1.8160     0.3960 C.3   1 <1>   0.2810 
  6 C       -2.9370    -2.3070    -0.5260 C.ar  1 <1>  -0.1500 
  7 C       -3.3970    -0.5030     0.9620 C.ar  1 <1>  -0.1500 
  8 C        2.2000    -1.4780    -0.8520 C.2   1 <1>   0.6590 
  9 C        1.7700    -3.1530     1.0670 C.3   1 <1>  -0.0800 
 10 C       -4.2600    -2.3050    -0.9550 C.ar  1 <1>   0.0830 
 11 C       -4.7150    -0.4730     0.5490 C.ar  1 <1>   0.0830 
 12 O        1.8340    -1.7780    -1.9650 O.2   1 <1>  -0.5700 
 13 O        3.3390    -0.8210    -0.6470 O.3   1 <1>  -0.4300 
 14 C        3.2090    -3.1130     1.6080 C.3   1 <1>  -0.2400 
 15 C        1.6050    -4.3770     0.1490 C.3   1 <1>  -0.2400 
 16 O       -4.7210    -3.1770    -1.9000 O.3   1 <1>  -0.3630 
 17 C       -5.1620    -1.3900    -0.4080 C.ar  1 <1>   0.0830 
 18 O       -5.5020     0.4720     1.1340 O.3   1 <1>  -0.3620 
 19 C        4.1850    -0.4450    -1.7140 C.3   1 <1>   0.0400 
 20 C       -3.8470    -3.9780    -2.6640 C.3   1 <1>   0.0400 
 21 O       -6.4600    -1.4070    -0.8040 O.3   1 <1>  -0.3630 
 22 C       -6.3780     1.2330     0.3310 C.3   1 <1>   0.0400 
 23 C       -7.2710    -2.3860    -0.1980 C.3   1 <1>   0.0400 
 24 H       -0.2780    -2.0580    -0.9150 H     1 <1>   0.3700 
 25 H        1.5270    -1.0230     1.1050 H     1 <1>   0.0800 
 26 H       -2.2420    -3.0190    -0.9240 H     1 <1>   0.1500 
 27 H       -3.0740     0.1980     1.7120 H     1 <1>   0.1500 
 28 H        1.1200    -3.2830     1.9170 H     1 <1>   0.0800 
 29 H        3.9250    -3.0510     0.8070 H     1 <1>   0.0800 
 30 H        3.4150    -4.0030     2.1760 H     1 <1>   0.0800 
 31 H        3.3420    -2.2650     2.2570 H     1 <1>   0.0800 
 32 H        2.2450    -4.3050    -0.7130 H     1 <1>   0.0800 
 33 H        0.5870    -4.4640    -0.1870 H     1 <1>   0.0800 
 34 H        1.8550    -5.2770     0.6820 H     1 <1>   0.0800 
 35 H        5.0380     0.0700    -1.3080 H     1 <1>   0.0800 
 36 H        3.6410     0.2050    -2.3770 H     1 <1>   0.0800 
 37 H        4.5000    -1.3310    -2.2380 H     1 <1>   0.0800 
 38 H       -4.4330    -4.5000    -3.4000 H     1 <1>   0.0800 
 39 H       -3.3630    -4.6870    -2.0160 H     1 <1>   0.0800 
 40 H       -3.1290    -3.3450    -3.1540 H     1 <1>   0.0800 
 41 H       -6.5770     2.1600     0.8380 H     1 <1>   0.0800 
 42 H       -7.2950     0.6880     0.2010 H     1 <1>   0.0800 
 43 H       -5.9130     1.4250    -0.6200 H     1 <1>   0.0800 
 44 H       -8.2710    -2.2760    -0.5760 H     1 <1>   0.0800 
 45 H       -7.2580    -2.2340     0.8670 H     1 <1>   0.0800 
 46 H       -6.8890    -3.3600    -0.4440 H     1 <1>   0.0800 
@<TRIPOS>BOND
  1   1   2  2   
  2   2   3  am  
  3   2   4  1   
  4   3   5  1   
  5   3  24  1   
  6   4   6  ar  
  7   4   7  ar  
  8   5   8  1   
  9   5   9  1   
 10   5  25  1   
 11   6  10  ar  
 12   6  26  1   
 13   7  11  ar  
 14   7  27  1   
 15   8  12  2   
 16   8  13  1   
 17   9  14  1   
 18   9  15  1   
 19   9  28  1   
 20  10  16  1   
 21  10  17  ar  
 22  11  17  ar  
 23  11  18  1   
 24  13  19  1   
 25  14  29  1   
 26  14  30  1   
 27  14  31  1   
 28  15  32  1   
 29  15  33  1   
 30  15  34  1   
 31  16  20  1   
 32  17  21  1   
 33  18  22  1   
 34  19  35  1   
 35  19  36  1   
 36  19  37  1   
 37  20  38  1   
 38  20  39  1   
 39  20  40  1   
 40  21  23  1   
 41  22  41  1   
 42  22  42  1   
 43  22  43  1   
 44  23  44  1   
 45  23  45  1   
 46  23  46  1   
@<TRIPOS>SUBSTRUCTURE
  1 ****   4 GROUP 4 **** **** 0

# MOE 2024.06 (io_trps.svl 2023.06)
