@<TRIPOS>MOLECULE
1-(2-Methoxy-ethyl)-2-(3-methoxy-phenyl)-6-oxo-piperidine-3-carboxylic acid
42 43 1 0 0 
SMALL
USER_CHARGES


@<TRIPOS>ATOM
  1 O        0.9130    -0.8660    -0.8920 O.2   1 <1>  -0.5700 
  2 C        1.5610    -1.7710    -0.4190 C.2   1 <1>   0.5690 
  3 N        2.8010    -1.5800     0.1350 N.am  1 <1>  -0.6600 
  4 C        0.9290    -3.1480    -0.4580 C.3   1 <1>  -0.0990 
  5 C        3.5630    -2.6770     0.8350 C.3   1 <1>   0.3640 
  6 C        3.2600    -0.1870     0.4690 C.3   1 <1>   0.1400 
  7 C        1.3950    -4.0260     0.7020 C.3   1 <1>  -0.1600 
  8 C        5.0110    -2.6960     0.3420 C.ar  1 <1>  -0.1440 
  9 C        2.9290    -4.0700     0.6940 C.3   1 <1>  -0.1860 
 10 C        4.3950     0.3870    -0.4060 C.3   1 <1>   0.1200 
 11 C        6.0510    -2.4910     1.2360 C.ar  1 <1>  -0.1500 
 12 C        5.3090    -2.9070    -0.9980 C.ar  1 <1>  -0.1500 
 13 C        3.4510    -4.9570     1.8030 C.2   1 <1>   0.9060 
 14 O        3.9460     0.8410    -1.6500 O.3   1 <1>  -0.5600 
 15 C        7.3680    -2.4740     0.8060 C.ar  1 <1>   0.0820 
 16 C        6.6220    -2.9000    -1.4380 C.ar  1 <1>  -0.1500 
 17 O        3.4770    -4.5200     2.9590 O.co2 1 <1>  -0.9000 
 18 O        3.7890    -6.1090     1.5210 O.co2 1 <1>  -0.9000 
 19 C        3.8660    -0.1320    -2.6410 C.3   1 <1>   0.0400 
 20 O        8.3210    -2.2520     1.7460 O.3   1 <1>  -0.3630 
 21 C        7.6520    -2.6800    -0.5410 C.ar  1 <1>  -0.1500 
 22 C        9.6760    -2.5350     1.4840 C.3   1 <1>   0.0400 
 23 H        1.1870    -3.6090    -1.3930 H     1 <1>   0.0800 
 24 H       -0.1400    -3.0440    -0.4200 H     1 <1>   0.0800 
 25 H        3.5630    -2.4200     1.8810 H     1 <1>   0.0800 
 26 H        3.6040    -0.1890     1.4880 H     1 <1>   0.0800 
 27 H        2.4290     0.4960     0.4280 H     1 <1>   0.0800 
 28 H        1.0020    -5.0230     0.6000 H     1 <1>   0.0800 
 29 H        1.0520    -3.6200     1.6390 H     1 <1>   0.0800 
 30 H        3.2500    -4.5150    -0.2270 H     1 <1>   0.0800 
 31 H        5.2050    -0.3040    -0.5400 H     1 <1>   0.0800 
 32 H        4.7910     1.2510     0.0960 H     1 <1>   0.0800 
 33 H        5.8450    -2.3530     2.2830 H     1 <1>   0.1500 
 34 H        4.5110    -3.0740    -1.6990 H     1 <1>   0.1500 
 35 H        6.8380    -3.0660    -2.4780 H     1 <1>   0.1500 
 36 H        3.1320    -0.8650    -2.3670 H     1 <1>   0.0800 
 37 H        4.8300    -0.5900    -2.7690 H     1 <1>   0.0800 
 38 H        3.5650     0.3480    -3.5540 H     1 <1>   0.0800 
 39 H        8.6610    -2.6730    -0.9040 H     1 <1>   0.1500 
 40 H       10.2260    -2.4080     2.3990 H     1 <1>   0.0800 
 41 H       10.0390    -1.8490     0.7400 H     1 <1>   0.0800 
 42 H        9.7590    -3.5540     1.1460 H     1 <1>   0.0800 
@<TRIPOS>BOND
  1   1   2  2   
  2   2   3  am  
  3   2   4  1   
  4   3   5  1   
  5   3   6  1   
  6   4   7  1   
  7   4  23  1   
  8   4  24  1   
  9   5   8  1   
 10   5   9  1   
 11   5  25  1   
 12   6  10  1   
 13   6  26  1   
 14   6  27  1   
 15   7   9  1   
 16   7  28  1   
 17   7  29  1   
 18   8  11  ar  
 19   8  12  ar  
 20   9  13  1   
 21   9  30  1   
 22  10  14  1   
 23  10  31  1   
 24  10  32  1   
 25  11  15  ar  
 26  11  33  1   
 27  12  16  ar  
 28  12  34  1   
 29  13  17  ar  
 30  13  18  ar  
 31  14  19  1   
 32  15  20  1   
 33  15  21  ar  
 34  16  21  ar  
 35  16  35  1   
 36  19  36  1   
 37  19  37  1   
 38  19  38  1   
 39  20  22  1   
 40  21  39  1   
 41  22  40  1   
 42  22  41  1   
 43  22  42  1   
@<TRIPOS>SUBSTRUCTURE
  1 ****   8 GROUP 4 **** **** 0

# MOE 2024.06 (io_trps.svl 2023.06)
