@<TRIPOS>MOLECULE
2-[4-(4-Methoxy-benzoyl)-piperidin-1-yl]-N-(4-methoxy-phenyl)-acetamide
54 56 1 0 0 
SMALL
USER_CHARGES


@<TRIPOS>ATOM
  1 O       -0.0070    -4.1950     2.4480 O.2   1 <1>  -0.5700 
  2 C       -0.2300    -3.8590     1.3110 C.2   1 <1>   0.4230 
  3 C       -1.5750    -3.5890     0.8420 C.ar  1 <1>   0.0860 
  4 C        0.9640    -3.7120     0.3580 C.3   1 <1>  -0.0190 
  5 C       -2.5920    -3.3190     1.7630 C.ar  1 <1>  -0.1500 
  6 C       -1.9400    -3.5860    -0.5110 C.ar  1 <1>  -0.1500 
  7 C        1.3480    -5.0630    -0.2700 C.3   1 <1>  -0.1600 
  8 C        2.2040    -3.1110     1.0450 C.3   1 <1>  -0.1600 
  9 C       -3.8890    -3.0480     1.3710 C.ar  1 <1>  -0.1500 
 10 C       -3.2340    -3.3150    -0.9120 C.ar  1 <1>  -0.1500 
 11 C        2.5470    -4.9150    -1.2090 C.3   1 <1>   0.1100 
 12 C        3.3830    -3.0140     0.0750 C.3   1 <1>   0.1100 
 13 C       -4.2200    -3.0410     0.0200 C.ar  1 <1>   0.0830 
 14 N        3.6850    -4.3430    -0.4820 N.3   1 <1>  -0.8100 
 15 O       -5.4580    -2.7840    -0.4530 O.3   1 <1>  -0.3630 
 16 C        4.9000    -4.3090    -1.3440 C.3   1 <1>   0.1710 
 17 C       -6.5400    -2.5020     0.4070 C.3   1 <1>   0.0400 
 18 C        6.2040    -3.9150    -0.6330 C.2   1 <1>   0.5690 
 19 O        6.5670    -2.7640    -0.6640 O.2   1 <1>  -0.5700 
 20 N        6.9870    -4.8390    -0.0100 N.am  1 <1>  -0.5470 
 21 C        6.8150    -6.2210     0.1340 C.ar  1 <1>   0.1170 
 22 C        7.8310    -7.0820    -0.2590 C.ar  1 <1>  -0.1500 
 23 C        5.6540    -6.7580     0.6760 C.ar  1 <1>  -0.1500 
 24 C        7.6890    -8.4530    -0.1300 C.ar  1 <1>  -0.1500 
 25 C        5.5060    -8.1260     0.8060 C.ar  1 <1>  -0.1500 
 26 C        6.5180    -8.9840     0.4040 C.ar  1 <1>   0.0830 
 27 O        6.2920   -10.3150     0.5640 O.3   1 <1>  -0.3630 
 28 C        7.2640   -11.2660     0.1910 C.3   1 <1>   0.0400 
 29 H        0.6940    -3.0320    -0.4280 H     1 <1>   0.0800 
 30 H       -2.3530    -3.3240     2.8130 H     1 <1>   0.1500 
 31 H       -1.2140    -3.8050    -1.2710 H     1 <1>   0.1500 
 32 H        0.5170    -5.4690    -0.8170 H     1 <1>   0.0800 
 33 H        1.6010    -5.7630     0.5080 H     1 <1>   0.0800 
 34 H        2.4980    -3.7260     1.8790 H     1 <1>   0.0800 
 35 H        1.9710    -2.1330     1.4260 H     1 <1>   0.0800 
 36 H       -4.6260    -2.8460     2.1240 H     1 <1>   0.1500 
 37 H       -3.4950    -3.3150    -1.9550 H     1 <1>   0.1500 
 38 H        2.2900    -4.2830    -2.0430 H     1 <1>   0.0800 
 39 H        2.8160    -5.8880    -1.5860 H     1 <1>   0.0800 
 40 H        4.2380    -2.6380     0.6130 H     1 <1>   0.0800 
 41 H        3.1550    -2.3250    -0.7200 H     1 <1>   0.0800 
 42 H        4.7410    -3.6160    -2.1510 H     1 <1>   0.0800 
 43 H        5.0470    -5.2810    -1.7780 H     1 <1>   0.0800 
 44 H       -7.4130    -2.3350    -0.1990 H     1 <1>   0.0800 
 45 H       -6.3130    -1.6170     0.9740 H     1 <1>   0.0800 
 46 H       -6.7000    -3.3450     1.0550 H     1 <1>   0.0800 
 47 H        7.8460    -4.4420     0.3670 H     1 <1>   0.3700 
 48 H        8.7360    -6.6760    -0.6740 H     1 <1>   0.1500 
 49 H        4.8640    -6.1040     1.0030 H     1 <1>   0.1500 
 50 H        8.4940    -9.0870    -0.4480 H     1 <1>   0.1500 
 51 H        4.6050    -8.5370     1.2230 H     1 <1>   0.1500 
 52 H        6.8730   -12.2440     0.4080 H     1 <1>   0.0800 
 53 H        8.1580   -11.0950     0.7640 H     1 <1>   0.0800 
 54 H        7.4560   -11.1750    -0.8630 H     1 <1>   0.0800 
@<TRIPOS>BOND
  1   1   2  2   
  2   2   3  1   
  3   2   4  1   
  4   3   5  ar  
  5   3   6  ar  
  6   4   7  1   
  7   4   8  1   
  8   4  29  1   
  9   5   9  ar  
 10   5  30  1   
 11   6  10  ar  
 12   6  31  1   
 13   7  11  1   
 14   7  32  1   
 15   7  33  1   
 16   8  12  1   
 17   8  34  1   
 18   8  35  1   
 19   9  13  ar  
 20   9  36  1   
 21  10  13  ar  
 22  10  37  1   
 23  11  14  1   
 24  11  38  1   
 25  11  39  1   
 26  12  14  1   
 27  12  40  1   
 28  12  41  1   
 29  13  15  1   
 30  14  16  1   
 31  15  17  1   
 32  16  18  1   
 33  16  42  1   
 34  16  43  1   
 35  17  44  1   
 36  17  45  1   
 37  17  46  1   
 38  18  19  2   
 39  18  20  am  
 40  20  21  1   
 41  20  47  1   
 42  21  22  ar  
 43  21  23  ar  
 44  22  24  ar  
 45  22  48  1   
 46  23  25  ar  
 47  23  49  1   
 48  24  26  ar  
 49  24  50  1   
 50  25  26  ar  
 51  25  51  1   
 52  26  27  1   
 53  27  28  1   
 54  28  52  1   
 55  28  53  1   
 56  28  54  1   
@<TRIPOS>SUBSTRUCTURE
  1 ****   7 GROUP 4 **** **** 0

# MOE 2024.06 (io_trps.svl 2023.06)
