@<TRIPOS>MOLECULE
10707
35 38 1 0 0 
SMALL
USER_CHARGES


@<TRIPOS>ATOM
  1 S       -1.5900    -1.5580     2.4510 S.3   1 <1>  -0.0910 
  2 C       -1.6950    -1.2960     0.7100 C.2   1 <1>  -0.1510 
  3 C       -1.8240     0.1470     2.7710 C.2   1 <1>  -0.1210 
  4 C       -1.8870     0.0130     0.4460 C.2   1 <1>  -0.1910 
  5 C       -1.5530    -2.5210    -0.1870 C.3   1 <1>   0.7470 
  6 C       -1.9630     0.8280     1.6210 C.2   1 <1>  -0.1610 
  7 C       -2.0120     0.6700    -0.9180 C.3   1 <1>  -0.0700 
  8 N       -2.6010    -3.4980     0.2120 N.pl3 1 <1>  -0.4650 
  9 C       -0.1660    -3.1260    -0.0110 C.2   1 <1>  -0.1350 
 10 N       -3.9510    -3.3700     0.0370 N.2   1 <1>  -0.2690 
 11 C       -2.3230    -4.5530     0.9410 C.cat 1 <1>   1.0680 
 12 C        0.0110    -4.2590     0.7070 C.2   1 <1>   0.1540 
 13 C        0.8860    -2.4040    -0.6300 C.2   1 <1>   0.4870 
 14 C       -4.4340    -4.3680     0.6820 C.2   1 <1>   0.4960 
 15 N       -3.4540    -5.1320     1.2580 N.pl3 1 <1>  -0.7050 
 16 N       -1.0690    -4.9330     1.2420 N.pl3 1 <1>  -0.6950 
 17 C        1.3960    -4.8460     0.9500 C.3   1 <1>  -0.0340 
 18 O        0.6920    -1.4950    -1.3950 O.2   1 <1>  -0.5770 
 19 C        2.3130    -2.8310    -0.3290 C.3   1 <1>  -0.1100 
 20 C        2.4130    -4.3500    -0.0930 C.3   1 <1>  -0.1700 
 21 H       -1.8320     0.4680     3.7980 H     1 <1>   0.1390 
 22 H       -1.7140    -2.2510    -1.2160 H     1 <1>   0.0690 
 23 H       -2.1160     1.8910     1.5470 H     1 <1>   0.1390 
 24 H       -1.2400     1.4100    -1.0340 H     1 <1>   0.0690 
 25 H       -1.9120    -0.0460    -1.7120 H     1 <1>   0.0690 
 26 H       -2.9690     1.1520    -1.0060 H     1 <1>   0.0690 
 27 H       -5.4870    -4.5940     0.7710 H     1 <1>   0.1390 
 28 H       -3.5910    -5.9690     1.8190 H     1 <1>   0.4420 
 29 H       -0.9240    -5.7530     1.8320 H     1 <1>   0.4420 
 30 H        1.3590    -5.9210     0.9070 H     1 <1>   0.0690 
 31 H        1.7260    -4.5630     1.9350 H     1 <1>   0.0690 
 32 H        2.6510    -2.3000     0.5430 H     1 <1>   0.0690 
 33 H        2.9480    -2.5520    -1.1520 H     1 <1>   0.0690 
 34 H        2.2280    -4.8530    -1.0280 H     1 <1>   0.0690 
 35 H        3.4110    -4.6050     0.2190 H     1 <1>   0.0690 
@<TRIPOS>BOND
  1   1   2  1   
  2   1   3  1   
  3   2   4  2   
  4   2   5  1   
  5   3   6  2   
  6   3  21  1   
  7   4   6  1   
  8   4   7  1   
  9   5   8  1   
 10   5   9  1   
 11   5  22  1   
 12   6  23  1   
 13   7  24  1   
 14   7  25  1   
 15   7  26  1   
 16   8  10  1   
 17   8  11  ar  
 18   9  12  2   
 19   9  13  1   
 20  10  14  2   
 21  11  15  ar  
 22  11  16  ar  
 23  12  16  1   
 24  12  17  1   
 25  13  18  2   
 26  13  19  1   
 27  14  15  1   
 28  14  27  1   
 29  15  28  1   
 30  16  29  1   
 31  17  20  1   
 32  17  30  1   
 33  17  31  1   
 34  19  20  1   
 35  19  32  1   
 36  19  33  1   
 37  20  34  1   
 38  20  35  1   
@<TRIPOS>SUBSTRUCTURE
  1 ****   5 GROUP 4 **** **** 0

# MOE 2024.06 (io_trps.svl 2023.06)
