@<TRIPOS>MOLECULE
NONAME
61 65 1 0 0 
SMALL
USER_CHARGES


@<TRIPOS>ATOM
  1 O        1.4440     1.1610    -1.0540 O.2   1 <1>  -0.5700 
  2 C        1.0290     1.9890    -0.2620 C.2   1 <1>   0.6900 
  3 N        1.7560     2.3250     0.8450 N.am  1 <1>  -0.6600 
  4 N       -0.1730     2.5740    -0.4420 N.am  1 <1>  -0.7300 
  5 C        2.8610     1.4490     1.3080 C.3   1 <1>   0.2780 
  6 C        1.5610     3.6170     1.5760 C.3   1 <1>   0.1400 
  7 C       -1.1520     2.2240    -1.4750 C.3   1 <1>   0.2200 
  8 C        4.2020     2.0380     0.9000 C.2   1 <1>  -0.0930 
  9 C        0.5460     3.5020     2.7260 C.3   1 <1>   0.2000 
 10 C       -1.7340     3.5170    -2.0550 C.3   1 <1>  -0.1600 
 11 C       -2.2450     1.3580    -0.8410 C.3   1 <1>  -0.1600 
 12 C        4.9720     2.7380     1.8710 C.2   1 <1>   0.1410 
 13 C        4.6850     1.9230    -0.3640 C.2   1 <1>  -0.1780 
 14 O       -0.7460     3.3270     2.2360 O.3   1 <1>  -0.5600 
 15 C        0.4450     4.7580     3.5790 C.3   1 <1>  -0.1600 
 16 C       -2.8570     3.2210    -3.0610 C.3   1 <1>  -0.1600 
 17 C       -3.3700     1.0580    -1.8430 C.3   1 <1>  -0.1600 
 18 N        4.7380     2.9900     3.1190 N.2   1 <1>  -0.3380 
 19 N        6.1490     3.2700     1.5270 N.pl3 1 <1>   0.5930 
 20 C        5.9470     2.4870    -0.7360 C.ar  1 <1>   0.0280 
 21 C       -1.6740     3.6800     3.2100 C.3   1 <1>   0.1200 
 22 C       -0.9790     4.7000     4.1100 C.3   1 <1>  -0.1600 
 23 C       -3.9530     2.3530    -2.4270 C.3   1 <1>  -0.1600 
 24 N        5.7790     3.6850     3.5440 N.2   1 <1>   0.0000 
 25 N        6.6380     3.8650     2.6020 N.2   1 <1>  -0.4180 
 26 C        6.6950     3.1730     0.2330 C.ar  1 <1>  -0.0230 
 27 C        6.4620     2.3800    -2.0290 C.ar  1 <1>  -0.1500 
 28 C        7.9290     3.7270    -0.1110 C.ar  1 <1>  -0.1500 
 29 C        7.6820     2.9310    -2.3620 C.ar  1 <1>  -0.1430 
 30 C        8.4160     3.6060    -1.3940 C.ar  1 <1>  -0.1500 
 31 C        8.2370     2.8110    -3.7700 C.3   1 <1>  -0.0970 
 32 H       -0.5670     2.9920     0.4090 H     1 <1>   0.3700 
 33 H        2.7560     0.4700     0.8720 H     1 <1>   0.0800 
 34 H        2.8030     1.3310     2.3760 H     1 <1>   0.0800 
 35 H        1.2330     4.3770     0.8890 H     1 <1>   0.0800 
 36 H        2.5030     3.9430     1.9780 H     1 <1>   0.0800 
 37 H       -0.6680     1.6690    -2.2620 H     1 <1>   0.0800 
 38 H        0.7820     2.6550     3.3480 H     1 <1>   0.0800 
 39 H       -0.9510     4.0680    -2.5450 H     1 <1>   0.0800 
 40 H       -2.1280     4.1210    -1.2560 H     1 <1>   0.0800 
 41 H       -2.6590     1.8710     0.0100 H     1 <1>   0.0800 
 42 H       -1.8110     0.4340    -0.5040 H     1 <1>   0.0800 
 43 H        4.1220     1.4100    -1.1270 H     1 <1>   0.1500 
 44 H        0.5740     5.6310     2.9630 H     1 <1>   0.0800 
 45 H        1.1810     4.7660     4.3640 H     1 <1>   0.0800 
 46 H       -2.4440     2.7080    -3.9120 H     1 <1>   0.0800 
 47 H       -3.2830     4.1460    -3.4080 H     1 <1>   0.0800 
 48 H       -4.1490     0.4990    -1.3540 H     1 <1>   0.0800 
 49 H       -2.9800     0.4510    -2.6420 H     1 <1>   0.0800 
 50 H       -1.9390     2.7920     3.7580 H     1 <1>   0.0800 
 51 H       -2.5440     4.0880     2.7250 H     1 <1>   0.0800 
 52 H       -1.4610     5.6600     4.0510 H     1 <1>   0.0800 
 53 H       -1.0020     4.3580     5.1300 H     1 <1>   0.0800 
 54 H       -4.6950     2.1110    -3.1690 H     1 <1>   0.0800 
 55 H       -4.4390     2.9090    -1.6440 H     1 <1>   0.0800 
 56 H        5.8840     1.8560    -2.7700 H     1 <1>   0.1500 
 57 H        8.5050     4.2540     0.6330 H     1 <1>   0.1500 
 58 H        9.3690     4.0360    -1.6500 H     1 <1>   0.1500 
 59 H        7.5510     2.2900    -4.4120 H     1 <1>   0.0800 
 60 H        9.1670     2.2710    -3.7520 H     1 <1>   0.0800 
 61 H        8.4120     3.7900    -4.1790 H     1 <1>   0.0800 
@<TRIPOS>BOND
  1   1   2  2   
  2   2   3  am  
  3   2   4  am  
  4   3   5  1   
  5   3   6  1   
  6   4   7  1   
  7   4  32  1   
  8   5   8  1   
  9   5  33  1   
 10   5  34  1   
 11   6   9  1   
 12   6  35  1   
 13   6  36  1   
 14   7  10  1   
 15   7  11  1   
 16   7  37  1   
 17   8  12  1   
 18   8  13  2   
 19   9  14  1   
 20   9  15  1   
 21   9  38  1   
 22  10  16  1   
 23  10  39  1   
 24  10  40  1   
 25  11  17  1   
 26  11  41  1   
 27  11  42  1   
 28  12  18  2   
 29  12  19  1   
 30  13  20  1   
 31  13  43  1   
 32  14  21  1   
 33  15  22  1   
 34  15  44  1   
 35  15  45  1   
 36  16  23  1   
 37  16  46  1   
 38  16  47  1   
 39  17  23  1   
 40  17  48  1   
 41  17  49  1   
 42  18  24  1   
 43  19  25  1   
 44  19  26  1   
 45  20  26  ar  
 46  20  27  ar  
 47  21  22  1   
 48  21  50  1   
 49  21  51  1   
 50  22  52  1   
 51  22  53  1   
 52  23  54  1   
 53  23  55  1   
 54  24  25  2   
 55  26  28  ar  
 56  27  29  ar  
 57  27  56  1   
 58  28  30  ar  
 59  28  57  1   
 60  29  30  ar  
 61  29  31  1   
 62  30  58  1   
 63  31  59  1   
 64  31  60  1   
 65  31  61  1   
@<TRIPOS>SUBSTRUCTURE
  1 ****   3 GROUP 4 **** **** 0

# MOE 2024.06 (io_trps.svl 2023.06)
