@<TRIPOS>MOLECULE
[1,2,3]Thiadiazole-4-carboxylic acid (cyclohexylcarbamoyl-pyridin-4-yl-methyl)-phenyl-amide
53 56 1 0 0 
SMALL
USER_CHARGES


@<TRIPOS>ATOM
  1 S        0.5030     0.0620    -2.4600 S.3   1 <1>   0.1810 
  2 N        1.3940    -0.2360    -3.8690 N.2   1 <1>  -0.2210 
  3 C        1.5120    -0.9550    -1.5130 C.2   1 <1>  -0.1100 
  4 N        2.3480    -1.0240    -3.6380 N.2   1 <1>  -0.2270 
  5 C        2.4620    -1.4580    -2.3210 C.2   1 <1>   0.1410 
  6 C        3.5450    -2.3490    -1.9480 C.2   1 <1>   0.7160 
  7 O        3.6210    -3.4540    -2.4530 O.2   1 <1>  -0.5700 
  8 N        4.4760    -1.9740    -0.9950 N.am  1 <1>  -0.4770 
  9 C        4.3920    -0.7480    -0.3180 C.ar  1 <1>   0.1170 
 10 C        5.6320    -2.9010    -0.6850 C.3   1 <1>   0.4250 
 11 C        4.6610     0.4400    -0.9900 C.ar  1 <1>  -0.1500 
 12 C        4.0530    -0.6930     1.0290 C.ar  1 <1>  -0.1500 
 13 C        5.3500    -3.6260     0.6390 C.ar  1 <1>  -0.1440 
 14 C        7.0280    -2.2330    -0.7550 C.2   1 <1>   0.5690 
 15 C        4.6060     1.6530    -0.3280 C.ar  1 <1>  -0.1500 
 16 C        4.0000     0.5180     1.6940 C.ar  1 <1>  -0.1500 
 17 C        4.3230    -4.5490     0.7140 C.ar  1 <1>  -0.1500 
 18 C        6.0590    -3.4240     1.8120 C.ar  1 <1>  -0.1500 
 19 O        7.8870    -2.7990    -1.3900 O.2   1 <1>  -0.5700 
 20 N        7.2830    -1.0500    -0.1110 N.am  1 <1>  -0.7300 
 21 C        4.2790     1.6930     1.0160 C.ar  1 <1>  -0.1500 
 22 C        4.0510    -5.1880     1.9120 C.ar  1 <1>   0.1600 
 23 C        5.7060    -4.1160     2.9580 C.ar  1 <1>   0.1600 
 24 C        8.5260    -0.2510    -0.0950 C.3   1 <1>   0.2200 
 25 N        4.7140    -4.9860     3.0380 N.ar  1 <1>  -0.6200 
 26 C        8.8710     0.2450    -1.5040 C.3   1 <1>  -0.1600 
 27 C        9.6830    -1.0360     0.5340 C.3   1 <1>  -0.1600 
 28 C       10.1570     1.0860    -1.4870 C.3   1 <1>  -0.1600 
 29 C       10.9680    -0.1940     0.5520 C.3   1 <1>  -0.1600 
 30 C       11.3200     0.3060    -0.8570 C.3   1 <1>  -0.1600 
 31 H        1.3010    -1.0670    -0.4660 H     1 <1>   0.1500 
 32 H        5.6750    -3.6680    -1.4370 H     1 <1>   0.0800 
 33 H        4.9180     0.4160    -2.0360 H     1 <1>   0.1500 
 34 H        3.8260    -1.5990     1.5650 H     1 <1>   0.1500 
 35 H        4.8180     2.5660    -0.8580 H     1 <1>   0.1500 
 36 H        3.7400     0.5500     2.7390 H     1 <1>   0.1500 
 37 H        3.7280    -4.7830    -0.1510 H     1 <1>   0.1500 
 38 H        6.8870    -2.7420     1.8650 H     1 <1>   0.1500 
 39 H        6.4880    -0.5650     0.3180 H     1 <1>   0.3700 
 40 H        4.2360     2.6370     1.5330 H     1 <1>   0.1500 
 41 H        3.2460    -5.9020     1.9450 H     1 <1>   0.1500 
 42 H        6.2710    -3.9440     3.8590 H     1 <1>   0.1500 
 43 H        8.3460     0.6150     0.5210 H     1 <1>   0.0800 
 44 H        8.0600     0.8370    -1.8880 H     1 <1>   0.0800 
 45 H        9.0200    -0.5970    -2.1570 H     1 <1>   0.0800 
 46 H        9.8680    -1.9310    -0.0340 H     1 <1>   0.0800 
 47 H        9.4260    -1.3180     1.5390 H     1 <1>   0.0800 
 48 H        9.9880     1.9890    -0.9270 H     1 <1>   0.0800 
 49 H       10.4160     1.3650    -2.4940 H     1 <1>   0.0800 
 50 H       11.7800    -0.7870     0.9360 H     1 <1>   0.0800 
 51 H       10.8360     0.6490     1.2080 H     1 <1>   0.0800 
 52 H       12.1920     0.9360    -0.8080 H     1 <1>   0.0800 
 53 H       11.5590    -0.5380    -1.4820 H     1 <1>   0.0800 
@<TRIPOS>BOND
  1   1   2  1   
  2   1   3  1   
  3   2   4  2   
  4   3   5  2   
  5   3  31  1   
  6   4   5  1   
  7   5   6  1   
  8   6   7  2   
  9   6   8  am  
 10   8   9  1   
 11   8  10  1   
 12   9  11  ar  
 13   9  12  ar  
 14  10  13  1   
 15  10  14  1   
 16  10  32  1   
 17  11  15  ar  
 18  11  33  1   
 19  12  16  ar  
 20  12  34  1   
 21  13  17  ar  
 22  13  18  ar  
 23  14  19  2   
 24  14  20  am  
 25  15  21  ar  
 26  15  35  1   
 27  16  21  ar  
 28  16  36  1   
 29  17  22  ar  
 30  17  37  1   
 31  18  23  ar  
 32  18  38  1   
 33  20  24  1   
 34  20  39  1   
 35  21  40  1   
 36  22  25  ar  
 37  22  41  1   
 38  23  25  ar  
 39  23  42  1   
 40  24  26  1   
 41  24  27  1   
 42  24  43  1   
 43  26  28  1   
 44  26  44  1   
 45  26  45  1   
 46  27  29  1   
 47  27  46  1   
 48  27  47  1   
 49  28  30  1   
 50  28  48  1   
 51  28  49  1   
 52  29  30  1   
 53  29  50  1   
 54  29  51  1   
 55  30  52  1   
 56  30  53  1   
@<TRIPOS>SUBSTRUCTURE
  1 ****   8 GROUP 4 **** **** 0

# MOE 2024.06 (io_trps.svl 2023.06)
