@<TRIPOS>MOLECULE
Pyrrolidine-1,2-dicarboxylic acid 2-(phenethyl-amide) 1-phenylamide
48 50 1 0 0 
SMALL
USER_CHARGES


@<TRIPOS>ATOM
  1 O        2.0910    -0.0400    -2.0990 O.2   1 <1>  -0.5700 
  2 C        2.4420     0.6620    -1.1710 C.2   1 <1>   0.6900 
  3 N        3.5660     0.3510    -0.4520 N.am  1 <1>  -0.6600 
  4 N        1.6580     1.7330    -0.8770 N.am  1 <1>  -0.5470 
  5 C        4.5000    -0.7570    -0.8250 C.3   1 <1>   0.2810 
  6 C        3.9850     0.9880     0.8200 C.3   1 <1>   0.1400 
  7 C        2.0290     3.0400    -0.5510 C.ar  1 <1>   0.1170 
  8 C        3.9350    -2.1650    -0.4970 C.2   1 <1>   0.5690 
  9 C        5.7680    -0.3970    -0.0410 C.3   1 <1>  -0.1600 
 10 C        5.2470     0.2410     1.2450 C.3   1 <1>  -0.1600 
 11 C        3.1480     3.6390    -1.1180 C.ar  1 <1>  -0.1500 
 12 C        1.2580     3.7730     0.3420 C.ar  1 <1>  -0.1500 
 13 O        4.5010    -2.8960     0.2860 O.2   1 <1>  -0.5700 
 14 N        2.7920    -2.5640    -1.1160 N.am  1 <1>  -0.7300 
 15 C        3.4960     4.9370    -0.7910 C.ar  1 <1>  -0.1500 
 16 C        1.6020     5.0720     0.6710 C.ar  1 <1>  -0.1500 
 17 C        2.0800    -3.8400    -0.8950 C.3   1 <1>   0.1400 
 18 C        2.7230     5.6560     0.1040 C.ar  1 <1>  -0.1500 
 19 C        0.8660    -3.6000     0.0010 C.3   1 <1>  -0.0170 
 20 C        0.1060    -4.8980     0.2210 C.ar  1 <1>  -0.1440 
 21 C        0.5110    -5.7790     1.2110 C.ar  1 <1>  -0.1500 
 22 C       -0.9910    -5.2150    -0.5660 C.ar  1 <1>  -0.1500 
 23 C       -0.1740    -6.9650     1.4150 C.ar  1 <1>  -0.1500 
 24 C       -1.6770    -6.4000    -0.3630 C.ar  1 <1>  -0.1500 
 25 C       -1.2690    -7.2760     0.6270 C.ar  1 <1>  -0.1500 
 26 H        0.7480     1.6480    -1.3240 H     1 <1>   0.3700 
 27 H        4.7020    -0.7190    -1.8800 H     1 <1>   0.0800 
 28 H        3.2090     0.9080     1.5620 H     1 <1>   0.0800 
 29 H        4.2200     2.0230     0.6510 H     1 <1>   0.0800 
 30 H        6.3280     0.3270    -0.6050 H     1 <1>   0.0800 
 31 H        6.4000    -1.2470     0.1470 H     1 <1>   0.0800 
 32 H        4.9800    -0.5280     1.9500 H     1 <1>   0.0800 
 33 H        5.9670     0.8970     1.6990 H     1 <1>   0.0800 
 34 H        3.7470     3.0840    -1.8190 H     1 <1>   0.1500 
 35 H        0.3880     3.3220     0.7840 H     1 <1>   0.1500 
 36 H        2.3080    -1.8580    -1.6940 H     1 <1>   0.3700 
 37 H        4.3660     5.3900    -1.2350 H     1 <1>   0.1500 
 38 H        0.9990     5.6310     1.3650 H     1 <1>   0.1500 
 39 H        2.7400    -4.5520    -0.4270 H     1 <1>   0.0800 
 40 H        1.7660    -4.2430    -1.8430 H     1 <1>   0.0800 
 41 H        2.9910     6.6670     0.3590 H     1 <1>   0.1500 
 42 H        0.2190    -2.8720    -0.4550 H     1 <1>   0.0800 
 43 H        1.1960    -3.2120     0.9480 H     1 <1>   0.0800 
 44 H        1.3620    -5.5460     1.8270 H     1 <1>   0.1500 
 45 H       -1.3160    -4.5420    -1.3390 H     1 <1>   0.1500 
 46 H        0.1450    -7.6440     2.1850 H     1 <1>   0.1500 
 47 H       -2.5280    -6.6410    -0.9760 H     1 <1>   0.1500 
 48 H       -1.8020    -8.1980     0.7850 H     1 <1>   0.1500 
@<TRIPOS>BOND
  1   1   2  2   
  2   2   3  am  
  3   2   4  am  
  4   3   5  1   
  5   3   6  1   
  6   4   7  1   
  7   4  26  1   
  8   5   8  1   
  9   5   9  1   
 10   5  27  1   
 11   6  10  1   
 12   6  28  1   
 13   6  29  1   
 14   7  11  ar  
 15   7  12  ar  
 16   8  13  2   
 17   8  14  am  
 18   9  10  1   
 19   9  30  1   
 20   9  31  1   
 21  10  32  1   
 22  10  33  1   
 23  11  15  ar  
 24  11  34  1   
 25  12  16  ar  
 26  12  35  1   
 27  14  17  1   
 28  14  36  1   
 29  15  18  ar  
 30  15  37  1   
 31  16  18  ar  
 32  16  38  1   
 33  17  19  1   
 34  17  39  1   
 35  17  40  1   
 36  18  41  1   
 37  19  20  1   
 38  19  42  1   
 39  19  43  1   
 40  20  21  ar  
 41  20  22  ar  
 42  21  23  ar  
 43  21  44  1   
 44  22  24  ar  
 45  22  45  1   
 46  23  25  ar  
 47  23  46  1   
 48  24  25  ar  
 49  24  47  1   
 50  25  48  1   
@<TRIPOS>SUBSTRUCTURE
  1 ****   2 GROUP 4 **** **** 0

# MOE 2024.06 (io_trps.svl 2023.06)
