@<TRIPOS>MOLECULE
3701
49 50 1 0 0 
SMALL
USER_CHARGES


@<TRIPOS>ATOM
  1 O       -3.5880     0.8540    -1.2110 O.2   1 <1>  -0.5700 
  2 C       -3.4560     1.6960    -0.3360 C.2   1 <1>   0.5440 
  3 N       -4.5370     2.0310     0.4310 N.am  1 <1>  -0.4300 
  4 C       -2.1830     2.3570    -0.1270 C.ar  1 <1>   0.0860 
  5 N       -5.7720     1.2490     0.5340 N.am  1 <1>  -0.4300 
  6 C       -1.7420     2.7110     1.1490 C.ar  1 <1>  -0.1500 
  7 C       -1.3500     2.6670    -1.2010 C.ar  1 <1>  -0.1500 
  8 C       -6.0460     0.3340     1.5020 C.2   1 <1>   0.5690 
  9 C       -0.5360     3.3620     1.3390 C.ar  1 <1>  -0.1500 
 10 C       -0.1430     3.3170    -1.0160 C.ar  1 <1>  -0.1500 
 11 O       -5.3670     0.2260     2.5030 O.2   1 <1>  -0.5700 
 12 C       -7.2490    -0.5820     1.3410 C.3   1 <1>   0.1810 
 13 C        0.2700     3.6710     0.2570 C.ar  1 <1>  -0.1430 
 14 O       -8.1110    -0.1190     0.3090 O.3   1 <1>  -0.3630 
 15 C        1.5930     4.3870     0.4640 C.3   1 <1>  -0.0970 
 16 C       -9.2470    -0.7890    -0.0040 C.ar  1 <1>   0.0830 
 17 C      -10.0190    -0.2690    -1.0260 C.ar  1 <1>  -0.1500 
 18 C       -9.6680    -1.9490     0.6370 C.ar  1 <1>  -0.1500 
 19 C      -11.1930    -0.8940    -1.4060 C.ar  1 <1>  -0.1500 
 20 C      -10.8440    -2.5680     0.2510 C.ar  1 <1>  -0.1500 
 21 C      -11.6320    -2.0550    -0.7770 C.ar  1 <1>  -0.1430 
 22 C      -12.9510    -2.7140    -1.2370 C.3   1 <1>   0.1440 
 23 C      -14.1100    -1.7230    -1.0560 C.3   1 <1>  -0.2400 
 24 C      -12.8400    -3.1050    -2.7190 C.3   1 <1>  -0.2400 
 25 C      -13.3010    -3.9870    -0.4470 C.3   1 <1>  -0.2400 
 26 H       -4.4470     2.8100     1.0900 H     1 <1>   0.3700 
 27 H       -6.4000     1.2780    -0.2800 H     1 <1>   0.3700 
 28 H       -2.3430     2.4660     2.0070 H     1 <1>   0.1500 
 29 H       -1.6590     2.3910    -2.1950 H     1 <1>   0.1500 
 30 H       -0.2250     3.6250     2.3350 H     1 <1>   0.1500 
 31 H        0.4740     3.5450    -1.8680 H     1 <1>   0.1500 
 32 H       -7.8030    -0.6060     2.2620 H     1 <1>   0.0800 
 33 H       -6.9110    -1.5690     1.0860 H     1 <1>   0.0800 
 34 H        1.4400     5.4500     0.4300 H     1 <1>   0.0800 
 35 H        2.2940     4.1110    -0.3030 H     1 <1>   0.0800 
 36 H        2.0160     4.1260     1.4180 H     1 <1>   0.0800 
 37 H       -9.6980     0.6270    -1.5260 H     1 <1>   0.1500 
 38 H       -9.1010    -2.3880     1.4340 H     1 <1>   0.1500 
 39 H      -11.7650    -0.4590    -2.2050 H     1 <1>   0.1500 
 40 H      -11.1260    -3.4610     0.7770 H     1 <1>   0.1500 
 41 H      -15.0440    -2.1760    -1.3380 H     1 <1>   0.0800 
 42 H      -14.1740    -1.4170    -0.0270 H     1 <1>   0.0800 
 43 H      -13.9710    -0.8470    -1.6610 H     1 <1>   0.0800 
 44 H      -12.6880    -2.2410    -3.3390 H     1 <1>   0.0800 
 45 H      -13.7350    -3.5990    -3.0500 H     1 <1>   0.0800 
 46 H      -12.0080    -3.7720    -2.8610 H     1 <1>   0.0800 
 47 H      -13.4180    -3.7630     0.5980 H     1 <1>   0.0800 
 48 H      -12.5310    -4.7280    -0.5640 H     1 <1>   0.0800 
 49 H      -14.2240    -4.4090    -0.8020 H     1 <1>   0.0800 
@<TRIPOS>BOND
  1   1   2  2   
  2   2   3  am  
  3   2   4  1   
  4   3   5  1   
  5   3  26  1   
  6   4   6  ar  
  7   4   7  ar  
  8   5   8  am  
  9   5  27  1   
 10   6   9  ar  
 11   6  28  1   
 12   7  10  ar  
 13   7  29  1   
 14   8  11  2   
 15   8  12  1   
 16   9  13  ar  
 17   9  30  1   
 18  10  13  ar  
 19  10  31  1   
 20  12  14  1   
 21  12  32  1   
 22  12  33  1   
 23  13  15  1   
 24  14  16  1   
 25  15  34  1   
 26  15  35  1   
 27  15  36  1   
 28  16  17  ar  
 29  16  18  ar  
 30  17  19  ar  
 31  17  37  1   
 32  18  20  ar  
 33  18  38  1   
 34  19  21  ar  
 35  19  39  1   
 36  20  21  ar  
 37  20  40  1   
 38  21  22  1   
 39  22  23  1   
 40  22  24  1   
 41  22  25  1   
 42  23  41  1   
 43  23  42  1   
 44  23  43  1   
 45  24  44  1   
 46  24  45  1   
 47  24  46  1   
 48  25  47  1   
 49  25  48  1   
 50  25  49  1   
@<TRIPOS>SUBSTRUCTURE
  1 ****   5 GROUP 4 **** **** 0

# MOE 2024.06 (io_trps.svl 2023.06)
