@<TRIPOS>MOLECULE
ka-05063
39 40 1 0 0 
SMALL
USER_CHARGES


@<TRIPOS>ATOM
  1 O       -1.4270     0.4650    -1.8440 O.2   1 <1>  -0.5700 
  2 C       -2.0440     0.8310    -0.8430 C.2   1 <1>   0.5350 
  3 N       -3.1280     0.0470    -0.4450 N.am  1 <1>  -0.2860 
  4 C       -1.7220     2.0160    -0.1390 C.3   1 <1>  -0.7150 
  5 C       -2.8640    -1.3200    -0.2230 C.ar  1 <1>   0.1170 
  6 C       -4.2410     0.6980     0.1060 C.2   1 <1>  -0.0290 
  7 C       -2.7330     2.5130     0.7130 C.2   1 <1>   0.4610 
  8 C       -0.4840     2.6710    -0.2940 C.2   1 <1>   0.4140 
  9 C       -2.8370    -2.2300    -1.2730 C.ar  1 <1>  -0.1500 
 10 C       -2.6040    -1.7790     1.0630 C.ar  1 <1>  -0.1500 
 11 C       -4.0150     1.9010     0.6900 C.2   1 <1>  -0.1360 
 12 C       -5.6560     0.0640    -0.0100 C.3   1 <1>   0.1380 
 13 O       -2.5800     3.4350     1.5140 O.2   1 <1>  -0.5700 
 14 O       -0.2870     3.8520    -0.0600 O.2   1 <1>  -0.5700 
 15 C        0.7520     1.9400    -0.7730 C.3   1 <1>  -0.1790 
 16 C       -2.5910    -3.5710    -1.0420 C.ar  1 <1>  -0.1500 
 17 C       -2.3570    -3.1200     1.3000 C.ar  1 <1>  -0.1500 
 18 C       -5.8260    -1.1630     0.9000 C.3   1 <1>  -0.2400 
 19 C       -5.9330    -0.3390    -1.4680 C.3   1 <1>  -0.2400 
 20 C       -6.7620     1.0640     0.3820 C.3   1 <1>  -0.2400 
 21 C       -2.3560    -4.0190     0.2470 C.ar  1 <1>  -0.1500 
 22 H       -3.0000    -1.8650    -2.2720 H     1 <1>   0.1500 
 23 H       -2.5980    -1.0700     1.8710 H     1 <1>   0.1500 
 24 H       -4.7700     2.4840     1.1710 H     1 <1>   0.1500 
 25 H        0.7160     0.9120    -0.4650 H     1 <1>   0.0800 
 26 H        1.6280     2.3950    -0.3530 H     1 <1>   0.0800 
 27 H        0.8000     1.9940    -1.8430 H     1 <1>   0.0800 
 28 H       -2.5780    -4.2630    -1.8660 H     1 <1>   0.1500 
 29 H       -2.1630    -3.4600     2.3020 H     1 <1>   0.1500 
 30 H       -5.4950    -0.9300     1.8970 H     1 <1>   0.0800 
 31 H       -5.2610    -1.9990     0.5360 H     1 <1>   0.0800 
 32 H       -6.8560    -1.4670     0.9420 H     1 <1>   0.0800 
 33 H       -5.7930     0.5090    -2.1150 H     1 <1>   0.0800 
 34 H       -5.2620    -1.1130    -1.7850 H     1 <1>   0.0800 
 35 H       -6.9370    -0.7030    -1.5830 H     1 <1>   0.0800 
 36 H       -6.6850     1.3250     1.4230 H     1 <1>   0.0800 
 37 H       -7.7360     0.6410     0.2200 H     1 <1>   0.0800 
 38 H       -6.6830     1.9600    -0.2090 H     1 <1>   0.0800 
 39 H       -2.1640    -5.0620     0.4290 H     1 <1>   0.1500 
@<TRIPOS>BOND
  1   1   2  2   
  2   2   3  am  
  3   2   4  1   
  4   3   5  1   
  5   3   6  1   
  6   4   7  1   
  7   4   8  1   
  8   5   9  ar  
  9   5  10  ar  
 10   6  11  2   
 11   6  12  1   
 12   7  11  1   
 13   7  13  2   
 14   8  14  2   
 15   8  15  1   
 16   9  16  ar  
 17   9  22  1   
 18  10  17  ar  
 19  10  23  1   
 20  11  24  1   
 21  12  18  1   
 22  12  19  1   
 23  12  20  1   
 24  15  25  1   
 25  15  26  1   
 26  15  27  1   
 27  16  21  ar  
 28  16  28  1   
 29  17  21  ar  
 30  17  29  1   
 31  18  30  1   
 32  18  31  1   
 33  18  32  1   
 34  19  33  1   
 35  19  34  1   
 36  19  35  1   
 37  20  36  1   
 38  20  37  1   
 39  20  38  1   
 40  21  39  1   
@<TRIPOS>SUBSTRUCTURE
  1 ****   3 GROUP 4 **** **** 0

# MOE 2024.06 (io_trps.svl 2023.06)
