@<TRIPOS>MOLECULE
ka-05004
31 32 1 0 0 
SMALL
USER_CHARGES


@<TRIPOS>ATOM
  1 O       -0.7670     1.0190    -0.7400 O.2   1 <1>  -0.5200 
  2 N       -1.4480     0.8150     0.2850 N.pl3 1 <1>   0.8360 
  3 O       -1.0540     1.2710     1.3770 O.2   1 <1>  -0.5200 
  4 C       -2.6960     0.2160     0.1880 C.2   1 <1>   0.2190 
  5 C       -2.7180    -1.1840     0.0910 C.2   1 <1>   0.6160 
  6 C       -3.8720     0.9510     0.1650 C.2   1 <1>   0.1000 
  7 O       -1.7040    -1.8750     0.1590 O.2   1 <1>  -0.5700 
  8 N       -3.9400    -1.8240    -0.0880 N.am  1 <1>  -0.4690 
  9 N       -3.8490     2.3290     0.2310 N.pl3 1 <1>  -0.9000 
 10 C       -5.1240     0.2610     0.0800 C.2   1 <1>   0.0140 
 11 C       -5.1210    -1.1310     0.0820 C.2   1 <1>   0.2180 
 12 C       -3.8980    -3.1880    -0.7080 C.3   1 <1>   0.0600 
 13 C       -6.4030     0.9190    -0.0140 C.2   1 <1>   0.6160 
 14 N       -6.3120    -1.8090     0.2600 N.am  1 <1>  -0.4690 
 15 O       -6.5290     2.1360     0.0360 O.2   1 <1>  -0.5700 
 16 N       -7.5540     0.1680    -0.1760 N.am  1 <1>  -0.4200 
 17 C       -7.5250    -1.1930     0.0040 C.2   1 <1>   0.6900 
 18 C       -6.3770    -3.1010     1.0130 C.3   1 <1>   0.0600 
 19 C       -8.8590     0.8490    -0.4380 C.3   1 <1>   0.0600 
 20 O       -8.5470    -1.8500    -0.0390 O.2   1 <1>  -0.5700 
 21 H       -3.0180     2.9180     0.3910 H     1 <1>   0.4000 
 22 H       -4.7380     2.8650     0.2090 H     1 <1>   0.4000 
 23 H       -3.0960    -3.2440    -1.4240 H     1 <1>   0.0800 
 24 H       -4.8170    -3.4000    -1.2250 H     1 <1>   0.0800 
 25 H       -3.7300    -3.9280     0.0530 H     1 <1>   0.0800 
 26 H       -5.4660    -3.2720     1.5580 H     1 <1>   0.0800 
 27 H       -6.5490    -3.9120     0.3270 H     1 <1>   0.0800 
 28 H       -7.1880    -3.0750     1.7200 H     1 <1>   0.0800 
 29 H       -8.7110     1.7170    -1.0570 H     1 <1>   0.0800 
 30 H       -9.2980     1.1530     0.4950 H     1 <1>   0.0800 
 31 H       -9.5380     0.1860    -0.9460 H     1 <1>   0.0800 
@<TRIPOS>BOND
  1   1   2  2   
  2   2   3  2   
  3   2   4  1   
  4   4   5  1   
  5   4   6  2   
  6   5   7  2   
  7   5   8  am  
  8   6   9  1   
  9   6  10  1   
 10   8  11  1   
 11   8  12  1   
 12   9  21  1   
 13   9  22  1   
 14  10  11  2   
 15  10  13  1   
 16  11  14  1   
 17  12  23  1   
 18  12  24  1   
 19  12  25  1   
 20  13  15  2   
 21  13  16  am  
 22  14  17  am  
 23  14  18  1   
 24  16  17  am  
 25  16  19  1   
 26  17  20  2   
 27  18  26  1   
 28  18  27  1   
 29  18  28  1   
 30  19  29  1   
 31  19  30  1   
 32  19  31  1   
@<TRIPOS>SUBSTRUCTURE
  1 ****  10 GROUP 4 **** **** 0

# MOE 2024.06 (io_trps.svl 2023.06)
