@<TRIPOS>MOLECULE
NONAME
43 46 1 0 0 
SMALL
USER_CHARGES


@<TRIPOS>ATOM
  1 S       -0.1520     0.1550     0.1360 S.3   1 <1>  -0.3320 
  2 C        1.5080    -0.4880     0.2740 C.ar  1 <1>   0.7220 
  3 C       -1.0610    -0.6010     1.5720 C.3   1 <1>   0.1310 
  4 N        1.7280    -1.3450     1.3010 N.ar  1 <1>  -0.3100 
  5 N        2.3550    -0.0770    -0.6350 N.ar  1 <1>  -0.5670 
  6 C       -2.5260    -0.1900     1.5610 C.2   1 <1>   0.5690 
  7 N        2.9100    -1.8640     1.4710 N.ar  1 <1>  -0.2560 
  8 C        3.5570    -0.6160    -0.4440 C.ar  1 <1>   0.1050 
  9 O       -2.8810     0.5770     2.4260 O.2   1 <1>  -0.5700 
 10 N       -3.4080    -0.6890     0.6290 N.am  1 <1>  -0.6600 
 11 C        3.8430    -1.4940     0.5860 C.ar  1 <1>   0.2560 
 12 N        4.6810    -0.4140    -1.1900 N.pl3 1 <1>   0.0330 
 13 C       -3.0520    -1.6160    -0.4830 C.3   1 <1>   0.1400 
 14 C       -4.8440    -0.2910     0.6390 C.3   1 <1>   0.1400 
 15 C        5.2140    -1.8490     0.4630 C.ar  1 <1>   0.0000 
 16 C        5.7080    -1.1640    -0.6490 C.ar  1 <1>  -0.1520 
 17 C       -3.9170    -2.8770    -0.4000 C.3   1 <1>  -0.1600 
 18 C       -5.7270    -1.5400     0.7300 C.3   1 <1>  -0.1600 
 19 C        6.0610    -2.6840     1.1940 C.ar  1 <1>  -0.1500 
 20 C        7.0390    -1.2910    -1.0530 C.ar  1 <1>  -0.1500 
 21 C       -5.4160    -2.5360    -0.3980 C.3   1 <1>  -0.0800 
 22 C        7.3670    -2.7960     0.7780 C.ar  1 <1>   0.1900 
 23 C        7.8740    -2.1170    -0.3300 C.ar  1 <1>  -0.1500 
 24 C       -6.2590    -3.8070    -0.2450 C.3   1 <1>  -0.2400 
 25 F        8.1800    -3.5720     1.4480 F     1 <1>  -0.1900 
 26 H       -0.5850    -0.2460     2.4680 H     1 <1>   0.0800 
 27 H       -0.9630    -1.6670     1.5070 H     1 <1>   0.0800 
 28 H        4.7300     0.1970    -2.0090 H     1 <1>   0.2700 
 29 H       -2.0160    -1.8950    -0.4480 H     1 <1>   0.0800 
 30 H       -3.2280    -1.1150    -1.4200 H     1 <1>   0.0800 
 31 H       -5.0630     0.2500    -0.2650 H     1 <1>   0.0800 
 32 H       -5.0560     0.3580     1.4720 H     1 <1>   0.0800 
 33 H       -3.6610    -3.4140     0.4960 H     1 <1>   0.0800 
 34 H       -3.6920    -3.5120    -1.2390 H     1 <1>   0.0800 
 35 H       -6.7590    -1.2430     0.6790 H     1 <1>   0.0800 
 36 H       -5.5650    -2.0030     1.6880 H     1 <1>   0.0800 
 37 H        5.6970    -3.2200     2.0520 H     1 <1>   0.1500 
 38 H        7.4030    -0.7550    -1.9120 H     1 <1>   0.1500 
 39 H       -5.6630    -2.0740    -1.3400 H     1 <1>   0.0800 
 40 H        8.9070    -2.2480    -0.6000 H     1 <1>   0.1500 
 41 H       -6.0420    -4.2980     0.6870 H     1 <1>   0.0800 
 42 H       -6.0550    -4.4910    -1.0500 H     1 <1>   0.0800 
 43 H       -7.3070    -3.5630    -0.2680 H     1 <1>   0.0800 
@<TRIPOS>BOND
  1   1   2  1   
  2   1   3  1   
  3   2   4  ar  
  4   2   5  ar  
  5   3   6  1   
  6   3  26  1   
  7   3  27  1   
  8   4   7  ar  
  9   5   8  ar  
 10   6   9  2   
 11   6  10  am  
 12   7  11  ar  
 13   8  11  ar  
 14   8  12  1   
 15  10  13  1   
 16  10  14  1   
 17  11  15  1   
 18  12  16  1   
 19  12  28  1   
 20  13  17  1   
 21  13  29  1   
 22  13  30  1   
 23  14  18  1   
 24  14  31  1   
 25  14  32  1   
 26  15  16  ar  
 27  15  19  ar  
 28  16  20  ar  
 29  17  21  1   
 30  17  33  1   
 31  17  34  1   
 32  18  21  1   
 33  18  35  1   
 34  18  36  1   
 35  19  22  ar  
 36  19  37  1   
 37  20  23  ar  
 38  20  38  1   
 39  21  24  1   
 40  21  39  1   
 41  22  23  ar  
 42  22  25  1   
 43  23  40  1   
 44  24  41  1   
 45  24  42  1   
 46  24  43  1   
@<TRIPOS>SUBSTRUCTURE
  1 ****   2 GROUP 4 **** **** 0

# MOE 2024.06 (io_trps.svl 2023.06)
