@<TRIPOS>MOLECULE
NONAME
30 30 1 0 0 
SMALL
USER_CHARGES


@<TRIPOS>ATOM
  1 O       -0.8450     1.3640    -1.6320 O.2   1 <1>  -0.5700 
  2 C       -1.0080     1.3550    -0.4330 C.2   1 <1>   0.5690 
  3 N        0.0290     1.3880     0.4370 N.am  1 <1>  -0.7300 
  4 C       -2.4250     1.3050     0.1390 C.3   1 <1>  -0.0190 
  5 C        1.4660     1.4380     0.1080 C.3   1 <1>   0.0340 
  6 C       -3.1550     0.0150    -0.2790 C.3   1 <1>  -0.1600 
  7 C       -3.2420     2.5450    -0.2730 C.3   1 <1>  -0.1600 
  8 C        2.3730     1.4650     1.3550 C.2   1 <1>   0.9060 
  9 C       -4.5850    -0.0340     0.2810 C.3   1 <1>  -0.1600 
 10 C       -4.6710     2.4940     0.2870 C.3   1 <1>  -0.1600 
 11 O        1.8020     1.4430     2.4730 O.co2 1 <1>  -0.9000 
 12 O        3.6080     1.5080     1.1650 O.co2 1 <1>  -0.9000 
 13 C       -5.3920     1.2050    -0.1380 C.3   1 <1>  -0.0800 
 14 C       -6.8010     1.1560     0.4640 C.3   1 <1>  -0.2400 
 15 H       -0.1210     1.3800     1.4410 H     1 <1>   0.3700 
 16 H       -2.3450     1.3050     1.2110 H     1 <1>   0.0800 
 17 H        1.6810     2.3310    -0.4750 H     1 <1>   0.0800 
 18 H        1.7410     0.5640    -0.4800 H     1 <1>   0.0800 
 19 H       -2.6000    -0.8380     0.0720 H     1 <1>   0.0800 
 20 H       -3.1910    -0.0380    -1.3540 H     1 <1>   0.0800 
 21 H       -3.2810     2.6010    -1.3480 H     1 <1>   0.0800 
 22 H       -2.7450     3.4320     0.0820 H     1 <1>   0.0800 
 23 H       -4.5400    -0.0890     1.3550 H     1 <1>   0.0800 
 24 H       -5.0740    -0.9230    -0.0760 H     1 <1>   0.0800 
 25 H       -5.2200     3.3500    -0.0660 H     1 <1>   0.0800 
 26 H       -4.6300     2.5470     1.3620 H     1 <1>   0.0800 
 27 H       -5.4830     1.2050    -1.2120 H     1 <1>   0.0800 
 28 H       -6.7540     1.1540     1.5390 H     1 <1>   0.0800 
 29 H       -7.3120     0.2660     0.1410 H     1 <1>   0.0800 
 30 H       -7.3720     2.0090     0.1450 H     1 <1>   0.0800 
@<TRIPOS>BOND
  1   1   2  2   
  2   2   3  am  
  3   2   4  1   
  4   3   5  1   
  5   3  15  1   
  6   4   6  1   
  7   4   7  1   
  8   4  16  1   
  9   5   8  1   
 10   5  17  1   
 11   5  18  1   
 12   6   9  1   
 13   6  19  1   
 14   6  20  1   
 15   7  10  1   
 16   7  21  1   
 17   7  22  1   
 18   8  11  ar  
 19   8  12  ar  
 20   9  13  1   
 21   9  23  1   
 22   9  24  1   
 23  10  13  1   
 24  10  25  1   
 25  10  26  1   
 26  13  14  1   
 27  13  27  1   
 28  14  28  1   
 29  14  29  1   
 30  14  30  1   
@<TRIPOS>SUBSTRUCTURE
  1 ****   4 GROUP 4 **** **** 0

# MOE 2024.06 (io_trps.svl 2023.06)
