@<TRIPOS>MOLECULE
Pyrrolidine-1,2-dicarboxylic acid 1-cyclohexylamide 2-naphthalen-1-ylamide
54 57 1 0 0 
SMALL
USER_CHARGES


@<TRIPOS>ATOM
  1 O        3.9730    -0.9630    -1.0540 O.2   1 <1>  -0.5700 
  2 C        3.7760     0.0760    -0.4580 C.2   1 <1>   0.6900 
  3 N        4.4180     0.3310     0.7160 N.am  1 <1>  -0.6600 
  4 N        2.8440     0.9150    -0.9440 N.am  1 <1>  -0.7300 
  5 C        5.2460    -0.7100     1.4080 C.3   1 <1>   0.2810 
  6 C        4.8330     1.6940     1.1090 C.3   1 <1>   0.1400 
  7 C        1.7120     1.3780    -0.1290 C.3   1 <1>   0.2200 
  8 C        4.4180    -1.8290     2.0840 C.2   1 <1>   0.5690 
  9 C        6.1140     0.1050     2.3790 C.3   1 <1>  -0.1600 
 10 C        6.1910     1.5020     1.7710 C.3   1 <1>  -0.1600 
 11 C        0.5940     0.3300    -0.1870 C.3   1 <1>  -0.1600 
 12 C        1.2350     2.7320    -0.6620 C.3   1 <1>  -0.1600 
 13 O        4.7670    -2.2590     3.1600 O.2   1 <1>  -0.5700 
 14 N        3.3180    -2.3040     1.4150 N.am  1 <1>  -0.5470 
 15 C       -0.6550     0.8080     0.5670 C.3   1 <1>  -0.1600 
 16 C       -0.0120     3.2150     0.0930 C.3   1 <1>  -0.1600 
 17 C        2.2170    -3.0850     1.8060 C.ar  1 <1>   0.1170 
 18 C       -1.1330     2.1680     0.0410 C.3   1 <1>  -0.1600 
 19 C        1.3210    -3.5680     0.8080 C.ar  1 <1>   0.0000 
 20 C        1.9560    -3.3510     3.1320 C.ar  1 <1>  -0.1500 
 21 C        0.1550    -4.2590     1.2120 C.ar  1 <1>   0.0000 
 22 C        1.5260    -3.3980    -0.5820 C.ar  1 <1>  -0.1500 
 23 C        0.8220    -4.0610     3.5230 C.ar  1 <1>  -0.1500 
 24 C       -0.0640    -4.5000     2.5810 C.ar  1 <1>  -0.1500 
 25 C       -0.7630    -4.6990     0.2360 C.ar  1 <1>  -0.1500 
 26 C        0.6220    -3.8390    -1.5090 C.ar  1 <1>  -0.1500 
 27 C       -0.5400    -4.4930    -1.0960 C.ar  1 <1>  -0.1500 
 28 H        2.5620     0.6710    -1.8920 H     1 <1>   0.3700 
 29 H        5.8880    -1.1680     0.6770 H     1 <1>   0.0800 
 30 H        4.1240     2.0870     1.8170 H     1 <1>   0.0800 
 31 H        4.8960     2.3470     0.2550 H     1 <1>   0.0800 
 32 H        2.0230     1.4930     0.8960 H     1 <1>   0.0800 
 33 H        7.0830    -0.3440     2.5130 H     1 <1>   0.0800 
 34 H        5.6270     0.1610     3.3370 H     1 <1>   0.0800 
 35 H        6.3890     2.2610     2.5080 H     1 <1>   0.0800 
 36 H        6.9580     1.5350     1.0170 H     1 <1>   0.0800 
 37 H        0.9380    -0.5880     0.2570 H     1 <1>   0.0800 
 38 H        0.3310     0.1340    -1.2110 H     1 <1>   0.0800 
 39 H        0.9980     2.6430    -1.7080 H     1 <1>   0.0800 
 40 H        2.0220     3.4560    -0.5510 H     1 <1>   0.0800 
 41 H        3.2750    -1.9620     0.4480 H     1 <1>   0.3700 
 42 H       -0.4270     0.8900     1.6160 H     1 <1>   0.0800 
 43 H       -1.4400     0.0800     0.4590 H     1 <1>   0.0800 
 44 H       -0.3610     4.1370    -0.3390 H     1 <1>   0.0800 
 45 H        0.2450     3.4090     1.1200 H     1 <1>   0.0800 
 46 H       -1.9700     2.5060     0.6270 H     1 <1>   0.0800 
 47 H       -1.4700     2.0560    -0.9760 H     1 <1>   0.0800 
 48 H        2.6180    -3.0070     3.9050 H     1 <1>   0.1500 
 49 H        2.4180    -2.9140    -0.9310 H     1 <1>   0.1500 
 50 H        0.6570    -4.2490     4.5690 H     1 <1>   0.1500 
 51 H       -0.9450    -5.0400     2.8760 H     1 <1>   0.1500 
 52 H       -1.6520    -5.2080     0.5620 H     1 <1>   0.1500 
 53 H        0.7970    -3.6940    -2.5610 H     1 <1>   0.1500 
 54 H       -1.2450    -4.8310    -1.8360 H     1 <1>   0.1500 
@<TRIPOS>BOND
  1   1   2  2   
  2   2   3  am  
  3   2   4  am  
  4   3   5  1   
  5   3   6  1   
  6   4   7  1   
  7   4  28  1   
  8   5   8  1   
  9   5   9  1   
 10   5  29  1   
 11   6  10  1   
 12   6  30  1   
 13   6  31  1   
 14   7  11  1   
 15   7  12  1   
 16   7  32  1   
 17   8  13  2   
 18   8  14  am  
 19   9  10  1   
 20   9  33  1   
 21   9  34  1   
 22  10  35  1   
 23  10  36  1   
 24  11  15  1   
 25  11  37  1   
 26  11  38  1   
 27  12  16  1   
 28  12  39  1   
 29  12  40  1   
 30  14  17  1   
 31  14  41  1   
 32  15  18  1   
 33  15  42  1   
 34  15  43  1   
 35  16  18  1   
 36  16  44  1   
 37  16  45  1   
 38  17  19  ar  
 39  17  20  ar  
 40  18  46  1   
 41  18  47  1   
 42  19  21  ar  
 43  19  22  ar  
 44  20  23  ar  
 45  20  48  1   
 46  21  24  ar  
 47  21  25  ar  
 48  22  26  ar  
 49  22  49  1   
 50  23  24  ar  
 51  23  50  1   
 52  24  51  1   
 53  25  27  ar  
 54  25  52  1   
 55  26  27  ar  
 56  26  53  1   
 57  27  54  1   
@<TRIPOS>SUBSTRUCTURE
  1 ****  14 GROUP 4 **** **** 0

# MOE 2024.06 (io_trps.svl 2023.06)
