@<TRIPOS>MOLECULE
Pyrrolidine-1,2-dicarboxylic acid 1-[(2-methoxy-phenyl)-amide] 2-o-tolylamide
49 51 1 0 0 
SMALL
USER_CHARGES


@<TRIPOS>ATOM
  1 O        1.7500    -0.6710    -2.4670 O.2   1 <1>  -0.5700 
  2 C        2.2770     0.2240    -1.8360 C.2   1 <1>   0.6900 
  3 N        3.5110     0.0360    -1.2780 N.am  1 <1>  -0.6600 
  4 N        1.6010     1.3960    -1.7140 N.am  1 <1>  -0.5470 
  5 C        4.1970    -1.2970    -1.2900 C.3   1 <1>   0.2810 
  6 C        4.5000     1.1320    -1.1480 C.3   1 <1>   0.1400 
  7 C        1.5450     2.3450    -0.6800 C.ar  1 <1>   0.1170 
  8 C        3.5610    -2.3480    -0.3500 C.2   1 <1>   0.5690 
  9 C        5.6670    -0.9600    -0.9940 C.3   1 <1>  -0.1600 
 10 C        5.8410     0.4810    -1.4590 C.3   1 <1>  -0.1600 
 11 C        1.1180     3.6470    -0.9600 C.ar  1 <1>   0.0820 
 12 C        1.8810     2.0130     0.6280 C.ar  1 <1>  -0.1500 
 13 O        4.2160    -2.8450     0.5390 O.2   1 <1>  -0.5700 
 14 N        2.2540    -2.6840    -0.5720 N.am  1 <1>  -0.5470 
 15 O        0.7660     3.9270    -2.2510 O.3   1 <1>  -0.3630 
 16 C        1.0620     4.5930     0.0590 C.ar  1 <1>  -0.1500 
 17 C        1.8230     2.9570     1.6370 C.ar  1 <1>  -0.1500 
 18 C        1.3860    -3.4680     0.1970 C.ar  1 <1>   0.1170 
 19 C        0.3250     5.2120    -2.6300 C.3   1 <1>   0.0400 
 20 C        1.4160     4.2470     1.3530 C.ar  1 <1>  -0.1500 
 21 C        1.6020    -4.8220     0.4670 C.ar  1 <1>  -0.1440 
 22 C        0.2410    -2.8570     0.6930 C.ar  1 <1>  -0.1500 
 23 C        0.6850    -5.5210     1.2360 C.ar  1 <1>  -0.1500 
 24 C        2.8170    -5.5700    -0.0680 C.3   1 <1>  -0.0970 
 25 C       -0.6710    -3.5610     1.4560 C.ar  1 <1>  -0.1500 
 26 C       -0.4470    -4.8970     1.7310 C.ar  1 <1>  -0.1500 
 27 H        0.9290     1.5520    -2.4650 H     1 <1>   0.3700 
 28 H        4.1400    -1.6850    -2.2920 H     1 <1>   0.0800 
 29 H        4.4910     1.4970    -0.1350 H     1 <1>   0.0800 
 30 H        4.2850     1.9410    -1.8260 H     1 <1>   0.0800 
 31 H        6.3360    -1.6400    -1.4890 H     1 <1>   0.0800 
 32 H        5.8470    -1.0090     0.0670 H     1 <1>   0.0800 
 33 H        6.6520     0.9800    -0.9590 H     1 <1>   0.0800 
 34 H        6.0090     0.5100    -2.5220 H     1 <1>   0.0800 
 35 H        2.1860     1.0090     0.8630 H     1 <1>   0.1500 
 36 H        1.7990    -2.1140    -1.2990 H     1 <1>   0.3700 
 37 H        0.7450     5.6010    -0.1270 H     1 <1>   0.1500 
 38 H        2.0900     2.6840     2.6440 H     1 <1>   0.1500 
 39 H        0.1080     5.1940    -3.6830 H     1 <1>   0.0800 
 40 H        1.1070     5.9240    -2.4310 H     1 <1>   0.0800 
 41 H       -0.5670     5.4530    -2.0780 H     1 <1>   0.0800 
 42 H        1.3720     4.9820     2.1380 H     1 <1>   0.1500 
 43 H        0.0670    -1.8170     0.4820 H     1 <1>   0.1500 
 44 H        0.8480    -6.5610     1.4560 H     1 <1>   0.1500 
 45 H        3.6570    -5.4060     0.5820 H     1 <1>   0.0800 
 46 H        3.0680    -5.2270    -1.0550 H     1 <1>   0.0800 
 47 H        2.6230    -6.6250    -0.1200 H     1 <1>   0.0800 
 48 H       -1.5510    -3.0720     1.8350 H     1 <1>   0.1500 
 49 H       -1.1510    -5.4520     2.3270 H     1 <1>   0.1500 
@<TRIPOS>BOND
  1   1   2  2   
  2   2   3  am  
  3   2   4  am  
  4   3   5  1   
  5   3   6  1   
  6   4   7  1   
  7   4  27  1   
  8   5   8  1   
  9   5   9  1   
 10   5  28  1   
 11   6  10  1   
 12   6  29  1   
 13   6  30  1   
 14   7  11  ar  
 15   7  12  ar  
 16   8  13  2   
 17   8  14  am  
 18   9  10  1   
 19   9  31  1   
 20   9  32  1   
 21  10  33  1   
 22  10  34  1   
 23  11  15  1   
 24  11  16  ar  
 25  12  17  ar  
 26  12  35  1   
 27  14  18  1   
 28  14  36  1   
 29  15  19  1   
 30  16  20  ar  
 31  16  37  1   
 32  17  20  ar  
 33  17  38  1   
 34  18  21  ar  
 35  18  22  ar  
 36  19  39  1   
 37  19  40  1   
 38  19  41  1   
 39  20  42  1   
 40  21  23  ar  
 41  21  24  1   
 42  22  25  ar  
 43  22  43  1   
 44  23  26  ar  
 45  23  44  1   
 46  24  45  1   
 47  24  46  1   
 48  24  47  1   
 49  25  26  ar  
 50  25  48  1   
 51  26  49  1   
@<TRIPOS>SUBSTRUCTURE
  1 ****   2 GROUP 4 **** **** 0

# MOE 2024.06 (io_trps.svl 2023.06)
