@<TRIPOS>MOLECULE
NONAME
43 45 1 0 0 
SMALL
USER_CHARGES


@<TRIPOS>ATOM
  1 S        0.4100     0.8890     1.2750 S.3   1 <1>  -0.3320 
  2 C       -1.2280     1.3850     0.7590 C.ar  1 <1>   0.4120 
  3 C        0.3750    -0.9680     1.1840 C.3   1 <1>   0.1310 
  4 N       -2.0270     0.4400     0.3940 N.ar  1 <1>  -0.6200 
  5 C       -1.5560     2.7540     0.7700 C.ar  1 <1>   0.0000 
  6 C        1.7660    -1.5490     1.4010 C.2   1 <1>   0.5690 
  7 C       -3.2500     0.8350     0.0010 C.ar  1 <1>   0.5880 
  8 C       -2.8560     3.0400     0.3410 C.ar  1 <1>   0.3100 
  9 C       -0.7190     3.8220     1.1610 C.ar  1 <1>  -0.1500 
 10 O        2.0180    -1.9710     2.5070 O.2   1 <1>  -0.5700 
 11 N        2.6820    -1.6230     0.3740 N.am  1 <1>  -0.6600 
 12 N       -3.6920     2.0510    -0.0410 N.ar  1 <1>  -0.6200 
 13 C       -4.1810    -0.2900    -0.4270 C.3   1 <1>  -0.0680 
 14 C       -3.2910     4.3720     0.3100 C.ar  1 <1>  -0.1500 
 15 C       -1.1660     5.1170     1.1220 C.ar  1 <1>  -0.1500 
 16 C        2.4800    -0.9980    -0.9640 C.3   1 <1>   0.1400 
 17 C        4.0300    -2.2060     0.6200 C.3   1 <1>   0.1400 
 18 C       -3.9270    -1.0530    -1.6950 C.3   1 <1>  -0.2000 
 19 C       -5.1200    -0.1540    -1.5920 C.3   1 <1>  -0.2000 
 20 C       -2.4650     5.3970     0.6920 C.ar  1 <1>  -0.1500 
 21 C        1.9490    -2.0310    -1.9550 C.3   1 <1>  -0.2400 
 22 C        3.9730    -3.7280     0.5120 C.3   1 <1>  -0.2400 
 23 H       -0.0110    -1.2450     0.2230 H     1 <1>   0.0800 
 24 H       -0.2940    -1.3060     1.9530 H     1 <1>   0.0800 
 25 H        0.2820     3.6130     1.4950 H     1 <1>   0.1500 
 26 H       -4.5300    -0.8500     0.4220 H     1 <1>   0.1000 
 27 H       -4.2940     4.5650    -0.0230 H     1 <1>   0.1500 
 28 H       -0.5250     5.9290     1.4210 H     1 <1>   0.1500 
 29 H        3.4100    -0.5910    -1.3210 H     1 <1>   0.0800 
 30 H        1.7850    -0.1800    -0.8930 H     1 <1>   0.0800 
 31 H        4.3610    -1.9310     1.6090 H     1 <1>   0.0800 
 32 H        4.7430    -1.8130    -0.0850 H     1 <1>   0.0800 
 33 H       -4.0730    -2.1190    -1.6900 H     1 <1>   0.1000 
 34 H       -3.1040    -0.7500    -2.3200 H     1 <1>   0.1000 
 35 H       -5.1230     0.7710    -2.1440 H     1 <1>   0.1000 
 36 H       -6.1000    -0.5900    -1.5140 H     1 <1>   0.1000 
 37 H       -2.8050     6.4190     0.6660 H     1 <1>   0.1500 
 38 H        2.6880    -2.7880    -2.1400 H     1 <1>   0.0800 
 39 H        1.7220    -1.5490    -2.8880 H     1 <1>   0.0800 
 40 H        1.0520    -2.4890    -1.5800 H     1 <1>   0.0800 
 41 H        3.2790    -4.1230     1.2330 H     1 <1>   0.0800 
 42 H        4.9440    -4.1390     0.7180 H     1 <1>   0.0800 
 43 H        3.6760    -4.0330    -0.4730 H     1 <1>   0.0800 
@<TRIPOS>BOND
  1   1   2  1   
  2   1   3  1   
  3   2   4  ar  
  4   2   5  ar  
  5   3   6  1   
  6   3  23  1   
  7   3  24  1   
  8   4   7  ar  
  9   5   8  ar  
 10   5   9  ar  
 11   6  10  2   
 12   6  11  am  
 13   7  12  ar  
 14   7  13  1   
 15   8  12  ar  
 16   8  14  ar  
 17   9  15  ar  
 18   9  25  1   
 19  11  16  1   
 20  11  17  1   
 21  13  18  1   
 22  13  19  1   
 23  13  26  1   
 24  14  20  ar  
 25  14  27  1   
 26  15  20  ar  
 27  15  28  1   
 28  16  21  1   
 29  16  29  1   
 30  16  30  1   
 31  17  22  1   
 32  17  31  1   
 33  17  32  1   
 34  18  19  1   
 35  18  33  1   
 36  18  34  1   
 37  19  35  1   
 38  19  36  1   
 39  20  37  1   
 40  21  38  1   
 41  21  39  1   
 42  21  40  1   
 43  22  41  1   
 44  22  42  1   
 45  22  43  1   
@<TRIPOS>SUBSTRUCTURE
  1 ****   2 GROUP 4 **** **** 0

# MOE 2024.06 (io_trps.svl 2023.06)
