@<TRIPOS>MOLECULE
4-Benzooxazol-2-yl-piperidine-1-carboxylic acid (3-methoxy-phenyl)-amide
47 50 1 0 0 
SMALL
USER_CHARGES


@<TRIPOS>ATOM
  1 O       -0.4660     0.3350     0.3270 O.2   1 <1>  -0.5700 
  2 C       -0.8900    -0.7870     0.5290 C.2   1 <1>   0.6900 
  3 N       -2.1650    -0.9690     1.0020 N.am  1 <1>  -0.6600 
  4 N       -0.1310    -1.8900     0.2620 N.am  1 <1>  -0.5470 
  5 C       -3.1790     0.1130     0.8970 C.3   1 <1>   0.1400 
  6 C       -2.6050    -2.1570     1.7810 C.3   1 <1>   0.1400 
  7 C        1.2140    -2.0340    -0.1050 C.ar  1 <1>   0.1170 
  8 C       -4.4530    -0.4480     0.2600 C.3   1 <1>  -0.1600 
  9 C       -3.8620    -2.7430     1.1360 C.3   1 <1>  -0.1600 
 10 C        1.6090    -3.1990    -0.7480 C.ar  1 <1>  -0.1500 
 11 C        2.1790    -1.0690     0.1640 C.ar  1 <1>  -0.1500 
 12 C       -4.9750    -1.6850     1.0120 C.3   1 <1>   0.1000 
 13 C        2.9250    -3.4060    -1.1210 C.ar  1 <1>   0.0820 
 14 C        3.4980    -1.2620    -0.2060 C.ar  1 <1>  -0.1500 
 15 C       -6.2260    -2.2400     0.3370 C.2   1 <1>   0.2980 
 16 O        3.2050    -4.5780    -1.7450 O.3   1 <1>  -0.3630 
 17 C        3.8770    -2.4270    -0.8480 C.ar  1 <1>  -0.1500 
 18 O       -7.3090    -1.4770     0.3350 O.3   1 <1>  -0.2800 
 19 N       -6.3610    -3.3780    -0.2370 N.2   1 <1>  -0.5650 
 20 C        4.5100    -4.8740    -2.1920 C.3   1 <1>   0.0400 
 21 C       -8.2280    -2.1780    -0.2980 C.ar  1 <1>   0.1400 
 22 C       -7.6540    -3.3690    -0.6630 C.ar  1 <1>   0.2270 
 23 C       -9.5490    -1.8680    -0.5910 C.ar  1 <1>  -0.1500 
 24 C       -8.4030    -4.3160    -1.3530 C.ar  1 <1>  -0.1500 
 25 C      -10.2940    -2.8100    -1.2770 C.ar  1 <1>  -0.1500 
 26 C       -9.7210    -4.0290    -1.6570 C.ar  1 <1>  -0.1500 
 27 H       -0.6920    -2.7310     0.1930 H     1 <1>   0.3700 
 28 H       -2.8060     0.9240     0.2950 H     1 <1>   0.0800 
 29 H       -3.3890     0.4960     1.8810 H     1 <1>   0.0800 
 30 H       -2.8230    -1.8490     2.7890 H     1 <1>   0.0800 
 31 H       -1.8320    -2.9030     1.8280 H     1 <1>   0.0800 
 32 H       -4.2440    -0.7100    -0.7630 H     1 <1>   0.0800 
 33 H       -5.2080     0.3180     0.2520 H     1 <1>   0.0800 
 34 H       -4.2160    -3.5680     1.7270 H     1 <1>   0.0800 
 35 H       -3.6120    -3.1230     0.1600 H     1 <1>   0.0800 
 36 H        0.8890    -3.9630    -0.9700 H     1 <1>   0.1500 
 37 H        1.9020    -0.1600     0.6660 H     1 <1>   0.1500 
 38 H       -5.2600    -1.3820     2.0050 H     1 <1>   0.0800 
 39 H        4.2290    -0.5010     0.0080 H     1 <1>   0.1500 
 40 H        4.9070    -2.5530    -1.1240 H     1 <1>   0.1500 
 41 H        4.4910    -5.8410    -2.6610 H     1 <1>   0.0800 
 42 H        5.1730    -4.8910    -1.3450 H     1 <1>   0.0800 
 43 H        4.8110    -4.1280    -2.9050 H     1 <1>   0.0800 
 44 H       -9.9620    -0.9230    -0.2870 H     1 <1>   0.1500 
 45 H       -7.9430    -5.2460    -1.6340 H     1 <1>   0.1500 
 46 H      -11.3220    -2.6090    -1.5250 H     1 <1>   0.1500 
 47 H      -10.3190    -4.7480    -2.1900 H     1 <1>   0.1500 
@<TRIPOS>BOND
  1   1   2  2   
  2   2   3  am  
  3   2   4  am  
  4   3   5  1   
  5   3   6  1   
  6   4   7  1   
  7   4  27  1   
  8   5   8  1   
  9   5  28  1   
 10   5  29  1   
 11   6   9  1   
 12   6  30  1   
 13   6  31  1   
 14   7  10  ar  
 15   7  11  ar  
 16   8  12  1   
 17   8  32  1   
 18   8  33  1   
 19   9  12  1   
 20   9  34  1   
 21   9  35  1   
 22  10  13  ar  
 23  10  36  1   
 24  11  14  ar  
 25  11  37  1   
 26  12  15  1   
 27  12  38  1   
 28  13  16  1   
 29  13  17  ar  
 30  14  17  ar  
 31  14  39  1   
 32  15  18  1   
 33  15  19  2   
 34  16  20  1   
 35  17  40  1   
 36  18  21  1   
 37  19  22  1   
 38  20  41  1   
 39  20  42  1   
 40  20  43  1   
 41  21  22  ar  
 42  21  23  ar  
 43  22  24  ar  
 44  23  25  ar  
 45  23  44  1   
 46  24  26  ar  
 47  24  45  1   
 48  25  26  ar  
 49  25  46  1   
 50  26  47  1   
@<TRIPOS>SUBSTRUCTURE
  1 ****   9 GROUP 4 **** **** 0

# MOE 2024.06 (io_trps.svl 2023.06)
