@<TRIPOS>MOLECULE
1-(3,4-Dihydro-1H-isoquinolin-2-yl)-2-(8,11,11-trimethyl-3,4,6-triaza-tricyclo[6.2.1.0*2,7*]undeca-2(7),3,5-
54 58 1 0 0 
SMALL
USER_CHARGES


@<TRIPOS>ATOM
  1 S        0.4550     0.2490     0.0030 S.3   1 <1>  -0.3320 
  2 C       -1.0160     1.2040    -0.3220 C.ar  1 <1>   0.7220 
  3 C        1.4640     0.4240    -1.5490 C.3   1 <1>   0.1310 
  4 N       -1.0730     1.8200    -1.5190 N.ar  1 <1>  -0.3100 
  5 N       -1.9030     1.2140     0.6530 N.ar  1 <1>  -0.6200 
  6 C        2.7810    -0.3290    -1.4300 C.2   1 <1>   0.5690 
  7 N       -2.1250     2.5390    -1.8320 N.ar  1 <1>  -0.3100 
  8 C       -2.9460     1.9440     0.3080 C.ar  1 <1>   0.1660 
  9 O        2.9480    -1.2550    -2.1910 O.2   1 <1>  -0.5700 
 10 N        3.7460     0.0350    -0.5220 N.am  1 <1>  -0.6600 
 11 C       -3.0560     2.5840    -0.8940 C.ar  1 <1>   0.1670 
 12 C       -4.2280     2.2430     1.0810 C.3   1 <1>   0.1430 
 13 C        3.6290     1.1700     0.4390 C.3   1 <1>   0.2840 
 14 C        5.0340    -0.6990    -0.4210 C.3   1 <1>   0.1400 
 15 C       -4.4010     3.2900    -0.9070 C.3   1 <1>   0.0630 
 16 C       -4.5130     3.6860     0.5830 C.3   1 <1>   0.0000 
 17 C       -5.3120     1.4220     0.3440 C.3   1 <1>  -0.1600 
 18 C       -4.1590     2.0160     2.5970 C.3   1 <1>  -0.2400 
 19 C        4.9220     1.9760     0.5460 C.ar  1 <1>  -0.1440 
 20 C        6.1750     0.2400    -0.8100 C.3   1 <1>  -0.0170 
 21 C       -5.4310     2.1430    -1.0270 C.3   1 <1>  -0.1600 
 22 C       -3.4520     4.7340     1.0140 C.3   1 <1>  -0.2400 
 23 C       -5.8850     4.2830     0.9930 C.3   1 <1>  -0.2400 
 24 C        6.1150     1.5450    -0.0270 C.ar  1 <1>  -0.1430 
 25 C        4.9000     3.1730     1.2480 C.ar  1 <1>  -0.1500 
 26 C        7.2610     2.3140     0.1040 C.ar  1 <1>  -0.1500 
 27 C        6.0470     3.9360     1.3780 C.ar  1 <1>  -0.1500 
 28 C        7.2290     3.5050     0.8050 C.ar  1 <1>  -0.1500 
 29 H        1.6360     1.4700    -1.7190 H     1 <1>   0.0800 
 30 H        0.8770     0.0180    -2.3530 H     1 <1>   0.0800 
 31 H        3.3840     0.7730     1.4090 H     1 <1>   0.0800 
 32 H        2.8410     1.8360     0.1430 H     1 <1>   0.0800 
 33 H        5.0400    -1.5640    -1.0620 H     1 <1>   0.0800 
 34 H        5.1690    -1.0340     0.5940 H     1 <1>   0.0800 
 35 H       -4.4870     4.0890    -1.6220 H     1 <1>   0.0800 
 36 H       -6.2480     1.4400     0.8750 H     1 <1>   0.0800 
 37 H       -5.0030     0.3960     0.2260 H     1 <1>   0.0800 
 38 H       -3.3680     2.6040     3.0250 H     1 <1>   0.0800 
 39 H       -3.9550     0.9790     2.7990 H     1 <1>   0.0800 
 40 H       -5.0880     2.2840     3.0640 H     1 <1>   0.0800 
 41 H        6.1080     0.4540    -1.8620 H     1 <1>   0.0800 
 42 H        7.1120    -0.2540    -0.6290 H     1 <1>   0.0800 
 43 H       -5.1850     1.4840    -1.8430 H     1 <1>   0.0800 
 44 H       -6.4250     2.5260    -1.1820 H     1 <1>   0.0800 
 45 H       -2.4390     4.4340     0.8140 H     1 <1>   0.0800 
 46 H       -3.5260     4.9240     2.0710 H     1 <1>   0.0800 
 47 H       -3.6220     5.6630     0.4980 H     1 <1>   0.0800 
 48 H       -5.9020     4.4730     2.0510 H     1 <1>   0.0800 
 49 H       -6.7220     3.6500     0.7690 H     1 <1>   0.0800 
 50 H       -6.0420     5.2180     0.4850 H     1 <1>   0.0800 
 51 H        3.9870     3.5190     1.6990 H     1 <1>   0.1500 
 52 H        8.1850     1.9880    -0.3410 H     1 <1>   0.1500 
 53 H        6.0200     4.8630     1.9230 H     1 <1>   0.1500 
 54 H        8.1220     4.0970     0.9030 H     1 <1>   0.1500 
@<TRIPOS>BOND
  1   1   2  1   
  2   1   3  1   
  3   2   4  ar  
  4   2   5  ar  
  5   3   6  1   
  6   3  29  1   
  7   3  30  1   
  8   4   7  ar  
  9   5   8  ar  
 10   6   9  2   
 11   6  10  am  
 12   7  11  ar  
 13   8  11  ar  
 14   8  12  1   
 15  10  13  1   
 16  10  14  1   
 17  11  15  1   
 18  12  16  1   
 19  12  17  1   
 20  12  18  1   
 21  13  19  1   
 22  13  31  1   
 23  13  32  1   
 24  14  20  1   
 25  14  33  1   
 26  14  34  1   
 27  15  16  1   
 28  15  21  1   
 29  15  35  1   
 30  16  22  1   
 31  16  23  1   
 32  17  21  1   
 33  17  36  1   
 34  17  37  1   
 35  18  38  1   
 36  18  39  1   
 37  18  40  1   
 38  19  24  ar  
 39  19  25  ar  
 40  20  24  1   
 41  20  41  1   
 42  20  42  1   
 43  21  43  1   
 44  21  44  1   
 45  22  45  1   
 46  22  46  1   
 47  22  47  1   
 48  23  48  1   
 49  23  49  1   
 50  23  50  1   
 51  24  26  ar  
 52  25  27  ar  
 53  25  51  1   
 54  26  28  ar  
 55  26  52  1   
 56  27  28  ar  
 57  27  53  1   
 58  28  54  1   
@<TRIPOS>SUBSTRUCTURE
  1 ****   1 GROUP 4 **** **** 0

# MOE 2024.06 (io_trps.svl 2023.06)
