@<TRIPOS>MOLECULE
1-(9-Benzyl-9-aza-bicyclo[3.3.1]non-3-yl)-3-o-tolyl-urea
57 60 1 0 0 
SMALL
USER_CHARGES


@<TRIPOS>ATOM
  1 O        0.5410    -1.4600     1.6460 O.2   1 <1>  -0.5700 
  2 C        0.2170    -0.3100     1.4590 C.2   1 <1>   0.6900 
  3 N        1.0860     0.6580     1.0640 N.am  1 <1>  -0.5470 
  4 N       -1.0780     0.0110     1.6480 N.am  1 <1>  -0.7300 
  5 C        2.4300     0.5340     0.6880 C.ar  1 <1>   0.1170 
  6 C       -1.8870     0.7170     0.6470 C.3   1 <1>   0.2200 
  7 C        2.8620    -0.2780    -0.3660 C.ar  1 <1>  -0.1430 
  8 C        3.3690     1.2860     1.3850 C.ar  1 <1>  -0.1500 
  9 C       -2.8710     1.6850     1.3770 C.3   1 <1>  -0.1600 
 10 C       -2.5310    -0.3550    -0.3160 C.3   1 <1>  -0.1600 
 11 C        4.2100    -0.3260    -0.6850 C.ar  1 <1>  -0.1500 
 12 C        1.8990    -1.1220    -1.1910 C.3   1 <1>  -0.0970 
 13 C        4.7100     1.2360     1.0570 C.ar  1 <1>  -0.1500 
 14 C       -4.2130     1.4010     0.7540 C.3   1 <1>   0.4230 
 15 C       -3.8580     0.0540    -1.0510 C.3   1 <1>   0.4230 
 16 C        5.1320     0.4270     0.0200 C.ar  1 <1>  -0.1500 
 17 N       -4.1230     1.4410    -0.7210 N.4   1 <1>  -0.9590 
 18 C       -5.6930     1.3760     1.0470 C.3   1 <1>  -0.1600 
 19 C       -5.1780    -0.6770    -0.5920 C.3   1 <1>  -0.1600 
 20 C       -3.3550     2.5120    -1.4160 C.3   1 <1>   0.4860 
 21 C       -6.2660     0.2120     0.1550 C.3   1 <1>  -0.1600 
 22 C       -4.1820     3.7750    -1.3160 C.ar  1 <1>  -0.1430 
 23 C       -5.3380     3.9070    -2.0730 C.ar  1 <1>  -0.1500 
 24 C       -3.8020     4.8060    -0.4670 C.ar  1 <1>  -0.1500 
 25 C       -6.1140     5.0470    -1.9680 C.ar  1 <1>  -0.1500 
 26 C       -4.5790     5.9450    -0.3640 C.ar  1 <1>  -0.1500 
 27 C       -5.7370     6.0650    -1.1110 C.ar  1 <1>  -0.1500 
 28 H        0.8200     1.5790     1.3940 H     1 <1>   0.3700 
 29 H       -1.5650    -0.7390     2.1420 H     1 <1>   0.3700 
 30 H       -1.2270     1.3240     0.0500 H     1 <1>   0.0800 
 31 H        3.0520     1.9110     2.1990 H     1 <1>   0.1500 
 32 H       -2.5890     2.7140     1.2680 H     1 <1>   0.0800 
 33 H       -2.9250     1.4580     2.4270 H     1 <1>   0.0800 
 34 H       -2.7090    -1.2640     0.2320 H     1 <1>   0.0800 
 35 H       -1.8030    -0.6070    -1.0660 H     1 <1>   0.0800 
 36 H        4.5550    -0.9540    -1.4870 H     1 <1>   0.1500 
 37 H        0.9890    -0.5840    -1.3770 H     1 <1>   0.0800 
 38 H        1.6700    -2.0300    -0.6610 H     1 <1>   0.0800 
 39 H        2.3350    -1.3830    -2.1380 H     1 <1>   0.0800 
 40 H        5.4250     1.8210     1.6090 H     1 <1>   0.1500 
 41 H       -4.1360     0.3700     1.0500 H     1 <1>   0.0800 
 42 H       -3.7390    -0.0610    -2.1170 H     1 <1>   0.0800 
 43 H        6.1760     0.3810    -0.2390 H     1 <1>   0.1500 
 44 H       -5.0920     1.6150    -1.0120 H     1 <1>   0.4500 
 45 H       -6.1520     2.3260     0.8310 H     1 <1>   0.0800 
 46 H       -5.8440     1.1530     2.0890 H     1 <1>   0.0800 
 47 H       -4.9180    -1.5020     0.0480 H     1 <1>   0.0800 
 48 H       -5.6360    -1.1230    -1.4580 H     1 <1>   0.0800 
 49 H       -3.2220     2.2600    -2.4550 H     1 <1>   0.0800 
 50 H       -2.3870     2.6590    -0.9710 H     1 <1>   0.0800 
 51 H       -6.9100     0.6530    -0.5890 H     1 <1>   0.0800 
 52 H       -6.8970    -0.4240     0.7550 H     1 <1>   0.0800 
 53 H       -5.6510     3.1350    -2.7560 H     1 <1>   0.1500 
 54 H       -2.9030     4.7430     0.1200 H     1 <1>   0.1500 
 55 H       -7.0120     5.1500    -2.5540 H     1 <1>   0.1500 
 56 H       -4.2860     6.7460     0.2960 H     1 <1>   0.1500 
 57 H       -6.3410     6.9540    -1.0300 H     1 <1>   0.1500 
@<TRIPOS>BOND
  1   1   2  2   
  2   2   3  am  
  3   2   4  am  
  4   3   5  1   
  5   3  28  1   
  6   4   6  1   
  7   4  29  1   
  8   5   7  ar  
  9   5   8  ar  
 10   6   9  1   
 11   6  10  1   
 12   6  30  1   
 13   7  11  ar  
 14   7  12  1   
 15   8  13  ar  
 16   8  31  1   
 17   9  14  1   
 18   9  32  1   
 19   9  33  1   
 20  10  15  1   
 21  10  34  1   
 22  10  35  1   
 23  11  16  ar  
 24  11  36  1   
 25  12  37  1   
 26  12  38  1   
 27  12  39  1   
 28  13  16  ar  
 29  13  40  1   
 30  14  17  1   
 31  14  18  1   
 32  14  41  1   
 33  15  17  1   
 34  15  19  1   
 35  15  42  1   
 36  16  43  1   
 37  17  20  1   
 38  17  44  1   
 39  18  21  1   
 40  18  45  1   
 41  18  46  1   
 42  19  21  1   
 43  19  47  1   
 44  19  48  1   
 45  20  22  1   
 46  20  49  1   
 47  20  50  1   
 48  21  51  1   
 49  21  52  1   
 50  22  23  ar  
 51  22  24  ar  
 52  23  25  ar  
 53  23  53  1   
 54  24  26  ar  
 55  24  54  1   
 56  25  27  ar  
 57  25  55  1   
 58  26  27  ar  
 59  26  56  1   
 60  27  57  1   
@<TRIPOS>SUBSTRUCTURE
  1 ****   6 GROUP 4 **** **** 0

# MOE 2024.06 (io_trps.svl 2023.06)
