@<TRIPOS>MOLECULE
2,4-Dimethyl-4H-furo[3,2-b]pyrrole-5-carboxylic acid 1-[(benzo[1,3]dioxol-5-ylmethyl)-carbamoyl]-ethyl ester
48 51 1 0 0 
SMALL
USER_CHARGES


@<TRIPOS>ATOM
  1 O       -0.1520     0.1440     2.2540 O.2   1 <1>  -0.5700 
  2 C       -0.6840     0.9900     1.5630 C.2   1 <1>   0.8050 
  3 O       -1.8870     1.4470     1.9120 O.3   1 <1>  -0.4300 
  4 C       -0.1000     1.5440     0.3720 C.2   1 <1>  -0.2370 
  5 C       -2.5900     0.9620     3.0500 C.3   1 <1>   0.2610 
  6 N        1.1690     1.2360    -0.1110 N.pl3 1 <1>  -0.0400 
  7 C       -0.6700     2.4580    -0.4920 C.2   1 <1>  -0.1630 
  8 C       -4.1030     1.0970     2.8220 C.2   1 <1>   0.5690 
  9 C       -2.1190     1.7580     4.2740 C.3   1 <1>  -0.2400 
 10 C        1.3680     1.9580    -1.2560 C.2   1 <1>  -0.0510 
 11 C        2.1620     0.3070     0.4660 C.3   1 <1>   0.0160 
 12 C        0.2610     2.6970    -1.4910 C.2   1 <1>   0.1820 
 13 O       -4.8560     0.3400     3.3870 O.2   1 <1>  -0.5700 
 14 N       -4.5670     2.0640     1.9900 N.am  1 <1>  -0.7300 
 15 C        2.2580     2.2510    -2.3010 C.2   1 <1>  -0.1630 
 16 O        0.3970     3.4280    -2.6030 O.3   1 <1>  -0.3090 
 17 C       -5.9660     2.2270     1.5700 C.3   1 <1>   0.2840 
 18 C        1.6100     3.1470    -3.0810 C.2   1 <1>  -0.0400 
 19 C       -5.9610     2.6770     0.1210 C.ar  1 <1>  -0.1430 
 20 C        2.0440     3.8380    -4.3540 C.3   1 <1>  -0.0600 
 21 C       -6.1840     4.0130    -0.1990 C.ar  1 <1>  -0.1500 
 22 C       -5.7210     1.7480    -0.8920 C.ar  1 <1>  -0.1500 
 23 C       -6.1600     4.3770    -1.5300 C.ar  1 <1>   0.0830 
 24 C       -5.7010     2.1340    -2.2270 C.ar  1 <1>  -0.1500 
 25 O       -6.3430     5.5910    -2.0610 O.3   1 <1>  -0.3620 
 26 C       -5.9260     3.4640    -2.5160 C.ar  1 <1>   0.0830 
 27 C       -6.2170     5.4420    -3.4740 C.3   1 <1>   0.4000 
 28 O       -5.9550     4.0600    -3.7130 O.3   1 <1>  -0.3630 
 29 H       -2.3700    -0.0840     3.1760 H     1 <1>   0.0800 
 30 H       -1.6400     2.9190    -0.4420 H     1 <1>   0.1500 
 31 H       -2.3190     2.8060     4.1390 H     1 <1>   0.0800 
 32 H       -1.0670     1.6070     4.4390 H     1 <1>   0.0800 
 33 H       -2.6480     1.4180     5.1460 H     1 <1>   0.0800 
 34 H        2.4090     0.6230     1.4630 H     1 <1>   0.0800 
 35 H        3.0510     0.3030    -0.1380 H     1 <1>   0.0800 
 36 H        1.7460    -0.6840     0.4990 H     1 <1>   0.0800 
 37 H       -3.8950     2.6290     1.4660 H     1 <1>   0.3700 
 38 H        3.2390     1.8290    -2.4190 H     1 <1>   0.1500 
 39 H       -6.4440     2.9620     2.1940 H     1 <1>   0.0800 
 40 H       -6.4950     1.2940     1.6710 H     1 <1>   0.0800 
 41 H        3.0340     3.5240    -4.6300 H     1 <1>   0.0800 
 42 H        2.0410     4.9030    -4.2060 H     1 <1>   0.0800 
 43 H        1.3630     3.5950    -5.1480 H     1 <1>   0.0800 
 44 H       -6.3680     4.7580     0.5540 H     1 <1>   0.1500 
 45 H       -5.5440     0.7160    -0.6390 H     1 <1>   0.1500 
 46 H       -5.5160     1.4290    -3.0170 H     1 <1>   0.1500 
 47 H       -5.3900     6.0320    -3.8270 H     1 <1>   0.0800 
 48 H       -7.1390     5.7220    -3.9510 H     1 <1>   0.0800 
@<TRIPOS>BOND
  1   1   2  2   
  2   2   3  1   
  3   2   4  1   
  4   3   5  1   
  5   4   6  1   
  6   4   7  2   
  7   5   8  1   
  8   5   9  1   
  9   5  29  1   
 10   6  10  1   
 11   6  11  1   
 12   7  12  1   
 13   7  30  1   
 14   8  13  2   
 15   8  14  am  
 16   9  31  1   
 17   9  32  1   
 18   9  33  1   
 19  10  12  2   
 20  10  15  1   
 21  11  34  1   
 22  11  35  1   
 23  11  36  1   
 24  12  16  1   
 25  14  17  1   
 26  14  37  1   
 27  15  18  2   
 28  15  38  1   
 29  16  18  1   
 30  17  19  1   
 31  17  39  1   
 32  17  40  1   
 33  18  20  1   
 34  19  21  ar  
 35  19  22  ar  
 36  20  41  1   
 37  20  42  1   
 38  20  43  1   
 39  21  23  ar  
 40  21  44  1   
 41  22  24  ar  
 42  22  45  1   
 43  23  25  1   
 44  23  26  ar  
 45  24  26  ar  
 46  24  46  1   
 47  25  27  1   
 48  26  28  1   
 49  27  28  1   
 50  27  47  1   
 51  27  48  1   
@<TRIPOS>SUBSTRUCTURE
  1 ****   7 GROUP 4 **** **** 0

# MOE 2024.06 (io_trps.svl 2023.06)
