@<TRIPOS>MOLECULE
4-(4-Fluoro-benzoylamino)-piperidine-1-carboxylic acid (2,6-dimethyl-phenyl)-amide
51 53 1 0 0 
SMALL
USER_CHARGES


@<TRIPOS>ATOM
  1 F        1.6170     1.3710    -2.5460 F     1 <1>  -0.1900 
  2 C        2.6210     1.0240    -1.7910 C.ar  1 <1>   0.1900 
  3 C        3.6010     1.9550    -1.5120 C.ar  1 <1>  -0.1500 
  4 C        2.6720    -0.2630    -1.2930 C.ar  1 <1>  -0.1500 
  5 C        4.6660     1.5800    -0.7100 C.ar  1 <1>  -0.1500 
  6 C        3.7440    -0.6210    -0.4940 C.ar  1 <1>  -0.1500 
  7 C        4.7670     0.2840    -0.1880 C.ar  1 <1>   0.0860 
  8 C        5.8880    -0.1220     0.6430 C.2   1 <1>   0.5440 
  9 O        5.7650    -1.0130     1.4600 O.2   1 <1>  -0.5700 
 10 N        7.1100     0.4750     0.5110 N.am  1 <1>  -0.7300 
 11 C        8.3000     0.1540     1.3160 C.3   1 <1>   0.2200 
 12 C        9.0300     1.4500     1.6670 C.3   1 <1>  -0.1600 
 13 C        9.2000    -0.7930     0.5200 C.3   1 <1>  -0.1600 
 14 C       10.3280     1.1480     2.4190 C.3   1 <1>   0.1400 
 15 C       10.4990    -1.0740     1.2780 C.3   1 <1>   0.1400 
 16 N       11.1630     0.2180     1.6090 N.am  1 <1>  -0.6600 
 17 C       12.3220     0.6530     1.0140 C.2   1 <1>   0.6900 
 18 O       12.5660     1.8420     0.9380 O.2   1 <1>  -0.5700 
 19 N       13.2000    -0.2720     0.5340 N.am  1 <1>  -0.5470 
 20 C       14.4100    -0.0710    -0.1460 C.ar  1 <1>   0.1170 
 21 C       15.6040    -0.4880     0.4500 C.ar  1 <1>  -0.1430 
 22 C       14.4450     0.5070    -1.4190 C.ar  1 <1>  -0.1430 
 23 C       16.8040    -0.3260    -0.2200 C.ar  1 <1>  -0.1500 
 24 C       15.6160    -1.1100     1.8420 C.3   1 <1>  -0.0970 
 25 C       15.6570     0.6650    -2.0700 C.ar  1 <1>  -0.1500 
 26 C       13.1760     0.9720    -2.1240 C.3   1 <1>  -0.0970 
 27 C       16.8330     0.2490    -1.4760 C.ar  1 <1>  -0.1500 
 28 H        3.5250     2.9500    -1.9130 H     1 <1>   0.1500 
 29 H        1.8900    -0.9630    -1.5250 H     1 <1>   0.1500 
 30 H        5.4240     2.3070    -0.4790 H     1 <1>   0.1500 
 31 H        3.7970    -1.6200    -0.0940 H     1 <1>   0.1500 
 32 H        7.2750     1.1150    -0.2650 H     1 <1>   0.3700 
 33 H        7.9960    -0.3340     2.2280 H     1 <1>   0.0800 
 34 H        8.4010     2.0630     2.2870 H     1 <1>   0.0800 
 35 H        9.2750     1.9990     0.7750 H     1 <1>   0.0800 
 36 H        9.4420    -0.3600    -0.4340 H     1 <1>   0.0800 
 37 H        8.6810    -1.7200     0.3540 H     1 <1>   0.0800 
 38 H       10.1070     0.6870     3.3660 H     1 <1>   0.0800 
 39 H       10.8590     2.0650     2.6140 H     1 <1>   0.0800 
 40 H       11.1340    -1.6940     0.6690 H     1 <1>   0.0800 
 41 H       10.2850    -1.6040     2.1910 H     1 <1>   0.0800 
 42 H       13.1000    -1.1770     0.9740 H     1 <1>   0.3700 
 43 H       17.7280    -0.6420     0.2320 H     1 <1>   0.1500 
 44 H       15.1230    -0.4550     2.5390 H     1 <1>   0.0800 
 45 H       16.6230    -1.2660     2.1850 H     1 <1>   0.0800 
 46 H       15.1100    -2.0570     1.8270 H     1 <1>   0.0800 
 47 H       15.6930     1.1140    -3.0470 H     1 <1>   0.1500 
 48 H       12.3960     0.2420    -2.0130 H     1 <1>   0.0800 
 49 H       13.3510     1.1210    -3.1730 H     1 <1>   0.0800 
 50 H       12.8470     1.9020    -1.6970 H     1 <1>   0.0800 
 51 H       17.7700     0.3750    -1.9900 H     1 <1>   0.1500 
@<TRIPOS>BOND
  1   1   2  1   
  2   2   3  ar  
  3   2   4  ar  
  4   3   5  ar  
  5   3  28  1   
  6   4   6  ar  
  7   4  29  1   
  8   5   7  ar  
  9   5  30  1   
 10   6   7  ar  
 11   6  31  1   
 12   7   8  1   
 13   8   9  2   
 14   8  10  am  
 15  10  11  1   
 16  10  32  1   
 17  11  12  1   
 18  11  13  1   
 19  11  33  1   
 20  12  14  1   
 21  12  34  1   
 22  12  35  1   
 23  13  15  1   
 24  13  36  1   
 25  13  37  1   
 26  14  16  1   
 27  14  38  1   
 28  14  39  1   
 29  15  16  1   
 30  15  40  1   
 31  15  41  1   
 32  16  17  am  
 33  17  18  2   
 34  17  19  am  
 35  19  20  1   
 36  19  42  1   
 37  20  21  ar  
 38  20  22  ar  
 39  21  23  ar  
 40  21  24  1   
 41  22  25  ar  
 42  22  26  1   
 43  23  27  ar  
 44  23  43  1   
 45  24  44  1   
 46  24  45  1   
 47  24  46  1   
 48  25  27  ar  
 49  25  47  1   
 50  26  48  1   
 51  26  49  1   
 52  26  50  1   
 53  27  51  1   
@<TRIPOS>SUBSTRUCTURE
  1 ****  13 GROUP 4 **** **** 0

# MOE 2024.06 (io_trps.svl 2023.06)
