@<TRIPOS>MOLECULE
NONAME
55 57 1 0 0 
SMALL
USER_CHARGES


@<TRIPOS>ATOM
  1 S        0.5490    -0.0700     2.4380 S.3   1 <1>  -0.2860 
  2 C        1.3140     0.7050     1.0160 C.2   1 <1>   0.2420 
  3 C       -1.0080     0.9020     2.7360 C.3   1 <1>   0.1310 
  4 N        0.9620     1.8560     0.5670 N.2   1 <1>  -0.5650 
  5 N        2.3110     0.0800     0.3390 N.pl3 1 <1>   0.0480 
  6 C       -2.2040     0.1790     2.1210 C.2   1 <1>   0.5690 
  7 C        1.7690     2.0200    -0.5180 C.ar  1 <1>   0.2270 
  8 C        2.6040     0.9270    -0.6840 C.ar  1 <1>  -0.1520 
  9 C        2.9420    -1.2210     0.6320 C.3   1 <1>   0.1570 
 10 O       -2.6360    -0.7590     2.7520 O.2   1 <1>  -0.5700 
 11 N       -2.7840     0.5610     0.9310 N.am  1 <1>  -0.6600 
 12 C        1.8310     3.0860    -1.4140 C.ar  1 <1>  -0.1500 
 13 C        3.5020     0.8610    -1.7530 C.ar  1 <1>  -0.1500 
 14 C        2.1700    -2.3380    -0.0330 C.2   1 <1>   0.5690 
 15 C       -2.3170     1.6650     0.0450 C.3   1 <1>   0.1400 
 16 C       -3.9680    -0.1590     0.3790 C.3   1 <1>   0.1400 
 17 C        2.7200     3.0310    -2.4650 C.ar  1 <1>  -0.1500 
 18 C        3.5520     1.9180    -2.6350 C.ar  1 <1>  -0.1500 
 19 O        2.7000    -2.9250    -0.9450 O.2   1 <1>  -0.5700 
 20 N        0.9240    -2.6370     0.4310 N.am  1 <1>  -0.7300 
 21 C       -1.9040     1.0800    -1.3080 C.3   1 <1>  -0.1600 
 22 C       -3.6360    -0.7360    -1.0040 C.3   1 <1>  -0.1600 
 23 C       -0.0470    -3.5990    -0.0870 C.3   1 <1>   0.3000 
 24 C       -3.0710     0.3240    -1.9600 C.3   1 <1>  -0.1600 
 25 C       -0.4210    -3.2170    -1.5180 C.3   1 <1>  -0.2400 
 26 C        0.5270    -5.0140    -0.0150 C.3   1 <1>  -0.2400 
 27 C       -1.2710    -3.4960     0.8200 C.3   1 <1>  -0.2400 
 28 H       -0.8700     1.8970     2.3670 H     1 <1>   0.0800 
 29 H       -1.1340     0.9430     3.8020 H     1 <1>   0.0800 
 30 H        2.9660    -1.3800     1.6930 H     1 <1>   0.0800 
 31 H        3.9500    -1.2130     0.2630 H     1 <1>   0.0800 
 32 H        1.1810     3.9270    -1.2630 H     1 <1>   0.1500 
 33 H        4.1330    -0.0010    -1.8830 H     1 <1>   0.1500 
 34 H       -1.4980     2.2050     0.4720 H     1 <1>   0.0800 
 35 H       -3.1240     2.3630    -0.0960 H     1 <1>   0.0800 
 36 H       -4.7870     0.5340     0.2960 H     1 <1>   0.0800 
 37 H       -4.2740    -0.9550     1.0350 H     1 <1>   0.0800 
 38 H        2.7820     3.8450    -3.1670 H     1 <1>   0.1500 
 39 H        4.2340     1.8950    -3.4670 H     1 <1>   0.1500 
 40 H        0.5260    -2.0590     1.1760 H     1 <1>   0.3700 
 41 H       -1.0680     0.4180    -1.1620 H     1 <1>   0.0800 
 42 H       -1.5800     1.8760    -1.9550 H     1 <1>   0.0800 
 43 H       -4.5240    -1.1680    -1.4290 H     1 <1>   0.0800 
 44 H       -2.9210    -1.5270    -0.8810 H     1 <1>   0.0800 
 45 H       -2.7360    -0.1460    -2.8690 H     1 <1>   0.0800 
 46 H       -3.8480     1.0240    -2.2140 H     1 <1>   0.0800 
 47 H        0.4210    -3.3410    -2.1740 H     1 <1>   0.0800 
 48 H       -0.7450    -2.1940    -1.5630 H     1 <1>   0.0800 
 49 H       -1.2160    -3.8460    -1.8750 H     1 <1>   0.0800 
 50 H        0.8330    -5.2450     0.9890 H     1 <1>   0.0800 
 51 H        1.3720    -5.1150    -0.6710 H     1 <1>   0.0800 
 52 H       -0.2150    -5.7290    -0.3200 H     1 <1>   0.0800 
 53 H       -1.0210    -3.7690     1.8290 H     1 <1>   0.0800 
 54 H       -2.0460    -4.1570     0.4770 H     1 <1>   0.0800 
 55 H       -1.6610    -2.4940     0.8210 H     1 <1>   0.0800 
@<TRIPOS>BOND
  1   1   2  1   
  2   1   3  1   
  3   2   4  2   
  4   2   5  1   
  5   3   6  1   
  6   3  28  1   
  7   3  29  1   
  8   4   7  1   
  9   5   8  1   
 10   5   9  1   
 11   6  10  2   
 12   6  11  am  
 13   7   8  ar  
 14   7  12  ar  
 15   8  13  ar  
 16   9  14  1   
 17   9  30  1   
 18   9  31  1   
 19  11  15  1   
 20  11  16  1   
 21  12  17  ar  
 22  12  32  1   
 23  13  18  ar  
 24  13  33  1   
 25  14  19  2   
 26  14  20  am  
 27  15  21  1   
 28  15  34  1   
 29  15  35  1   
 30  16  22  1   
 31  16  36  1   
 32  16  37  1   
 33  17  18  ar  
 34  17  38  1   
 35  18  39  1   
 36  20  23  1   
 37  20  40  1   
 38  21  24  1   
 39  21  41  1   
 40  21  42  1   
 41  22  24  1   
 42  22  43  1   
 43  22  44  1   
 44  23  25  1   
 45  23  26  1   
 46  23  27  1   
 47  24  45  1   
 48  24  46  1   
 49  25  47  1   
 50  25  48  1   
 51  25  49  1   
 52  26  50  1   
 53  26  51  1   
 54  26  52  1   
 55  27  53  1   
 56  27  54  1   
 57  27  55  1   
@<TRIPOS>SUBSTRUCTURE
  1 ****   2 GROUP 4 **** **** 0

# MOE 2024.06 (io_trps.svl 2023.06)
