@<TRIPOS>MOLECULE
ka-06192
24 24 1 0 0 
SMALL
USER_CHARGES


@<TRIPOS>ATOM
  1 CL      -0.2410     0.0640    -0.6540 Cl    1 <1>  -0.1770 
  2 C       -1.6890     0.9810    -0.3470 C.ar  1 <1>   0.4870 
  3 N       -2.7620     0.2630    -0.0650 N.ar  1 <1>  -0.6200 
  4 C       -1.6440     2.3660    -0.4100 C.ar  1 <1>   0.0730 
  5 C       -3.8750     0.9380     0.1710 C.ar  1 <1>   0.1660 
  6 C       -0.4290     3.0550    -0.7150 C.1   1 <1>   0.4840 
  7 C       -2.8210     3.0480    -0.1660 C.ar  1 <1>  -0.1500 
  8 C       -3.9810     2.3370     0.1220 C.ar  1 <1>   0.0860 
  9 C       -5.0630     0.0560     0.5260 C.3   1 <1>  -0.0970 
 10 N        0.5230     3.6310    -0.9590 N.1   1 <1>  -0.5570 
 11 C       -5.2090     3.0680     0.3550 C.2   1 <1>   0.6340 
 12 O       -5.2310     4.1220     0.9540 O.2   1 <1>  -0.5700 
 13 O       -6.3460     2.5820    -0.1440 O.3   1 <1>  -0.4300 
 14 C       -7.5750     3.2570     0.0150 C.3   1 <1>   0.1200 
 15 C       -8.6630     2.4150    -0.6440 C.3   1 <1>  -0.2400 
 16 H       -2.8460     4.1270    -0.1990 H     1 <1>   0.1500 
 17 H       -4.7290    -0.9180     0.8380 H     1 <1>   0.0800 
 18 H       -5.6980    -0.0650    -0.3330 H     1 <1>   0.0800 
 19 H       -5.6320     0.4830     1.3310 H     1 <1>   0.0800 
 20 H       -7.4960     4.2240    -0.4530 H     1 <1>   0.0800 
 21 H       -7.7650     3.3790     1.0680 H     1 <1>   0.0800 
 22 H       -8.4530     2.2920    -1.6920 H     1 <1>   0.0800 
 23 H       -9.6120     2.9080    -0.5420 H     1 <1>   0.0800 
 24 H       -8.7250     1.4510    -0.1720 H     1 <1>   0.0800 
@<TRIPOS>BOND
  1   1   2  1   
  2   2   3  ar  
  3   2   4  ar  
  4   3   5  ar  
  5   4   6  1   
  6   4   7  ar  
  7   5   8  ar  
  8   5   9  1   
  9   6  10  3   
 10   7   8  ar  
 11   7  16  1   
 12   8  11  1   
 13   9  17  1   
 14   9  18  1   
 15   9  19  1   
 16  11  12  2   
 17  11  13  1   
 18  13  14  1   
 19  14  15  1   
 20  14  20  1   
 21  14  21  1   
 22  15  22  1   
 23  15  23  1   
 24  15  24  1   
@<TRIPOS>SUBSTRUCTURE
  1 ****   8 GROUP 4 **** **** 0

# MOE 2024.06 (io_trps.svl 2023.06)
