@<TRIPOS>MOLECULE
ka-00625
30 31 1 0 0 
SMALL
USER_CHARGES


@<TRIPOS>ATOM
  1 F        2.5980     0.2610     0.3960 F     1 <1>  -0.3400 
  2 C        1.8590     1.1270    -0.2940 C.3   1 <1>   0.2600 
  3 C        1.0860     1.9870     0.7110 C.3   1 <1>   0.2000 
  4 C        2.8220     2.0990    -0.9290 C.3   1 <1>  -0.1600 
  5 O        1.8960     3.0980     0.9880 O.3   1 <1>  -0.5600 
  6 C       -0.2490     2.5010     0.1560 C.3   1 <1>   0.1200 
  7 C        3.0630     3.0540     0.2330 C.3   1 <1>   0.5000 
  8 O       -1.0690     1.4280    -0.1800 O.3   1 <1>  -0.6800 
  9 N        3.4430     4.4320    -0.1500 N.am  1 <1>  -0.4690 
 10 C        2.5800     5.2560    -0.8590 C.2   1 <1>   0.6900 
 11 C        4.6630     4.9280     0.3030 C.2   1 <1>  -0.0410 
 12 O        1.5170     4.8870    -1.3170 O.2   1 <1>  -0.5700 
 13 N        2.9550     6.5420    -1.0850 N.am  1 <1>  -0.4900 
 14 C        5.0250     6.2100     0.0600 C.2   1 <1>  -0.1240 
 15 C        4.1370     7.0650    -0.6680 C.2   1 <1>   0.6160 
 16 C        6.3530     6.7790     0.5430 C.3   1 <1>  -0.1020 
 17 O        4.3780     8.2250    -0.9370 O.2   1 <1>  -0.5700 
 18 H        1.2520     0.5570    -0.9740 H     1 <1>   0.0800 
 19 H        0.9120     1.4530     1.6290 H     1 <1>   0.0800 
 20 H        3.7250     1.6250    -1.2670 H     1 <1>   0.0800 
 21 H        2.3440     2.5940    -1.7520 H     1 <1>   0.0800 
 22 H       -0.0930     3.0880    -0.7320 H     1 <1>   0.0800 
 23 H       -0.7540     3.0920     0.9000 H     1 <1>   0.0800 
 24 H        3.8200     2.6330     0.8740 H     1 <1>   0.0800 
 25 H       -1.9350     1.7490    -0.5030 H     1 <1>   0.4000 
 26 H        5.2980     4.2530     0.8550 H     1 <1>   0.1500 
 27 H        2.3200     7.1390    -1.5990 H     1 <1>   0.3700 
 28 H        6.9310     7.1220    -0.2970 H     1 <1>   0.0800 
 29 H        6.9230     6.0390     1.0750 H     1 <1>   0.0800 
 30 H        6.1760     7.6150     1.1970 H     1 <1>   0.0800 
@<TRIPOS>BOND
  1   1   2  1   
  2   2   3  1   
  3   2   4  1   
  4   2  18  1   
  5   3   5  1   
  6   3   6  1   
  7   3  19  1   
  8   4   7  1   
  9   4  20  1   
 10   4  21  1   
 11   5   7  1   
 12   6   8  1   
 13   6  22  1   
 14   6  23  1   
 15   7   9  1   
 16   7  24  1   
 17   8  25  1   
 18   9  10  am  
 19   9  11  1   
 20  10  12  2   
 21  10  13  am  
 22  11  14  2   
 23  11  26  1   
 24  13  15  am  
 25  13  27  1   
 26  14  15  1   
 27  14  16  1   
 28  15  17  2   
 29  16  28  1   
 30  16  29  1   
 31  16  30  1   
@<TRIPOS>SUBSTRUCTURE
  1 ****   9 GROUP 4 **** **** 0

# MOE 2024.06 (io_trps.svl 2023.06)
