@<TRIPOS>MOLECULE
N,N-Diethyl-2-[3-(4-fluoro-benzyl)-2,4-dioxo-3,4-dihydro-2H-thieno[3,2-d]pyrimid
47 49 1 0 0 
SMALL
USER_CHARGES


@<TRIPOS>ATOM
  1 S        0.6770    -0.5150     2.7520 S.3   1 <1>  -0.0800 
  2 C        2.1270    -0.6570     1.7490 C.2   1 <1>  -0.0450 
  3 C        0.0370    -2.0190     2.1090 C.2   1 <1>  -0.1100 
  4 C        3.2180     0.2490     1.7270 C.2   1 <1>   0.7150 
  5 C        2.0660    -1.7770     0.9920 C.2   1 <1>   0.0630 
  6 C        0.8800    -2.5530     1.2050 C.2   1 <1>  -0.1500 
  7 O        3.2660     1.2430     2.4350 O.2   1 <1>  -0.5700 
  8 N        4.2520    -0.0460     0.8590 N.am  1 <1>  -0.4200 
  9 N        3.1290    -2.0480     0.1290 N.am  1 <1>  -0.4230 
 10 C        4.2210    -1.1880     0.0740 C.2   1 <1>   0.6900 
 11 C        5.3840     0.9030     0.7260 C.3   1 <1>   0.2840 
 12 C        3.1890    -3.3550    -0.6020 C.3   1 <1>   0.2010 
 13 O        5.1490    -1.4320    -0.6780 O.2   1 <1>  -0.5700 
 14 C        5.0680     1.9340    -0.3500 C.ar  1 <1>  -0.1430 
 15 C        3.6400    -4.5390     0.2640 C.2   1 <1>   0.5690 
 16 C        5.4300     1.6950    -1.6710 C.ar  1 <1>  -0.1500 
 17 C        4.4140     3.1150    -0.0150 C.ar  1 <1>  -0.1500 
 18 O        4.0590    -4.3210     1.3800 O.2   1 <1>  -0.5700 
 19 N        3.5550    -5.8240    -0.2260 N.am  1 <1>  -0.6600 
 20 C        5.1460     2.6280    -2.6550 C.ar  1 <1>  -0.1500 
 21 C        4.1240     4.0550    -0.9890 C.ar  1 <1>  -0.1500 
 22 C        3.1090    -6.1760    -1.6000 C.3   1 <1>   0.1400 
 23 C        3.9730    -6.9770     0.6170 C.3   1 <1>   0.1400 
 24 C        4.4970     3.7930    -2.2930 C.ar  1 <1>   0.1900 
 25 C        1.6140    -6.4820    -1.5900 C.3   1 <1>  -0.2400 
 26 C        5.4440    -7.2940     0.3570 C.3   1 <1>  -0.2400 
 27 F        4.2270     4.6760    -3.2160 F     1 <1>  -0.1900 
 28 H       -0.9160    -2.3490     2.4850 H     1 <1>   0.1500 
 29 H        0.7070    -3.4770     0.6850 H     1 <1>   0.1500 
 30 H        6.2850     0.3710     0.4710 H     1 <1>   0.0800 
 31 H        5.5650     1.3970     1.6650 H     1 <1>   0.0800 
 32 H        3.8650    -3.2760    -1.4330 H     1 <1>   0.0800 
 33 H        2.2180    -3.5660    -1.0030 H     1 <1>   0.0800 
 34 H        5.9320     0.7790    -1.9380 H     1 <1>   0.1500 
 35 H        4.1250     3.3040     1.0060 H     1 <1>   0.1500 
 36 H        5.4190     2.4580    -3.6800 H     1 <1>   0.1500 
 37 H        3.6180     4.9710    -0.7460 H     1 <1>   0.1500 
 38 H        3.6530    -7.0390    -1.9460 H     1 <1>   0.0800 
 39 H        3.3180    -5.3710    -2.2830 H     1 <1>   0.0800 
 40 H        3.3630    -7.8360     0.3960 H     1 <1>   0.0800 
 41 H        3.8370    -6.7380     1.6600 H     1 <1>   0.0800 
 42 H        1.4060    -7.3190    -0.9480 H     1 <1>   0.0800 
 43 H        1.2890    -6.7310    -2.5840 H     1 <1>   0.0800 
 44 H        1.0520    -5.6300    -1.2520 H     1 <1>   0.0800 
 45 H        5.6010    -7.5710    -0.6690 H     1 <1>   0.0800 
 46 H        5.7530    -8.1120     0.9820 H     1 <1>   0.0800 
 47 H        6.0500    -6.4380     0.5950 H     1 <1>   0.0800 
@<TRIPOS>BOND
  1   1   2  1   
  2   1   3  1   
  3   2   4  1   
  4   2   5  2   
  5   3   6  2   
  6   3  28  1   
  7   4   7  2   
  8   4   8  am  
  9   5   6  1   
 10   5   9  1   
 11   6  29  1   
 12   8  10  am  
 13   8  11  1   
 14   9  10  am  
 15   9  12  1   
 16  10  13  2   
 17  11  14  1   
 18  11  30  1   
 19  11  31  1   
 20  12  15  1   
 21  12  32  1   
 22  12  33  1   
 23  14  16  ar  
 24  14  17  ar  
 25  15  18  2   
 26  15  19  am  
 27  16  20  ar  
 28  16  34  1   
 29  17  21  ar  
 30  17  35  1   
 31  19  22  1   
 32  19  23  1   
 33  20  24  ar  
 34  20  36  1   
 35  21  24  ar  
 36  21  37  1   
 37  22  25  1   
 38  22  38  1   
 39  22  39  1   
 40  23  26  1   
 41  23  40  1   
 42  23  41  1   
 43  24  27  1   
 44  25  42  1   
 45  25  43  1   
 46  25  44  1   
 47  26  45  1   
 48  26  46  1   
 49  26  47  1   
@<TRIPOS>SUBSTRUCTURE
  1 ****  10 GROUP 4 **** **** 0

# MOE 2024.06 (io_trps.svl 2023.06)
