@<TRIPOS>MOLECULE
Piperidine-1,3-dicarboxylic acid 1-benzylamide 3-cyclohexylmethyl-amide
57 59 1 0 0 
SMALL
USER_CHARGES


@<TRIPOS>ATOM
  1 O       -0.4090    -0.5650    -0.3210 O.2   1 <1>  -0.5700 
  2 C       -1.3550    -1.0780    -0.8890 C.2   1 <1>   0.6900 
  3 N       -2.4940    -0.3650    -1.1610 N.am  1 <1>  -0.6600 
  4 N       -1.3120    -2.3910    -1.2030 N.am  1 <1>  -0.7300 
  5 C       -3.8350    -1.0110    -1.2440 C.3   1 <1>   0.1400 
  6 C       -2.5750     1.0820    -0.8240 C.3   1 <1>   0.1400 
  7 C       -0.6340    -3.3830    -0.3580 C.3   1 <1>   0.2840 
  8 C       -4.4990    -0.9360     0.1320 C.3   1 <1>  -0.0190 
  9 C       -3.2800     1.2530     0.5300 C.3   1 <1>  -0.1600 
 10 C       -1.6820    -3.9870     0.5620 C.ar  1 <1>  -0.1430 
 11 C       -5.8170    -1.6890     0.0810 C.2   1 <1>   0.5690 
 12 C       -4.6420     0.5360     0.5730 C.3   1 <1>  -0.1600 
 13 C       -2.2730    -5.2070     0.2690 C.ar  1 <1>  -0.1500 
 14 C       -2.0620    -3.3070     1.7090 C.ar  1 <1>  -0.1500 
 15 O       -6.7690    -1.1800    -0.4600 O.2   1 <1>  -0.5700 
 16 N       -5.8680    -2.9390     0.6110 N.am  1 <1>  -0.7300 
 17 C       -3.2280    -5.7400     1.1160 C.ar  1 <1>  -0.1500 
 18 C       -3.0220    -3.8360     2.5540 C.ar  1 <1>  -0.1500 
 19 C       -7.0450    -3.8360     0.5320 C.3   1 <1>   0.1400 
 20 C       -3.6050    -5.0550     2.2580 C.ar  1 <1>  -0.1500 
 21 C       -6.6530    -5.2130    -0.0280 C.3   1 <1>  -0.0800 
 22 C       -5.9720    -5.1100    -1.4090 C.3   1 <1>  -0.1600 
 23 C       -7.8960    -6.1160    -0.1110 C.3   1 <1>  -0.1600 
 24 C       -5.6360    -6.4940    -1.9820 C.3   1 <1>  -0.1600 
 25 C       -7.5510    -7.5010    -0.6740 C.3   1 <1>  -0.1600 
 26 C       -6.8810    -7.3870    -2.0480 C.3   1 <1>  -0.1600 
 27 H       -2.1130    -2.7540    -1.7070 H     1 <1>   0.3700 
 28 H       -3.7590    -2.0370    -1.5560 H     1 <1>   0.0800 
 29 H       -4.4370    -0.4910    -1.9700 H     1 <1>   0.0800 
 30 H       -3.1300     1.5910    -1.5940 H     1 <1>   0.0800 
 31 H       -1.5900     1.5150    -0.7850 H     1 <1>   0.0800 
 32 H        0.1450    -2.9150     0.2200 H     1 <1>   0.0800 
 33 H       -0.1870    -4.1400    -0.9790 H     1 <1>   0.0800 
 34 H       -3.8640    -1.4360     0.8370 H     1 <1>   0.0800 
 35 H       -3.4150     2.3010     0.7300 H     1 <1>   0.0800 
 36 H       -2.6380     0.8560     1.2980 H     1 <1>   0.0800 
 37 H       -5.0490     0.5800     1.5690 H     1 <1>   0.0800 
 38 H       -5.3290     1.0410    -0.0860 H     1 <1>   0.0800 
 39 H       -1.9900    -5.7480    -0.6180 H     1 <1>   0.1500 
 40 H       -1.6070    -2.3570     1.9420 H     1 <1>   0.1500 
 41 H       -5.0230    -3.3560     1.0170 H     1 <1>   0.3700 
 42 H       -3.6760    -6.6920     0.8880 H     1 <1>   0.1500 
 43 H       -3.3090    -3.3010     3.4430 H     1 <1>   0.1500 
 44 H       -7.7980    -3.3920    -0.0990 H     1 <1>   0.0800 
 45 H       -7.4620    -3.9490     1.5170 H     1 <1>   0.0800 
 46 H       -4.3460    -5.4730     2.9180 H     1 <1>   0.1500 
 47 H       -5.9680    -5.6680     0.6630 H     1 <1>   0.0800 
 48 H       -5.0620    -4.5410    -1.3320 H     1 <1>   0.0800 
 49 H       -6.6260    -4.5920    -2.0900 H     1 <1>   0.0800 
 50 H       -8.6340    -5.6540    -0.7450 H     1 <1>   0.0800 
 51 H       -8.3280    -6.2310     0.8680 H     1 <1>   0.0800 
 52 H       -4.8930    -6.9660    -1.3640 H     1 <1>   0.0800 
 53 H       -5.2220    -6.3830    -2.9690 H     1 <1>   0.0800 
 54 H       -8.4500    -8.0880    -0.7610 H     1 <1>   0.0800 
 55 H       -6.8890    -8.0100     0.0060 H     1 <1>   0.0800 
 56 H       -6.6050    -8.3670    -2.3980 H     1 <1>   0.0800 
 57 H       -7.5810    -6.9700    -2.7520 H     1 <1>   0.0800 
@<TRIPOS>BOND
  1   1   2  2   
  2   2   3  am  
  3   2   4  am  
  4   3   5  1   
  5   3   6  1   
  6   4   7  1   
  7   4  27  1   
  8   5   8  1   
  9   5  28  1   
 10   5  29  1   
 11   6   9  1   
 12   6  30  1   
 13   6  31  1   
 14   7  10  1   
 15   7  32  1   
 16   7  33  1   
 17   8  11  1   
 18   8  12  1   
 19   8  34  1   
 20   9  12  1   
 21   9  35  1   
 22   9  36  1   
 23  10  13  ar  
 24  10  14  ar  
 25  11  15  2   
 26  11  16  am  
 27  12  37  1   
 28  12  38  1   
 29  13  17  ar  
 30  13  39  1   
 31  14  18  ar  
 32  14  40  1   
 33  16  19  1   
 34  16  41  1   
 35  17  20  ar  
 36  17  42  1   
 37  18  20  ar  
 38  18  43  1   
 39  19  21  1   
 40  19  44  1   
 41  19  45  1   
 42  20  46  1   
 43  21  22  1   
 44  21  23  1   
 45  21  47  1   
 46  22  24  1   
 47  22  48  1   
 48  22  49  1   
 49  23  25  1   
 50  23  50  1   
 51  23  51  1   
 52  24  26  1   
 53  24  52  1   
 54  24  53  1   
 55  25  26  1   
 56  25  54  1   
 57  25  55  1   
 58  26  56  1   
 59  26  57  1   
@<TRIPOS>SUBSTRUCTURE
  1 ****  16 GROUP 4 **** **** 0

# MOE 2024.06 (io_trps.svl 2023.06)
