@<TRIPOS>MOLECULE
ka-04441
43 44 1 0 0 
SMALL
USER_CHARGES


@<TRIPOS>ATOM
  1 O       -0.7550     0.5810    -0.9570 O.2   1 <1>  -0.5200 
  2 N       -1.9180     0.7300    -1.4030 N.pl3 1 <1>   0.8360 
  3 O       -2.0420     1.1780    -2.5700 O.2   1 <1>  -0.5200 
  4 C       -3.0290     0.2730    -0.6990 C.2   1 <1>   0.2190 
  5 C       -3.3280    -1.0950    -0.8720 C.2   1 <1>   0.6160 
  6 C       -3.8480     1.1050     0.0670 C.2   1 <1>  -0.1630 
  7 O       -2.5930    -1.8630    -1.4990 O.2   1 <1>  -0.5700 
  8 N       -4.5050    -1.6220    -0.3410 N.am  1 <1>  -0.4770 
  9 C       -4.9650     0.4970     0.7580 C.ar  1 <1>   0.0280 
 10 C       -3.6210     2.4990     0.1620 C.3   1 <1>  -0.6750 
 11 C       -5.2880    -0.8580     0.5420 C.ar  1 <1>   0.1170 
 12 C       -4.9420    -2.9940    -0.7450 C.3   1 <1>   0.0600 
 13 C       -5.7330     1.2180     1.6790 C.ar  1 <1>  -0.1500 
 14 C       -2.4290     2.9880     0.7260 C.2   1 <1>   0.6250 
 15 C       -4.5840     3.4160    -0.3030 C.2   1 <1>   0.6250 
 16 C       -6.3710    -1.4140     1.2340 C.ar  1 <1>  -0.1500 
 17 C       -6.7980     0.6550     2.3440 C.ar  1 <1>  -0.1500 
 18 O       -1.7990     2.3640     1.5730 O.2   1 <1>  -0.5700 
 19 O       -1.9150     4.1420     0.2780 O.3   1 <1>  -0.4300 
 20 O       -4.7520     4.5460     0.1420 O.2   1 <1>  -0.5700 
 21 O       -5.4080     2.9940    -1.2750 O.3   1 <1>  -0.4300 
 22 C       -7.1220    -0.6710     2.1180 C.ar  1 <1>  -0.1500 
 23 C       -0.6730     4.5990     0.7480 C.3   1 <1>   0.1200 
 24 C       -6.4160     3.8360    -1.7750 C.3   1 <1>   0.1200 
 25 C       -0.3610     5.9190     0.0520 C.3   1 <1>  -0.2400 
 26 C       -7.1820     3.0670    -2.8470 C.3   1 <1>  -0.2400 
 27 H       -4.4170    -3.3310    -1.6220 H     1 <1>   0.0800 
 28 H       -5.9920    -2.9880    -0.9780 H     1 <1>   0.0800 
 29 H       -4.7510    -3.6820     0.0590 H     1 <1>   0.0800 
 30 H       -5.4820     2.2450     1.8790 H     1 <1>   0.1500 
 31 H       -6.6370    -2.4430     1.0950 H     1 <1>   0.1500 
 32 H       -7.3710     1.2430     3.0390 H     1 <1>   0.1500 
 33 H       -7.9530    -1.1140     2.6390 H     1 <1>   0.1500 
 34 H        0.0670     3.8510     0.5180 H     1 <1>   0.0800 
 35 H       -0.7440     4.7260     1.8150 H     1 <1>   0.0800 
 36 H       -5.9460     4.7140    -2.1840 H     1 <1>   0.0800 
 37 H       -7.0600     4.1120    -0.9580 H     1 <1>   0.0800 
 38 H       -0.3110     5.7660    -1.0110 H     1 <1>   0.0800 
 39 H        0.5840     6.2980     0.3940 H     1 <1>   0.0800 
 40 H       -1.1280     6.6380     0.2760 H     1 <1>   0.0800 
 41 H       -6.5140     2.7850    -3.6410 H     1 <1>   0.0800 
 42 H       -7.9620     3.6850    -3.2520 H     1 <1>   0.0800 
 43 H       -7.6230     2.1850    -2.4180 H     1 <1>   0.0800 
@<TRIPOS>BOND
  1   1   2  2   
  2   2   3  2   
  3   2   4  1   
  4   4   5  1   
  5   4   6  2   
  6   5   7  2   
  7   5   8  am  
  8   6   9  1   
  9   6  10  1   
 10   8  11  1   
 11   8  12  1   
 12   9  11  ar  
 13   9  13  ar  
 14  10  14  1   
 15  10  15  1   
 16  11  16  ar  
 17  12  27  1   
 18  12  28  1   
 19  12  29  1   
 20  13  17  ar  
 21  13  30  1   
 22  14  18  2   
 23  14  19  1   
 24  15  20  2   
 25  15  21  1   
 26  16  22  ar  
 27  16  31  1   
 28  17  22  ar  
 29  17  32  1   
 30  19  23  1   
 31  21  24  1   
 32  22  33  1   
 33  23  25  1   
 34  23  34  1   
 35  23  35  1   
 36  24  26  1   
 37  24  36  1   
 38  24  37  1   
 39  25  38  1   
 40  25  39  1   
 41  25  40  1   
 42  26  41  1   
 43  26  42  1   
 44  26  43  1   
@<TRIPOS>SUBSTRUCTURE
  1 ****   6 GROUP 4 **** **** 0

# MOE 2024.06 (io_trps.svl 2023.06)
