@<TRIPOS>MOLECULE
Pyrazine-2-carboxylic acid (2-chloro-7-methyl-quinolin-3-ylmethyl)-cyclopentyl-amide
48 51 1 0 0 
SMALL
USER_CHARGES


@<TRIPOS>ATOM
  1 CL      -0.9210     1.1810     2.7130 Cl    1 <1>  -0.1770 
  2 C       -0.3010     2.4330     1.6680 C.ar  1 <1>   0.4870 
  3 N        0.9610     2.3540     1.3800 N.ar  1 <1>  -0.6200 
  4 C       -1.1910     3.4240     1.2130 C.ar  1 <1>  -0.1440 
  5 C        1.4620     3.3230     0.5770 C.ar  1 <1>   0.3100 
  6 C       -0.6880     4.4080     0.4090 C.ar  1 <1>  -0.1500 
  7 C       -2.6560     3.3490     1.6420 C.3   1 <1>   0.2840 
  8 C        0.6740     4.3770     0.0670 C.ar  1 <1>   0.0000 
  9 C        2.8230     3.2820     0.2340 C.ar  1 <1>  -0.1500 
 10 N       -3.5690     4.1940     0.8050 N.am  1 <1>  -0.6600 
 11 C        1.2790     5.3450    -0.7570 C.ar  1 <1>  -0.1500 
 12 C        3.3980     4.2300    -0.5720 C.ar  1 <1>  -0.1440 
 13 C       -3.8380     5.4930     1.2090 C.2   1 <1>   0.5440 
 14 C       -4.3260     3.5200    -0.3000 C.3   1 <1>   0.2200 
 15 C        2.6090     5.2730    -1.0700 C.ar  1 <1>  -0.1500 
 16 C        4.8700     4.1780    -0.9370 C.3   1 <1>  -0.0960 
 17 O       -3.0680     6.0030     2.0050 O.2   1 <1>  -0.5700 
 18 C       -4.9540     6.3040     0.7210 C.ar  1 <1>   0.3960 
 19 C       -5.3500     2.5190     0.2530 C.3   1 <1>  -0.1600 
 20 C       -3.4380     2.7360    -1.2800 C.3   1 <1>  -0.1600 
 21 N       -6.1940     5.7960     0.5950 N.ar  1 <1>  -0.6200 
 22 C       -4.6900     7.6420     0.4030 C.ar  1 <1>   0.1600 
 23 C       -4.9120     1.1370    -0.2320 C.3   1 <1>  -0.1600 
 24 C       -4.1590     1.4110    -1.5280 C.3   1 <1>  -0.1600 
 25 C       -7.0760     6.6710     0.1500 C.ar  1 <1>   0.1600 
 26 N       -5.5700     8.5170    -0.0550 N.ar  1 <1>  -0.6200 
 27 C       -6.7750     7.9890    -0.1680 C.ar  1 <1>   0.1600 
 28 H       -1.2980     5.2090     0.0310 H     1 <1>   0.1500 
 29 H       -2.7300     3.6560     2.6720 H     1 <1>   0.0800 
 30 H       -2.9930     2.3300     1.5940 H     1 <1>   0.0800 
 31 H        3.4010     2.4690     0.6340 H     1 <1>   0.1500 
 32 H        0.6730     6.1470    -1.1380 H     1 <1>   0.1500 
 33 H       -4.8560     4.2550    -0.8790 H     1 <1>   0.0800 
 34 H        3.0630     6.0180    -1.7020 H     1 <1>   0.1500 
 35 H        5.3470     3.3260    -0.4850 H     1 <1>   0.0800 
 36 H        5.3650     5.0690    -0.5940 H     1 <1>   0.0800 
 37 H        4.9810     4.1060    -2.0040 H     1 <1>   0.0800 
 38 H       -6.3100     2.7480    -0.1760 H     1 <1>   0.0800 
 39 H       -5.4400     2.5620     1.3240 H     1 <1>   0.0800 
 40 H       -2.4710     2.5220    -0.8700 H     1 <1>   0.0800 
 41 H       -3.3070     3.2780    -2.1990 H     1 <1>   0.0800 
 42 H       -3.6820     7.9960     0.5410 H     1 <1>   0.1500 
 43 H       -5.7490     0.4770    -0.3830 H     1 <1>   0.0800 
 44 H       -4.2420     0.6940     0.4850 H     1 <1>   0.0800 
 45 H       -3.4740     0.6170    -1.7750 H     1 <1>   0.0800 
 46 H       -4.8650     1.5310    -2.3330 H     1 <1>   0.0800 
 47 H       -8.0900     6.3330     0.0290 H     1 <1>   0.1500 
 48 H       -7.5620     8.6300    -0.5270 H     1 <1>   0.1500 
@<TRIPOS>BOND
  1   1   2  1   
  2   2   3  ar  
  3   2   4  ar  
  4   3   5  ar  
  5   4   6  ar  
  6   4   7  1   
  7   5   8  ar  
  8   5   9  ar  
  9   6   8  ar  
 10   6  28  1   
 11   7  10  1   
 12   7  29  1   
 13   7  30  1   
 14   8  11  ar  
 15   9  12  ar  
 16   9  31  1   
 17  10  13  am  
 18  10  14  1   
 19  11  15  ar  
 20  11  32  1   
 21  12  15  ar  
 22  12  16  1   
 23  13  17  2   
 24  13  18  1   
 25  14  19  1   
 26  14  20  1   
 27  14  33  1   
 28  15  34  1   
 29  16  35  1   
 30  16  36  1   
 31  16  37  1   
 32  18  21  ar  
 33  18  22  ar  
 34  19  23  1   
 35  19  38  1   
 36  19  39  1   
 37  20  24  1   
 38  20  40  1   
 39  20  41  1   
 40  21  25  ar  
 41  22  26  ar  
 42  22  42  1   
 43  23  24  1   
 44  23  43  1   
 45  23  44  1   
 46  24  45  1   
 47  24  46  1   
 48  25  27  ar  
 49  25  47  1   
 50  26  27  ar  
 51  27  48  1   
@<TRIPOS>SUBSTRUCTURE
  1 ****   6 GROUP 4 **** **** 0

# MOE 2024.06 (io_trps.svl 2023.06)
