@<TRIPOS>MOLECULE
4-(2-Methoxy-benzoylamino)-piperidine-1-carboxylic acid (4-fluoro-phenyl)-amide
49 51 1 0 0 
SMALL
USER_CHARGES


@<TRIPOS>ATOM
  1 F        1.5580     1.2580     2.5600 F     1 <1>  -0.1900 
  2 C        2.7350     1.1690     1.9950 C.ar  1 <1>   0.1900 
  3 C        3.7650     1.9550     2.4720 C.ar  1 <1>  -0.1500 
  4 C        2.9050     0.2930     0.9400 C.ar  1 <1>  -0.1500 
  5 C        5.0080     1.8550     1.8700 C.ar  1 <1>  -0.1500 
  6 C        4.1530     0.2060     0.3480 C.ar  1 <1>  -0.1500 
  7 C        5.2190     0.9810     0.8050 C.ar  1 <1>   0.1170 
  8 N        6.4910     0.9290     0.2190 N.am  1 <1>  -0.5470 
  9 C        7.1280    -0.0670    -0.4630 C.2   1 <1>   0.6900 
 10 O        6.6480    -1.1820    -0.5350 O.2   1 <1>  -0.5700 
 11 N        8.3450     0.2020    -1.0400 N.am  1 <1>  -0.6600 
 12 C        8.8200     1.5620    -1.4160 C.3   1 <1>   0.1400 
 13 C        9.2480    -0.9000    -1.4740 C.3   1 <1>   0.1400 
 14 C       10.1950     1.8040    -0.7920 C.3   1 <1>  -0.1600 
 15 C       10.6370    -0.6830    -0.8690 C.3   1 <1>  -0.1600 
 16 C       11.1720     0.7070    -1.2160 C.3   1 <1>   0.2200 
 17 N       12.4490     0.9150    -0.5200 N.am  1 <1>  -0.7300 
 18 C       13.6030     1.4020    -1.0610 C.2   1 <1>   0.5440 
 19 O       13.5670     1.7440    -2.2290 O.2   1 <1>  -0.5700 
 20 C       14.8300     1.5330    -0.2820 C.ar  1 <1>   0.0860 
 21 C       15.0360     0.9680     0.9940 C.ar  1 <1>   0.0830 
 22 C       15.8880     2.2720    -0.8250 C.ar  1 <1>  -0.1500 
 23 O       14.0440     0.2310     1.5650 O.3   1 <1>  -0.3630 
 24 C       16.2460     1.1590     1.6610 C.ar  1 <1>  -0.1500 
 25 C       17.0830     2.4550    -0.1590 C.ar  1 <1>  -0.1500 
 26 C       14.1940    -0.4550     2.7900 C.3   1 <1>   0.0400 
 27 C       17.2630     1.8970     1.0910 C.ar  1 <1>  -0.1500 
 28 H        3.5930     2.6240     3.2960 H     1 <1>   0.1500 
 29 H        2.0810    -0.3050     0.5940 H     1 <1>   0.1500 
 30 H        5.8190     2.4580     2.2330 H     1 <1>   0.1500 
 31 H        4.2980    -0.4690    -0.4770 H     1 <1>   0.1500 
 32 H        7.1080     1.7020     0.4360 H     1 <1>   0.3700 
 33 H        8.1300     2.3230    -1.0980 H     1 <1>   0.0800 
 34 H        8.8960     1.6180    -2.4890 H     1 <1>   0.0800 
 35 H        9.3070    -0.9040    -2.5490 H     1 <1>   0.0800 
 36 H        8.8650    -1.8550    -1.1570 H     1 <1>   0.0800 
 37 H       10.0990     1.8210     0.2790 H     1 <1>   0.0800 
 38 H       10.5700     2.7560    -1.1200 H     1 <1>   0.0800 
 39 H       11.3070    -1.4310    -1.2520 H     1 <1>   0.0800 
 40 H       10.5680    -0.7990     0.1980 H     1 <1>   0.0800 
 41 H       11.3280     0.7670    -2.2820 H     1 <1>   0.0800 
 42 H       12.5020     0.5790     0.4460 H     1 <1>   0.3700 
 43 H       15.7700     2.7170    -1.7980 H     1 <1>   0.1500 
 44 H       16.4220     0.7420     2.6340 H     1 <1>   0.1500 
 45 H       17.8720     3.0300    -0.6120 H     1 <1>   0.1500 
 46 H       13.2850    -0.9950     2.9860 H     1 <1>   0.0800 
 47 H       14.3690     0.2610     3.5740 H     1 <1>   0.0800 
 48 H       15.0160    -1.1450     2.7060 H     1 <1>   0.0800 
 49 H       18.1940     2.0380     1.6140 H     1 <1>   0.1500 
@<TRIPOS>BOND
  1   1   2  1   
  2   2   3  ar  
  3   2   4  ar  
  4   3   5  ar  
  5   3  28  1   
  6   4   6  ar  
  7   4  29  1   
  8   5   7  ar  
  9   5  30  1   
 10   6   7  ar  
 11   6  31  1   
 12   7   8  1   
 13   8   9  am  
 14   8  32  1   
 15   9  10  2   
 16   9  11  am  
 17  11  12  1   
 18  11  13  1   
 19  12  14  1   
 20  12  33  1   
 21  12  34  1   
 22  13  15  1   
 23  13  35  1   
 24  13  36  1   
 25  14  16  1   
 26  14  37  1   
 27  14  38  1   
 28  15  16  1   
 29  15  39  1   
 30  15  40  1   
 31  16  17  1   
 32  16  41  1   
 33  17  18  am  
 34  17  42  1   
 35  18  19  2   
 36  18  20  1   
 37  20  21  ar  
 38  20  22  ar  
 39  21  23  1   
 40  21  24  ar  
 41  22  25  ar  
 42  22  43  1   
 43  23  26  1   
 44  24  27  ar  
 45  24  44  1   
 46  25  27  ar  
 47  25  45  1   
 48  26  46  1   
 49  26  47  1   
 50  26  48  1   
 51  27  49  1   
@<TRIPOS>SUBSTRUCTURE
  1 ****  14 GROUP 4 **** **** 0

# MOE 2024.06 (io_trps.svl 2023.06)
