@<TRIPOS>MOLECULE
NONAME
34 35 1 0 0 
SMALL
USER_CHARGES


@<TRIPOS>ATOM
  1 O        0.2800     0.1890     1.4930 O.2   1 <1>  -0.5700 
  2 C        0.8060     1.1540     0.9890 C.2   1 <1>   0.5690 
  3 N        0.1840     2.3110     0.6640 N.am  1 <1>  -0.6600 
  4 C        2.2640     1.2160     0.6310 C.3   1 <1>  -0.0990 
  5 C        1.1040     3.2900     0.0510 C.3   1 <1>   0.1400 
  6 C       -1.2690     2.5810     0.7900 C.3   1 <1>   0.1400 
  7 C        2.4950     2.7140     0.3350 C.3   1 <1>  -0.1860 
  8 C       -1.9800     2.5680    -0.5750 C.3   1 <1>   0.0630 
  9 C        3.4620     3.0110    -0.7910 C.2   1 <1>   0.9060 
 10 C       -3.4540     2.9240    -0.3950 C.ar  1 <1>  -0.1440 
 11 C       -1.8390     1.2220    -1.3030 C.3   1 <1>  -0.2400 
 12 O        3.3140     4.0580    -1.4310 O.co2 1 <1>  -0.9000 
 13 O        4.3720     2.2130    -1.0270 O.co2 1 <1>  -0.9000 
 14 C       -3.9640     4.0820    -0.9660 C.ar  1 <1>  -0.1500 
 15 C       -4.3030     2.1070     0.3400 C.ar  1 <1>  -0.1500 
 16 C       -5.2980     4.4180    -0.8040 C.ar  1 <1>  -0.1500 
 17 C       -5.6360     2.4420     0.5030 C.ar  1 <1>  -0.1500 
 18 C       -6.1350     3.5980    -0.0700 C.ar  1 <1>  -0.1500 
 19 H        2.4320     0.6180    -0.2460 H     1 <1>   0.0800 
 20 H        2.8850     0.8690     1.4350 H     1 <1>   0.0800 
 21 H        0.9920     4.2670     0.4870 H     1 <1>   0.0800 
 22 H        0.9210     3.3400    -1.0090 H     1 <1>   0.0800 
 23 H       -1.4060     3.5400     1.2590 H     1 <1>   0.0800 
 24 H       -1.7060     1.8350     1.4310 H     1 <1>   0.0800 
 25 H        2.8810     3.1890     1.2160 H     1 <1>   0.0800 
 26 H       -1.5230     3.3240    -1.1880 H     1 <1>   0.0800 
 27 H       -2.1800     0.4140    -0.6810 H     1 <1>   0.0800 
 28 H       -0.8100     1.0420    -1.5560 H     1 <1>   0.0800 
 29 H       -2.4160     1.2310    -2.2100 H     1 <1>   0.0800 
 30 H       -3.3260     4.7290    -1.5400 H     1 <1>   0.1500 
 31 H       -3.9290     1.2040     0.7900 H     1 <1>   0.1500 
 32 H       -5.6820     5.3180    -1.2520 H     1 <1>   0.1500 
 33 H       -6.2840     1.8010     1.0740 H     1 <1>   0.1500 
 34 H       -7.1710     3.8580     0.0560 H     1 <1>   0.1500 
@<TRIPOS>BOND
  1   1   2  2   
  2   2   3  am  
  3   2   4  1   
  4   3   5  1   
  5   3   6  1   
  6   4   7  1   
  7   4  19  1   
  8   4  20  1   
  9   5   7  1   
 10   5  21  1   
 11   5  22  1   
 12   6   8  1   
 13   6  23  1   
 14   6  24  1   
 15   7   9  1   
 16   7  25  1   
 17   8  10  1   
 18   8  11  1   
 19   8  26  1   
 20   9  12  ar  
 21   9  13  ar  
 22  10  14  ar  
 23  10  15  ar  
 24  11  27  1   
 25  11  28  1   
 26  11  29  1   
 27  14  16  ar  
 28  14  30  1   
 29  15  17  ar  
 30  15  31  1   
 31  16  18  ar  
 32  16  32  1   
 33  17  18  ar  
 34  17  33  1   
 35  18  34  1   
@<TRIPOS>SUBSTRUCTURE
  1 ****   6 GROUP 4 **** **** 0

# MOE 2024.06 (io_trps.svl 2023.06)
