@<TRIPOS>MOLECULE
N-(2,3-Dimethyl-phenyl)-2-[5-propyl-4-(tetrahydro-furan-2-ylmethyl)-4H-[1,2,4]triazol-3-ylsulfanyl]-acetamid
55 57 1 0 0 
SMALL
USER_CHARGES


@<TRIPOS>ATOM
  1 S        0.1970     2.0060     0.6320 S.3   1 <1>  -0.2860 
  2 C       -1.5030     1.4350     0.5240 C.2   1 <1>   0.2420 
  3 C        0.9950     0.6850     1.6730 C.3   1 <1>   0.1310 
  4 N       -1.9010     0.3120     1.0010 N.2   1 <1>  -0.3380 
  5 N       -2.4680     2.1430    -0.0600 N.pl3 1 <1>   0.0480 
  6 C        2.4920     0.9150     1.8000 C.2   1 <1>   0.5690 
  7 N       -3.2080     0.2510     0.7320 N.2   1 <1>  -0.3380 
  8 C       -3.5310     1.3400     0.1090 C.2   1 <1>   0.0060 
  9 C       -2.3500     3.4600    -0.7240 C.3   1 <1>   0.0960 
 10 O        3.0360     0.5590     2.8160 O.2   1 <1>  -0.5700 
 11 N        3.1430     1.5110     0.7530 N.am  1 <1>  -0.5470 
 12 C       -4.9330     1.6980    -0.3730 C.3   1 <1>   0.0200 
 13 C       -2.4760     4.6000     0.2900 C.3   1 <1>   0.2000 
 14 C        4.4910     1.8510     0.5490 C.ar  1 <1>   0.1170 
 15 C       -5.9550     0.5710    -0.1580 C.3   1 <1>  -0.1600 
 16 O       -3.7610     4.6290     0.8090 O.3   1 <1>  -0.5600 
 17 C       -2.2930     5.9870    -0.3090 C.3   1 <1>  -0.1600 
 18 C        4.8220     2.8770    -0.3460 C.ar  1 <1>  -0.1430 
 19 C        5.5100     1.1670     1.2020 C.ar  1 <1>  -0.1500 
 20 C       -7.3470     0.9640    -0.6650 C.3   1 <1>  -0.2400 
 21 C       -4.0240     5.8800     1.3570 C.3   1 <1>   0.1200 
 22 C       -3.1350     6.8660     0.6030 C.3   1 <1>  -0.1600 
 23 C        6.1610     3.1890    -0.5790 C.ar  1 <1>  -0.1430 
 24 C        3.6950     3.6380    -1.0520 C.3   1 <1>  -0.0970 
 25 C        6.8330     1.4850     0.9790 C.ar  1 <1>  -0.1500 
 26 C        7.1550     2.4910     0.0900 C.ar  1 <1>  -0.1500 
 27 C        6.5970     4.2780    -1.5500 C.3   1 <1>  -0.0970 
 28 H        0.8000    -0.2600     1.2020 H     1 <1>   0.0800 
 29 H        0.5250     0.7130     2.6390 H     1 <1>   0.0800 
 30 H       -3.1130     3.5550    -1.4750 H     1 <1>   0.0800 
 31 H       -1.3940     3.5150    -1.2090 H     1 <1>   0.0800 
 32 H        2.5220     1.8410     0.0170 H     1 <1>   0.3700 
 33 H       -4.8910     1.9340    -1.4210 H     1 <1>   0.0800 
 34 H       -5.2650     2.5740     0.1560 H     1 <1>   0.0800 
 35 H       -1.7910     4.4590     1.1100 H     1 <1>   0.0800 
 36 H       -6.0100     0.3390     0.8920 H     1 <1>   0.0800 
 37 H       -5.6230    -0.3140    -0.6740 H     1 <1>   0.0800 
 38 H       -2.6880     6.0140    -1.3100 H     1 <1>   0.0800 
 39 H       -1.2580     6.2830    -0.3260 H     1 <1>   0.0800 
 40 H        5.2750     0.3760     1.8890 H     1 <1>   0.1500 
 41 H       -7.7050     1.8350    -0.1440 H     1 <1>   0.0800 
 42 H       -8.0380     0.1570    -0.4960 H     1 <1>   0.0800 
 43 H       -7.3200     1.1750    -1.7200 H     1 <1>   0.0800 
 44 H       -3.7740     5.8470     2.4040 H     1 <1>   0.0800 
 45 H       -5.0720     6.0950     1.2340 H     1 <1>   0.0800 
 46 H       -3.7260     7.5680     0.0410 H     1 <1>   0.0800 
 47 H       -2.5210     7.4070     1.3020 H     1 <1>   0.0800 
 48 H        2.9410     3.9260    -0.3420 H     1 <1>   0.0800 
 49 H        3.2510     3.0130    -1.8050 H     1 <1>   0.0800 
 50 H        4.0370     4.5390    -1.5230 H     1 <1>   0.0800 
 51 H        7.6100     0.9490     1.4940 H     1 <1>   0.1500 
 52 H        8.1920     2.7250    -0.0760 H     1 <1>   0.1500 
 53 H        6.1640     4.1060    -2.5190 H     1 <1>   0.0800 
 54 H        7.6660     4.2920    -1.6640 H     1 <1>   0.0800 
 55 H        6.2870     5.2410    -1.1870 H     1 <1>   0.0800 
@<TRIPOS>BOND
  1   1   2  1   
  2   1   3  1   
  3   2   4  2   
  4   2   5  1   
  5   3   6  1   
  6   3  28  1   
  7   3  29  1   
  8   4   7  1   
  9   5   8  1   
 10   5   9  1   
 11   6  10  2   
 12   6  11  am  
 13   7   8  2   
 14   8  12  1   
 15   9  13  1   
 16   9  30  1   
 17   9  31  1   
 18  11  14  1   
 19  11  32  1   
 20  12  15  1   
 21  12  33  1   
 22  12  34  1   
 23  13  16  1   
 24  13  17  1   
 25  13  35  1   
 26  14  18  ar  
 27  14  19  ar  
 28  15  20  1   
 29  15  36  1   
 30  15  37  1   
 31  16  21  1   
 32  17  22  1   
 33  17  38  1   
 34  17  39  1   
 35  18  23  ar  
 36  18  24  1   
 37  19  25  ar  
 38  19  40  1   
 39  20  41  1   
 40  20  42  1   
 41  20  43  1   
 42  21  22  1   
 43  21  44  1   
 44  21  45  1   
 45  22  46  1   
 46  22  47  1   
 47  23  26  ar  
 48  23  27  1   
 49  24  48  1   
 50  24  49  1   
 51  24  50  1   
 52  25  26  ar  
 53  25  51  1   
 54  26  52  1   
 55  27  53  1   
 56  27  54  1   
 57  27  55  1   
@<TRIPOS>SUBSTRUCTURE
  1 ****   1 GROUP 4 **** **** 0

# MOE 2024.06 (io_trps.svl 2023.06)
