@<TRIPOS>MOLECULE
4-(4-Ethoxy-benzoylamino)-piperidine-1-carboxylic acid p-tolylamide
55 57 1 0 0 
SMALL
USER_CHARGES


@<TRIPOS>ATOM
  1 O        0.3410     0.0390    -0.5670 O.2   1 <1>  -0.5700 
  2 C        0.8730     1.1320    -0.6070 C.2   1 <1>   0.6900 
  3 N        2.1000     1.2820    -1.2070 N.am  1 <1>  -0.6600 
  4 N        0.2860     2.2230    -0.0310 N.am  1 <1>  -0.5470 
  5 C        2.6400     2.5750    -1.7100 C.3   1 <1>   0.1400 
  6 C        2.9280     0.0960    -1.5620 C.3   1 <1>   0.1400 
  7 C       -0.9850     2.4140     0.5270 C.ar  1 <1>   0.1170 
  8 C        4.0420     2.7890    -1.1380 C.3   1 <1>  -0.1600 
  9 C        4.3420     0.2830    -1.0070 C.3   1 <1>  -0.1600 
 10 C       -1.1680     3.4480     1.4380 C.ar  1 <1>  -0.1500 
 11 C       -2.0840     1.6290     0.1940 C.ar  1 <1>  -0.1500 
 12 C        4.9450     1.6040    -1.4860 C.3   1 <1>   0.2200 
 13 C       -2.4080     3.6880     2.0040 C.ar  1 <1>  -0.1500 
 14 C       -3.3240     1.8660     0.7580 C.ar  1 <1>  -0.1500 
 15 N        6.2570     1.7960    -0.8470 N.am  1 <1>  -0.7300 
 16 C       -3.4940     2.8970     1.6680 C.ar  1 <1>  -0.1430 
 17 C        7.3480     2.3550    -1.4530 C.2   1 <1>   0.5440 
 18 C       -4.8560     3.1560     2.2860 C.3   1 <1>  -0.0970 
 19 O        7.2270     2.7640    -2.5920 O.2   1 <1>  -0.5700 
 20 C        8.6100     2.4780    -0.7450 C.ar  1 <1>   0.0860 
 21 C        8.9740     1.6030     0.2830 C.ar  1 <1>  -0.1500 
 22 C        9.5180     3.4880    -1.0690 C.ar  1 <1>  -0.1500 
 23 C       10.1720     1.7360     0.9620 C.ar  1 <1>  -0.1500 
 24 C       10.7170     3.6280    -0.3960 C.ar  1 <1>  -0.1500 
 25 C       11.0550     2.7580     0.6260 C.ar  1 <1>   0.0830 
 26 O       12.2430     2.9620     1.2380 O.3   1 <1>  -0.3630 
 27 C       12.7010     2.1270     2.2760 C.3   1 <1>   0.1200 
 28 C       14.0680     2.6370     2.7230 C.3   1 <1>  -0.2400 
 29 H        0.9380     2.9850     0.1030 H     1 <1>   0.3700 
 30 H        2.0030     3.4000    -1.4450 H     1 <1>   0.0800 
 31 H        2.6900     2.5340    -2.7860 H     1 <1>   0.0800 
 32 H        2.9570    -0.0050    -2.6330 H     1 <1>   0.0800 
 33 H        2.5000    -0.8050    -1.1530 H     1 <1>   0.0800 
 34 H        3.9730     2.9050    -0.0720 H     1 <1>   0.0800 
 35 H        4.4600     3.6870    -1.5570 H     1 <1>   0.0800 
 36 H        4.9580    -0.5340    -1.3380 H     1 <1>   0.0800 
 37 H        4.2920     0.2620     0.0670 H     1 <1>   0.0800 
 38 H       -0.3370     4.0690     1.7130 H     1 <1>   0.1500 
 39 H       -1.9740     0.8270    -0.5130 H     1 <1>   0.1500 
 40 H        5.0720     1.5620    -2.5570 H     1 <1>   0.0800 
 41 H       -2.5250     4.4930     2.7070 H     1 <1>   0.1500 
 42 H       -4.1560     1.2430     0.4840 H     1 <1>   0.1500 
 43 H        6.2900     1.5950     0.1510 H     1 <1>   0.3700 
 44 H       -4.7500     3.5940     3.2620 H     1 <1>   0.0800 
 45 H       -5.4030     2.2360     2.3850 H     1 <1>   0.0800 
 46 H       -5.4160     3.8280     1.6610 H     1 <1>   0.0800 
 47 H        8.3130     0.7980     0.5500 H     1 <1>   0.1500 
 48 H        9.2730     4.1720    -1.8650 H     1 <1>   0.1500 
 49 H       10.4040     1.0390     1.7450 H     1 <1>   0.1500 
 50 H       11.4020     4.4140    -0.6600 H     1 <1>   0.1500 
 51 H       12.7750     1.1220     1.8980 H     1 <1>   0.0800 
 52 H       11.9940     2.1720     3.0860 H     1 <1>   0.0800 
 53 H       14.7610     2.6030     1.9020 H     1 <1>   0.0800 
 54 H       14.4460     2.0190     3.5180 H     1 <1>   0.0800 
 55 H       13.9850     3.6470     3.0830 H     1 <1>   0.0800 
@<TRIPOS>BOND
  1   1   2  2   
  2   2   3  am  
  3   2   4  am  
  4   3   5  1   
  5   3   6  1   
  6   4   7  1   
  7   4  29  1   
  8   5   8  1   
  9   5  30  1   
 10   5  31  1   
 11   6   9  1   
 12   6  32  1   
 13   6  33  1   
 14   7  10  ar  
 15   7  11  ar  
 16   8  12  1   
 17   8  34  1   
 18   8  35  1   
 19   9  12  1   
 20   9  36  1   
 21   9  37  1   
 22  10  13  ar  
 23  10  38  1   
 24  11  14  ar  
 25  11  39  1   
 26  12  15  1   
 27  12  40  1   
 28  13  16  ar  
 29  13  41  1   
 30  14  16  ar  
 31  14  42  1   
 32  15  17  am  
 33  15  43  1   
 34  16  18  1   
 35  17  19  2   
 36  17  20  1   
 37  18  44  1   
 38  18  45  1   
 39  18  46  1   
 40  20  21  ar  
 41  20  22  ar  
 42  21  23  ar  
 43  21  47  1   
 44  22  24  ar  
 45  22  48  1   
 46  23  25  ar  
 47  23  49  1   
 48  24  25  ar  
 49  24  50  1   
 50  25  26  1   
 51  26  27  1   
 52  27  28  1   
 53  27  51  1   
 54  27  52  1   
 55  28  53  1   
 56  28  54  1   
 57  28  55  1   
@<TRIPOS>SUBSTRUCTURE
  1 ****   8 GROUP 4 **** **** 0

# MOE 2024.06 (io_trps.svl 2023.06)
