@<TRIPOS>MOLECULE
7785
46 47 1 0 0 
SMALL
USER_CHARGES


@<TRIPOS>ATOM
  1 O        0.5330    -5.4980     0.8540 O.2   1 <1>  -0.5700 
  2 C        0.0440    -4.6020     0.2120 C.2   1 <1>   0.5690 
  3 N        0.6910    -3.4470    -0.1190 N.am  1 <1>  -0.5470 
  4 C       -1.3860    -4.7620    -0.2700 C.3   1 <1>  -0.0990 
  5 C        1.9850    -2.9530     0.1320 C.ar  1 <1>   0.1170 
  6 C       -2.3560    -3.8130     0.4540 C.3   1 <1>  -0.1600 
  7 C        2.2920    -1.6640    -0.3180 C.ar  1 <1>   0.0820 
  8 C        2.9650    -3.6810     0.7980 C.ar  1 <1>  -0.1500 
  9 C       -3.7960    -4.0330    -0.0110 C.3   1 <1>   0.1200 
 10 O        1.3030    -0.9790    -0.9710 O.3   1 <1>  -0.3630 
 11 C        3.5590    -1.1310    -0.0970 C.ar  1 <1>  -0.1500 
 12 C        4.2220    -3.1470     1.0160 C.ar  1 <1>  -0.1500 
 13 O       -4.6130    -3.0950     0.6460 O.3   1 <1>  -0.3630 
 14 C        1.5090     0.3390    -1.4320 C.3   1 <1>   0.0400 
 15 C        4.5200    -1.8720     0.5690 C.ar  1 <1>  -0.1500 
 16 C       -5.9500    -3.0450     0.4220 C.ar  1 <1>   0.0820 
 17 C       -6.6620    -2.0750     1.1080 C.ar  1 <1>  -0.1500 
 18 C       -6.6260    -3.9020    -0.4430 C.ar  1 <1>  -0.1500 
 19 C       -8.0290    -1.9540     0.9370 C.ar  1 <1>  -0.1500 
 20 C       -7.9940    -3.7780    -0.6120 C.ar  1 <1>  -0.1500 
 21 C       -8.7040    -2.8060     0.0760 C.ar  1 <1>  -0.1440 
 22 C      -10.2070    -2.6740    -0.1120 C.3   1 <1>  -0.0170 
 23 C      -10.5220    -1.7110    -1.2590 C.3   1 <1>  -0.2400 
 24 H        0.1350    -2.7640    -0.6350 H     1 <1>   0.3700 
 25 H       -1.6860    -5.7810    -0.0980 H     1 <1>   0.0800 
 26 H       -1.4140    -4.5850    -1.3290 H     1 <1>   0.0800 
 27 H       -2.0770    -2.7920     0.2610 H     1 <1>   0.0800 
 28 H       -2.2990    -3.9910     1.5140 H     1 <1>   0.0800 
 29 H        2.7570    -4.6730     1.1530 H     1 <1>   0.1500 
 30 H       -4.1360    -5.0210     0.2490 H     1 <1>   0.0800 
 31 H       -3.8850    -3.8720    -1.0720 H     1 <1>   0.0800 
 32 H        3.8210    -0.1460    -0.4320 H     1 <1>   0.1500 
 33 H        4.9670    -3.7260     1.5330 H     1 <1>   0.1500 
 34 H        0.6000     0.6780    -1.8950 H     1 <1>   0.0800 
 35 H        2.3060     0.3360    -2.1540 H     1 <1>   0.0800 
 36 H        1.7490     0.9700    -0.5940 H     1 <1>   0.0800 
 37 H        5.4990    -1.4590     0.7400 H     1 <1>   0.1500 
 38 H       -6.1370    -1.4160     1.7750 H     1 <1>   0.1500 
 39 H       -6.1090    -4.6650    -0.9910 H     1 <1>   0.1500 
 40 H       -8.5660    -1.1930     1.4750 H     1 <1>   0.1500 
 41 H       -8.5090    -4.4420    -1.2840 H     1 <1>   0.1500 
 42 H      -10.6550    -2.3120     0.7960 H     1 <1>   0.0800 
 43 H      -10.6320    -3.6390    -0.3230 H     1 <1>   0.0800 
 44 H      -10.1130    -0.7390    -1.0490 H     1 <1>   0.0800 
 45 H      -11.5850    -1.6210    -1.3870 H     1 <1>   0.0800 
 46 H      -10.0910    -2.0740    -2.1760 H     1 <1>   0.0800 
@<TRIPOS>BOND
  1   1   2  2   
  2   2   3  am  
  3   2   4  1   
  4   3   5  1   
  5   3  24  1   
  6   4   6  1   
  7   4  25  1   
  8   4  26  1   
  9   5   7  ar  
 10   5   8  ar  
 11   6   9  1   
 12   6  27  1   
 13   6  28  1   
 14   7  10  1   
 15   7  11  ar  
 16   8  12  ar  
 17   8  29  1   
 18   9  13  1   
 19   9  30  1   
 20   9  31  1   
 21  10  14  1   
 22  11  15  ar  
 23  11  32  1   
 24  12  15  ar  
 25  12  33  1   
 26  13  16  1   
 27  14  34  1   
 28  14  35  1   
 29  14  36  1   
 30  15  37  1   
 31  16  17  ar  
 32  16  18  ar  
 33  17  19  ar  
 34  17  38  1   
 35  18  20  ar  
 36  18  39  1   
 37  19  21  ar  
 38  19  40  1   
 39  20  21  ar  
 40  20  41  1   
 41  21  22  1   
 42  22  23  1   
 43  22  42  1   
 44  22  43  1   
 45  23  44  1   
 46  23  45  1   
 47  23  46  1   
@<TRIPOS>SUBSTRUCTURE
  1 ****   6 GROUP 4 **** **** 0

# MOE 2024.06 (io_trps.svl 2023.06)
