@<TRIPOS>MOLECULE
4-(3-Methyl-benzoylamino)-piperidine-1-carboxylic acid (3-fluoro-phenyl)-amide
48 50 1 0 0 
SMALL
USER_CHARGES


@<TRIPOS>ATOM
  1 F       -0.6220     1.2090     1.6500 F     1 <1>  -0.1900 
  2 C       -1.6220     2.0410     1.7710 C.ar  1 <1>   0.1900 
  3 C       -2.6840     1.9320     0.8970 C.ar  1 <1>  -0.1500 
  4 C       -1.5740     2.9940     2.7700 C.ar  1 <1>  -0.1500 
  5 C       -3.7550     2.8100     1.0140 C.ar  1 <1>   0.1170 
  6 C       -2.6400     3.8700     2.8910 C.ar  1 <1>  -0.1500 
  7 N       -4.8350     2.6800     0.1300 N.am  1 <1>  -0.5470 
  8 C       -3.7160     3.7740     2.0220 C.ar  1 <1>  -0.1500 
  9 C       -5.7690     3.5820    -0.2950 C.2   1 <1>   0.6900 
 10 O       -5.6740     4.7610    -0.0130 O.2   1 <1>  -0.5700 
 11 N       -6.8080     3.1370    -1.0750 N.am  1 <1>  -0.6600 
 12 C       -7.3610     1.7550    -1.0140 C.3   1 <1>   0.1400 
 13 C       -7.6410     4.0980    -1.8510 C.3   1 <1>   0.1400 
 14 C       -8.7670     1.7970    -0.4110 C.3   1 <1>  -0.1600 
 15 C       -9.0450     4.1610    -1.2480 C.3   1 <1>  -0.1600 
 16 C       -9.6630     2.7650    -1.1840 C.3   1 <1>   0.2200 
 17 N      -10.9700     2.8480    -0.5130 N.am  1 <1>  -0.7300 
 18 C      -12.1010     2.1880    -0.9050 C.2   1 <1>   0.5440 
 19 O      -12.0320     1.4410    -1.8610 O.2   1 <1>  -0.5700 
 20 C      -13.3470     2.3600    -0.1770 C.ar  1 <1>   0.0860 
 21 C      -13.6430     3.5380     0.5140 C.ar  1 <1>  -0.1500 
 22 C      -14.3000     1.3420    -0.1420 C.ar  1 <1>  -0.1500 
 23 C      -14.8230     3.6920     1.2210 C.ar  1 <1>  -0.1430 
 24 C      -15.4830     1.4850     0.5590 C.ar  1 <1>  -0.1500 
 25 C      -15.7440     2.6590     1.2420 C.ar  1 <1>  -0.1500 
 26 C      -15.1230     4.9810     1.9660 C.3   1 <1>  -0.0970 
 27 H       -2.6700     1.1750     0.1370 H     1 <1>   0.1500 
 28 H       -0.7270     3.0470     3.4300 H     1 <1>   0.1500 
 29 H       -2.6340     4.6250     3.6580 H     1 <1>   0.1500 
 30 H       -4.8700     1.8150    -0.3970 H     1 <1>   0.3700 
 31 H       -4.5370     4.4590     2.1330 H     1 <1>   0.1500 
 32 H       -6.7420     1.1130    -0.4140 H     1 <1>   0.0800 
 33 H       -7.4030     1.3490    -2.0110 H     1 <1>   0.0800 
 34 H       -7.6950     3.7680    -2.8750 H     1 <1>   0.0800 
 35 H       -7.1970     5.0800    -1.8450 H     1 <1>   0.0800 
 36 H       -8.6930     2.1020     0.6180 H     1 <1>   0.0800 
 37 H       -9.1960     0.8120    -0.4470 H     1 <1>   0.0800 
 38 H       -9.6600     4.8000    -1.8550 H     1 <1>   0.0800 
 39 H       -8.9730     4.5870    -0.2630 H     1 <1>   0.0800 
 40 H       -9.7970     2.3950    -2.1880 H     1 <1>   0.0800 
 41 H      -10.9730     3.3580     0.3700 H     1 <1>   0.3700 
 42 H      -12.9390     4.3490     0.4880 H     1 <1>   0.1500 
 43 H      -14.1040     0.4270    -0.6750 H     1 <1>   0.1500 
 44 H      -16.2020     0.6840     0.5710 H     1 <1>   0.1500 
 45 H      -16.6660     2.7650     1.7860 H     1 <1>   0.1500 
 46 H      -14.2450     5.5970     2.0400 H     1 <1>   0.0800 
 47 H      -15.4680     4.7610     2.9600 H     1 <1>   0.0800 
 48 H      -15.8870     5.5310     1.4470 H     1 <1>   0.0800 
@<TRIPOS>BOND
  1   1   2  1   
  2   2   3  ar  
  3   2   4  ar  
  4   3   5  ar  
  5   3  27  1   
  6   4   6  ar  
  7   4  28  1   
  8   5   7  1   
  9   5   8  ar  
 10   6   8  ar  
 11   6  29  1   
 12   7   9  am  
 13   7  30  1   
 14   8  31  1   
 15   9  10  2   
 16   9  11  am  
 17  11  12  1   
 18  11  13  1   
 19  12  14  1   
 20  12  32  1   
 21  12  33  1   
 22  13  15  1   
 23  13  34  1   
 24  13  35  1   
 25  14  16  1   
 26  14  36  1   
 27  14  37  1   
 28  15  16  1   
 29  15  38  1   
 30  15  39  1   
 31  16  17  1   
 32  16  40  1   
 33  17  18  am  
 34  17  41  1   
 35  18  19  2   
 36  18  20  1   
 37  20  21  ar  
 38  20  22  ar  
 39  21  23  ar  
 40  21  42  1   
 41  22  24  ar  
 42  22  43  1   
 43  23  25  ar  
 44  23  26  1   
 45  24  25  ar  
 46  24  44  1   
 47  25  45  1   
 48  26  46  1   
 49  26  47  1   
 50  26  48  1   
@<TRIPOS>SUBSTRUCTURE
  1 ****  14 GROUP 4 **** **** 0

# MOE 2024.06 (io_trps.svl 2023.06)
