@<TRIPOS>MOLECULE
2-(5,7-Dimethyl-[1,2,4]triazolo[4,3-a]pyrimidin-3-ylsulfanyl)-N-(2-ethoxy-phenyl)-acetamide
44 46 1 0 0 
SMALL
USER_CHARGES


@<TRIPOS>ATOM
  1 S        0.4870     0.3930     0.2150 S.3   1 <1>  -0.2860 
  2 C       -1.2780     0.7380     0.2780 C.2   1 <1>   0.2420 
  3 C        1.2630     2.0650     0.4930 C.3   1 <1>   0.1310 
  4 N       -1.7320     1.9280     0.4790 N.2   1 <1>  -0.3380 
  5 N       -2.2270    -0.1980     0.1240 N.pl3 1 <1>   0.3340 
  6 C        2.7840     2.0010     0.4760 C.2   1 <1>   0.5690 
  7 N       -3.0590     1.8240     0.4650 N.2   1 <1>  -0.3380 
  8 C       -2.3430    -1.5730    -0.1070 C.2   1 <1>  -0.1690 
  9 C       -3.3500     0.5670     0.2550 C.2   1 <1>   0.3120 
 10 O        3.3890     3.0300     0.6550 O.2   1 <1>  -0.5700 
 11 N        3.3890     0.7940     0.2610 N.am  1 <1>  -0.5470 
 12 C       -3.6010    -2.0750    -0.1880 C.2   1 <1>  -0.1360 
 13 C       -1.0950    -2.4330    -0.2550 C.3   1 <1>  -0.1020 
 14 N       -4.6220     0.0470     0.1710 N.2   1 <1>  -0.5760 
 15 C        4.7270     0.3670     0.1800 C.ar  1 <1>   0.1170 
 16 C       -4.7280    -1.2180    -0.0410 C.2   1 <1>   0.3750 
 17 C        4.9640    -0.9920    -0.0570 C.ar  1 <1>   0.0830 
 18 C        5.8140     1.2220     0.3240 C.ar  1 <1>  -0.1500 
 19 C       -6.1090    -1.8270    -0.1400 C.3   1 <1>  -0.1790 
 20 O        3.8680    -1.7990    -0.1920 O.3   1 <1>  -0.3630 
 21 C        6.2690    -1.4680    -0.1460 C.ar  1 <1>  -0.1500 
 22 C        7.1090     0.7440     0.2350 C.ar  1 <1>  -0.1500 
 23 C        3.9980    -3.1810    -0.4320 C.3   1 <1>   0.1200 
 24 C        7.3370    -0.6000     0.0000 C.ar  1 <1>  -0.1500 
 25 C        2.5950    -3.7730    -0.5270 C.3   1 <1>  -0.2400 
 26 H        0.9170     2.4230     1.4450 H     1 <1>   0.0800 
 27 H        0.9100     2.7140    -0.2860 H     1 <1>   0.0800 
 28 H        2.7440     0.0110     0.1270 H     1 <1>   0.3700 
 29 H       -3.7900    -3.1190    -0.3630 H     1 <1>   0.1500 
 30 H       -0.4990    -2.3840     0.6400 H     1 <1>   0.0800 
 31 H       -0.5040    -2.0940    -1.0880 H     1 <1>   0.0800 
 32 H       -1.3600    -3.4610    -0.4270 H     1 <1>   0.0800 
 33 H        5.6590     2.2690     0.5070 H     1 <1>   0.1500 
 34 H       -6.2370    -2.5710     0.6250 H     1 <1>   0.0800 
 35 H       -6.2410    -2.2810    -1.1050 H     1 <1>   0.0800 
 36 H       -6.8600    -1.0680    -0.0110 H     1 <1>   0.0800 
 37 H        6.4790    -2.5040    -0.3270 H     1 <1>   0.1500 
 38 H        7.9380     1.4210     0.3480 H     1 <1>   0.1500 
 39 H        4.5420    -3.6200     0.3870 H     1 <1>   0.0800 
 40 H        4.5340    -3.3190    -1.3550 H     1 <1>   0.0800 
 41 H        8.3460    -0.9680    -0.0690 H     1 <1>   0.1500 
 42 H        2.0650    -3.6160     0.3950 H     1 <1>   0.0800 
 43 H        2.6600    -4.8300    -0.7110 H     1 <1>   0.0800 
 44 H        2.0560    -3.3160    -1.3380 H     1 <1>   0.0800 
@<TRIPOS>BOND
  1   1   2  1   
  2   1   3  1   
  3   2   4  2   
  4   2   5  1   
  5   3   6  1   
  6   3  26  1   
  7   3  27  1   
  8   4   7  1   
  9   5   8  1   
 10   5   9  1   
 11   6  10  2   
 12   6  11  am  
 13   7   9  2   
 14   8  12  2   
 15   8  13  1   
 16   9  14  1   
 17  11  15  1   
 18  11  28  1   
 19  12  16  1   
 20  12  29  1   
 21  13  30  1   
 22  13  31  1   
 23  13  32  1   
 24  14  16  2   
 25  15  17  ar  
 26  15  18  ar  
 27  16  19  1   
 28  17  20  1   
 29  17  21  ar  
 30  18  22  ar  
 31  18  33  1   
 32  19  34  1   
 33  19  35  1   
 34  19  36  1   
 35  20  23  1   
 36  21  24  ar  
 37  21  37  1   
 38  22  24  ar  
 39  22  38  1   
 40  23  25  1   
 41  23  39  1   
 42  23  40  1   
 43  24  41  1   
 44  25  42  1   
 45  25  43  1   
 46  25  44  1   
@<TRIPOS>SUBSTRUCTURE
  1 ****   1 GROUP 4 **** **** 0

# MOE 2024.06 (io_trps.svl 2023.06)
