@<TRIPOS>MOLECULE
NONAME
47 50 1 0 0 
SMALL
USER_CHARGES


@<TRIPOS>ATOM
  1 F       -0.6930    -0.1630     1.1420 F     1 <1>  -0.1900 
  2 C       -1.8720     0.2460     0.7590 C.ar  1 <1>   0.1900 
  3 C       -2.8890    -0.6800     0.6450 C.ar  1 <1>  -0.1500 
  4 C       -2.0530     1.5870     0.4870 C.ar  1 <1>  -0.1500 
  5 C       -4.1580    -0.2700     0.2350 C.ar  1 <1>   0.0540 
  6 C       -3.3070     2.0090     0.0850 C.ar  1 <1>  -0.1500 
  7 C       -5.2540    -1.2110     0.0960 C.2   1 <1>   0.2350 
  8 C       -4.3380     1.0900    -0.0360 C.ar  1 <1>  -0.1500 
  9 N       -6.5200    -0.8790     0.1800 N.2   1 <1>  -0.7070 
 10 C       -5.1140    -2.5800    -0.1380 C.2   1 <1>  -0.1500 
 11 N       -7.2330    -2.0270    -0.0090 N.pl3 1 <1>   0.5610 
 12 C       -6.3660    -3.0780    -0.1850 C.2   1 <1>  -0.0680 
 13 C       -8.6190    -2.2270     0.0600 C.cat 1 <1>   0.3950 
 14 N       -6.8580    -4.3710    -0.3390 N.pl3 1 <1>  -0.5840 
 15 N       -9.4890    -1.1920     0.2560 N.pl3 1 <1>  -0.0920 
 16 C       -9.0510    -3.5630    -0.0760 C.2   1 <1>  -0.1360 
 17 C       -8.1780    -4.6070    -0.2750 C.2   1 <1>  -0.0380 
 18 C       -9.2280     0.2410    -0.1350 C.3   1 <1>   0.1860 
 19 C      -10.8150    -1.3610     0.9430 C.3   1 <1>   0.1860 
 20 C       -8.6360    -6.0440    -0.4360 C.3   1 <1>  -0.1020 
 21 C      -10.3880     0.8140    -0.9590 C.3   1 <1>   0.1400 
 22 C      -11.9700    -0.8190     0.0900 C.3   1 <1>   0.1400 
 23 N      -11.6890     0.5990    -0.2600 N.am  1 <1>  -0.6600 
 24 C      -12.4880     1.6690     0.0620 C.2   1 <1>   0.5690 
 25 O      -12.1140     2.8020    -0.0990 O.2   1 <1>  -0.5700 
 26 C      -13.8670     1.4660     0.6460 C.3   1 <1>  -0.1790 
 27 H       -2.6840    -1.7070     0.8810 H     1 <1>   0.1500 
 28 H       -1.2340     2.2770     0.5890 H     1 <1>   0.1500 
 29 H       -3.4820     3.0490    -0.1330 H     1 <1>   0.1500 
 30 H       -5.3070     1.4340    -0.3500 H     1 <1>   0.1500 
 31 H       -4.1880    -3.1130    -0.2500 H     1 <1>   0.1500 
 32 H       -6.1860    -5.1400    -0.4860 H     1 <1>   0.4000 
 33 H      -10.0980    -3.7970    -0.0510 H     1 <1>   0.1500 
 34 H       -8.3510     0.3270    -0.7470 H     1 <1>   0.0800 
 35 H       -9.0820     0.8370     0.7490 H     1 <1>   0.0800 
 36 H      -10.7920    -0.8110     1.8680 H     1 <1>   0.0800 
 37 H      -11.0040    -2.3860     1.1960 H     1 <1>   0.0800 
 38 H       -8.3240    -6.4250    -1.3930 H     1 <1>   0.0800 
 39 H       -9.7060    -6.1230    -0.3730 H     1 <1>   0.0800 
 40 H       -8.2050    -6.6570     0.3350 H     1 <1>   0.0800 
 41 H      -10.4230     0.3390    -1.9250 H     1 <1>   0.0800 
 42 H      -10.2100     1.8630    -1.1290 H     1 <1>   0.0800 
 43 H      -12.8880    -0.9050     0.6440 H     1 <1>   0.0800 
 44 H      -12.0760    -1.3980    -0.8120 H     1 <1>   0.0800 
 45 H      -13.7920     1.0660     1.6390 H     1 <1>   0.0800 
 46 H      -14.4400     0.8060     0.0240 H     1 <1>   0.0800 
 47 H      -14.3770     2.4110     0.6970 H     1 <1>   0.0800 
@<TRIPOS>BOND
  1   1   2  1   
  2   2   3  ar  
  3   2   4  ar  
  4   3   5  ar  
  5   3  27  1   
  6   4   6  ar  
  7   4  28  1   
  8   5   7  1   
  9   5   8  ar  
 10   6   8  ar  
 11   6  29  1   
 12   7   9  2   
 13   7  10  1   
 14   8  30  1   
 15   9  11  1   
 16  10  12  2   
 17  10  31  1   
 18  11  12  1   
 19  11  13  ar  
 20  12  14  1   
 21  13  15  ar  
 22  13  16  1   
 23  14  17  1   
 24  14  32  1   
 25  15  18  1   
 26  15  19  1   
 27  16  17  2   
 28  16  33  1   
 29  17  20  1   
 30  18  21  1   
 31  18  34  1   
 32  18  35  1   
 33  19  22  1   
 34  19  36  1   
 35  19  37  1   
 36  20  38  1   
 37  20  39  1   
 38  20  40  1   
 39  21  23  1   
 40  21  41  1   
 41  21  42  1   
 42  22  23  1   
 43  22  43  1   
 44  22  44  1   
 45  23  24  am  
 46  24  25  2   
 47  24  26  1   
 48  26  45  1   
 49  26  46  1   
 50  26  47  1   
@<TRIPOS>SUBSTRUCTURE
  1 ****   9 GROUP 4 **** **** 0

# MOE 2024.06 (io_trps.svl 2023.06)
