@<TRIPOS>MOLECULE
4-(2,3-Dihydro-benzo[1,4]dioxine-6-carbonyl)-piperidine-1-carboxylic acid adamantan-1-ylamide
63 68 1 0 0 
SMALL
USER_CHARGES


@<TRIPOS>ATOM
  1 O       -0.7430     1.1160     1.4960 O.2   1 <1>  -0.5700 
  2 C       -1.0440     2.0070     0.7240 C.2   1 <1>   0.6900 
  3 N       -2.3550     2.3690     0.5630 N.am  1 <1>  -0.6600 
  4 N       -0.1030     2.6460    -0.0120 N.am  1 <1>  -0.7300 
  5 C       -2.7940     3.7270     0.1460 C.3   1 <1>   0.1400 
  6 C       -3.4520     1.4590     0.9840 C.3   1 <1>   0.1400 
  7 C        1.3480     2.4100    -0.0660 C.3   1 <1>   0.3000 
  8 C       -3.7980     3.6060    -1.0020 C.3   1 <1>  -0.1600 
  9 C       -4.4740     1.3320    -0.1510 C.3   1 <1>  -0.1600 
 10 C        1.9980     2.6360     1.3130 C.3   1 <1>  -0.1600 
 11 C        1.9410     3.4240    -1.0630 C.3   1 <1>  -0.1600 
 12 C        1.6560     0.9860    -0.5650 C.3   1 <1>  -0.1600 
 13 C       -4.9910     2.7080    -0.6140 C.3   1 <1>  -0.0190 
 14 C        3.5240     2.4360     1.2150 C.3   1 <1>  -0.0800 
 15 C        3.4660     3.2380    -1.1770 C.3   1 <1>  -0.0800 
 16 C        3.1810     0.7820    -0.6680 C.3   1 <1>  -0.0800 
 17 C       -6.0050     2.5570    -1.7560 C.2   1 <1>   0.4230 
 18 C        4.1040     3.4480     0.2090 C.3   1 <1>  -0.1600 
 19 C        3.8150     1.0060     0.7200 C.3   1 <1>  -0.1600 
 20 C        3.7640     1.8050    -1.6600 C.3   1 <1>  -0.1600 
 21 O       -5.5730     2.5020    -2.8820 O.2   1 <1>  -0.5700 
 22 C       -7.4260     2.4950    -1.4740 C.ar  1 <1>   0.0860 
 23 C       -7.9480     2.2040    -0.2070 C.ar  1 <1>  -0.1500 
 24 C       -8.3500     2.7250    -2.5000 C.ar  1 <1>  -0.1500 
 25 C       -9.3090     2.1620     0.0210 C.ar  1 <1>   0.0820 
 26 C       -9.7160     2.6890    -2.2820 C.ar  1 <1>  -0.1500 
 27 O       -9.7520     1.8610     1.2680 O.3   1 <1>  -0.3620 
 28 C      -10.2050     2.4170    -1.0180 C.ar  1 <1>   0.0820 
 29 C      -11.1150     1.4970     1.3920 C.3   1 <1>   0.1200 
 30 O      -11.5410     2.4070    -0.8120 O.3   1 <1>  -0.3630 
 31 C      -11.9950     2.4120     0.5280 C.3   1 <1>   0.1200 
 32 H       -0.4610     3.1640    -0.8060 H     1 <1>   0.3700 
 33 H       -1.9560     4.3290    -0.1590 H     1 <1>   0.0800 
 34 H       -3.2580     4.2130     0.9870 H     1 <1>   0.0800 
 35 H       -3.9190     1.8570     1.8680 H     1 <1>   0.0800 
 36 H       -3.0600     0.4840     1.2210 H     1 <1>   0.0800 
 37 H       -3.2920     3.1970    -1.8600 H     1 <1>   0.0800 
 38 H       -4.1540     4.5850    -1.2700 H     1 <1>   0.0800 
 39 H       -5.2910     0.7190     0.1820 H     1 <1>   0.0800 
 40 H       -4.0070     0.8260    -0.9790 H     1 <1>   0.0800 
 41 H        1.6010     1.9360     2.0270 H     1 <1>   0.0800 
 42 H        1.7810     3.6290     1.6620 H     1 <1>   0.0800 
 43 H        1.7300     4.4250    -0.7310 H     1 <1>   0.0800 
 44 H        1.4950     3.2860    -2.0320 H     1 <1>   0.0800 
 45 H        1.2020     0.8280    -1.5260 H     1 <1>   0.0800 
 46 H        1.2520     0.2620     0.1200 H     1 <1>   0.0800 
 47 H       -5.4780     3.1880     0.2150 H     1 <1>   0.0800 
 48 H        3.9720     2.5850     2.1830 H     1 <1>   0.0800 
 49 H        3.8710     3.9500    -1.8760 H     1 <1>   0.0800 
 50 H        3.3910    -0.2180    -1.0070 H     1 <1>   0.0800 
 51 H        5.1710     3.3220     0.1420 H     1 <1>   0.0800 
 52 H        3.9150     4.4500     0.5510 H     1 <1>   0.0800 
 53 H        3.4160     0.2920     1.4200 H     1 <1>   0.0800 
 54 H        4.8780     0.8490     0.6640 H     1 <1>   0.0800 
 55 H        4.8270     1.6630    -1.7460 H     1 <1>   0.0800 
 56 H        3.3340     1.6520    -2.6350 H     1 <1>   0.0800 
 57 H       -7.3050     1.9940     0.6250 H     1 <1>   0.1500 
 58 H       -7.9850     2.9370    -3.4910 H     1 <1>   0.1500 
 59 H      -10.4070     2.8740    -3.0850 H     1 <1>   0.1500 
 60 H      -11.3860     1.5740     2.4300 H     1 <1>   0.0800 
 61 H      -11.2180     0.4740     1.0760 H     1 <1>   0.0800 
 62 H      -11.9520     3.4240     0.8920 H     1 <1>   0.0800 
 63 H      -13.0160     2.0780     0.5340 H     1 <1>   0.0800 
@<TRIPOS>BOND
  1   1   2  2   
  2   2   3  am  
  3   2   4  am  
  4   3   5  1   
  5   3   6  1   
  6   4   7  1   
  7   4  32  1   
  8   5   8  1   
  9   5  33  1   
 10   5  34  1   
 11   6   9  1   
 12   6  35  1   
 13   6  36  1   
 14   7  10  1   
 15   7  11  1   
 16   7  12  1   
 17   8  13  1   
 18   8  37  1   
 19   8  38  1   
 20   9  13  1   
 21   9  39  1   
 22   9  40  1   
 23  10  14  1   
 24  10  41  1   
 25  10  42  1   
 26  11  15  1   
 27  11  43  1   
 28  11  44  1   
 29  12  16  1   
 30  12  45  1   
 31  12  46  1   
 32  13  17  1   
 33  13  47  1   
 34  14  18  1   
 35  14  19  1   
 36  14  48  1   
 37  15  18  1   
 38  15  20  1   
 39  15  49  1   
 40  16  19  1   
 41  16  20  1   
 42  16  50  1   
 43  17  21  2   
 44  17  22  1   
 45  18  51  1   
 46  18  52  1   
 47  19  53  1   
 48  19  54  1   
 49  20  55  1   
 50  20  56  1   
 51  22  23  ar  
 52  22  24  ar  
 53  23  25  ar  
 54  23  57  1   
 55  24  26  ar  
 56  24  58  1   
 57  25  27  1   
 58  25  28  ar  
 59  26  28  ar  
 60  26  59  1   
 61  27  29  1   
 62  28  30  1   
 63  29  31  1   
 64  29  60  1   
 65  29  61  1   
 66  30  31  1   
 67  31  62  1   
 68  31  63  1   
@<TRIPOS>SUBSTRUCTURE
  1 ****   3 GROUP 4 **** **** 0

# MOE 2024.06 (io_trps.svl 2023.06)
