@<TRIPOS>MOLECULE
4-(2,3-Dihydro-benzo[1,4]dioxine-6-carbonyl)-piperidine-1-carboxylic acid propylamide
48 50 1 0 0 
SMALL
USER_CHARGES


@<TRIPOS>ATOM
  1 O       -0.7130    -0.0400    -0.9420 O.2   1 <1>  -0.5700 
  2 C       -1.3430     0.9370    -0.5800 C.2   1 <1>   0.6900 
  3 N       -2.7080     0.8970    -0.4860 N.am  1 <1>  -0.6600 
  4 N       -0.6910     2.0760    -0.2440 N.am  1 <1>  -0.7300 
  5 C       -3.4270    -0.4050    -0.4710 C.3   1 <1>   0.1400 
  6 C       -3.5760     2.0950    -0.6320 C.3   1 <1>   0.1400 
  7 C        0.7750     2.2390    -0.2550 C.3   1 <1>   0.1400 
  8 C       -4.4830    -0.3970     0.6390 C.3   1 <1>  -0.1600 
  9 C       -4.6260     2.1120     0.4820 C.3   1 <1>  -0.1600 
 10 C        1.1130     3.6930    -0.5840 C.3   1 <1>  -0.1600 
 11 C       -5.4400     0.8040     0.5050 C.3   1 <1>  -0.0190 
 12 C        2.6290     3.9200    -0.6110 C.3   1 <1>  -0.2400 
 13 C       -6.4970     0.8370     1.6170 C.2   1 <1>   0.4230 
 14 O       -6.1480     0.5400     2.7320 O.2   1 <1>  -0.5700 
 15 C       -7.8630     1.2140     1.3130 C.ar  1 <1>   0.0860 
 16 C       -8.2220     1.9490     0.1760 C.ar  1 <1>  -0.1500 
 17 C       -8.8980     0.8460     2.1800 C.ar  1 <1>  -0.1500 
 18 C       -9.5370     2.2800    -0.0840 C.ar  1 <1>   0.0820 
 19 C      -10.2180     1.1790     1.9330 C.ar  1 <1>  -0.1500 
 20 O       -9.8220     2.9730    -1.2150 O.3   1 <1>  -0.3620 
 21 C      -10.5460     1.9020     0.8020 C.ar  1 <1>   0.0820 
 22 C      -11.1790     3.0080    -1.6210 C.3   1 <1>   0.1200 
 23 O      -11.8370     2.2360     0.5790 O.3   1 <1>  -0.3630 
 24 C      -12.0950     3.2180    -0.4060 C.3   1 <1>   0.1200 
 25 H       -1.2140     2.7460     0.3110 H     1 <1>   0.3700 
 26 H       -2.7350    -1.2130    -0.2980 H     1 <1>   0.0800 
 27 H       -3.8910    -0.5610    -1.4290 H     1 <1>   0.0800 
 28 H       -4.0630     2.0510    -1.5920 H     1 <1>   0.0800 
 29 H       -2.9960     3.0000    -0.6010 H     1 <1>   0.0800 
 30 H        1.2070     1.5840    -0.9940 H     1 <1>   0.0800 
 31 H        1.1690     1.9710     0.7100 H     1 <1>   0.0800 
 32 H       -3.9780    -0.3640     1.5890 H     1 <1>   0.0800 
 33 H       -5.0430    -1.3150     0.6020 H     1 <1>   0.0800 
 34 H       -5.2800     2.9520     0.3370 H     1 <1>   0.0800 
 35 H       -4.1300     2.2440     1.4290 H     1 <1>   0.0800 
 36 H        0.6750     4.3410     0.1550 H     1 <1>   0.0800 
 37 H        0.7040     3.9410    -1.5490 H     1 <1>   0.0800 
 38 H       -5.9380     0.6920    -0.4400 H     1 <1>   0.0800 
 39 H        3.0620     3.6920     0.3480 H     1 <1>   0.0800 
 40 H        2.8440     4.9470    -0.8480 H     1 <1>   0.0800 
 41 H        3.0890     3.2940    -1.3560 H     1 <1>   0.0800 
 42 H       -7.4830     2.2830    -0.5260 H     1 <1>   0.1500 
 43 H       -8.6570     0.2860     3.0680 H     1 <1>   0.1500 
 44 H      -10.9970     0.8850     2.6150 H     1 <1>   0.1500 
 45 H      -11.4080     2.0750    -2.1030 H     1 <1>   0.0800 
 46 H      -11.2930     3.8090    -2.3280 H     1 <1>   0.0800 
 47 H      -13.1290     3.1410    -0.6890 H     1 <1>   0.0800 
 48 H      -11.9190     4.1850     0.0320 H     1 <1>   0.0800 
@<TRIPOS>BOND
  1   1   2  2   
  2   2   3  am  
  3   2   4  am  
  4   3   5  1   
  5   3   6  1   
  6   4   7  1   
  7   4  25  1   
  8   5   8  1   
  9   5  26  1   
 10   5  27  1   
 11   6   9  1   
 12   6  28  1   
 13   6  29  1   
 14   7  10  1   
 15   7  30  1   
 16   7  31  1   
 17   8  11  1   
 18   8  32  1   
 19   8  33  1   
 20   9  11  1   
 21   9  34  1   
 22   9  35  1   
 23  10  12  1   
 24  10  36  1   
 25  10  37  1   
 26  11  13  1   
 27  11  38  1   
 28  12  39  1   
 29  12  40  1   
 30  12  41  1   
 31  13  14  2   
 32  13  15  1   
 33  15  16  ar  
 34  15  17  ar  
 35  16  18  ar  
 36  16  42  1   
 37  17  19  ar  
 38  17  43  1   
 39  18  20  1   
 40  18  21  ar  
 41  19  21  ar  
 42  19  44  1   
 43  20  22  1   
 44  21  23  1   
 45  22  24  1   
 46  22  45  1   
 47  22  46  1   
 48  23  24  1   
 49  24  47  1   
 50  24  48  1   
@<TRIPOS>SUBSTRUCTURE
  1 ****  11 GROUP 4 **** **** 0

# MOE 2024.06 (io_trps.svl 2023.06)
