@<TRIPOS>MOLECULE
3-(2-Cyclopropanecarbonyl-6,7-dimethoxy-1,2,3,4-tetrahydro-isoquinolin-1-yl)-6,7-dimethyl-1H-quinolin-2-one
60 64 1 0 0 
SMALL
USER_CHARGES


@<TRIPOS>ATOM
  1 O       -0.0730     1.9530    -2.9910 O.2   1 <1>  -0.5700 
  2 C        0.4180     2.4850    -2.0110 C.2   1 <1>   0.6160 
  3 N        1.7750     2.5940    -1.9750 N.am  1 <1>  -0.5470 
  4 C       -0.3310     2.9550    -0.8840 C.2   1 <1>  -0.1240 
  5 C        2.4740     3.0960    -0.8840 C.ar  1 <1>   0.1170 
  6 C        0.3240     3.4520     0.2000 C.2   1 <1>  -0.1780 
  7 C       -1.8540     2.8620    -1.0010 C.3   1 <1>   0.5020 
  8 C        1.7540     3.5300     0.2360 C.ar  1 <1>   0.0280 
  9 C        3.8630     3.1700    -0.8830 C.ar  1 <1>  -0.1500 
 10 N       -2.4770     4.1280    -0.4890 N.am  1 <1>  -0.6600 
 11 C       -2.4040     1.5980    -0.3080 C.ar  1 <1>  -0.1430 
 12 C        2.4610     4.0230     1.3320 C.ar  1 <1>  -0.1500 
 13 C        4.5510     3.6620     0.2080 C.ar  1 <1>  -0.1430 
 14 C       -2.5100     5.2170    -1.3160 C.2   1 <1>   0.6300 
 15 C       -3.0570     4.0920     0.8830 C.3   1 <1>   0.1400 
 16 C       -3.4450     1.6510     0.6120 C.ar  1 <1>  -0.1430 
 17 C       -1.8600     0.3570    -0.6180 C.ar  1 <1>  -0.1500 
 18 C        3.8400     4.0930     1.3300 C.ar  1 <1>  -0.1440 
 19 C        6.0720     3.7250     0.1630 C.3   1 <1>  -0.0970 
 20 O       -2.0010     5.2010    -2.4110 O.2   1 <1>  -0.5700 
 21 C       -3.1950     6.5080    -0.8750 C.3   1 <1>  -0.1000 
 22 C       -4.0890     2.9760     0.9700 C.3   1 <1>  -0.0170 
 23 C       -3.9100     0.4890     1.2040 C.ar  1 <1>  -0.1500 
 24 C       -2.3100    -0.8190    -0.0220 C.ar  1 <1>   0.0830 
 25 C        4.5580     4.6420     2.5550 C.3   1 <1>  -0.0970 
 26 C       -4.6920     6.5970    -0.7620 C.3   1 <1>  -0.2000 
 27 C       -3.9820     7.3390    -1.8490 C.3   1 <1>  -0.2000 
 28 C       -3.3640    -0.7460     0.9020 C.ar  1 <1>   0.0830 
 29 O       -1.7340    -2.0230    -0.3140 O.3   1 <1>  -0.3630 
 30 O       -3.9330    -1.7950     1.5620 O.3   1 <1>  -0.3620 
 31 C       -0.5850    -2.1320    -1.1270 C.3   1 <1>   0.0400 
 32 C       -3.9410    -3.0970     1.0210 C.3   1 <1>   0.0400 
 33 H        2.2590     2.2820    -2.8140 H     1 <1>   0.3700 
 34 H       -0.1950     3.8080     1.0670 H     1 <1>   0.1500 
 35 H       -2.1210     2.7790    -2.0420 H     1 <1>   0.0800 
 36 H        4.3970     2.8350    -1.7530 H     1 <1>   0.1500 
 37 H        1.9060     4.3540     2.1900 H     1 <1>   0.1500 
 38 H       -3.5200     5.0270     1.1410 H     1 <1>   0.0800 
 39 H       -2.2780     3.9030     1.5990 H     1 <1>   0.0800 
 40 H       -1.0740     0.3170    -1.3440 H     1 <1>   0.1500 
 41 H        6.4470     3.3530    -0.7730 H     1 <1>   0.0800 
 42 H        6.4900     3.1280     0.9540 H     1 <1>   0.0800 
 43 H        6.4030     4.7410     0.2780 H     1 <1>   0.0800 
 44 H       -2.5940     7.0480    -0.1670 H     1 <1>   0.1000 
 45 H       -4.9030     3.1790     0.2970 H     1 <1>   0.0800 
 46 H       -4.4810     2.9380     1.9710 H     1 <1>   0.0800 
 47 H       -4.7160     0.5250     1.9150 H     1 <1>   0.1500 
 48 H        3.8570     4.9260     3.3190 H     1 <1>   0.0800 
 49 H        5.1340     5.5090     2.2880 H     1 <1>   0.0800 
 50 H        5.2160     3.8950     2.9630 H     1 <1>   0.0800 
 51 H       -5.1220     7.1600     0.0490 H     1 <1>   0.1000 
 52 H       -5.2890     5.7440    -1.0370 H     1 <1>   0.1000 
 53 H       -4.0660     6.9880    -2.8640 H     1 <1>   0.1000 
 54 H       -3.9040     8.4100    -1.7890 H     1 <1>   0.1000 
 55 H       -0.2910    -3.1650    -1.1540 H     1 <1>   0.0800 
 56 H        0.2040    -1.5390    -0.6980 H     1 <1>   0.0800 
 57 H       -0.8250    -1.7950    -2.1200 H     1 <1>   0.0800 
 58 H       -4.6930    -3.6680     1.5340 H     1 <1>   0.0800 
 59 H       -2.9760    -3.5440     1.1780 H     1 <1>   0.0800 
 60 H       -4.1710    -3.0400    -0.0280 H     1 <1>   0.0800 
@<TRIPOS>BOND
  1   1   2  2   
  2   2   3  am  
  3   2   4  1   
  4   3   5  1   
  5   3  33  1   
  6   4   6  2   
  7   4   7  1   
  8   5   8  ar  
  9   5   9  ar  
 10   6   8  1   
 11   6  34  1   
 12   7  10  1   
 13   7  11  1   
 14   7  35  1   
 15   8  12  ar  
 16   9  13  ar  
 17   9  36  1   
 18  10  14  am  
 19  10  15  1   
 20  11  16  ar  
 21  11  17  ar  
 22  12  18  ar  
 23  12  37  1   
 24  13  18  ar  
 25  13  19  1   
 26  14  20  2   
 27  14  21  1   
 28  15  22  1   
 29  15  38  1   
 30  15  39  1   
 31  16  22  1   
 32  16  23  ar  
 33  17  24  ar  
 34  17  40  1   
 35  18  25  1   
 36  19  41  1   
 37  19  42  1   
 38  19  43  1   
 39  21  26  1   
 40  21  27  1   
 41  21  44  1   
 42  22  45  1   
 43  22  46  1   
 44  23  28  ar  
 45  23  47  1   
 46  24  28  ar  
 47  24  29  1   
 48  25  48  1   
 49  25  49  1   
 50  25  50  1   
 51  26  27  1   
 52  26  51  1   
 53  26  52  1   
 54  27  53  1   
 55  27  54  1   
 56  28  30  1   
 57  29  31  1   
 58  30  32  1   
 59  31  55  1   
 60  31  56  1   
 61  31  57  1   
 62  32  58  1   
 63  32  59  1   
 64  32  60  1   
@<TRIPOS>SUBSTRUCTURE
  1 ****   4 GROUP 4 **** **** 0

# MOE 2024.06 (io_trps.svl 2023.06)
