@<TRIPOS>MOLECULE
Pyrrolidine-1,2-dicarboxylic acid 1-[(4-fluoro-phenyl)-amide] 2-[(5-isopropyl-[1,3,4]thiadiazol-2-yl)-amide]
46 48 1 0 0 
SMALL
USER_CHARGES


@<TRIPOS>ATOM
  1 S       -1.2370     1.5670     0.3140 S.3   1 <1>  -0.0800 
  2 C        0.2560     2.0170    -0.4390 C.2   1 <1>   0.4420 
  3 C       -0.8880    -0.0700    -0.1340 C.2   1 <1>   0.1980 
  4 N        0.8710     1.0070    -0.9390 N.2   1 <1>  -0.3380 
  5 N        0.5780     3.3550    -0.4140 N.am  1 <1>  -0.4940 
  6 N        0.2130    -0.1790    -0.7610 N.2   1 <1>  -0.3380 
  7 C       -1.8720    -1.1730     0.2410 C.3   1 <1>   0.1000 
  8 C        1.7060     4.0060    -0.8240 C.2   1 <1>   0.5690 
  9 C       -3.2380    -0.9580    -0.4230 C.3   1 <1>  -0.2400 
 10 C       -2.0260    -1.2960     1.7630 C.3   1 <1>  -0.2400 
 11 O        2.6920     3.4200    -1.2000 O.2   1 <1>  -0.5700 
 12 C        1.7310     5.5530    -0.7690 C.3   1 <1>   0.2810 
 13 N        0.3990     6.2420    -0.8920 N.am  1 <1>  -0.6600 
 14 C        2.5760     6.1690    -1.9010 C.3   1 <1>  -0.1600 
 15 C       -0.4610     6.3610     0.1680 C.2   1 <1>   0.6900 
 16 C        0.3670     7.0780    -2.1150 C.3   1 <1>   0.1400 
 17 C        1.8270     7.4160    -2.3630 C.3   1 <1>  -0.1600 
 18 O       -0.5460     5.4580     0.9740 O.2   1 <1>  -0.5700 
 19 N       -1.2650     7.4400     0.3600 N.am  1 <1>  -0.5470 
 20 C       -0.9530     8.8010     0.2820 C.ar  1 <1>   0.1170 
 21 C       -1.9680     9.7180     0.0210 C.ar  1 <1>  -0.1500 
 22 C        0.3490     9.2620     0.4710 C.ar  1 <1>  -0.1500 
 23 C       -1.6930    11.0720    -0.0650 C.ar  1 <1>  -0.1500 
 24 C        0.6400    10.6120     0.3870 C.ar  1 <1>  -0.1500 
 25 C       -0.3890    11.4930     0.1190 C.ar  1 <1>   0.1900 
 26 F       -0.1210    12.7700     0.0360 F     1 <1>  -0.1900 
 27 H       -0.1120     3.9670     0.0330 H     1 <1>   0.3700 
 28 H       -1.4660    -2.1000    -0.1270 H     1 <1>   0.0800 
 29 H       -3.7050    -0.0600    -0.0600 H     1 <1>   0.0800 
 30 H       -3.8880    -1.7900    -0.2180 H     1 <1>   0.0800 
 31 H       -3.1170    -0.8750    -1.4890 H     1 <1>   0.0800 
 32 H       -2.4640    -0.4050     2.1780 H     1 <1>   0.0800 
 33 H       -1.0620    -1.4480     2.2170 H     1 <1>   0.0800 
 34 H       -2.6540    -2.1340     2.0080 H     1 <1>   0.0800 
 35 H        2.1620     5.8340     0.1750 H     1 <1>   0.0800 
 36 H        2.6390     5.4770    -2.7230 H     1 <1>   0.0800 
 37 H        3.5750     6.3880    -1.5690 H     1 <1>   0.0800 
 38 H       -0.2330     7.9630    -2.0090 H     1 <1>   0.0800 
 39 H       -0.0200     6.4870    -2.9280 H     1 <1>   0.0800 
 40 H        2.0140     7.6450    -3.3970 H     1 <1>   0.0800 
 41 H        2.1040     8.2620    -1.7590 H     1 <1>   0.0800 
 42 H       -2.0310     7.2120     0.9910 H     1 <1>   0.3700 
 43 H       -2.9760     9.3690    -0.1220 H     1 <1>   0.1500 
 44 H        1.1360     8.5620     0.6870 H     1 <1>   0.1500 
 45 H       -2.4670    11.7900    -0.2690 H     1 <1>   0.1500 
 46 H        1.6410    10.9800     0.5290 H     1 <1>   0.1500 
@<TRIPOS>BOND
  1   1   2  1   
  2   1   3  1   
  3   2   4  2   
  4   2   5  1   
  5   3   6  2   
  6   3   7  1   
  7   4   6  1   
  8   5   8  am  
  9   5  27  1   
 10   7   9  1   
 11   7  10  1   
 12   7  28  1   
 13   8  11  2   
 14   8  12  1   
 15   9  29  1   
 16   9  30  1   
 17   9  31  1   
 18  10  32  1   
 19  10  33  1   
 20  10  34  1   
 21  12  13  1   
 22  12  14  1   
 23  12  35  1   
 24  13  15  am  
 25  13  16  1   
 26  14  17  1   
 27  14  36  1   
 28  14  37  1   
 29  15  18  2   
 30  15  19  am  
 31  16  17  1   
 32  16  38  1   
 33  16  39  1   
 34  17  40  1   
 35  17  41  1   
 36  19  20  1   
 37  19  42  1   
 38  20  21  ar  
 39  20  22  ar  
 40  21  23  ar  
 41  21  43  1   
 42  22  24  ar  
 43  22  44  1   
 44  23  25  ar  
 45  23  45  1   
 46  24  25  ar  
 47  24  46  1   
 48  25  26  1   
@<TRIPOS>SUBSTRUCTURE
  1 ****  13 GROUP 4 **** **** 0

# MOE 2024.06 (io_trps.svl 2023.06)
