@<TRIPOS>MOLECULE
NONAME
30 32 1 0 0 
SMALL
USER_CHARGES


@<TRIPOS>ATOM
  1 S        0.1630    -0.0080    -1.0470 S.3   1 <1>  -0.0800 
  2 C       -1.3510     0.7530    -0.6140 C.2   1 <1>   0.1240 
  3 C        0.9740     1.5590    -1.0320 C.2   1 <1>   0.1240 
  4 N       -2.5720     0.1140    -0.4210 N.pl3 1 <1>  -0.8220 
  5 C       -1.2190     2.0800    -0.4770 C.2   1 <1>  -0.1810 
  6 N        2.3090     1.5610    -1.3300 N.pl3 1 <1>  -0.8840 
  7 C        0.1160     2.5850    -0.7120 C.2   1 <1>  -0.0860 
  8 C       -3.0340     0.4420     0.9670 C.3   1 <1>   0.2090 
  9 C       -3.5560     0.7340    -1.3670 C.3   1 <1>   0.2090 
 10 C       -2.5570     2.7120    -0.0990 C.3   1 <1>   0.1010 
 11 C        0.5190     3.9600    -0.6300 C.2   1 <1>   0.8060 
 12 C       -3.0130     1.9830     1.1880 C.3   1 <1>  -0.1600 
 13 C       -3.5480     2.2830    -1.2080 C.3   1 <1>  -0.1600 
 14 O        1.6580     4.3500    -0.8360 O.2   1 <1>  -0.5700 
 15 O       -0.4000     4.8830    -0.3090 O.3   1 <1>  -0.4300 
 16 C       -0.0770     6.2570    -0.2090 C.3   1 <1>   0.0400 
 17 H        2.8460     2.4390    -1.3410 H     1 <1>   0.4000 
 18 H        2.8270     0.7070    -1.5530 H     1 <1>   0.4000 
 19 H       -4.0270     0.0530     1.1190 H     1 <1>   0.0800 
 20 H       -2.3780    -0.0390     1.6740 H     1 <1>   0.0800 
 21 H       -4.5390     0.3400    -1.1750 H     1 <1>   0.0800 
 22 H       -3.2820     0.4670    -2.3750 H     1 <1>   0.0800 
 23 H       -2.5320     3.7770     0.0280 H     1 <1>   0.0800 
 24 H       -2.3320     2.2120     1.9880 H     1 <1>   0.0800 
 25 H       -3.9890     2.3200     1.4850 H     1 <1>   0.0800 
 26 H       -4.5400     2.6280    -0.9800 H     1 <1>   0.0800 
 27 H       -3.2540     2.7290    -2.1410 H     1 <1>   0.0800 
 28 H       -0.9660     6.7990     0.0580 H     1 <1>   0.0800 
 29 H        0.2930     6.5990    -1.1600 H     1 <1>   0.0800 
 30 H        0.6760     6.3840     0.5500 H     1 <1>   0.0800 
@<TRIPOS>BOND
  1   1   2  1   
  2   1   3  1   
  3   2   4  1   
  4   2   5  2   
  5   3   6  1   
  6   3   7  2   
  7   4   8  1   
  8   4   9  1   
  9   5   7  1   
 10   5  10  1   
 11   6  17  1   
 12   6  18  1   
 13   7  11  1   
 14   8  12  1   
 15   8  19  1   
 16   8  20  1   
 17   9  13  1   
 18   9  21  1   
 19   9  22  1   
 20  10  12  1   
 21  10  13  1   
 22  10  23  1   
 23  11  14  2   
 24  11  15  1   
 25  12  24  1   
 26  12  25  1   
 27  13  26  1   
 28  13  27  1   
 29  15  16  1   
 30  16  28  1   
 31  16  29  1   
 32  16  30  1   
@<TRIPOS>SUBSTRUCTURE
  1 ****   5 GROUP 4 **** **** 0

# MOE 2024.06 (io_trps.svl 2023.06)
