@<TRIPOS>MOLECULE
NONAME
42 42 1 0 0 
SMALL
USER_CHARGES


@<TRIPOS>ATOM
  1 O       -0.6360    -1.9510     1.7760 O.2   1 <1>  -0.5700 
  2 C       -0.8240    -1.8260     0.5870 C.2   1 <1>   0.5690 
  3 N        0.1880    -1.8290    -0.3130 N.am  1 <1>  -0.7300 
  4 C       -2.2490    -1.6560     0.0590 C.3   1 <1>  -0.0190 
  5 C        1.6360    -1.8810    -0.0420 C.3   1 <1>   0.1140 
  6 C       -2.8890    -0.3270     0.5300 C.3   1 <1>  -0.0800 
  7 C       -3.1220    -2.8630     0.4570 C.3   1 <1>  -0.1600 
  8 C        2.4350    -1.2320    -1.2140 C.2   1 <1>   0.9060 
  9 C        2.0460    -3.3460     0.2780 C.3   1 <1>  -0.0800 
 10 C       -4.3360    -0.2030     0.0210 C.3   1 <1>  -0.1600 
 11 C       -2.0750     0.8920     0.0680 C.3   1 <1>  -0.2400 
 12 C       -4.5600    -2.7210    -0.0580 C.3   1 <1>  -0.1600 
 13 O        1.8690    -1.2040    -2.3370 O.co2 1 <1>  -0.9000 
 14 O        3.5620    -0.7430    -0.9690 O.co2 1 <1>  -0.9000 
 15 C        3.5280    -3.4090     0.7120 C.3   1 <1>  -0.1600 
 16 C        1.8210    -4.2870    -0.9260 C.3   1 <1>  -0.2400 
 17 C       -5.1890    -1.4120     0.4300 C.3   1 <1>  -0.1600 
 18 C        3.9550    -4.7660     1.2930 C.3   1 <1>  -0.2400 
 19 H        0.0130    -1.6380    -1.2940 H     1 <1>   0.3700 
 20 H       -2.1980    -1.6340    -1.0150 H     1 <1>   0.0800 
 21 H        1.8410    -1.2720     0.8370 H     1 <1>   0.0800 
 22 H       -2.9070    -0.3280     1.6070 H     1 <1>   0.0800 
 23 H       -3.1360    -2.9500     1.5300 H     1 <1>   0.0800 
 24 H       -2.6840    -3.7640     0.0630 H     1 <1>   0.0800 
 25 H        1.4270    -3.6860     1.1100 H     1 <1>   0.0800 
 26 H       -4.3330    -0.1220    -1.0530 H     1 <1>   0.0800 
 27 H       -4.7820     0.6920     0.4170 H     1 <1>   0.0800 
 28 H       -1.9890     0.9090    -1.0050 H     1 <1>   0.0800 
 29 H       -1.0840     0.8680     0.4870 H     1 <1>   0.0800 
 30 H       -2.5480     1.8020     0.3900 H     1 <1>   0.0800 
 31 H       -5.1490    -3.5540     0.2850 H     1 <1>   0.0800 
 32 H       -4.5580    -2.7380    -1.1350 H     1 <1>   0.0800 
 33 H        3.6950    -2.6460     1.4740 H     1 <1>   0.0800 
 34 H        4.1710    -3.1670    -0.1360 H     1 <1>   0.0800 
 35 H        2.4770    -4.0040    -1.7510 H     1 <1>   0.0800 
 36 H        0.7880    -4.2150    -1.2670 H     1 <1>   0.0800 
 37 H        2.0110    -5.3210    -0.6460 H     1 <1>   0.0800 
 38 H       -6.1780    -1.3110     0.0200 H     1 <1>   0.0800 
 39 H       -5.2770    -1.4370     1.5030 H     1 <1>   0.0800 
 40 H        3.2820    -5.0510     2.1020 H     1 <1>   0.0800 
 41 H        4.9690    -4.6850     1.6840 H     1 <1>   0.0800 
 42 H        3.9440    -5.5320     0.5180 H     1 <1>   0.0800 
@<TRIPOS>BOND
  1   1   2  2   
  2   2   3  am  
  3   2   4  1   
  4   3   5  1   
  5   3  19  1   
  6   4   6  1   
  7   4   7  1   
  8   4  20  1   
  9   5   8  1   
 10   5   9  1   
 11   5  21  1   
 12   6  10  1   
 13   6  11  1   
 14   6  22  1   
 15   7  12  1   
 16   7  23  1   
 17   7  24  1   
 18   8  13  ar  
 19   8  14  ar  
 20   9  15  1   
 21   9  16  1   
 22   9  25  1   
 23  10  17  1   
 24  10  26  1   
 25  10  27  1   
 26  11  28  1   
 27  11  29  1   
 28  11  30  1   
 29  12  17  1   
 30  12  31  1   
 31  12  32  1   
 32  15  18  1   
 33  15  33  1   
 34  15  34  1   
 35  16  35  1   
 36  16  36  1   
 37  16  37  1   
 38  17  38  1   
 39  17  39  1   
 40  18  40  1   
 41  18  41  1   
 42  18  42  1   
@<TRIPOS>SUBSTRUCTURE
  1 ****   3 GROUP 4 **** **** 0

# MOE 2024.06 (io_trps.svl 2023.06)
