@<TRIPOS>MOLECULE
NONAME
51 54 1 0 0 
SMALL
USER_CHARGES


@<TRIPOS>ATOM
  1 F       -0.0240    -2.9090    -1.9070 F     1 <1>  -0.1900 
  2 C        0.2430    -3.8020    -0.9830 C.ar  1 <1>   0.1900 
  3 C       -0.1460    -3.5800     0.3450 C.ar  1 <1>   0.1000 
  4 C        0.9020    -4.9450    -1.3910 C.ar  1 <1>  -0.1500 
  5 N       -0.8200    -2.4440     0.8240 N.pl3 1 <1>  -0.8380 
  6 C        0.1630    -4.5830     1.2560 C.ar  1 <1>  -0.1500 
  7 C        1.1940    -5.9230    -0.4550 C.ar  1 <1>  -0.1500 
  8 C       -2.2600    -2.5760     1.1980 C.3   1 <1>   0.2090 
  9 C       -0.4060    -1.0660     0.4150 C.3   1 <1>   0.2090 
 10 C        0.8230    -5.7380     0.8670 C.ar  1 <1>  -0.1500 
 11 C       -3.1830    -1.8710     0.1890 C.3   1 <1>   0.1100 
 12 C       -1.4240    -0.3940    -0.5320 C.3   1 <1>   0.1100 
 13 N       -2.8080    -0.4500    -0.0130 N.3   1 <1>  -0.8100 
 14 C       -3.7320     0.2080    -0.9580 C.3   1 <1>   0.2900 
 15 C       -5.1200     0.3420    -0.3580 C.2   1 <1>   0.0070 
 16 N       -6.2020    -0.0970    -0.8810 N.2   1 <1>  -0.3380 
 17 N       -5.3870     0.9290     0.7970 N.pl3 1 <1>   0.3140 
 18 N       -7.1670     0.2270    -0.0290 N.2   1 <1>   0.0000 
 19 N       -6.6870     0.8450     0.9900 N.2   1 <1>  -0.4180 
 20 C       -4.4730     1.5660     1.7670 C.3   1 <1>   0.2390 
 21 C       -3.7300     2.7440     1.1460 C.ar  1 <1>  -0.1430 
 22 C       -4.4310     3.7990     0.5810 C.ar  1 <1>  -0.1500 
 23 C       -2.3430     2.7670     1.1370 C.ar  1 <1>  -0.1500 
 24 C       -3.7510     4.8610     0.0130 C.ar  1 <1>  -0.1500 
 25 C       -1.6610     3.8290     0.5690 C.ar  1 <1>  -0.1500 
 26 C       -2.3660     4.8860     0.0020 C.ar  1 <1>   0.0830 
 27 O       -1.7790     5.9640    -0.5740 O.3   1 <1>  -0.3630 
 28 C       -0.3780     6.1200    -0.5840 C.3   1 <1>   0.0400 
 29 H        1.1790    -5.0670    -2.4220 H     1 <1>   0.1500 
 30 H       -0.1150    -4.4460     2.2850 H     1 <1>   0.1500 
 31 H        1.7070    -6.8220    -0.7530 H     1 <1>   0.1500 
 32 H       -2.4080    -2.1460     2.1730 H     1 <1>   0.0800 
 33 H       -2.5250    -3.6180     1.2510 H     1 <1>   0.0800 
 34 H        0.5580    -1.1050    -0.0620 H     1 <1>   0.0800 
 35 H       -0.3060    -0.4640     1.3000 H     1 <1>   0.0800 
 36 H        1.0490    -6.4960     1.5970 H     1 <1>   0.1500 
 37 H       -4.1940    -1.9360     0.5530 H     1 <1>   0.0800 
 38 H       -3.1360    -2.4010    -0.7480 H     1 <1>   0.0800 
 39 H       -1.3770    -0.8780    -1.4910 H     1 <1>   0.0800 
 40 H       -1.1340     0.6330    -0.6690 H     1 <1>   0.0800 
 41 H       -3.7890    -0.3570    -1.8730 H     1 <1>   0.0800 
 42 H       -3.3670     1.1930    -1.1960 H     1 <1>   0.0800 
 43 H       -3.7810     0.8230     2.1160 H     1 <1>   0.0800 
 44 H       -5.0510     1.9090     2.6060 H     1 <1>   0.0800 
 45 H       -5.5090     3.8010     0.5780 H     1 <1>   0.1500 
 46 H       -1.7870     1.9520     1.5690 H     1 <1>   0.1500 
 47 H       -4.2910     5.6800    -0.4270 H     1 <1>   0.1500 
 48 H       -0.5880     3.8180     0.5780 H     1 <1>   0.1500 
 49 H       -0.1500     7.0550    -1.0640 H     1 <1>   0.0800 
 50 H        0.0600     5.3090    -1.1380 H     1 <1>   0.0800 
 51 H       -0.0210     6.1340     0.4300 H     1 <1>   0.0800 
@<TRIPOS>BOND
  1   1   2  1   
  2   2   3  ar  
  3   2   4  ar  
  4   3   5  1   
  5   3   6  ar  
  6   4   7  ar  
  7   4  29  1   
  8   5   8  1   
  9   5   9  1   
 10   6  10  ar  
 11   6  30  1   
 12   7  10  ar  
 13   7  31  1   
 14   8  11  1   
 15   8  32  1   
 16   8  33  1   
 17   9  12  1   
 18   9  34  1   
 19   9  35  1   
 20  10  36  1   
 21  11  13  1   
 22  11  37  1   
 23  11  38  1   
 24  12  13  1   
 25  12  39  1   
 26  12  40  1   
 27  13  14  1   
 28  14  15  1   
 29  14  41  1   
 30  14  42  1   
 31  15  16  2   
 32  15  17  1   
 33  16  18  1   
 34  17  19  1   
 35  17  20  1   
 36  18  19  2   
 37  20  21  1   
 38  20  43  1   
 39  20  44  1   
 40  21  22  ar  
 41  21  23  ar  
 42  22  24  ar  
 43  22  45  1   
 44  23  25  ar  
 45  23  46  1   
 46  24  26  ar  
 47  24  47  1   
 48  25  26  ar  
 49  25  48  1   
 50  26  27  1   
 51  27  28  1   
 52  28  49  1   
 53  28  50  1   
 54  28  51  1   
@<TRIPOS>SUBSTRUCTURE
  1 ****  13 GROUP 4 **** **** 0

# MOE 2024.06 (io_trps.svl 2023.06)
