@<TRIPOS>MOLECULE
143
32 32 1 0 0 
SMALL
USER_CHARGES


@<TRIPOS>ATOM
  1 O        0.6430     0.2370    -0.5200 O.2   1 <1>  -0.5700 
  2 C        1.2750     1.2620    -0.4920 C.2   1 <1>   0.5690 
  3 N        2.4410     1.3350    -1.1750 N.am  1 <1>  -0.7300 
  4 C        0.7680     2.4610     0.3040 C.3   1 <1>  -0.0990 
  5 C        3.3790     2.4660    -1.3160 C.3   1 <1>   0.1400 
  6 C       -0.4690     2.1780     1.1730 C.3   1 <1>  -0.2400 
  7 C        4.6300     2.1810    -0.4890 C.3   1 <1>  -0.1600 
  8 C        5.6310     3.3300    -0.6010 C.3   1 <1>   0.1200 
  9 O        6.7520     3.0090     0.1870 O.3   1 <1>  -0.3630 
 10 C        7.8090     3.8520     0.2870 C.ar  1 <1>   0.0820 
 11 C        7.8890     5.0790    -0.3690 C.ar  1 <1>  -0.1500 
 12 C        8.8580     3.4440     1.0950 C.ar  1 <1>  -0.1500 
 13 C        9.0080     5.8780    -0.2090 C.ar  1 <1>  -0.1500 
 14 C        9.9760     4.2440     1.2540 C.ar  1 <1>  -0.1500 
 15 C       10.0510     5.4620     0.6010 C.ar  1 <1>  -0.1500 
 16 H        2.7100     0.4670    -1.6450 H     1 <1>   0.3700 
 17 H        0.5320     3.2460    -0.3900 H     1 <1>   0.0800 
 18 H        1.5620     2.8030     0.9420 H     1 <1>   0.0800 
 19 H        2.9160     3.3800    -0.9850 H     1 <1>   0.0800 
 20 H        3.6390     2.5770    -2.3560 H     1 <1>   0.0800 
 21 H       -1.2910     1.8580     0.5550 H     1 <1>   0.0800 
 22 H       -0.7620     3.0630     1.7090 H     1 <1>   0.0800 
 23 H       -0.2530     1.3980     1.8820 H     1 <1>   0.0800 
 24 H        5.0950     1.2770    -0.8420 H     1 <1>   0.0800 
 25 H        4.3530     2.0580     0.5440 H     1 <1>   0.0800 
 26 H        5.2070     4.2460    -0.2260 H     1 <1>   0.0800 
 27 H        5.9590     3.4560    -1.6180 H     1 <1>   0.0800 
 28 H        7.0970     5.4270    -1.0030 H     1 <1>   0.1500 
 29 H        8.7920     2.4970     1.5990 H     1 <1>   0.1500 
 30 H        9.0700     6.8250    -0.7160 H     1 <1>   0.1500 
 31 H       10.7860     3.9190     1.8840 H     1 <1>   0.1500 
 32 H       10.9200     6.0850     0.7230 H     1 <1>   0.1500 
@<TRIPOS>BOND
  1   1   2  2   
  2   2   3  am  
  3   2   4  1   
  4   3   5  1   
  5   3  16  1   
  6   4   6  1   
  7   4  17  1   
  8   4  18  1   
  9   5   7  1   
 10   5  19  1   
 11   5  20  1   
 12   6  21  1   
 13   6  22  1   
 14   6  23  1   
 15   7   8  1   
 16   7  24  1   
 17   7  25  1   
 18   8   9  1   
 19   8  26  1   
 20   8  27  1   
 21   9  10  1   
 22  10  11  ar  
 23  10  12  ar  
 24  11  13  ar  
 25  11  28  1   
 26  12  14  ar  
 27  12  29  1   
 28  13  15  ar  
 29  13  30  1   
 30  14  15  ar  
 31  14  31  1   
 32  15  32  1   
@<TRIPOS>SUBSTRUCTURE
  1 ****   8 GROUP 4 **** **** 0

# MOE 2024.06 (io_trps.svl 2023.06)
