@<TRIPOS>MOLECULE
N-Cyclohexyl-2-(4-methyl-5-oxo-4,5-dihydro-[1,2,4]triazolo[4,3-a]quinazolin-1-ylsulfanyl)-acetamide
47 50 1 0 0 
SMALL
USER_CHARGES


@<TRIPOS>ATOM
  1 S        0.3410     0.1930    -0.5610 S.3   1 <1>  -0.2860 
  2 C       -1.3380     0.8420    -0.5190 C.2   1 <1>   0.2420 
  3 C        1.3290     1.5930    -1.2920 C.3   1 <1>   0.1310 
  4 N       -1.5910     2.0450    -0.8870 N.2   1 <1>  -0.3380 
  5 N       -2.4250     0.1490    -0.1070 N.pl3 1 <1>   0.3260 
  6 C        2.8100     1.2540    -1.3420 C.2   1 <1>   0.5690 
  7 N       -2.9050     2.2150    -0.7250 N.2   1 <1>  -0.3380 
  8 C       -2.7340    -1.1570     0.3750 C.ar  1 <1>  -0.0230 
  9 C       -3.3810     1.0980    -0.2650 C.2   1 <1>   0.2500 
 10 O        3.4780     1.7250    -2.2310 O.2   1 <1>  -0.5700 
 11 N        3.3460     0.4480    -0.3880 N.am  1 <1>  -0.7300 
 12 C       -4.0780    -1.4250     0.6960 C.ar  1 <1>   0.0860 
 13 C       -1.7820    -2.1630     0.5380 C.ar  1 <1>  -0.1500 
 14 N       -4.7220     0.8430     0.0530 N.am  1 <1>  -0.4240 
 15 C        4.7540     0.0310    -0.3120 C.3   1 <1>   0.2200 
 16 C       -5.0940    -0.4000     0.5290 C.2   1 <1>   0.5440 
 17 C       -4.4080    -2.6950     1.1750 C.ar  1 <1>  -0.1500 
 18 C       -2.1360    -3.4100     1.0120 C.ar  1 <1>  -0.1500 
 19 C       -5.7180     1.9350    -0.1470 C.3   1 <1>   0.0600 
 20 C        4.8290    -1.4880    -0.4980 C.3   1 <1>  -0.1600 
 21 C        5.3230     0.4540     1.0460 C.3   1 <1>  -0.1600 
 22 O       -6.2610    -0.6220     0.7990 O.2   1 <1>  -0.5700 
 23 C       -3.4530    -3.6780     1.3330 C.ar  1 <1>  -0.1500 
 24 C        6.2660    -1.9990    -0.3200 C.3   1 <1>  -0.1600 
 25 C        6.7620    -0.0530     1.2270 C.3   1 <1>  -0.1600 
 26 C        6.8420    -1.5740     1.0380 C.3   1 <1>  -0.1600 
 27 H        1.1650     2.4590    -0.6790 H     1 <1>   0.0800 
 28 H        0.9500     1.7680    -2.2820 H     1 <1>   0.0800 
 29 H        2.7310     0.0340     0.3130 H     1 <1>   0.3700 
 30 H       -0.7490    -2.0040     0.3000 H     1 <1>   0.1500 
 31 H        5.3190     0.5100    -1.0950 H     1 <1>   0.0800 
 32 H       -5.4330    -2.9120     1.4250 H     1 <1>   0.1500 
 33 H       -1.3890    -4.1780     1.1330 H     1 <1>   0.1500 
 34 H       -5.8230     2.1350    -1.1980 H     1 <1>   0.0800 
 35 H       -5.3780     2.8290     0.3480 H     1 <1>   0.0800 
 36 H       -6.6790     1.6660     0.2550 H     1 <1>   0.0800 
 37 H        4.4830    -1.7410    -1.4850 H     1 <1>   0.0800 
 38 H        4.1940    -1.9730     0.2220 H     1 <1>   0.0800 
 39 H        4.7110     0.0550     1.8350 H     1 <1>   0.0800 
 40 H        5.3150     1.5280     1.1140 H     1 <1>   0.0800 
 41 H       -3.7320    -4.6510     1.7030 H     1 <1>   0.1500 
 42 H        6.8850    -1.6020    -1.1080 H     1 <1>   0.0800 
 43 H        6.2810    -3.0720    -0.3990 H     1 <1>   0.0800 
 44 H        7.1160     0.2080     2.2090 H     1 <1>   0.0800 
 45 H        7.4020     0.4290     0.5070 H     1 <1>   0.0800 
 46 H        7.8680    -1.8920     1.1090 H     1 <1>   0.0800 
 47 H        6.2920    -2.0610     1.8260 H     1 <1>   0.0800 
@<TRIPOS>BOND
  1   1   2  1   
  2   1   3  1   
  3   2   4  2   
  4   2   5  1   
  5   3   6  1   
  6   3  27  1   
  7   3  28  1   
  8   4   7  1   
  9   5   8  1   
 10   5   9  1   
 11   6  10  2   
 12   6  11  am  
 13   7   9  2   
 14   8  12  ar  
 15   8  13  ar  
 16   9  14  1   
 17  11  15  1   
 18  11  29  1   
 19  12  16  1   
 20  12  17  ar  
 21  13  18  ar  
 22  13  30  1   
 23  14  16  am  
 24  14  19  1   
 25  15  20  1   
 26  15  21  1   
 27  15  31  1   
 28  16  22  2   
 29  17  23  ar  
 30  17  32  1   
 31  18  23  ar  
 32  18  33  1   
 33  19  34  1   
 34  19  35  1   
 35  19  36  1   
 36  20  24  1   
 37  20  37  1   
 38  20  38  1   
 39  21  25  1   
 40  21  39  1   
 41  21  40  1   
 42  23  41  1   
 43  24  26  1   
 44  24  42  1   
 45  24  43  1   
 46  25  26  1   
 47  25  44  1   
 48  25  45  1   
 49  26  46  1   
 50  26  47  1   
@<TRIPOS>SUBSTRUCTURE
  1 ****   1 GROUP 4 **** **** 0

# MOE 2024.06 (io_trps.svl 2023.06)
