@<TRIPOS>MOLECULE
1-[2-(2-Ethyl-piperidin-1-yl)-2-oxo-ethyl]-3-(4-fluoro-benzyl)-1H-thieno[3,2-d]p
54 57 1 0 0 
SMALL
USER_CHARGES


@<TRIPOS>ATOM
  1 S        3.5110    -1.4870    -3.8430 S.3   1 <1>  -0.0800 
  2 C        3.6500    -1.4260    -2.0810 C.2   1 <1>  -0.0450 
  3 C        2.2500    -2.7030    -3.7390 C.2   1 <1>  -0.1100 
  4 C        4.5230    -0.5840    -1.3490 C.2   1 <1>   0.7150 
  5 C        2.7910    -2.3010    -1.5080 C.2   1 <1>   0.0630 
  6 C        1.9880    -3.0160    -2.4560 C.2   1 <1>  -0.1500 
  7 O        5.3310     0.1590    -1.8840 O.2   1 <1>  -0.5700 
  8 N        4.4310    -0.6450     0.0280 N.am  1 <1>  -0.4200 
  9 N        2.7840    -2.4020    -0.1120 N.am  1 <1>  -0.4230 
 10 C        3.5800    -1.5470     0.6460 C.2   1 <1>   0.6900 
 11 C        5.1800     0.3410     0.8480 C.3   1 <1>   0.2840 
 12 C        1.9500    -3.4570     0.5650 C.3   1 <1>   0.2010 
 13 O        3.5420    -1.6000     1.8630 O.2   1 <1>  -0.5700 
 14 C        4.3410     1.5980     1.0310 C.ar  1 <1>  -0.1430 
 15 C        2.3390    -4.8840     0.1710 C.2   1 <1>   0.5690 
 16 C        3.4840     1.7120     2.1200 C.ar  1 <1>  -0.1500 
 17 C        4.4280     2.6340     0.1070 C.ar  1 <1>  -0.1500 
 18 O        1.5080    -5.5220    -0.4350 O.2   1 <1>  -0.5700 
 19 N        3.5720    -5.4180     0.4670 N.am  1 <1>  -0.6600 
 20 C        2.7200     2.8540     2.2920 C.ar  1 <1>  -0.1500 
 21 C        3.6680     3.7800     0.2680 C.ar  1 <1>  -0.1500 
 22 C        4.0200    -6.6750    -0.2090 C.3   1 <1>   0.2200 
 23 C        4.5120    -4.8670     1.4820 C.3   1 <1>   0.1400 
 24 C        2.8280     3.8680     1.3610 C.ar  1 <1>   0.1900 
 25 C        5.0540    -7.4430     0.6420 C.3   1 <1>  -0.1600 
 26 C        4.5640    -6.3130    -1.6020 C.3   1 <1>  -0.1600 
 27 C        4.7290    -5.8860     2.6120 C.3   1 <1>  -0.1600 
 28 F        2.1090     4.9470     1.5190 F     1 <1>  -0.1900 
 29 C        4.7260    -7.3510     2.1370 C.3   1 <1>  -0.1600 
 30 C        4.9390    -7.5390    -2.4470 C.3   1 <1>  -0.2400 
 31 H        1.8300    -3.0600    -4.6630 H     1 <1>   0.1500 
 32 H        1.2460    -3.7320    -2.1520 H     1 <1>   0.1500 
 33 H        6.1120     0.5900     0.3690 H     1 <1>   0.0800 
 34 H        5.4220    -0.0810     1.8080 H     1 <1>   0.0800 
 35 H        0.9230    -3.3000     0.2910 H     1 <1>   0.0800 
 36 H        2.0050    -3.3730     1.6330 H     1 <1>   0.0800 
 37 H        3.4070     0.9100     2.8360 H     1 <1>   0.1500 
 38 H        5.0860     2.5510    -0.7430 H     1 <1>   0.1500 
 39 H        2.0530     2.9580     3.1290 H     1 <1>   0.1500 
 40 H        3.7230     4.5890    -0.4370 H     1 <1>   0.1500 
 41 H        3.1600    -7.3130    -0.3320 H     1 <1>   0.0800 
 42 H        4.1470    -3.9550     1.9090 H     1 <1>   0.0800 
 43 H        5.4500    -4.6560     0.9980 H     1 <1>   0.0800 
 44 H        6.0400    -7.0480     0.4680 H     1 <1>   0.0800 
 45 H        5.0620    -8.4740     0.3390 H     1 <1>   0.0800 
 46 H        5.4250    -5.6770    -1.4980 H     1 <1>   0.0800 
 47 H        3.8070    -5.7620    -2.1320 H     1 <1>   0.0800 
 48 H        3.9620    -5.7570     3.3550 H     1 <1>   0.0800 
 49 H        5.6680    -5.6630     3.0850 H     1 <1>   0.0800 
 50 H        5.4300    -7.9270     2.7130 H     1 <1>   0.0800 
 51 H        3.7470    -7.7700     2.2980 H     1 <1>   0.0800 
 52 H        5.7550    -8.0800    -2.0040 H     1 <1>   0.0800 
 53 H        5.2390    -7.2250    -3.4320 H     1 <1>   0.0800 
 54 H        4.0940    -8.1980    -2.5440 H     1 <1>   0.0800 
@<TRIPOS>BOND
  1   1   2  1   
  2   1   3  1   
  3   2   4  1   
  4   2   5  2   
  5   3   6  2   
  6   3  31  1   
  7   4   7  2   
  8   4   8  am  
  9   5   6  1   
 10   5   9  1   
 11   6  32  1   
 12   8  10  am  
 13   8  11  1   
 14   9  10  am  
 15   9  12  1   
 16  10  13  2   
 17  11  14  1   
 18  11  33  1   
 19  11  34  1   
 20  12  15  1   
 21  12  35  1   
 22  12  36  1   
 23  14  16  ar  
 24  14  17  ar  
 25  15  18  2   
 26  15  19  am  
 27  16  20  ar  
 28  16  37  1   
 29  17  21  ar  
 30  17  38  1   
 31  19  22  1   
 32  19  23  1   
 33  20  24  ar  
 34  20  39  1   
 35  21  24  ar  
 36  21  40  1   
 37  22  25  1   
 38  22  26  1   
 39  22  41  1   
 40  23  27  1   
 41  23  42  1   
 42  23  43  1   
 43  24  28  1   
 44  25  29  1   
 45  25  44  1   
 46  25  45  1   
 47  26  30  1   
 48  26  46  1   
 49  26  47  1   
 50  27  29  1   
 51  27  48  1   
 52  27  49  1   
 53  29  50  1   
 54  29  51  1   
 55  30  52  1   
 56  30  53  1   
 57  30  54  1   
@<TRIPOS>SUBSTRUCTURE
  1 ****  10 GROUP 4 **** **** 0

# MOE 2024.06 (io_trps.svl 2023.06)
