@<TRIPOS>MOLECULE
4-Benzooxazol-2-yl-piperidine-1-carboxylic acid (4-methoxy-phenyl)-amide
47 50 1 0 0 
SMALL
USER_CHARGES


@<TRIPOS>ATOM
  1 O        0.3300     0.2540     0.6930 O.2   1 <1>  -0.5700 
  2 C        0.8600    -0.8400     0.7340 C.2   1 <1>   0.6900 
  3 N        2.1860    -0.9520     1.0700 N.am  1 <1>  -0.6600 
  4 N        0.1700    -1.9740     0.4180 N.am  1 <1>  -0.5470 
  5 C        2.7720    -2.1460     1.7360 C.3   1 <1>   0.1400 
  6 C        3.0860     0.2300     1.0080 C.3   1 <1>   0.1400 
  7 C       -1.1940    -2.1900     0.1720 C.ar  1 <1>   0.1170 
  8 C        4.0590    -2.5510     1.0150 C.3   1 <1>  -0.1600 
  9 C        4.3830    -0.1550     0.2920 C.3   1 <1>  -0.1600 
 10 C       -1.5720    -3.2790    -0.6070 C.ar  1 <1>  -0.1500 
 11 C       -2.1920    -1.3730     0.6930 C.ar  1 <1>  -0.1500 
 12 C        5.0540    -1.3790     0.9440 C.3   1 <1>   0.1000 
 13 C       -2.9050    -3.5470    -0.8640 C.ar  1 <1>  -0.1500 
 14 C       -3.5260    -1.6360     0.4400 C.ar  1 <1>  -0.1500 
 15 C        6.3290    -1.8000     0.2180 C.2   1 <1>   0.2980 
 16 C       -3.8940    -2.7210    -0.3370 C.ar  1 <1>   0.0820 
 17 O        7.0920    -2.7090     0.8070 O.3   1 <1>  -0.2800 
 18 N        6.7620    -1.3750    -0.9100 N.2   1 <1>  -0.5650 
 19 O       -5.2260    -2.9090    -0.5370 O.3   1 <1>  -0.3630 
 20 C        8.1100    -2.8920    -0.0100 C.ar  1 <1>   0.1400 
 21 C        7.9200    -2.0660    -1.0890 C.ar  1 <1>   0.2270 
 22 C       -5.6960    -3.9650    -1.3440 C.3   1 <1>   0.0400 
 23 C        9.2120    -3.7290     0.1020 C.ar  1 <1>  -0.1500 
 24 C        8.8530    -2.0500    -2.1210 C.ar  1 <1>  -0.1500 
 25 C       10.1380    -3.7130    -0.9240 C.ar  1 <1>  -0.1500 
 26 C        9.9580    -2.8760    -2.0310 C.ar  1 <1>  -0.1500 
 27 H        0.7840    -2.7490     0.2010 H     1 <1>   0.3700 
 28 H        2.0790    -2.9690     1.7420 H     1 <1>   0.0800 
 29 H        2.9920    -1.8960     2.7600 H     1 <1>   0.0800 
 30 H        3.2960     0.5670     2.0090 H     1 <1>   0.0800 
 31 H        2.6120     1.0380     0.4750 H     1 <1>   0.0800 
 32 H        3.8210    -2.8830     0.0200 H     1 <1>   0.0800 
 33 H        4.5110    -3.3760     1.5370 H     1 <1>   0.0800 
 34 H        5.0610     0.6800     0.3110 H     1 <1>   0.0800 
 35 H        4.1590    -0.3670    -0.7390 H     1 <1>   0.0800 
 36 H       -0.8170    -3.9210    -1.0210 H     1 <1>   0.1500 
 37 H       -1.9280    -0.5270     1.3020 H     1 <1>   0.1500 
 38 H        5.3350    -1.1090     1.9460 H     1 <1>   0.0800 
 39 H       -3.1530    -4.3960    -1.4710 H     1 <1>   0.1500 
 40 H       -4.2900    -0.9980     0.8450 H     1 <1>   0.1500 
 41 H       -6.7700    -3.9120    -1.3710 H     1 <1>   0.0800 
 42 H       -5.3880    -4.9000    -0.9090 H     1 <1>   0.0800 
 43 H       -5.2990    -3.8500    -2.3370 H     1 <1>   0.0800 
 44 H        9.3240    -4.3610     0.9640 H     1 <1>   0.1500 
 45 H        8.6940    -1.3990    -2.9610 H     1 <1>   0.1500 
 46 H       11.0070    -4.3470    -0.8770 H     1 <1>   0.1500 
 47 H       10.6920    -2.8800    -2.8190 H     1 <1>   0.1500 
@<TRIPOS>BOND
  1   1   2  2   
  2   2   3  am  
  3   2   4  am  
  4   3   5  1   
  5   3   6  1   
  6   4   7  1   
  7   4  27  1   
  8   5   8  1   
  9   5  28  1   
 10   5  29  1   
 11   6   9  1   
 12   6  30  1   
 13   6  31  1   
 14   7  10  ar  
 15   7  11  ar  
 16   8  12  1   
 17   8  32  1   
 18   8  33  1   
 19   9  12  1   
 20   9  34  1   
 21   9  35  1   
 22  10  13  ar  
 23  10  36  1   
 24  11  14  ar  
 25  11  37  1   
 26  12  15  1   
 27  12  38  1   
 28  13  16  ar  
 29  13  39  1   
 30  14  16  ar  
 31  14  40  1   
 32  15  17  1   
 33  15  18  2   
 34  16  19  1   
 35  17  20  1   
 36  18  21  1   
 37  19  22  1   
 38  20  21  ar  
 39  20  23  ar  
 40  21  24  ar  
 41  22  41  1   
 42  22  42  1   
 43  22  43  1   
 44  23  25  ar  
 45  23  44  1   
 46  24  26  ar  
 47  24  45  1   
 48  25  26  ar  
 49  25  46  1   
 50  26  47  1   
@<TRIPOS>SUBSTRUCTURE
  1 ****   3 GROUP 4 **** **** 0

# MOE 2024.06 (io_trps.svl 2023.06)
