@<TRIPOS>MOLECULE
2-(4-Cyclohexyl-5-pyridin-4-yl-4H-[1,2,4]triazol-3-ylsulfanyl)-N-(5-methyl-isoxazol-3-yl)-acetamide
50 53 1 0 0 
SMALL
USER_CHARGES


@<TRIPOS>ATOM
  1 S       -0.4040    -0.0610    -0.3060 S.3   1 <1>  -0.2860 
  2 C        1.2310     0.6350    -0.5600 C.2   1 <1>   0.2420 
  3 C       -1.5310     1.3280    -0.8220 C.3   1 <1>   0.1310 
  4 N        1.4090     1.8360    -0.9780 N.2   1 <1>  -0.3380 
  5 N        2.3600    -0.0350    -0.3400 N.pl3 1 <1>   0.0480 
  6 C       -2.9950     0.9600    -0.6430 C.2   1 <1>   0.5690 
  7 N        2.7250     2.0000    -1.0530 N.2   1 <1>  -0.3380 
  8 C        3.2930     0.8860    -0.6790 C.2   1 <1>   0.1330 
  9 C        2.4760    -1.4400     0.1480 C.3   1 <1>   0.1760 
 10 O       -3.8220     1.6380    -1.2030 O.2   1 <1>  -0.5700 
 11 N       -3.3210    -0.1050     0.1410 N.am  1 <1>  -0.4930 
 12 C        4.7180     0.6990    -0.6400 C.ar  1 <1>   0.0530 
 13 C        3.4160    -1.5750     1.3590 C.3   1 <1>  -0.1600 
 14 C        2.8870    -2.3940    -0.9850 C.3   1 <1>  -0.1600 
 15 C       -4.5650    -0.6380     0.4710 C.2   1 <1>   0.3520 
 16 C        5.4880     1.1390     0.4250 C.ar  1 <1>  -0.1500 
 17 C        5.4220     0.0820    -1.6620 C.ar  1 <1>  -0.1500 
 18 C        3.4400    -3.0250     1.8620 C.3   1 <1>  -0.1600 
 19 C        2.9260    -3.8460    -0.4860 C.3   1 <1>  -0.1600 
 20 N       -4.6680    -1.6760     1.2240 N.2   1 <1>  -0.4100 
 21 C       -5.8260    -0.1850     0.0810 C.2   1 <1>  -0.1500 
 22 C        6.8520     0.9200     0.4330 C.ar  1 <1>   0.1600 
 23 C        6.7890    -0.0890    -1.5590 C.ar  1 <1>   0.1600 
 24 C        3.8420    -3.9900     0.7380 C.3   1 <1>  -0.1600 
 25 O       -5.9500    -1.9150     1.3370 O.3   1 <1>  -0.0190 
 26 C       -6.6650    -1.0470     0.6700 C.2   1 <1>  -0.0400 
 27 N        7.5210     0.3050    -0.5290 N.ar  1 <1>  -0.6200 
 28 C       -8.1750    -1.1490     0.6720 C.3   1 <1>  -0.0600 
 29 H       -1.3210     1.5410    -1.8540 H     1 <1>   0.0800 
 30 H       -1.2840     2.1830    -0.2200 H     1 <1>   0.0800 
 31 H        1.5020    -1.7480     0.4820 H     1 <1>   0.0800 
 32 H       -2.5450    -0.6300     0.5430 H     1 <1>   0.3700 
 33 H        3.0850    -0.9270     2.1520 H     1 <1>   0.0800 
 34 H        4.4190    -1.3040     1.0870 H     1 <1>   0.0800 
 35 H        3.8620    -2.1330    -1.3500 H     1 <1>   0.0800 
 36 H        2.1840    -2.3180    -1.7970 H     1 <1>   0.0800 
 37 H        5.0190     1.6530     1.2430 H     1 <1>   0.1500 
 38 H        4.9020    -0.2560    -2.5390 H     1 <1>   0.1500 
 39 H        2.4670    -3.2950     2.2360 H     1 <1>   0.0800 
 40 H        4.1400    -3.1120     2.6760 H     1 <1>   0.0800 
 41 H        3.2780    -4.4900    -1.2750 H     1 <1>   0.0800 
 42 H        1.9310    -4.1630    -0.2250 H     1 <1>   0.0800 
 43 H       -6.0320     0.6610    -0.5470 H     1 <1>   0.1500 
 44 H        7.4270     1.2680     1.2750 H     1 <1>   0.1500 
 45 H        7.3120    -0.5750    -2.3650 H     1 <1>   0.1500 
 46 H        3.7980    -5.0030     1.1020 H     1 <1>   0.0800 
 47 H        4.8600    -3.7920     0.4460 H     1 <1>   0.0800 
 48 H       -8.6010    -0.3620     0.0770 H     1 <1>   0.0800 
 49 H       -8.5440    -1.0670     1.6780 H     1 <1>   0.0800 
 50 H       -8.4770    -2.0980     0.2650 H     1 <1>   0.0800 
@<TRIPOS>BOND
  1   1   2  1   
  2   1   3  1   
  3   2   4  2   
  4   2   5  1   
  5   3   6  1   
  6   3  29  1   
  7   3  30  1   
  8   4   7  1   
  9   5   8  1   
 10   5   9  1   
 11   6  10  2   
 12   6  11  am  
 13   7   8  2   
 14   8  12  1   
 15   9  13  1   
 16   9  14  1   
 17   9  31  1   
 18  11  15  1   
 19  11  32  1   
 20  12  16  ar  
 21  12  17  ar  
 22  13  18  1   
 23  13  33  1   
 24  13  34  1   
 25  14  19  1   
 26  14  35  1   
 27  14  36  1   
 28  15  20  2   
 29  15  21  1   
 30  16  22  ar  
 31  16  37  1   
 32  17  23  ar  
 33  17  38  1   
 34  18  24  1   
 35  18  39  1   
 36  18  40  1   
 37  19  24  1   
 38  19  41  1   
 39  19  42  1   
 40  20  25  1   
 41  21  26  2   
 42  21  43  1   
 43  22  27  ar  
 44  22  44  1   
 45  23  27  ar  
 46  23  45  1   
 47  24  46  1   
 48  24  47  1   
 49  25  26  1   
 50  26  28  1   
 51  28  48  1   
 52  28  49  1   
 53  28  50  1   
@<TRIPOS>SUBSTRUCTURE
  1 ****   1 GROUP 4 **** **** 0

# MOE 2024.06 (io_trps.svl 2023.06)
