@<TRIPOS>MOLECULE
N-(3-Chloro-2-methyl-phenyl)-2-[3-(3-methoxy-propyl)-2,4-dioxo-3,4-dihydro-2H-th
48 50 1 0 0 
SMALL
USER_CHARGES


@<TRIPOS>ATOM
  1 CL      -0.3660    -0.0550    -1.8470 Cl    1 <1>  -0.1770 
  2 C       -1.9090    -0.3410    -1.0720 C.ar  1 <1>   0.1770 
  3 C       -2.6770     0.7070    -0.5750 C.ar  1 <1>  -0.1440 
  4 C       -2.3220    -1.6570    -0.9780 C.ar  1 <1>  -0.1500 
  5 C       -3.8990     0.4090     0.0360 C.ar  1 <1>   0.1170 
  6 C       -2.2140     2.1620    -0.6890 C.3   1 <1>  -0.0970 
  7 C       -3.5290    -1.9480    -0.3730 C.ar  1 <1>  -0.1500 
  8 N       -4.6860     1.4510     0.5530 N.am  1 <1>  -0.5470 
  9 C       -4.3050    -0.9210     0.1300 C.ar  1 <1>  -0.1500 
 10 C       -6.0330     1.5600     0.7740 C.2   1 <1>   0.5690 
 11 O       -6.8240     0.6660     0.5940 O.2   1 <1>  -0.5700 
 12 C       -6.5630     2.9000     1.2630 C.3   1 <1>   0.2010 
 13 N       -6.3770     3.9780     0.2390 N.am  1 <1>  -0.4230 
 14 C       -5.1700     4.6610     0.1820 C.2   1 <1>   0.6900 
 15 C       -7.3850     4.2630    -0.6820 C.2   1 <1>   0.0630 
 16 O       -4.2360     4.2770     0.8670 O.2   1 <1>  -0.5700 
 17 N       -5.0110     5.7450    -0.6690 N.am  1 <1>  -0.4200 
 18 C       -7.1950     5.3010    -1.5300 C.2   1 <1>  -0.0450 
 19 C       -8.6280     3.5780    -0.8740 C.2   1 <1>  -0.1500 
 20 C       -6.0210     6.0980    -1.5520 C.2   1 <1>   0.7150 
 21 C       -3.7590     6.5520    -0.6150 C.3   1 <1>   0.1400 
 22 S       -8.5990     5.4880    -2.5890 S.3   1 <1>  -0.0800 
 23 C       -9.3930     4.1070    -1.8490 C.2   1 <1>  -0.1100 
 24 O       -5.8780     7.0460    -2.3060 O.2   1 <1>  -0.5700 
 25 C       -3.8740     7.6170     0.4780 C.3   1 <1>  -0.1600 
 26 C       -2.6090     8.4670     0.5460 C.3   1 <1>   0.1200 
 27 O       -2.7670     9.3650     1.5910 O.3   1 <1>  -0.5600 
 28 C       -1.6920    10.2290     1.7660 C.3   1 <1>   0.0400 
 29 H       -1.7030    -2.4400    -1.3760 H     1 <1>   0.1500 
 30 H       -1.3050     2.2640    -1.2500 H     1 <1>   0.0800 
 31 H       -2.0430     2.5690     0.2920 H     1 <1>   0.0800 
 32 H       -2.9670     2.7480    -1.1850 H     1 <1>   0.0800 
 33 H       -3.8640    -2.9680    -0.2920 H     1 <1>   0.1500 
 34 H       -4.1720     2.3290     0.6990 H     1 <1>   0.3700 
 35 H       -5.2380    -1.1650     0.6050 H     1 <1>   0.1500 
 36 H       -6.0490     3.1670     2.1680 H     1 <1>   0.0800 
 37 H       -7.6040     2.8020     1.5070 H     1 <1>   0.0800 
 38 H       -8.9000     2.7160    -0.2910 H     1 <1>   0.1500 
 39 H       -3.5820     7.0220    -1.5680 H     1 <1>   0.0800 
 40 H       -2.9210     5.9070    -0.4110 H     1 <1>   0.0800 
 41 H      -10.3600     3.8300    -2.2310 H     1 <1>   0.1500 
 42 H       -4.0210     7.1400     1.4310 H     1 <1>   0.0800 
 43 H       -4.7100     8.2610     0.2660 H     1 <1>   0.0800 
 44 H       -2.4680     9.0190    -0.3680 H     1 <1>   0.0800 
 45 H       -1.7460     7.8540     0.7480 H     1 <1>   0.0800 
 46 H       -1.9160    10.8760     2.5950 H     1 <1>   0.0800 
 47 H       -1.5590    10.8160     0.8740 H     1 <1>   0.0800 
 48 H       -0.8060     9.6560     1.9810 H     1 <1>   0.0800 
@<TRIPOS>BOND
  1   1   2  1   
  2   2   3  ar  
  3   2   4  ar  
  4   3   5  ar  
  5   3   6  1   
  6   4   7  ar  
  7   4  29  1   
  8   5   8  1   
  9   5   9  ar  
 10   6  30  1   
 11   6  31  1   
 12   6  32  1   
 13   7   9  ar  
 14   7  33  1   
 15   8  10  am  
 16   8  34  1   
 17   9  35  1   
 18  10  11  2   
 19  10  12  1   
 20  12  13  1   
 21  12  36  1   
 22  12  37  1   
 23  13  14  am  
 24  13  15  1   
 25  14  16  2   
 26  14  17  am  
 27  15  18  2   
 28  15  19  1   
 29  17  20  am  
 30  17  21  1   
 31  18  20  1   
 32  18  22  1   
 33  19  23  2   
 34  19  38  1   
 35  20  24  2   
 36  21  25  1   
 37  21  39  1   
 38  21  40  1   
 39  22  23  1   
 40  23  41  1   
 41  25  26  1   
 42  25  42  1   
 43  25  43  1   
 44  26  27  1   
 45  26  44  1   
 46  26  45  1   
 47  27  28  1   
 48  28  46  1   
 49  28  47  1   
 50  28  48  1   
@<TRIPOS>SUBSTRUCTURE
  1 ****  14 GROUP 4 **** **** 0

# MOE 2024.06 (io_trps.svl 2023.06)
