@<TRIPOS>MOLECULE
2-(3-Ethyl-7,8-dimethyl-quinolin-2-ylsulfanyl)-N-(5-methyl-[1,3,4]thiadiazol-2-yl)-acetamide
45 47 1 0 0 
SMALL
USER_CHARGES


@<TRIPOS>ATOM
  1 S        0.1250     1.4720    -0.1150 S.3   1 <1>  -0.0800 
  2 C        1.2190     0.1480    -0.3830 C.2   1 <1>   0.4420 
  3 C       -1.1680     0.3500    -0.3540 C.2   1 <1>   0.1980 
  4 N        0.6000    -0.9510    -0.6130 N.2   1 <1>  -0.3380 
  5 N        2.5870     0.3060    -0.3430 N.am  1 <1>  -0.4940 
  6 N       -0.7620    -0.8300    -0.5950 N.2   1 <1>  -0.3380 
  7 C       -2.5840     0.8690    -0.2540 C.3   1 <1>  -0.0600 
  8 C        3.3850     1.3910    -0.1140 C.2   1 <1>   0.5690 
  9 O        2.9550     2.4940     0.1120 O.2   1 <1>  -0.5700 
 10 C        4.8950     1.2110    -0.1440 C.3   1 <1>   0.1310 
 11 S        5.3820    -0.5520    -0.5060 S.3   1 <1>  -0.3320 
 12 C        7.1750    -0.5120    -0.4890 C.ar  1 <1>   0.4120 
 13 N        7.6940     0.6510    -0.2470 N.ar  1 <1>  -0.6200 
 14 C        7.8860    -1.7060    -0.7330 C.ar  1 <1>  -0.1430 
 15 C        9.0510     0.7390    -0.2220 C.ar  1 <1>   0.3100 
 16 C        9.2500    -1.6290    -0.7110 C.ar  1 <1>  -0.1500 
 17 C        7.1210    -3.0060    -1.0060 C.3   1 <1>  -0.0170 
 18 C        9.8650    -0.3920    -0.4520 C.ar  1 <1>   0.0000 
 19 C        9.6690     1.9890     0.0390 C.ar  1 <1>  -0.1430 
 20 C        7.9950    -4.2410    -1.2580 C.3   1 <1>  -0.2400 
 21 C       11.2610    -0.2470    -0.4160 C.ar  1 <1>  -0.1500 
 22 C       11.0440     2.0990     0.0680 C.ar  1 <1>  -0.1430 
 23 C        8.7540     3.1940     0.2840 C.3   1 <1>  -0.0970 
 24 C       11.8340     0.9660    -0.1620 C.ar  1 <1>  -0.1500 
 25 C       11.7710     3.4100     0.3430 C.3   1 <1>  -0.0970 
 26 H        3.0940    -0.5620    -0.5190 H     1 <1>   0.3700 
 27 H       -2.7450     1.6330    -0.9920 H     1 <1>   0.0800 
 28 H       -2.7540     1.2790     0.7240 H     1 <1>   0.0800 
 29 H       -3.2790     0.0660    -0.4230 H     1 <1>   0.0800 
 30 H        5.3200     1.4690     0.8090 H     1 <1>   0.0800 
 31 H        5.3280     1.8250    -0.9110 H     1 <1>   0.0800 
 32 H        9.8840    -2.4780    -0.8840 H     1 <1>   0.1500 
 33 H        6.4900    -2.8610    -1.8660 H     1 <1>   0.0800 
 34 H        6.4820    -3.2130    -0.1640 H     1 <1>   0.0800 
 35 H        8.6200    -4.0910    -2.1200 H     1 <1>   0.0800 
 36 H        7.3700    -5.0980    -1.4380 H     1 <1>   0.0800 
 37 H        8.6120    -4.4470    -0.4010 H     1 <1>   0.0800 
 38 H       11.8770    -1.1110    -0.5920 H     1 <1>   0.1500 
 39 H        8.1290     3.3520    -0.5770 H     1 <1>   0.0800 
 40 H        9.2900     4.1020     0.4750 H     1 <1>   0.0800 
 41 H        8.1210     2.9980     1.1320 H     1 <1>   0.0800 
 42 H       12.9070     1.0540    -0.1390 H     1 <1>   0.1500 
 43 H       11.5000     3.7830     1.3140 H     1 <1>   0.0800 
 44 H       11.5080     4.1390    -0.4030 H     1 <1>   0.0800 
 45 H       12.8370     3.2790     0.3210 H     1 <1>   0.0800 
@<TRIPOS>BOND
  1   1   2  1   
  2   1   3  1   
  3   2   4  2   
  4   2   5  1   
  5   3   6  2   
  6   3   7  1   
  7   4   6  1   
  8   5   8  am  
  9   5  26  1   
 10   7  27  1   
 11   7  28  1   
 12   7  29  1   
 13   8   9  2   
 14   8  10  1   
 15  10  11  1   
 16  10  30  1   
 17  10  31  1   
 18  11  12  1   
 19  12  13  ar  
 20  12  14  ar  
 21  13  15  ar  
 22  14  16  ar  
 23  14  17  1   
 24  15  18  ar  
 25  15  19  ar  
 26  16  18  ar  
 27  16  32  1   
 28  17  20  1   
 29  17  33  1   
 30  17  34  1   
 31  18  21  ar  
 32  19  22  ar  
 33  19  23  1   
 34  20  35  1   
 35  20  36  1   
 36  20  37  1   
 37  21  24  ar  
 38  21  38  1   
 39  22  24  ar  
 40  22  25  1   
 41  23  39  1   
 42  23  40  1   
 43  23  41  1   
 44  24  42  1   
 45  25  43  1   
 46  25  44  1   
 47  25  45  1   
@<TRIPOS>SUBSTRUCTURE
  1 ****  11 GROUP 4 **** **** 0

# MOE 2024.06 (io_trps.svl 2023.06)
