@<TRIPOS>MOLECULE
NONAME
67 72 1 0 0 
SMALL
USER_CHARGES


@<TRIPOS>ATOM
  1 O       -1.0270     0.2780     0.0270 O.2   1 <1>  -0.5700 
  2 C       -2.0580     0.6860    -0.4500 C.2   1 <1>   0.5690 
  3 N       -2.9850    -0.0610    -1.1100 N.am  1 <1>  -0.5090 
  4 C       -2.4620     2.1350    -0.3650 C.3   1 <1>  -0.0190 
  5 C       -4.0880     0.7960    -1.6470 C.3   1 <1>   0.2810 
  6 C       -2.8070    -1.4420    -1.5960 C.3   1 <1>   0.0490 
  7 C       -3.5060     2.2030    -1.4780 C.3   1 <1>   0.4180 
  8 C       -1.4230     3.1780    -0.8490 C.3   1 <1>  -0.0190 
  9 C       -5.3740     0.6840    -0.8300 C.2   1 <1>   0.5690 
 10 C       -3.8710    -2.4610    -1.3320 C.3   1 <1>  -0.2000 
 11 C       -2.5760    -2.5180    -0.5850 C.3   1 <1>  -0.2000 
 12 O       -2.6830     2.5400    -2.5530 O.3   1 <1>  -0.5600 
 13 C       -4.2800     3.4960    -1.3700 C.2   1 <1>  -0.2880 
 14 C       -1.0950     4.2780     0.1400 C.2   1 <1>   0.5690 
 15 C       -2.1320     3.7190    -2.0950 C.3   1 <1>   0.4180 
 16 O       -6.4080     1.0400    -1.3410 O.2   1 <1>  -0.5700 
 17 N       -5.3110     0.2050     0.4490 N.am  1 <1>  -0.7300 
 18 C       -3.4200     4.4380    -1.7380 C.2   1 <1>  -0.2880 
 19 O       -1.9030     4.6050     0.9750 O.2   1 <1>  -0.5700 
 20 N        0.1230     4.8700     0.0530 N.am  1 <1>  -0.7300 
 21 C       -1.2910     4.3630    -3.1880 C.3   1 <1>  -0.2400 
 22 C       -6.3970     0.0710     1.4450 C.3   1 <1>   0.2200 
 23 C        0.5970     5.9620     0.9180 C.3   1 <1>   0.2200 
 24 C       -7.5630    -0.7780     0.9240 C.3   1 <1>  -0.1600 
 25 C       -6.9780     1.4360     1.8280 C.3   1 <1>  -0.1600 
 26 C        0.8690     7.1940     0.0490 C.3   1 <1>  -0.1600 
 27 C        1.8630     5.5030     1.6480 C.3   1 <1>  -0.1600 
 28 C       -8.7690     0.1590     0.8450 C.3   1 <1>  -0.1600 
 29 C       -8.4910     1.2340     1.8900 C.3   1 <1>  -0.1600 
 30 C        1.4700     8.3370     0.8810 C.3   1 <1>  -0.1600 
 31 C        2.4660     6.6430     2.4820 C.3   1 <1>  -0.1600 
 32 C        2.7380     7.8810     1.6160 C.3   1 <1>  -0.1600 
 33 H       -2.8970     2.3450     0.5950 H     1 <1>   0.0800 
 34 H       -4.2850     0.5880    -2.6820 H     1 <1>   0.0800 
 35 H       -2.2590    -1.4890    -2.5230 H     1 <1>   0.1000 
 36 H       -0.5150     2.6830    -1.1410 H     1 <1>   0.0800 
 37 H       -4.0570    -3.2170    -2.0740 H     1 <1>   0.1000 
 38 H       -4.7600    -2.1910    -0.7910 H     1 <1>   0.1000 
 39 H       -2.5460    -2.2420     0.4540 H     1 <1>   0.1000 
 40 H       -1.8780    -3.3010    -0.8230 H     1 <1>   0.1000 
 41 H       -5.3010     3.5310    -1.0290 H     1 <1>   0.1500 
 42 H       -4.4200    -0.2010     0.7480 H     1 <1>   0.3700 
 43 H       -3.4990     5.5090    -1.7940 H     1 <1>   0.1500 
 44 H        0.8100     4.5390    -0.6230 H     1 <1>   0.3700 
 45 H       -0.4910     3.7080    -3.4780 H     1 <1>   0.0800 
 46 H       -0.8760     5.2870    -2.8300 H     1 <1>   0.0800 
 47 H       -1.9080     4.5730    -4.0430 H     1 <1>   0.0800 
 48 H       -5.9980    -0.4010     2.3270 H     1 <1>   0.0800 
 49 H       -0.1600     6.2070     1.6470 H     1 <1>   0.0800 
 50 H       -7.7720    -1.5530     1.6390 H     1 <1>   0.0800 
 51 H       -7.3560    -1.2310    -0.0300 H     1 <1>   0.0800 
 52 H       -6.7610     2.1670     1.0700 H     1 <1>   0.0800 
 53 H       -6.5920     1.7790     2.7710 H     1 <1>   0.0800 
 54 H       -0.0530     7.5260    -0.3940 H     1 <1>   0.0800 
 55 H        1.5560     6.9380    -0.7380 H     1 <1>   0.0800 
 56 H        2.5940     5.1720     0.9320 H     1 <1>   0.0800 
 57 H        1.6200     4.6800     2.2960 H     1 <1>   0.0800 
 58 H       -9.6970    -0.3540     1.0230 H     1 <1>   0.0800 
 59 H       -8.8000     0.6150    -0.1320 H     1 <1>   0.0800 
 60 H       -9.0290     2.1440     1.6840 H     1 <1>   0.0800 
 61 H       -8.7700     0.8690     2.8640 H     1 <1>   0.0800 
 62 H        0.7430     8.6740     1.6010 H     1 <1>   0.0800 
 63 H        1.7050     9.1680     0.2370 H     1 <1>   0.0800 
 64 H        3.3830     6.3120     2.9380 H     1 <1>   0.0800 
 65 H        1.7820     6.9050     3.2720 H     1 <1>   0.0800 
 66 H        3.1020     8.6820     2.2370 H     1 <1>   0.0800 
 67 H        3.5040     7.6500     0.8960 H     1 <1>   0.0800 
@<TRIPOS>BOND
  1   1   2  2   
  2   2   3  am  
  3   2   4  1   
  4   3   5  1   
  5   3   6  1   
  6   4   7  1   
  7   4   8  1   
  8   4  33  1   
  9   5   7  1   
 10   5   9  1   
 11   5  34  1   
 12   6  10  1   
 13   6  11  1   
 14   6  35  1   
 15   7  12  1   
 16   7  13  1   
 17   8  14  1   
 18   8  15  1   
 19   8  36  1   
 20   9  16  2   
 21   9  17  am  
 22  10  11  1   
 23  10  37  1   
 24  10  38  1   
 25  11  39  1   
 26  11  40  1   
 27  12  15  1   
 28  13  18  2   
 29  13  41  1   
 30  14  19  2   
 31  14  20  am  
 32  15  18  1   
 33  15  21  1   
 34  17  22  1   
 35  17  42  1   
 36  18  43  1   
 37  20  23  1   
 38  20  44  1   
 39  21  45  1   
 40  21  46  1   
 41  21  47  1   
 42  22  24  1   
 43  22  25  1   
 44  22  48  1   
 45  23  26  1   
 46  23  27  1   
 47  23  49  1   
 48  24  28  1   
 49  24  50  1   
 50  24  51  1   
 51  25  29  1   
 52  25  52  1   
 53  25  53  1   
 54  26  30  1   
 55  26  54  1   
 56  26  55  1   
 57  27  31  1   
 58  27  56  1   
 59  27  57  1   
 60  28  29  1   
 61  28  58  1   
 62  28  59  1   
 63  29  60  1   
 64  29  61  1   
 65  30  32  1   
 66  30  62  1   
 67  30  63  1   
 68  31  32  1   
 69  31  64  1   
 70  31  65  1   
 71  32  66  1   
 72  32  67  1   
@<TRIPOS>SUBSTRUCTURE
  1 ****   4 GROUP 4 **** **** 0

# MOE 2024.06 (io_trps.svl 2023.06)
