@<TRIPOS>MOLECULE
NONAME
23 23 1 0 0 
SMALL
USER_CHARGES


@<TRIPOS>ATOM
  1 O        0.0780    -0.4900     0.5420 O.2   1 <1>  -0.5700 
  2 C        0.2800    -1.5130    -0.0610 C.2   1 <1>   0.4240 
  3 C        1.5280    -2.2250    -0.0810 C.ar  1 <1>   0.0860 
  4 C        1.6700    -3.4040    -0.8100 C.ar  1 <1>   0.1600 
  5 C        2.6470    -1.7830     0.6160 C.ar  1 <1>  -0.1500 
  6 N        2.7660    -4.1340    -0.8970 N.ar  1 <1>  -0.6200 
  7 C        3.8010    -2.5280     0.5390 C.ar  1 <1>  -0.1500 
  8 C        3.8210    -3.6940    -0.2260 C.ar  1 <1>   0.3920 
  9 O        4.9110    -4.4730    -0.3470 O.3   1 <1>  -0.3630 
 10 C        6.1660    -4.2150     0.2370 C.3   1 <1>   0.2000 
 11 C        6.9130    -3.1940    -0.6250 C.3   1 <1>  -0.2400 
 12 C        6.9170    -5.5430     0.2870 C.3   1 <1>  -0.2400 
 13 H       -0.5310    -1.9300    -0.6290 H     1 <1>   0.0600 
 14 H        0.8180    -3.7670    -1.3580 H     1 <1>   0.1500 
 15 H        2.6000    -0.8770     1.1980 H     1 <1>   0.1500 
 16 H        4.6700    -2.1960     1.0720 H     1 <1>   0.1500 
 17 H        6.0200    -3.8570     1.2410 H     1 <1>   0.0800 
 18 H        7.0330    -3.5710    -1.6250 H     1 <1>   0.0800 
 19 H        7.8870    -3.0090    -0.2110 H     1 <1>   0.0800 
 20 H        6.3810    -2.2610    -0.6630 H     1 <1>   0.0800 
 21 H        7.0440    -5.9390    -0.7050 H     1 <1>   0.0800 
 22 H        6.3690    -6.2510     0.8830 H     1 <1>   0.0800 
 23 H        7.8860    -5.4040     0.7300 H     1 <1>   0.0800 
@<TRIPOS>BOND
  1   1   2  2   
  2   2   3  1   
  3   2  13  1   
  4   3   4  ar  
  5   3   5  ar  
  6   4   6  ar  
  7   4  14  1   
  8   5   7  ar  
  9   5  15  1   
 10   6   8  ar  
 11   7   8  ar  
 12   7  16  1   
 13   8   9  1   
 14   9  10  1   
 15  10  11  1   
 16  10  12  1   
 17  10  17  1   
 18  11  18  1   
 19  11  19  1   
 20  11  20  1   
 21  12  21  1   
 22  12  22  1   
 23  12  23  1   
@<TRIPOS>SUBSTRUCTURE
  1 ****   8 GROUP 4 **** **** 0

# MOE 2024.06 (io_trps.svl 2023.06)
