@<TRIPOS>MOLECULE
N-(3,5-Dimethyl-phenyl)-propionamide
28 28 1 0 0 
SMALL
USER_CHARGES


@<TRIPOS>ATOM
  1 O       -0.1700    -0.0410    -1.2450 O.2   1 <1>  -0.5700 
  2 C       -0.0560    -1.1210    -0.7200 C.2   1 <1>   0.5690 
  3 N        1.1110    -1.6140    -0.2070 N.am  1 <1>  -0.5470 
  4 C       -1.2850    -2.0100    -0.6290 C.3   1 <1>  -0.0990 
  5 C        2.4020    -1.0680    -0.1180 C.ar  1 <1>   0.1170 
  6 C       -1.7760    -2.2070     0.8140 C.3   1 <1>  -0.2400 
  7 C        3.4620    -1.9230     0.1640 C.ar  1 <1>  -0.1500 
  8 C        2.6750     0.2860    -0.2830 C.ar  1 <1>  -0.1500 
  9 C        4.7570    -1.4480     0.2770 C.ar  1 <1>  -0.1430 
 10 C        3.9650     0.7750    -0.1760 C.ar  1 <1>  -0.1430 
 11 C        5.0040    -0.0970     0.1050 C.ar  1 <1>  -0.1500 
 12 C        5.9090    -2.3890     0.5830 C.3   1 <1>  -0.0970 
 13 C        4.2450     2.2550    -0.3610 C.3   1 <1>  -0.0970 
 14 H        1.0350    -2.5550     0.1680 H     1 <1>   0.3700 
 15 H       -1.0580    -2.9620    -1.0730 H     1 <1>   0.0800 
 16 H       -2.0710    -1.5610    -1.2100 H     1 <1>   0.0800 
 17 H       -1.0250    -2.6880     1.4140 H     1 <1>   0.0800 
 18 H       -2.6650    -2.8140     0.8220 H     1 <1>   0.0800 
 19 H       -2.0100    -1.2530     1.2550 H     1 <1>   0.0800 
 20 H        3.2700    -2.9710     0.2920 H     1 <1>   0.1500 
 21 H        1.8720     0.9680    -0.4920 H     1 <1>   0.1500 
 22 H        6.0080     0.2790     0.1910 H     1 <1>   0.1500 
 23 H        5.5490    -3.3680     0.8420 H     1 <1>   0.0800 
 24 H        6.4840    -2.0080     1.4080 H     1 <1>   0.0800 
 25 H        6.5490    -2.4720    -0.2770 H     1 <1>   0.0800 
 26 H        3.4320     2.7340    -0.8770 H     1 <1>   0.0800 
 27 H        5.1410     2.3940    -0.9390 H     1 <1>   0.0800 
 28 H        4.3710     2.7240     0.5980 H     1 <1>   0.0800 
@<TRIPOS>BOND
  1   1   2  2   
  2   2   3  am  
  3   2   4  1   
  4   3   5  1   
  5   3  14  1   
  6   4   6  1   
  7   4  15  1   
  8   4  16  1   
  9   5   7  ar  
 10   5   8  ar  
 11   6  17  1   
 12   6  18  1   
 13   6  19  1   
 14   7   9  ar  
 15   7  20  1   
 16   8  10  ar  
 17   8  21  1   
 18   9  11  ar  
 19   9  12  1   
 20  10  11  ar  
 21  10  13  1   
 22  11  22  1   
 23  12  23  1   
 24  12  24  1   
 25  12  25  1   
 26  13  26  1   
 27  13  27  1   
 28  13  28  1   
@<TRIPOS>SUBSTRUCTURE
  1 ****   5 GROUP 4 **** **** 0

# MOE 2024.06 (io_trps.svl 2023.06)
