@<TRIPOS>MOLECULE
N-(2-Chloro-phenyl)-2-[4-(2,3-dihydro-benzo[1,4]dioxine-6-carbonyl)-piperidin-1-yl]-acetamide
52 55 1 0 0 
SMALL
USER_CHARGES


@<TRIPOS>ATOM
  1 CL      -5.1080     1.6560    -2.3310 Cl    1 <1>  -0.1770 
  2 C       -3.6030     1.8450    -1.4540 C.ar  1 <1>   0.1770 
  3 C       -3.3930     1.1120    -0.2870 C.ar  1 <1>   0.1170 
  4 C       -2.6620     2.7280    -1.9490 C.ar  1 <1>  -0.1500 
  5 N       -4.3830     0.2230     0.1680 N.am  1 <1>  -0.5470 
  6 C       -2.1830     1.2970     0.3760 C.ar  1 <1>  -0.1500 
  7 C       -1.4670     2.8970    -1.2710 C.ar  1 <1>  -0.1500 
  8 C       -4.6200    -0.3740     1.3720 C.2   1 <1>   0.5690 
  9 C       -1.2320     2.1800    -0.1090 C.ar  1 <1>  -0.1500 
 10 O       -3.9220    -0.2400     2.3480 O.2   1 <1>  -0.5700 
 11 C       -5.8670    -1.2570     1.4600 C.3   1 <1>   0.1710 
 12 N       -6.8770    -0.9780     0.3950 N.3   1 <1>  -0.8100 
 13 C       -7.5950     0.2820     0.6530 C.3   1 <1>   0.1100 
 14 C       -7.8040    -2.1070     0.2400 C.3   1 <1>   0.1100 
 15 C       -8.5130     0.6060    -0.5280 C.3   1 <1>  -0.1600 
 16 C       -8.7340    -1.8540    -0.9500 C.3   1 <1>  -0.1600 
 17 C       -9.5130    -0.5360    -0.7810 C.3   1 <1>  -0.0190 
 18 C      -10.4260    -0.2240    -1.9750 C.2   1 <1>   0.4230 
 19 O      -10.0530    -0.5640    -3.0710 O.2   1 <1>  -0.5700 
 20 C      -11.6940     0.4510    -1.7720 C.ar  1 <1>   0.0860 
 21 C      -12.0290     1.1290    -0.5930 C.ar  1 <1>  -0.1500 
 22 C      -12.6560     0.4460    -2.7900 C.ar  1 <1>  -0.1500 
 23 C      -13.2520     1.7510    -0.4390 C.ar  1 <1>   0.0830 
 24 C      -13.8810     1.0720    -2.6490 C.ar  1 <1>  -0.1500 
 25 O      -13.5230     2.3720     0.7380 O.3   1 <1>  -0.3620 
 26 C      -14.1860     1.7330    -1.4740 C.ar  1 <1>   0.0830 
 27 C      -14.8780     2.7020     0.9900 C.3   1 <1>   0.1200 
 28 O      -15.3800     2.3560    -1.3540 O.3   1 <1>  -0.3630 
 29 C      -15.5370     3.2620    -0.2780 C.3   1 <1>   0.1200 
 30 H       -2.8640     3.2750    -2.8520 H     1 <1>   0.1500 
 31 H       -5.1540     0.0390    -0.4900 H     1 <1>   0.3700 
 32 H       -1.9750     0.7490     1.2780 H     1 <1>   0.1500 
 33 H       -0.7250     3.5820    -1.6430 H     1 <1>   0.1500 
 34 H       -0.3040     2.3080     0.4220 H     1 <1>   0.1500 
 35 H       -6.3130    -1.1360     2.4320 H     1 <1>   0.0800 
 36 H       -5.5310    -2.2740     1.3750 H     1 <1>   0.0800 
 37 H       -6.8940     1.0900     0.7800 H     1 <1>   0.0800 
 38 H       -8.1750     0.1960     1.5580 H     1 <1>   0.0800 
 39 H       -8.3800    -2.2380     1.1410 H     1 <1>   0.0800 
 40 H       -7.2450    -3.0100     0.0570 H     1 <1>   0.0800 
 41 H       -7.9110     0.7590    -1.4070 H     1 <1>   0.0800 
 42 H       -9.0360     1.5230    -0.3280 H     1 <1>   0.0800 
 43 H       -9.4230    -2.6730    -1.0480 H     1 <1>   0.0800 
 44 H       -8.1400    -1.8190    -1.8470 H     1 <1>   0.0800 
 45 H      -10.1260    -0.6570     0.0930 H     1 <1>   0.0800 
 46 H      -11.3420     1.1900     0.2280 H     1 <1>   0.1500 
 47 H      -12.4320    -0.0610    -3.7130 H     1 <1>   0.1500 
 48 H      -14.6030     1.0550    -3.4470 H     1 <1>   0.1500 
 49 H      -14.9000     3.4260     1.7840 H     1 <1>   0.0800 
 50 H      -15.3850     1.8100     1.3110 H     1 <1>   0.0800 
 51 H      -15.0800     4.1940    -0.5570 H     1 <1>   0.0800 
 52 H      -16.5900     3.4160    -0.1270 H     1 <1>   0.0800 
@<TRIPOS>BOND
  1   1   2  1   
  2   2   3  ar  
  3   2   4  ar  
  4   3   5  1   
  5   3   6  ar  
  6   4   7  ar  
  7   4  30  1   
  8   5   8  am  
  9   5  31  1   
 10   6   9  ar  
 11   6  32  1   
 12   7   9  ar  
 13   7  33  1   
 14   8  10  2   
 15   8  11  1   
 16   9  34  1   
 17  11  12  1   
 18  11  35  1   
 19  11  36  1   
 20  12  13  1   
 21  12  14  1   
 22  13  15  1   
 23  13  37  1   
 24  13  38  1   
 25  14  16  1   
 26  14  39  1   
 27  14  40  1   
 28  15  17  1   
 29  15  41  1   
 30  15  42  1   
 31  16  17  1   
 32  16  43  1   
 33  16  44  1   
 34  17  18  1   
 35  17  45  1   
 36  18  19  2   
 37  18  20  1   
 38  20  21  ar  
 39  20  22  ar  
 40  21  23  ar  
 41  21  46  1   
 42  22  24  ar  
 43  22  47  1   
 44  23  25  1   
 45  23  26  ar  
 46  24  26  ar  
 47  24  48  1   
 48  25  27  1   
 49  26  28  1   
 50  27  29  1   
 51  27  49  1   
 52  27  50  1   
 53  28  29  1   
 54  29  51  1   
 55  29  52  1   
@<TRIPOS>SUBSTRUCTURE
  1 ****  15 GROUP 4 **** **** 0

# MOE 2024.06 (io_trps.svl 2023.06)
