@<TRIPOS>MOLECULE
NONAME
40 43 1 0 0 
SMALL
USER_CHARGES


@<TRIPOS>ATOM
  1 O        1.1130    -1.8630    -1.4080 O.3   1 <1>  -0.3630 
  2 C        1.8070    -1.7320    -0.2510 C.ar  1 <1>   0.0830 
  3 C       -0.1320    -2.5240    -1.4440 C.3   1 <1>   0.0400 
  4 C        3.0170    -1.0620    -0.3260 C.ar  1 <1>  -0.1500 
  5 C        1.3730    -2.2260     0.9760 C.ar  1 <1>  -0.1500 
  6 C        3.8010    -0.8810     0.8030 C.ar  1 <1>  -0.1430 
  7 C        2.1520    -2.0480     2.1060 C.ar  1 <1>  -0.1500 
  8 C        3.3630    -1.3810     2.0210 C.ar  1 <1>  -0.1500 
  9 C        5.1250    -0.1510     0.6920 C.3   1 <1>   0.3530 
 10 N        6.0900    -1.0830     0.0810 N.pl3 1 <1>  -0.8690 
 11 C        7.4030    -0.9280    -0.2230 C.2   1 <1>   0.4790 
 12 N        8.0330    -1.9940    -0.7990 N.pl3 1 <1>  -0.3220 
 13 C        8.1950     0.1830    -0.0170 C.2   1 <1>  -0.1240 
 14 N        7.5510    -3.2360    -1.1450 N.2   1 <1>  -0.2600 
 15 C        9.3370    -1.9160    -1.1160 C.cat 1 <1>   0.9620 
 16 C        9.5270     0.1400    -0.3840 C.2   1 <1>   0.3750 
 17 C        7.8490     1.5310     0.5860 C.3   1 <1>  -0.0220 
 18 C        8.5640    -3.8420    -1.6470 C.2   1 <1>   0.5030 
 19 N       10.1400    -0.8780    -0.9320 N.2   1 <1>  -0.6120 
 20 N        9.6830    -3.0710    -1.6490 N.pl3 1 <1>  -0.7000 
 21 C       10.2280     1.4370    -0.0710 C.3   1 <1>  -0.0990 
 22 C        9.0910     2.3980     0.3190 C.3   1 <1>  -0.1600 
 23 H       -0.4910    -2.5040    -2.4570 H     1 <1>   0.0800 
 24 H       -0.8210    -2.0040    -0.8020 H     1 <1>   0.0800 
 25 H        0.0030    -3.5410    -1.1230 H     1 <1>   0.0800 
 26 H        3.3350    -0.6870    -1.2820 H     1 <1>   0.1500 
 27 H        0.4400    -2.7470     1.0700 H     1 <1>   0.1500 
 28 H        1.8160    -2.4310     3.0540 H     1 <1>   0.1500 
 29 H        3.9570    -1.2560     2.9100 H     1 <1>   0.1500 
 30 H        5.4680     0.1530     1.6660 H     1 <1>   0.0800 
 31 H        5.0050     0.7180     0.0690 H     1 <1>   0.0800 
 32 H        5.6490    -1.9850    -0.1410 H     1 <1>   0.4000 
 33 H        7.6850     1.4280     1.6450 H     1 <1>   0.0800 
 34 H        6.9810     1.9670     0.1230 H     1 <1>   0.0800 
 35 H        8.5470    -4.8520    -2.0290 H     1 <1>   0.1500 
 36 H       10.6240    -3.2750    -1.9770 H     1 <1>   0.4500 
 37 H       10.7740     1.8000    -0.9240 H     1 <1>   0.0800 
 38 H       10.9040     1.2890     0.7520 H     1 <1>   0.0800 
 39 H        9.3530     2.9930     1.1780 H     1 <1>   0.0800 
 40 H        8.8900     3.0590    -0.5070 H     1 <1>   0.0800 
@<TRIPOS>BOND
  1   1   2  1   
  2   1   3  1   
  3   2   4  ar  
  4   2   5  ar  
  5   3  23  1   
  6   3  24  1   
  7   3  25  1   
  8   4   6  ar  
  9   4  26  1   
 10   5   7  ar  
 11   5  27  1   
 12   6   8  ar  
 13   6   9  1   
 14   7   8  ar  
 15   7  28  1   
 16   8  29  1   
 17   9  10  1   
 18   9  30  1   
 19   9  31  1   
 20  10  11  1   
 21  10  32  1   
 22  11  12  1   
 23  11  13  2   
 24  12  14  1   
 25  12  15  ar  
 26  13  16  1   
 27  13  17  1   
 28  14  18  2   
 29  15  19  1   
 30  15  20  ar  
 31  16  19  2   
 32  16  21  1   
 33  17  22  1   
 34  17  33  1   
 35  17  34  1   
 36  18  20  1   
 37  18  35  1   
 38  20  36  1   
 39  21  22  1   
 40  21  37  1   
 41  21  38  1   
 42  22  39  1   
 43  22  40  1   
@<TRIPOS>SUBSTRUCTURE
  1 ****  10 GROUP 4 **** **** 0

# MOE 2024.06 (io_trps.svl 2023.06)
