@<TRIPOS>MOLECULE
NONAME
55 58 1 0 0 
SMALL
USER_CHARGES


@<TRIPOS>ATOM
  1 O       -0.0700     0.5380    -0.4750 O.2   1 <1>  -0.5700 
  2 C       -0.1720     1.7480    -0.4230 C.2   1 <1>   0.5440 
  3 N       -1.4110     2.2750    -0.1740 N.am  1 <1>  -0.7300 
  4 C        0.9830     2.6100    -0.6020 C.ar  1 <1>   0.0860 
  5 C       -2.5980     1.4570     0.1220 C.3   1 <1>   0.2200 
  6 C        2.2640     2.1650    -0.2740 C.ar  1 <1>  -0.1500 
  7 C        0.8690     3.9080    -1.1030 C.ar  1 <1>  -0.1500 
  8 C       -3.1620     0.9080    -1.1940 C.3   1 <1>  -0.1600 
  9 C       -3.6190     2.3010     0.8910 C.3   1 <1>  -0.1600 
 10 C        3.3730     2.9780    -0.4220 C.ar  1 <1>  -0.1500 
 11 C        1.9750     4.7250    -1.2520 C.ar  1 <1>  -0.1500 
 12 C       -4.5770     0.3350    -1.0740 C.3   1 <1>   0.4230 
 13 C       -5.0190     1.6730     0.9400 C.3   1 <1>   0.4230 
 14 C        3.2350     4.2660    -0.9090 C.ar  1 <1>  -0.1440 
 15 N       -5.4360     1.3740    -0.4560 N.4   1 <1>  -0.9590 
 16 C       -4.6710    -0.9840    -0.2800 C.3   1 <1>  -0.1600 
 17 C       -5.1210     0.4110     1.8210 C.3   1 <1>  -0.1600 
 18 C        4.4520     5.1590    -1.0730 C.3   1 <1>  -0.0970 
 19 C       -6.8890     1.0780    -0.5810 C.3   1 <1>   0.4860 
 20 C       -4.4750    -0.8600     1.2410 C.3   1 <1>  -0.1600 
 21 C       -7.6550     2.3330    -0.2170 C.ar  1 <1>  -0.1430 
 22 C       -8.3040     2.4270     1.0060 C.ar  1 <1>  -0.1500 
 23 C       -7.7050     3.4020    -1.1010 C.ar  1 <1>  -0.1500 
 24 C       -8.9820     3.5840     1.3480 C.ar  1 <1>  -0.1500 
 25 C       -8.3840     4.5580    -0.7570 C.ar  1 <1>  -0.1500 
 26 C       -9.0200     4.6500     0.4670 C.ar  1 <1>  -0.1500 
 27 H       -1.4730     3.2730     0.0300 H     1 <1>   0.3700 
 28 H       -2.2750     0.6390     0.7400 H     1 <1>   0.0800 
 29 H        2.3860     1.1640     0.1040 H     1 <1>   0.1500 
 30 H       -0.0940     4.2870    -1.3910 H     1 <1>   0.1500 
 31 H       -3.1790     1.6930    -1.9290 H     1 <1>   0.0800 
 32 H       -2.5030     0.1420    -1.5630 H     1 <1>   0.0800 
 33 H       -3.7090     3.2670     0.4280 H     1 <1>   0.0800 
 34 H       -3.2640     2.4540     1.8950 H     1 <1>   0.0800 
 35 H        4.3460     2.6010    -0.1570 H     1 <1>   0.1500 
 36 H        1.8550     5.7210    -1.6420 H     1 <1>   0.1500 
 37 H       -4.9260     0.1370    -2.0760 H     1 <1>   0.0800 
 38 H       -5.6830     2.4160     1.3550 H     1 <1>   0.0800 
 39 H       -5.2920     2.2420    -0.9810 H     1 <1>   0.4500 
 40 H       -3.9470    -1.6810    -0.6690 H     1 <1>   0.0800 
 41 H       -5.6350    -1.4230    -0.4670 H     1 <1>   0.0800 
 42 H       -4.6890     0.6160     2.7850 H     1 <1>   0.0800 
 43 H       -6.1620     0.2110     2.0020 H     1 <1>   0.0800 
 44 H        5.1960     4.9190    -0.3350 H     1 <1>   0.0800 
 45 H        4.1790     6.1920    -0.9560 H     1 <1>   0.0800 
 46 H        4.8750     5.0200    -2.0510 H     1 <1>   0.0800 
 47 H       -7.1680     0.2660     0.0710 H     1 <1>   0.0800 
 48 H       -7.1270     0.7990    -1.5940 H     1 <1>   0.0800 
 49 H       -3.4260    -0.8790     1.4760 H     1 <1>   0.0800 
 50 H       -4.8950    -1.7270     1.7260 H     1 <1>   0.0800 
 51 H       -8.2960     1.6080     1.7060 H     1 <1>   0.1500 
 52 H       -7.2270     3.3530    -2.0640 H     1 <1>   0.1500 
 53 H       -9.4860     3.6580     2.2970 H     1 <1>   0.1500 
 54 H       -8.4250     5.3890    -1.4420 H     1 <1>   0.1500 
 55 H       -9.5490     5.5490     0.7340 H     1 <1>   0.1500 
@<TRIPOS>BOND
  1   1   2  2   
  2   2   3  am  
  3   2   4  1   
  4   3   5  1   
  5   3  27  1   
  6   4   6  ar  
  7   4   7  ar  
  8   5   8  1   
  9   5   9  1   
 10   5  28  1   
 11   6  10  ar  
 12   6  29  1   
 13   7  11  ar  
 14   7  30  1   
 15   8  12  1   
 16   8  31  1   
 17   8  32  1   
 18   9  13  1   
 19   9  33  1   
 20   9  34  1   
 21  10  14  ar  
 22  10  35  1   
 23  11  14  ar  
 24  11  36  1   
 25  12  15  1   
 26  12  16  1   
 27  12  37  1   
 28  13  15  1   
 29  13  17  1   
 30  13  38  1   
 31  14  18  1   
 32  15  19  1   
 33  15  39  1   
 34  16  20  1   
 35  16  40  1   
 36  16  41  1   
 37  17  20  1   
 38  17  42  1   
 39  17  43  1   
 40  18  44  1   
 41  18  45  1   
 42  18  46  1   
 43  19  21  1   
 44  19  47  1   
 45  19  48  1   
 46  20  49  1   
 47  20  50  1   
 48  21  22  ar  
 49  21  23  ar  
 50  22  24  ar  
 51  22  51  1   
 52  23  25  ar  
 53  23  52  1   
 54  24  26  ar  
 55  24  53  1   
 56  25  26  ar  
 57  25  54  1   
 58  26  55  1   
@<TRIPOS>SUBSTRUCTURE
  1 ****   5 GROUP 4 **** **** 0

# MOE 2024.06 (io_trps.svl 2023.06)
