@<TRIPOS>MOLECULE
4-(7-Cyano-[1,3]dioxolo[4,5-g]quinolin-6-yl)-[1,4]diazepane-1-carboxylic acid o-tolylamide
55 59 1 0 0 
SMALL
USER_CHARGES


@<TRIPOS>ATOM
  1 O        1.1490    -0.8560     1.5490 O.2   1 <1>  -0.5700 
  2 C        1.2990    -1.8680     0.8890 C.2   1 <1>   0.6900 
  3 N        2.5620    -2.3230     0.5990 N.am  1 <1>  -0.6600 
  4 N        0.2200    -2.5770     0.4500 N.am  1 <1>  -0.5470 
  5 C        3.7360    -1.7110     1.2990 C.3   1 <1>   0.1400 
  6 C        2.8610    -3.2820    -0.5030 C.3   1 <1>   0.1400 
  7 C       -1.1380    -2.2410     0.5010 C.ar  1 <1>   0.1170 
  8 C        4.1770    -0.4010     0.6280 C.3   1 <1>   0.2090 
  9 C        4.0330    -2.8530    -1.3970 C.3   1 <1>  -0.1600 
 10 C       -1.6620    -1.1040    -0.1220 C.ar  1 <1>  -0.1440 
 11 C       -2.0000    -3.0950     1.1790 C.ar  1 <1>  -0.1500 
 12 N        4.8470    -0.6150    -0.6960 N.pl3 1 <1>  -0.8380 
 13 C        4.0650    -1.3560    -1.7240 C.3   1 <1>   0.2090 
 14 C       -3.0220    -0.8460    -0.0440 C.ar  1 <1>  -0.1500 
 15 C       -0.7800    -0.1320    -0.8970 C.3   1 <1>  -0.0970 
 16 C       -3.3550    -2.8330     1.2480 C.ar  1 <1>  -0.1500 
 17 C        6.2280    -0.5860    -0.7600 C.ar  1 <1>   0.4100 
 18 C       -3.8680    -1.7050     0.6360 C.ar  1 <1>  -0.1500 
 19 N        6.8540    -1.2930     0.1450 N.ar  1 <1>  -0.6200 
 20 C        6.8980     0.1760    -1.7540 C.ar  1 <1>   0.0730 
 21 C        8.2050    -1.3170     0.1210 C.ar  1 <1>   0.3100 
 22 C        6.1520     0.9550    -2.6950 C.1   1 <1>   0.4840 
 23 C        8.2640     0.1580    -1.7890 C.ar  1 <1>  -0.1500 
 24 C        8.9650    -0.6010    -0.8410 C.ar  1 <1>   0.0000 
 25 C        8.8770    -2.0840     1.0900 C.ar  1 <1>  -0.1500 
 26 N        5.5930     1.5630    -3.4820 N.1   1 <1>  -0.5570 
 27 C       10.3750    -0.6710    -0.8160 C.ar  1 <1>  -0.1500 
 28 C       10.2420    -2.1250     1.0820 C.ar  1 <1>   0.0820 
 29 C       10.9770    -1.4310     0.1460 C.ar  1 <1>   0.0820 
 30 O       11.0640    -2.7840     1.9010 O.3   1 <1>  -0.3620 
 31 O       12.2820    -1.6370     0.3530 O.3   1 <1>  -0.3620 
 32 C       12.3960    -2.5060     1.4770 C.3   1 <1>   0.4000 
 33 H        0.4290    -3.5530     0.2770 H     1 <1>   0.3700 
 34 H        4.5600    -2.4010     1.3320 H     1 <1>   0.0800 
 35 H        3.4560    -1.4930     2.3150 H     1 <1>   0.0800 
 36 H        1.9940    -3.3820    -1.1320 H     1 <1>   0.0800 
 37 H        3.0740    -4.2480    -0.0780 H     1 <1>   0.0800 
 38 H        4.8650     0.1000     1.2860 H     1 <1>   0.0800 
 39 H        3.3260     0.2440     0.5010 H     1 <1>   0.0800 
 40 H        3.9470    -3.3970    -2.3190 H     1 <1>   0.0800 
 41 H        4.9650    -3.1510    -0.9510 H     1 <1>   0.0800 
 42 H       -1.6050    -3.9690     1.6630 H     1 <1>   0.1500 
 43 H        3.0680    -0.9550    -1.7870 H     1 <1>   0.0800 
 44 H        4.5330    -1.2240    -2.6840 H     1 <1>   0.0800 
 45 H       -3.4330     0.0290    -0.5140 H     1 <1>   0.1500 
 46 H       -0.0520    -0.6650    -1.4800 H     1 <1>   0.0800 
 47 H       -0.2680     0.5170    -0.2100 H     1 <1>   0.0800 
 48 H       -1.3670     0.4720    -1.5640 H     1 <1>   0.0800 
 49 H       -4.0100    -3.5020     1.7800 H     1 <1>   0.1500 
 50 H       -4.9210    -1.4930     0.6900 H     1 <1>   0.1500 
 51 H        8.8140     0.7170    -2.5260 H     1 <1>   0.1500 
 52 H        8.3060    -2.6250     1.8200 H     1 <1>   0.1500 
 53 H       10.9640    -0.1350    -1.5380 H     1 <1>   0.1500 
 54 H       12.8790    -3.4210     1.1800 H     1 <1>   0.0800 
 55 H       12.9310    -2.0100     2.2660 H     1 <1>   0.0800 
@<TRIPOS>BOND
  1   1   2  2   
  2   2   3  am  
  3   2   4  am  
  4   3   5  1   
  5   3   6  1   
  6   4   7  1   
  7   4  33  1   
  8   5   8  1   
  9   5  34  1   
 10   5  35  1   
 11   6   9  1   
 12   6  36  1   
 13   6  37  1   
 14   7  10  ar  
 15   7  11  ar  
 16   8  12  1   
 17   8  38  1   
 18   8  39  1   
 19   9  13  1   
 20   9  40  1   
 21   9  41  1   
 22  10  14  ar  
 23  10  15  1   
 24  11  16  ar  
 25  11  42  1   
 26  12  13  1   
 27  12  17  1   
 28  13  43  1   
 29  13  44  1   
 30  14  18  ar  
 31  14  45  1   
 32  15  46  1   
 33  15  47  1   
 34  15  48  1   
 35  16  18  ar  
 36  16  49  1   
 37  17  19  ar  
 38  17  20  ar  
 39  18  50  1   
 40  19  21  ar  
 41  20  22  1   
 42  20  23  ar  
 43  21  24  ar  
 44  21  25  ar  
 45  22  26  3   
 46  23  24  ar  
 47  23  51  1   
 48  24  27  ar  
 49  25  28  ar  
 50  25  52  1   
 51  27  29  ar  
 52  27  53  1   
 53  28  29  ar  
 54  28  30  1   
 55  29  31  1   
 56  30  32  1   
 57  31  32  1   
 58  32  54  1   
 59  32  55  1   
@<TRIPOS>SUBSTRUCTURE
  1 ****  12 GROUP 4 **** **** 0

# MOE 2024.06 (io_trps.svl 2023.06)
