@<TRIPOS>MOLECULE
2-[5-Benzyl-4-(2-methoxy-ethyl)-4H-[1,2,4]triazol-3-ylsulfanyl]-acetamide
39 40 1 0 0 
SMALL
USER_CHARGES


@<TRIPOS>ATOM
  1 S       -0.8190     0.1170    -0.3530 S.3   1 <1>  -0.2860 
  2 C       -1.3050    -1.4480    -1.0880 C.2   1 <1>   0.2420 
  3 C        1.0390     0.0110    -0.3670 C.3   1 <1>   0.1310 
  4 N       -0.4650    -2.3270    -1.5020 N.2   1 <1>  -0.3380 
  5 N       -2.5780    -1.8060    -1.2490 N.pl3 1 <1>   0.0480 
  6 C        1.6830     1.2550     0.2290 C.2   1 <1>   0.5690 
  7 N       -1.2010    -3.3400    -1.9680 N.2   1 <1>  -0.3380 
  8 C       -2.4440    -3.0200    -1.8090 C.2   1 <1>   0.0060 
  9 C       -3.7930    -1.0420    -0.8910 C.3   1 <1>   0.0960 
 10 O        2.8620     1.2490     0.4690 O.2   1 <1>  -0.5700 
 11 N        0.9560     2.3610     0.4880 N.am  1 <1>  -0.8000 
 12 C       -3.6010    -3.9260    -2.2040 C.3   1 <1>   0.1630 
 13 C       -4.1280    -1.2290     0.5870 C.3   1 <1>   0.1200 
 14 C       -4.4510    -4.2860    -0.9930 C.ar  1 <1>  -0.1430 
 15 O       -5.2980    -0.5240     0.8460 O.3   1 <1>  -0.5600 
 16 C       -5.8030    -3.9780    -0.9500 C.ar  1 <1>  -0.1500 
 17 C       -3.8640    -4.9200     0.0930 C.ar  1 <1>  -0.1500 
 18 C       -5.8130    -0.7460     2.1190 C.3   1 <1>   0.0400 
 19 C       -6.5550    -4.2910     0.1690 C.ar  1 <1>  -0.1500 
 20 C       -4.6160    -5.2360     1.2100 C.ar  1 <1>  -0.1500 
 21 C       -5.9630    -4.9200     1.2500 C.ar  1 <1>  -0.1500 
 22 H        1.3440    -0.1130    -1.3890 H     1 <1>   0.0800 
 23 H        1.3130    -0.8580     0.2000 H     1 <1>   0.0800 
 24 H       -4.6140    -1.3850    -1.4910 H     1 <1>   0.0800 
 25 H       -3.6240    -0.0010    -1.0940 H     1 <1>   0.0800 
 26 H        1.4060     3.1830     0.8920 H     1 <1>   0.3700 
 27 H       -0.0510     2.4100     0.3280 H     1 <1>   0.3700 
 28 H       -3.2110    -4.8300    -2.6370 H     1 <1>   0.0800 
 29 H       -4.1950    -3.4360    -2.9540 H     1 <1>   0.0800 
 30 H       -3.3450    -0.8330     1.2120 H     1 <1>   0.0800 
 31 H       -4.2940    -2.2680     0.8120 H     1 <1>   0.0800 
 32 H       -6.2820    -3.4910    -1.7820 H     1 <1>   0.1500 
 33 H       -2.8150    -5.1670     0.0710 H     1 <1>   0.1500 
 34 H       -6.7040    -0.1530     2.2280 H     1 <1>   0.0800 
 35 H       -5.0860    -0.4490     2.8550 H     1 <1>   0.0800 
 36 H       -6.0580    -1.7900     2.2260 H     1 <1>   0.0800 
 37 H       -7.6030    -4.0470     0.1970 H     1 <1>   0.1500 
 38 H       -4.1540    -5.7290     2.0480 H     1 <1>   0.1500 
 39 H       -6.5490    -5.1660     2.1180 H     1 <1>   0.1500 
@<TRIPOS>BOND
  1   1   2  1   
  2   1   3  1   
  3   2   4  2   
  4   2   5  1   
  5   3   6  1   
  6   3  22  1   
  7   3  23  1   
  8   4   7  1   
  9   5   8  1   
 10   5   9  1   
 11   6  10  2   
 12   6  11  am  
 13   7   8  2   
 14   8  12  1   
 15   9  13  1   
 16   9  24  1   
 17   9  25  1   
 18  11  26  1   
 19  11  27  1   
 20  12  14  1   
 21  12  28  1   
 22  12  29  1   
 23  13  15  1   
 24  13  30  1   
 25  13  31  1   
 26  14  16  ar  
 27  14  17  ar  
 28  15  18  1   
 29  16  19  ar  
 30  16  32  1   
 31  17  20  ar  
 32  17  33  1   
 33  18  34  1   
 34  18  35  1   
 35  18  36  1   
 36  19  21  ar  
 37  19  37  1   
 38  20  21  ar  
 39  20  38  1   
 40  21  39  1   
@<TRIPOS>SUBSTRUCTURE
  1 ****   5 GROUP 4 **** **** 0

# MOE 2024.06 (io_trps.svl 2023.06)
