@<TRIPOS>MOLECULE
5-(3-Methoxy-phenoxymethyl)-4-(3-methoxy-propyl)-4H-[1,2,4]triazole-3-thiol
40 41 1 0 0 
SMALL
USER_CHARGES


@<TRIPOS>ATOM
  1 S        0.0230     0.1460    -1.7330 S.3   1 <1>  -0.9360 
  2 C        1.5660    -0.0650    -1.2820 C.cat 1 <1>   0.7360 
  3 N        2.1610    -1.2310    -1.1710 N.pl3 1 <1>  -0.3930 
  4 N        2.4340     0.8790    -0.9710 N.pl3 1 <1>  -0.7640 
  5 N        3.4610    -1.0750    -0.7800 N.2   1 <1>  -0.2600 
  6 C        3.5960     0.2000    -0.6700 C.2   1 <1>   0.4850 
  7 C        2.1540     2.3270    -1.0330 C.3   1 <1>   0.3540 
  8 C        4.8880     0.8850    -0.2340 C.3   1 <1>   0.2880 
  9 C        1.9910     2.8840     0.3780 C.3   1 <1>  -0.1600 
 10 O        5.2780     1.8600    -1.1860 O.3   1 <1>  -0.3620 
 11 C        1.6240     4.3640     0.3340 C.3   1 <1>   0.1200 
 12 C        6.3140     2.6990    -0.9450 C.ar  1 <1>   0.0820 
 13 O        1.6340     4.8330     1.6390 O.3   1 <1>  -0.5600 
 14 C        7.0700     2.6830     0.2230 C.ar  1 <1>  -0.1500 
 15 C        6.6130     3.6180    -1.9380 C.ar  1 <1>  -0.1500 
 16 C        1.2710     6.1690     1.7640 C.3   1 <1>   0.0400 
 17 C        8.1080     3.5820     0.3960 C.ar  1 <1>   0.0820 
 18 C        7.6510     4.5180    -1.7710 C.ar  1 <1>  -0.1500 
 19 O        8.7890     3.5010     1.5660 O.3   1 <1>  -0.3620 
 20 C        8.3990     4.5040    -0.6070 C.ar  1 <1>  -0.1500 
 21 C        9.8520     4.3810     1.8580 C.3   1 <1>   0.0400 
 22 H        1.6590    -2.0950    -1.3740 H     1 <1>   0.4500 
 23 H        1.2520     2.5000    -1.5960 H     1 <1>   0.0800 
 24 H        2.9580     2.8280    -1.5440 H     1 <1>   0.0800 
 25 H        5.6810     0.1640    -0.1480 H     1 <1>   0.0800 
 26 H        4.7290     1.3700     0.7110 H     1 <1>   0.0800 
 27 H        2.9090     2.7730     0.9220 H     1 <1>   0.0800 
 28 H        1.2060     2.3470     0.8810 H     1 <1>   0.0800 
 29 H        0.6380     4.5000    -0.0790 H     1 <1>   0.0800 
 30 H        2.3470     4.9250    -0.2350 H     1 <1>   0.0800 
 31 H        6.8850     1.9890     1.0190 H     1 <1>   0.1500 
 32 H        6.0310     3.6260    -2.8430 H     1 <1>   0.1500 
 33 H        1.3140     6.4300     2.8070 H     1 <1>   0.0800 
 34 H        0.2670     6.3010     1.3990 H     1 <1>   0.0800 
 35 H        1.9620     6.7800     1.2090 H     1 <1>   0.0800 
 36 H        7.8770     5.2290    -2.5480 H     1 <1>   0.1500 
 37 H        9.1980     5.2120    -0.5000 H     1 <1>   0.1500 
 38 H       10.2300     4.1360     2.8350 H     1 <1>   0.0800 
 39 H        9.4820     5.3910     1.8530 H     1 <1>   0.0800 
 40 H       10.6270     4.2490     1.1240 H     1 <1>   0.0800 
@<TRIPOS>BOND
  1   1   2  1   
  2   2   3  ar  
  3   2   4  ar  
  4   3   5  1   
  5   3  22  1   
  6   4   6  1   
  7   4   7  1   
  8   5   6  2   
  9   6   8  1   
 10   7   9  1   
 11   7  23  1   
 12   7  24  1   
 13   8  10  1   
 14   8  25  1   
 15   8  26  1   
 16   9  11  1   
 17   9  27  1   
 18   9  28  1   
 19  10  12  1   
 20  11  13  1   
 21  11  29  1   
 22  11  30  1   
 23  12  14  ar  
 24  12  15  ar  
 25  13  16  1   
 26  14  17  ar  
 27  14  31  1   
 28  15  18  ar  
 29  15  32  1   
 30  16  33  1   
 31  16  34  1   
 32  16  35  1   
 33  17  19  1   
 34  17  20  ar  
 35  18  20  ar  
 36  18  36  1   
 37  19  21  1   
 38  20  37  1   
 39  21  38  1   
 40  21  39  1   
 41  21  40  1   
@<TRIPOS>SUBSTRUCTURE
  1 ****  10 GROUP 4 **** **** 0

# MOE 2024.06 (io_trps.svl 2023.06)
