@<TRIPOS>MOLECULE
NONAME
42 44 1 0 0 
SMALL
USER_CHARGES


@<TRIPOS>ATOM
  1 S       -0.2830    -0.7260     0.7700 S.3   1 <1>  -0.0800 
  2 C        0.9530    -1.6180    -0.0360 C.2   1 <1>   0.4340 
  3 C       -1.4010    -1.8690     0.0880 C.2   1 <1>   0.4420 
  4 S        2.6320    -1.0450     0.1610 S.3   1 <1>  -0.2860 
  5 N        0.5420    -2.6140    -0.7040 N.2   1 <1>  -0.3380 
  6 N       -0.8180    -2.7600    -0.6330 N.2   1 <1>  -0.3380 
  7 N       -2.7340    -1.6800     0.3960 N.am  1 <1>  -0.4940 
  8 C        3.5990    -2.2740    -0.8500 C.3   1 <1>   0.1310 
  9 C       -3.8140    -2.4250     0.0190 C.2   1 <1>   0.5690 
 10 C        5.0930    -1.9860    -0.8310 C.2   1 <1>   0.5690 
 11 O       -3.7420    -3.4140    -0.6590 O.2   1 <1>  -0.5700 
 12 C       -5.1820    -1.9670     0.4790 C.3   1 <1>  -0.0990 
 13 O        5.8170    -2.7240    -1.4560 O.2   1 <1>  -0.5700 
 14 N        5.5730    -0.9250    -0.1260 N.am  1 <1>  -0.5790 
 15 C       -5.9340    -1.2560    -0.6510 C.3   1 <1>  -0.0170 
 16 C        6.9830    -0.5270    -0.0180 C.3   1 <1>   0.0490 
 17 C       -7.2720    -0.7410    -0.1470 C.ar  1 <1>  -0.1440 
 18 C        7.4490     0.0570     1.2730 C.3   1 <1>  -0.2000 
 19 C        7.2960     0.9290     0.0640 C.3   1 <1>  -0.2000 
 20 C       -7.4150     0.5790     0.2510 C.ar  1 <1>  -0.1500 
 21 C       -8.3610    -1.5950    -0.0760 C.ar  1 <1>  -0.1500 
 22 C       -8.6350     1.0400     0.7170 C.ar  1 <1>  -0.1500 
 23 C       -9.5810    -1.1360     0.3900 C.ar  1 <1>  -0.1500 
 24 C       -9.7180     0.1820     0.7870 C.ar  1 <1>  -0.1500 
 25 H       -2.9310    -0.8770     0.9850 H     1 <1>   0.3700 
 26 H        3.2250    -2.2240    -1.8560 H     1 <1>   0.0800 
 27 H        3.4050    -3.2480    -0.4400 H     1 <1>   0.0800 
 28 H       -5.0900    -1.3120     1.3250 H     1 <1>   0.0800 
 29 H       -5.7420    -2.8300     0.7900 H     1 <1>   0.0800 
 30 H        4.9130    -0.3350     0.3830 H     1 <1>   0.3700 
 31 H       -6.0940    -1.9410    -1.4670 H     1 <1>   0.0800 
 32 H       -5.3470    -0.4360    -1.0270 H     1 <1>   0.0800 
 33 H        7.6530    -1.1710    -0.5680 H     1 <1>   0.1000 
 34 H        8.4440    -0.1730     1.6120 H     1 <1>   0.1000 
 35 H        6.7490     0.1550     2.0840 H     1 <1>   0.1000 
 36 H        6.4880     1.6390     0.0270 H     1 <1>   0.1000 
 37 H        8.1870     1.2920    -0.4180 H     1 <1>   0.1000 
 38 H       -6.5820     1.2570     0.2000 H     1 <1>   0.1500 
 39 H       -8.2650    -2.6220    -0.3830 H     1 <1>   0.1500 
 40 H       -8.7420     2.0660     1.0240 H     1 <1>   0.1500 
 41 H      -10.4230    -1.8040     0.4430 H     1 <1>   0.1500 
 42 H      -10.6660     0.5400     1.1490 H     1 <1>   0.1500 
@<TRIPOS>BOND
  1   1   2  1   
  2   1   3  1   
  3   2   4  1   
  4   2   5  2   
  5   3   6  2   
  6   3   7  1   
  7   4   8  1   
  8   5   6  1   
  9   7   9  am  
 10   7  25  1   
 11   8  10  1   
 12   8  26  1   
 13   8  27  1   
 14   9  11  2   
 15   9  12  1   
 16  10  13  2   
 17  10  14  am  
 18  12  15  1   
 19  12  28  1   
 20  12  29  1   
 21  14  16  1   
 22  14  30  1   
 23  15  17  1   
 24  15  31  1   
 25  15  32  1   
 26  16  18  1   
 27  16  19  1   
 28  16  33  1   
 29  17  20  ar  
 30  17  21  ar  
 31  18  19  1   
 32  18  34  1   
 33  18  35  1   
 34  19  36  1   
 35  19  37  1   
 36  20  22  ar  
 37  20  38  1   
 38  21  23  ar  
 39  21  39  1   
 40  22  24  ar  
 41  22  40  1   
 42  23  24  ar  
 43  23  41  1   
 44  24  42  1   
@<TRIPOS>SUBSTRUCTURE
  1 ****   3 GROUP 4 **** **** 0

# MOE 2024.06 (io_trps.svl 2023.06)
