@<TRIPOS>MOLECULE
NONAME
31 32 1 0 0 
SMALL
USER_CHARGES


@<TRIPOS>ATOM
  1 O       -2.5670     0.9150    -0.1630 O.co2 1 <1>  -0.9000 
  2 C       -3.3220     0.5040    -1.0550 C.2   1 <1>   0.9060 
  3 O       -3.0390     0.6070    -2.2540 O.co2 1 <1>  -0.9000 
  4 C       -4.6270    -0.1920    -0.6490 C.3   1 <1>   0.0140 
  5 O       -5.6950     0.6510    -0.2430 O.3   1 <1>  -0.5600 
  6 C       -5.3640     1.5270     0.8150 C.3   1 <1>   0.1810 
  7 C       -6.5940     2.2880     1.3090 C.2   1 <1>   0.5690 
  8 O       -6.5630     2.8760     2.3660 O.2   1 <1>  -0.5700 
  9 N       -7.7070     2.2830     0.5360 N.am  1 <1>  -0.7300 
 10 C       -8.9910     2.9170     0.8560 C.3   1 <1>   0.2840 
 11 C      -10.1130     1.9970     0.4090 C.ar  1 <1>  -0.1430 
 12 C      -10.7420     2.2070    -0.8150 C.ar  1 <1>  -0.1500 
 13 C      -10.5080     0.9370     1.2240 C.ar  1 <1>  -0.1500 
 14 C      -11.7580     1.3470    -1.1810 C.ar  1 <1>   0.0820 
 15 C      -11.5340     0.0820     0.8400 C.ar  1 <1>  -0.1500 
 16 O      -12.4920     1.3600    -2.2980 O.3   1 <1>  -0.3630 
 17 C      -12.1440     0.3140    -0.3760 C.ar  1 <1>   0.0820 
 18 C      -13.4010     0.2650    -2.2010 C.3   1 <1>   0.4000 
 19 O      -13.1400    -0.3690    -0.9500 O.3   1 <1>  -0.3630 
 20 H       -4.4100    -0.8670     0.1560 H     1 <1>   0.0800 
 21 H       -4.9720    -0.7610    -1.4910 H     1 <1>   0.0800 
 22 H       -4.6350     2.2350     0.4630 H     1 <1>   0.0800 
 23 H       -4.9430     0.9550     1.6210 H     1 <1>   0.0800 
 24 H       -7.6710     1.6970    -0.3050 H     1 <1>   0.3700 
 25 H       -9.0550     3.8630     0.3460 H     1 <1>   0.0800 
 26 H       -9.0570     3.0980     1.9160 H     1 <1>   0.0800 
 27 H      -10.4570     3.0090    -1.4710 H     1 <1>   0.1500 
 28 H      -10.0080     0.7750     2.1650 H     1 <1>   0.1500 
 29 H      -11.8490    -0.7380     1.4590 H     1 <1>   0.1500 
 30 H      -13.2170    -0.4290    -3.0020 H     1 <1>   0.0800 
 31 H      -14.4120     0.6320    -2.2160 H     1 <1>   0.0800 
@<TRIPOS>BOND
  1   1   2  ar  
  2   2   3  ar  
  3   2   4  1   
  4   4   5  1   
  5   4  20  1   
  6   4  21  1   
  7   5   6  1   
  8   6   7  1   
  9   6  22  1   
 10   6  23  1   
 11   7   8  2   
 12   7   9  am  
 13   9  10  1   
 14   9  24  1   
 15  10  11  1   
 16  10  25  1   
 17  10  26  1   
 18  11  12  ar  
 19  11  13  ar  
 20  12  14  ar  
 21  12  27  1   
 22  13  15  ar  
 23  13  28  1   
 24  14  16  1   
 25  14  17  ar  
 26  15  17  ar  
 27  15  29  1   
 28  16  18  1   
 29  17  19  1   
 30  18  19  1   
 31  18  30  1   
 32  18  31  1   
@<TRIPOS>SUBSTRUCTURE
  1 ****   9 GROUP 4 **** **** 0

# MOE 2024.06 (io_trps.svl 2023.06)
