@<TRIPOS>MOLECULE
4-(3-Fluoro-benzoylamino)-piperidine-1-carboxylic acid (2-ethyl-phenyl)-amide
51 53 1 0 0 
SMALL
USER_CHARGES


@<TRIPOS>ATOM
  1 F       -1.8910    -0.0010     2.7390 F     1 <1>  -0.1900 
  2 C       -2.0820     1.0090     1.9350 C.ar  1 <1>   0.1900 
  3 C       -3.2270     1.0360     1.1660 C.ar  1 <1>  -0.1500 
  4 C       -1.1290     2.0080     1.8880 C.ar  1 <1>  -0.1500 
  5 C       -3.4590     2.1070     0.3010 C.ar  1 <1>   0.0860 
  6 C       -1.3410     3.0710     1.0290 C.ar  1 <1>  -0.1500 
  7 C       -4.6560     2.1850    -0.5200 C.2   1 <1>   0.5440 
  8 C       -2.4870     3.1130     0.2510 C.ar  1 <1>  -0.1500 
  9 O       -4.6600     2.8240    -1.5530 O.2   1 <1>  -0.5700 
 10 N       -5.8080     1.5580    -0.1370 N.am  1 <1>  -0.7300 
 11 C       -7.0620     1.5530    -0.9070 C.3   1 <1>   0.2200 
 12 C       -8.0000     2.6190    -0.3400 C.3   1 <1>  -0.1600 
 13 C       -7.6910     0.1620    -0.8290 C.3   1 <1>  -0.1600 
 14 C       -9.3560     2.5830    -1.0480 C.3   1 <1>   0.1400 
 15 C       -9.0470     0.1460    -1.5370 C.3   1 <1>   0.1400 
 16 N       -9.9200     1.2070    -0.9610 N.am  1 <1>  -0.6600 
 17 C      -11.0150     0.8760    -0.2010 C.2   1 <1>   0.6900 
 18 O      -11.1450    -0.2550     0.2290 O.2   1 <1>  -0.5700 
 19 N      -11.9600     1.8340     0.0330 N.am  1 <1>  -0.5470 
 20 C      -13.1020     1.8460     0.8510 C.ar  1 <1>   0.1170 
 21 C      -14.1940     2.6580     0.5210 C.ar  1 <1>  -0.1430 
 22 C      -13.1550     1.0770     2.0100 C.ar  1 <1>  -0.1500 
 23 C      -15.3000     2.6780     1.3630 C.ar  1 <1>  -0.1500 
 24 C      -14.1420     3.5010    -0.7610 C.3   1 <1>  -0.0170 
 25 C      -14.2620     1.1030     2.8350 C.ar  1 <1>  -0.1500 
 26 C      -15.3360     1.9060     2.5110 C.ar  1 <1>  -0.1500 
 27 C      -15.4270     4.2550    -1.1240 C.3   1 <1>  -0.2400 
 28 H       -3.9230     0.2220     1.2380 H     1 <1>   0.1500 
 29 H       -0.2500     1.9500     2.5030 H     1 <1>   0.1500 
 30 H       -0.6150     3.8650     0.9630 H     1 <1>   0.1500 
 31 H       -2.6400     3.9440    -0.4170 H     1 <1>   0.1500 
 32 H       -5.8720     1.1420     0.7910 H     1 <1>   0.3700 
 33 H       -6.8510     1.7830    -1.9400 H     1 <1>   0.0800 
 34 H       -7.5570     3.5890    -0.4750 H     1 <1>   0.0800 
 35 H       -8.1540     2.4550     0.7120 H     1 <1>   0.0800 
 36 H       -7.8410    -0.1270     0.1970 H     1 <1>   0.0800 
 37 H       -7.0420    -0.5560    -1.2980 H     1 <1>   0.0800 
 38 H       -9.2360     2.8500    -2.0840 H     1 <1>   0.0800 
 39 H      -10.0100     3.3020    -0.5870 H     1 <1>   0.0800 
 40 H       -9.5040    -0.8240    -1.4310 H     1 <1>   0.0800 
 41 H       -8.9150     0.3340    -2.5890 H     1 <1>   0.0800 
 42 H      -11.8810     2.6150    -0.6030 H     1 <1>   0.3700 
 43 H      -12.3220     0.4520     2.2740 H     1 <1>   0.1500 
 44 H      -16.1570     3.2880     1.1480 H     1 <1>   0.1500 
 45 H      -13.9040     2.8490    -1.5850 H     1 <1>   0.0800 
 46 H      -13.3470     4.2190    -0.6670 H     1 <1>   0.0800 
 47 H      -14.2850     0.4990     3.7250 H     1 <1>   0.1500 
 48 H      -16.2010     1.9310     3.1510 H     1 <1>   0.1500 
 49 H      -16.2460     3.5670    -1.2370 H     1 <1>   0.0800 
 50 H      -15.2940     4.7780    -2.0540 H     1 <1>   0.0800 
 51 H      -15.6690     4.9760    -0.3640 H     1 <1>   0.0800 
@<TRIPOS>BOND
  1   1   2  1   
  2   2   3  ar  
  3   2   4  ar  
  4   3   5  ar  
  5   3  28  1   
  6   4   6  ar  
  7   4  29  1   
  8   5   7  1   
  9   5   8  ar  
 10   6   8  ar  
 11   6  30  1   
 12   7   9  2   
 13   7  10  am  
 14   8  31  1   
 15  10  11  1   
 16  10  32  1   
 17  11  12  1   
 18  11  13  1   
 19  11  33  1   
 20  12  14  1   
 21  12  34  1   
 22  12  35  1   
 23  13  15  1   
 24  13  36  1   
 25  13  37  1   
 26  14  16  1   
 27  14  38  1   
 28  14  39  1   
 29  15  16  1   
 30  15  40  1   
 31  15  41  1   
 32  16  17  am  
 33  17  18  2   
 34  17  19  am  
 35  19  20  1   
 36  19  42  1   
 37  20  21  ar  
 38  20  22  ar  
 39  21  23  ar  
 40  21  24  1   
 41  22  25  ar  
 42  22  43  1   
 43  23  26  ar  
 44  23  44  1   
 45  24  27  1   
 46  24  45  1   
 47  24  46  1   
 48  25  26  ar  
 49  25  47  1   
 50  26  48  1   
 51  27  49  1   
 52  27  50  1   
 53  27  51  1   
@<TRIPOS>SUBSTRUCTURE
  1 ****  12 GROUP 4 **** **** 0

# MOE 2024.06 (io_trps.svl 2023.06)
