@<TRIPOS>MOLECULE
1-(5-Methyl-[1,2,4]triazolo[1,5-a]pyrimidin-7-yl)-piperidine-4-carboxylic acid 3-methoxy-benzylamide
53 56 1 0 0 
SMALL
USER_CHARGES


@<TRIPOS>ATOM
  1 O       -1.1400    -1.6540    -1.5390 O.2   1 <1>  -0.5700 
  2 C       -0.7920    -2.3240    -0.5970 C.2   1 <1>   0.5690 
  3 N        0.5150    -2.5760    -0.3520 N.am  1 <1>  -0.7300 
  4 C       -1.8450    -2.9090     0.3410 C.3   1 <1>  -0.0190 
  5 C        1.6200    -2.1190    -1.2080 C.3   1 <1>   0.2840 
  6 C       -2.6410    -4.0240    -0.3630 C.3   1 <1>  -0.1600 
  7 C       -2.7950    -1.8140     0.8660 C.3   1 <1>  -0.1600 
  8 C        2.7990    -3.0440    -0.9740 C.ar  1 <1>  -0.1440 
  9 C       -3.7660    -4.5760     0.5150 C.3   1 <1>   0.2090 
 10 C       -3.9110    -2.4000     1.7310 C.3   1 <1>   0.2090 
 11 C        3.7300    -2.7560     0.0120 C.ar  1 <1>  -0.1500 
 12 C        2.9520    -4.1920    -1.7370 C.ar  1 <1>  -0.1500 
 13 N       -4.6320    -3.4480     0.9580 N.pl3 1 <1>  -0.8380 
 14 C        4.8060    -3.5970     0.2400 C.ar  1 <1>   0.0830 
 15 C        4.0250    -5.0390    -1.5170 C.ar  1 <1>  -0.1500 
 16 C       -5.9230    -3.2970     0.5330 C.2   1 <1>   0.4790 
 17 O        5.6650    -3.2350     1.2260 O.3   1 <1>  -0.3630 
 18 C        4.9520    -4.7460    -0.5320 C.ar  1 <1>  -0.1500 
 19 N       -6.7990    -4.3490     0.5520 N.pl3 1 <1>  -0.3220 
 20 C       -6.4290    -2.1050     0.0660 C.2   1 <1>  -0.1360 
 21 C        6.8100    -4.0050     1.5200 C.3   1 <1>   0.0400 
 22 N       -6.6640    -5.6430     1.0040 N.2   1 <1>  -0.2600 
 23 C       -8.0600    -4.1580     0.1350 C.cat 1 <1>   0.9620 
 24 C       -7.7510    -2.0250    -0.3550 C.2   1 <1>   0.3750 
 25 C       -7.8200    -6.1680     0.8290 C.2   1 <1>   0.5030 
 26 N       -8.5840    -3.0350    -0.3310 N.2   1 <1>  -0.6120 
 27 N       -8.7090    -5.2940     0.2920 N.pl3 1 <1>  -0.7000 
 28 C       -8.2970    -0.7130    -0.8780 C.3   1 <1>  -0.1790 
 29 H        0.8140    -3.1710     0.4220 H     1 <1>   0.3700 
 30 H       -1.3400    -3.3420     1.1860 H     1 <1>   0.0800 
 31 H        1.8790    -1.1070    -0.9510 H     1 <1>   0.0800 
 32 H        1.3190    -2.1430    -2.2420 H     1 <1>   0.0800 
 33 H       -1.9760    -4.8250    -0.6330 H     1 <1>   0.0800 
 34 H       -3.0690    -3.6400    -1.2730 H     1 <1>   0.0800 
 35 H       -3.2360    -1.2880     0.0370 H     1 <1>   0.0800 
 36 H       -2.2350    -1.0990     1.4420 H     1 <1>   0.0800 
 37 H       -3.3570    -5.0750     1.3780 H     1 <1>   0.0800 
 38 H       -4.3310    -5.2930    -0.0550 H     1 <1>   0.0800 
 39 H       -4.5870    -1.6220     2.0420 H     1 <1>   0.0800 
 40 H       -3.4900    -2.8450     2.6190 H     1 <1>   0.0800 
 41 H        3.6310    -1.8730     0.6170 H     1 <1>   0.1500 
 42 H        2.2350    -4.4300    -2.5040 H     1 <1>   0.1500 
 43 H        4.1380    -5.9270    -2.1140 H     1 <1>   0.1500 
 44 H        5.7750    -5.4190    -0.3820 H     1 <1>   0.1500 
 45 H       -5.7950    -1.2420     0.0150 H     1 <1>   0.1500 
 46 H        7.3400    -3.5220     2.3210 H     1 <1>   0.0800 
 47 H        7.4330    -4.0520     0.6450 H     1 <1>   0.0800 
 48 H        6.5000    -4.9880     1.8280 H     1 <1>   0.0800 
 49 H       -8.0770    -7.1880     1.0770 H     1 <1>   0.1500 
 50 H       -9.6900    -5.4150     0.0540 H     1 <1>   0.4500 
 51 H       -7.5440     0.0540    -0.8770 H     1 <1>   0.0800 
 52 H       -9.1190    -0.3900    -0.2650 H     1 <1>   0.0800 
 53 H       -8.6510    -0.8430    -1.8850 H     1 <1>   0.0800 
@<TRIPOS>BOND
  1   1   2  2   
  2   2   3  am  
  3   2   4  1   
  4   3   5  1   
  5   3  29  1   
  6   4   6  1   
  7   4   7  1   
  8   4  30  1   
  9   5   8  1   
 10   5  31  1   
 11   5  32  1   
 12   6   9  1   
 13   6  33  1   
 14   6  34  1   
 15   7  10  1   
 16   7  35  1   
 17   7  36  1   
 18   8  11  ar  
 19   8  12  ar  
 20   9  13  1   
 21   9  37  1   
 22   9  38  1   
 23  10  13  1   
 24  10  39  1   
 25  10  40  1   
 26  11  14  ar  
 27  11  41  1   
 28  12  15  ar  
 29  12  42  1   
 30  13  16  1   
 31  14  17  1   
 32  14  18  ar  
 33  15  18  ar  
 34  15  43  1   
 35  16  19  1   
 36  16  20  2   
 37  17  21  1   
 38  18  44  1   
 39  19  22  1   
 40  19  23  ar  
 41  20  24  1   
 42  20  45  1   
 43  21  46  1   
 44  21  47  1   
 45  21  48  1   
 46  22  25  2   
 47  23  26  1   
 48  23  27  ar  
 49  24  26  2   
 50  24  28  1   
 51  25  27  1   
 52  25  49  1   
 53  27  50  1   
 54  28  51  1   
 55  28  52  1   
 56  28  53  1   
@<TRIPOS>SUBSTRUCTURE
  1 ****   4 GROUP 4 **** **** 0

# MOE 2024.06 (io_trps.svl 2023.06)
