@<TRIPOS>MOLECULE
NONAME
62 65 1 0 0 
SMALL
USER_CHARGES


@<TRIPOS>ATOM
  1 O       -0.1600    -0.5450     0.1900 O.2   1 <1>  -0.5700 
  2 C       -0.8800    -1.0470    -0.6500 C.2   1 <1>   0.6900 
  3 N       -2.1380    -0.5840    -0.8910 N.am  1 <1>  -0.5470 
  4 N       -0.4420    -2.1110    -1.3730 N.am  1 <1>  -0.7300 
  5 C       -2.7930     0.5480    -0.3830 C.ar  1 <1>   0.1170 
  6 C        0.8670    -2.7960    -1.2660 C.3   1 <1>   0.2200 
  7 C       -4.1750     0.5260    -0.2490 C.ar  1 <1>  -0.1500 
  8 C       -2.1090     1.7030    -0.0260 C.ar  1 <1>  -0.1500 
  9 C        0.9880    -3.4680     0.1460 C.3   1 <1>  -0.1600 
 10 C        2.0180    -1.7940    -1.7080 C.3   1 <1>  -0.1600 
 11 C       -4.9000     1.6190     0.2370 C.ar  1 <1>   0.0860 
 12 C       -2.7930     2.8020     0.4560 C.ar  1 <1>  -0.1500 
 13 C        2.0330    -2.6490     0.8440 C.3   1 <1>   0.4230 
 14 C        3.2410    -1.5840    -0.7490 C.3   1 <1>   0.4230 
 15 C       -6.3440     1.6120     0.3880 C.2   1 <1>   0.4230 
 16 C       -4.1680     2.7560     0.5840 C.ar  1 <1>  -0.1500 
 17 N        3.2710    -2.8140     0.0400 N.4   1 <1>  -0.9590 
 18 C        2.3050    -1.9510     2.1580 C.3   1 <1>  -0.1600 
 19 C        3.1990    -0.3500     0.2300 C.3   1 <1>  -0.1600 
 20 O       -6.9760     2.5820     0.7160 O.2   1 <1>  -0.5700 
 21 C       -7.1380     0.3450     0.1340 C.3   1 <1>  -0.1790 
 22 C        4.5340    -3.1820     0.7490 C.3   1 <1>   0.4230 
 23 C        3.0850    -0.6480     1.7790 C.3   1 <1>  -0.1600 
 24 C        5.7410    -3.0960    -0.2010 C.3   1 <1>  -0.1600 
 25 C        4.3870    -4.6120     1.2930 C.3   1 <1>  -0.1600 
 26 C        7.0300    -3.5800     0.4780 C.3   1 <1>  -0.1600 
 27 C        5.6710    -5.0890     1.9850 C.3   1 <1>  -0.1600 
 28 C        6.8720    -4.9990     1.0360 C.3   1 <1>  -0.1600 
 29 H       -2.7130    -1.2010    -1.4540 H     1 <1>   0.3700 
 30 H       -1.0280    -2.4300    -2.1450 H     1 <1>   0.3700 
 31 H        0.8470    -3.5970    -1.9870 H     1 <1>   0.0800 
 32 H       -4.6920    -0.3700    -0.5290 H     1 <1>   0.1500 
 33 H       -1.0400     1.7520    -0.1250 H     1 <1>   0.1500 
 34 H        1.2960    -4.4950     0.0810 H     1 <1>   0.0800 
 35 H        0.0590    -3.4190     0.6870 H     1 <1>   0.0800 
 36 H        1.6070    -0.8310    -1.9540 H     1 <1>   0.0800 
 37 H        2.4210    -2.1710    -2.6310 H     1 <1>   0.0800 
 38 H       -2.2540     3.6920     0.7320 H     1 <1>   0.1500 
 39 H        1.5560    -1.7570     0.4970 H     1 <1>   0.0800 
 40 H        4.1270    -1.5040    -1.3560 H     1 <1>   0.0800 
 41 H       -4.6900     3.6200     0.9610 H     1 <1>   0.1500 
 42 H        3.1020    -3.5800    -0.6120 H     1 <1>   0.4500 
 43 H        2.8370    -2.5680     2.8590 H     1 <1>   0.0800 
 44 H        1.3600    -1.6830     2.6000 H     1 <1>   0.0800 
 45 H        2.3660     0.2720    -0.0500 H     1 <1>   0.0800 
 46 H        4.0750     0.2490     0.0590 H     1 <1>   0.0800 
 47 H       -6.7690    -0.4520     0.7520 H     1 <1>   0.0800 
 48 H       -7.0680     0.0690    -0.9010 H     1 <1>   0.0800 
 49 H       -8.1730     0.5110     0.3740 H     1 <1>   0.0800 
 50 H        4.7110    -2.5160     1.5750 H     1 <1>   0.0800 
 51 H        4.0780    -0.7090     2.1900 H     1 <1>   0.0800 
 52 H        2.6160     0.1950     2.2600 H     1 <1>   0.0800 
 53 H        5.9020    -2.0790    -0.5070 H     1 <1>   0.0800 
 54 H        5.5630    -3.7000    -1.0740 H     1 <1>   0.0800 
 55 H        4.1650    -5.2870     0.4860 H     1 <1>   0.0800 
 56 H        3.5850    -4.6620     2.0070 H     1 <1>   0.0800 
 57 H        7.2900    -2.9110     1.2810 H     1 <1>   0.0800 
 58 H        7.8410    -3.5650    -0.2320 H     1 <1>   0.0800 
 59 H        5.5510    -6.1080     2.3120 H     1 <1>   0.0800 
 60 H        5.8600    -4.4870     2.8580 H     1 <1>   0.0800 
 61 H        7.7680    -5.2800     1.5630 H     1 <1>   0.0800 
 62 H        6.7420    -5.6940     0.2230 H     1 <1>   0.0800 
@<TRIPOS>BOND
  1   1   2  2   
  2   2   3  am  
  3   2   4  am  
  4   3   5  1   
  5   3  29  1   
  6   4   6  1   
  7   4  30  1   
  8   5   7  ar  
  9   5   8  ar  
 10   6   9  1   
 11   6  10  1   
 12   6  31  1   
 13   7  11  ar  
 14   7  32  1   
 15   8  12  ar  
 16   8  33  1   
 17   9  13  1   
 18   9  34  1   
 19   9  35  1   
 20  10  14  1   
 21  10  36  1   
 22  10  37  1   
 23  11  15  1   
 24  11  16  ar  
 25  12  16  ar  
 26  12  38  1   
 27  13  17  1   
 28  13  18  1   
 29  13  39  1   
 30  14  17  1   
 31  14  19  1   
 32  14  40  1   
 33  15  20  2   
 34  15  21  1   
 35  16  41  1   
 36  17  22  1   
 37  17  42  1   
 38  18  23  1   
 39  18  43  1   
 40  18  44  1   
 41  19  23  1   
 42  19  45  1   
 43  19  46  1   
 44  21  47  1   
 45  21  48  1   
 46  21  49  1   
 47  22  24  1   
 48  22  25  1   
 49  22  50  1   
 50  23  51  1   
 51  23  52  1   
 52  24  26  1   
 53  24  53  1   
 54  24  54  1   
 55  25  27  1   
 56  25  55  1   
 57  25  56  1   
 58  26  28  1   
 59  26  57  1   
 60  26  58  1   
 61  27  28  1   
 62  27  59  1   
 63  27  60  1   
 64  28  61  1   
 65  28  62  1   
@<TRIPOS>SUBSTRUCTURE
  1 ****   1 GROUP 4 **** **** 0

# MOE 2024.06 (io_trps.svl 2023.06)
