@<TRIPOS>MOLECULE
12179
50 51 1 0 0 
SMALL
USER_CHARGES


@<TRIPOS>ATOM
  1 O       -0.3000    -0.0060     2.7070 O.2   1 <1>  -0.5700 
  2 C        0.0480    -0.9930     2.1100 C.2   1 <1>   0.5690 
  3 N        1.3640    -1.1730     1.8290 N.am  1 <1>  -0.5470 
  4 C       -0.9960    -2.0130     1.6690 C.3   1 <1>  -0.0990 
  5 C        2.0580    -2.2210     1.1960 C.ar  1 <1>   0.1170 
  6 C       -2.3520    -1.3850     1.3000 C.3   1 <1>  -0.1600 
  7 C        3.0130    -1.9340     0.2140 C.ar  1 <1>   0.0830 
  8 C        1.8280    -3.5450     1.5480 C.ar  1 <1>  -0.1500 
  9 C       -3.3310    -2.4460     0.7990 C.3   1 <1>   0.1200 
 10 O        3.2330    -0.6160    -0.0720 O.3   1 <1>  -0.3630 
 11 C        3.6910    -2.9680    -0.4240 C.ar  1 <1>  -0.1500 
 12 C        2.5040    -4.5700     0.9120 C.ar  1 <1>  -0.1500 
 13 O       -4.5450    -1.8120     0.4780 O.3   1 <1>  -0.3630 
 14 C        4.1350    -0.2160    -1.0800 C.3   1 <1>   0.0400 
 15 C        3.4310    -4.2910    -0.0770 C.ar  1 <1>   0.0830 
 16 C       -5.6090    -2.5100    -0.0040 C.ar  1 <1>   0.0830 
 17 O        4.0410    -5.3610    -0.6520 O.3   1 <1>  -0.3630 
 18 C       -6.7770    -1.8000    -0.2690 C.ar  1 <1>  -0.1430 
 19 C       -5.5710    -3.8840    -0.2370 C.ar  1 <1>  -0.1500 
 20 C        5.0180    -5.1970    -1.6560 C.3   1 <1>   0.0400 
 21 C       -7.8860    -2.4690    -0.7600 C.ar  1 <1>  -0.1500 
 22 C       -6.8440    -0.3000    -0.0230 C.3   1 <1>  -0.0970 
 23 C       -6.6830    -4.5470    -0.7290 C.ar  1 <1>  -0.1430 
 24 C       -7.8400    -3.8330    -0.9880 C.ar  1 <1>  -0.1500 
 25 C       -6.6420    -6.0430    -0.9810 C.3   1 <1>  -0.0970 
 26 H        1.9150    -0.3230     1.9600 H     1 <1>   0.3700 
 27 H       -1.1330    -2.7150     2.4700 H     1 <1>   0.0800 
 28 H       -0.6250    -2.5420     0.8110 H     1 <1>   0.0800 
 29 H       -2.2040    -0.6480     0.5300 H     1 <1>   0.0800 
 30 H       -2.7690    -0.8970     2.1650 H     1 <1>   0.0800 
 31 H        1.1260    -3.7780     2.3260 H     1 <1>   0.1500 
 32 H       -3.5250    -3.1780     1.5640 H     1 <1>   0.0800 
 33 H       -2.9530    -2.9220    -0.0890 H     1 <1>   0.0800 
 34 H        4.4140    -2.7510    -1.1810 H     1 <1>   0.1500 
 35 H        2.3210    -5.5940     1.1820 H     1 <1>   0.1500 
 36 H        4.1230     0.8580    -1.1320 H     1 <1>   0.0800 
 37 H        3.8150    -0.6300    -2.0200 H     1 <1>   0.0800 
 38 H        5.1220    -0.5570    -0.8220 H     1 <1>   0.0800 
 39 H       -4.6840    -4.4520    -0.0390 H     1 <1>   0.1500 
 40 H        5.3590    -6.1730    -1.9520 H     1 <1>   0.0800 
 41 H        5.8390    -4.6310    -1.2550 H     1 <1>   0.0800 
 42 H        4.5740    -4.6960    -2.4970 H     1 <1>   0.0800 
 43 H       -8.7940    -1.9320    -0.9680 H     1 <1>   0.1500 
 44 H       -6.6480    -0.0930     1.0130 H     1 <1>   0.0800 
 45 H       -7.8120     0.0940    -0.2760 H     1 <1>   0.0800 
 46 H       -6.1020     0.1990    -0.6210 H     1 <1>   0.0800 
 47 H       -8.7120    -4.3350    -1.3680 H     1 <1>   0.1500 
 48 H       -5.6340    -6.3710    -1.1580 H     1 <1>   0.0800 
 49 H       -7.2340    -6.2920    -1.8430 H     1 <1>   0.0800 
 50 H       -7.0340    -6.5660    -0.1280 H     1 <1>   0.0800 
@<TRIPOS>BOND
  1   1   2  2   
  2   2   3  am  
  3   2   4  1   
  4   3   5  1   
  5   3  26  1   
  6   4   6  1   
  7   4  27  1   
  8   4  28  1   
  9   5   7  ar  
 10   5   8  ar  
 11   6   9  1   
 12   6  29  1   
 13   6  30  1   
 14   7  10  1   
 15   7  11  ar  
 16   8  12  ar  
 17   8  31  1   
 18   9  13  1   
 19   9  32  1   
 20   9  33  1   
 21  10  14  1   
 22  11  15  ar  
 23  11  34  1   
 24  12  15  ar  
 25  12  35  1   
 26  13  16  1   
 27  14  36  1   
 28  14  37  1   
 29  14  38  1   
 30  15  17  1   
 31  16  18  ar  
 32  16  19  ar  
 33  17  20  1   
 34  18  21  ar  
 35  18  22  1   
 36  19  23  ar  
 37  19  39  1   
 38  20  40  1   
 39  20  41  1   
 40  20  42  1   
 41  21  24  ar  
 42  21  43  1   
 43  22  44  1   
 44  22  45  1   
 45  22  46  1   
 46  23  24  ar  
 47  23  25  1   
 48  24  47  1   
 49  25  48  1   
 50  25  49  1   
 51  25  50  1   
@<TRIPOS>SUBSTRUCTURE
  1 ****   4 GROUP 4 **** **** 0

# MOE 2024.06 (io_trps.svl 2023.06)
