@<TRIPOS>MOLECULE
[1-(4-Fluoro-benzenesulfonyl)-piperidin-3-yl]-methanol
34 35 1 0 0 
SMALL
USER_CHARGES


@<TRIPOS>ATOM
  1 S        0.1750     0.4050     1.4760 S.o2  1 <1>   1.4470 
  2 O        0.0480     1.7110     2.0860 O.2   1 <1>  -0.6500 
  3 O        0.6350    -0.7110     2.2770 O.2   1 <1>  -0.6500 
  4 N        1.2640     0.5690     0.1860 N.am  1 <1>  -0.8490 
  5 C       -1.3850    -0.0120     0.6440 C.ar  1 <1>  -0.0090 
  6 C        1.5970    -0.7160    -0.4640 C.3   1 <1>   0.1960 
  7 C        2.4220     1.3940     0.5660 C.3   1 <1>   0.1960 
  8 C       -2.0210     0.9190    -0.1740 C.ar  1 <1>  -0.1500 
  9 C       -1.9690    -1.2700     0.7930 C.ar  1 <1>  -0.1500 
 10 C        2.9660    -1.2530    -0.0110 C.3   1 <1>  -0.0800 
 11 C        3.5910     1.1960    -0.4030 C.3   1 <1>  -0.1600 
 12 C       -3.2050     0.6150    -0.8260 C.ar  1 <1>  -0.1500 
 13 C       -3.1520    -1.5940     0.1480 C.ar  1 <1>  -0.1500 
 14 C        4.0820    -0.2640    -0.4110 C.3   1 <1>  -0.1600 
 15 C        3.2490    -2.6500    -0.5760 C.3   1 <1>   0.1200 
 16 C       -3.7500    -0.6410    -0.6520 C.ar  1 <1>   0.1900 
 17 O        2.2510    -3.5220    -0.1720 O.3   1 <1>  -0.6800 
 18 F       -4.8640    -0.9380    -1.2630 F     1 <1>  -0.1900 
 19 H        1.6240    -0.5610    -1.5290 H     1 <1>   0.0800 
 20 H        0.8260    -1.4430    -0.2720 H     1 <1>   0.0800 
 21 H        2.7470     1.1300     1.5600 H     1 <1>   0.0800 
 22 H        2.1260     2.4300     0.5810 H     1 <1>   0.0800 
 23 H       -1.5790     1.8940    -0.2980 H     1 <1>   0.1500 
 24 H       -1.4910    -2.0050     1.4200 H     1 <1>   0.1500 
 25 H        2.9560    -1.3350     1.0630 H     1 <1>   0.0800 
 26 H        4.4020     1.8490    -0.1300 H     1 <1>   0.0800 
 27 H        3.2650     1.4810    -1.3890 H     1 <1>   0.0800 
 28 H       -3.6970     1.3340    -1.4570 H     1 <1>   0.1500 
 29 H       -3.6030    -2.5640     0.2620 H     1 <1>   0.1500 
 30 H        4.4510    -0.4900    -1.3980 H     1 <1>   0.0800 
 31 H        4.9030    -0.3740     0.2770 H     1 <1>   0.0800 
 32 H        4.1910    -3.0280    -0.2190 H     1 <1>   0.0800 
 33 H        3.2580    -2.6370    -1.6530 H     1 <1>   0.0800 
 34 H        2.2130    -3.5690     0.8050 H     1 <1>   0.4000 
@<TRIPOS>BOND
  1   1   2  2   
  2   1   3  2   
  3   1   4  am  
  4   1   5  1   
  5   4   6  1   
  6   4   7  1   
  7   5   8  ar  
  8   5   9  ar  
  9   6  10  1   
 10   6  19  1   
 11   6  20  1   
 12   7  11  1   
 13   7  21  1   
 14   7  22  1   
 15   8  12  ar  
 16   8  23  1   
 17   9  13  ar  
 18   9  24  1   
 19  10  14  1   
 20  10  15  1   
 21  10  25  1   
 22  11  14  1   
 23  11  26  1   
 24  11  27  1   
 25  12  16  ar  
 26  12  28  1   
 27  13  16  ar  
 28  13  29  1   
 29  14  30  1   
 30  14  31  1   
 31  15  17  1   
 32  15  32  1   
 33  15  33  1   
 34  16  18  1   
 35  17  34  1   
@<TRIPOS>SUBSTRUCTURE
  1 ****   4 GROUP 4 **** **** 0

# MOE 2024.06 (io_trps.svl 2023.06)
