@<TRIPOS>MOLECULE
N-(2,5-Dimethoxy-phenyl)-2-[4-(5-fluoro-benzoimidazol-1-yl)-piperidin-1-yl]-acetamide
55 58 1 0 0 
SMALL
USER_CHARGES


@<TRIPOS>ATOM
  1 F        2.2350    -1.7870     2.8640 F     1 <1>  -0.1900 
  2 C        3.3760    -1.4460     2.3230 C.ar  1 <1>   0.1900 
  3 C        4.3810    -0.9720     3.1290 C.ar  1 <1>  -0.1500 
  4 C        3.5100    -1.5860     0.9380 C.ar  1 <1>  -0.1500 
  5 C        5.5820    -0.6190     2.5190 C.ar  1 <1>   0.2270 
  6 C        4.7000    -1.2360     0.3380 C.ar  1 <1>  -0.1500 
  7 N        6.7190    -0.1340     3.0850 N.2   1 <1>  -0.5650 
  8 C        5.7360    -0.7490     1.1460 C.ar  1 <1>  -0.1520 
  9 C        7.5210     0.0230     2.0920 C.2   1 <1>   0.0360 
 10 N        7.0030    -0.3250     0.8830 N.pl3 1 <1>   0.0480 
 11 C        7.6950    -0.3180    -0.4270 C.3   1 <1>   0.1760 
 12 C        8.8410    -1.3390    -0.4170 C.3   1 <1>  -0.1600 
 13 C        8.1950     1.0960    -0.7680 C.3   1 <1>  -0.1600 
 14 C        9.6710    -1.2400    -1.6940 C.3   1 <1>   0.1100 
 15 C        9.0630     1.0860    -2.0280 C.3   1 <1>   0.1100 
 16 N       10.1610     0.1400    -1.8240 N.3   1 <1>  -0.8100 
 17 C       11.2190     0.2550    -2.8750 C.3   1 <1>   0.1710 
 18 C       12.5690    -0.3270    -2.4400 C.2   1 <1>   0.5690 
 19 O       13.3870    -0.6140    -3.2800 O.2   1 <1>  -0.5700 
 20 N       12.7430    -0.4960    -1.0990 N.am  1 <1>  -0.5470 
 21 C       13.7410    -1.0730    -0.2960 C.ar  1 <1>   0.1170 
 22 C       13.4290    -1.3770     1.0340 C.ar  1 <1>   0.0830 
 23 C       15.0180    -1.3450    -0.7690 C.ar  1 <1>  -0.1500 
 24 O       12.1570    -1.0960     1.4610 O.3   1 <1>  -0.3630 
 25 C       14.3940    -1.9450     1.8600 C.ar  1 <1>  -0.1500 
 26 C       15.9780    -1.9100     0.0510 C.ar  1 <1>   0.0830 
 27 C       11.7480    -1.3850     2.7800 C.3   1 <1>   0.0400 
 28 C       15.6620    -2.2100     1.3730 C.ar  1 <1>  -0.1500 
 29 O       17.1990    -2.1380    -0.5020 O.3   1 <1>  -0.3620 
 30 C       18.2410    -2.7290     0.2430 C.3   1 <1>   0.0400 
 31 H        4.2680    -0.8680     4.1910 H     1 <1>   0.1500 
 32 H        2.6820    -1.9650     0.3670 H     1 <1>   0.1500 
 33 H        4.8300    -1.3330    -0.7250 H     1 <1>   0.1500 
 34 H        8.5270     0.3940     2.1830 H     1 <1>   0.1500 
 35 H        6.9890    -0.6130    -1.1830 H     1 <1>   0.0800 
 36 H        8.4420    -2.3340    -0.3290 H     1 <1>   0.0800 
 37 H        9.4940    -1.1620     0.4200 H     1 <1>   0.0800 
 38 H        8.7890     1.4870     0.0390 H     1 <1>   0.0800 
 39 H        7.3560     1.7510    -0.9190 H     1 <1>   0.0800 
 40 H        9.0790    -1.5070    -2.5540 H     1 <1>   0.0800 
 41 H       10.4980    -1.9290    -1.6260 H     1 <1>   0.0800 
 42 H        9.4580     2.0760    -2.1880 H     1 <1>   0.0800 
 43 H        8.4820     0.8040    -2.8900 H     1 <1>   0.0800 
 44 H       11.3880     1.2920    -3.1030 H     1 <1>   0.0800 
 45 H       10.9000    -0.2350    -3.7780 H     1 <1>   0.0800 
 46 H       11.8910    -0.2560    -0.5770 H     1 <1>   0.3700 
 47 H       15.2790    -1.1170    -1.7850 H     1 <1>   0.1500 
 48 H       14.1820    -2.1880     2.8830 H     1 <1>   0.1500 
 49 H       10.7190    -1.0900     2.8860 H     1 <1>   0.0800 
 50 H       12.3590    -0.8260     3.4660 H     1 <1>   0.0800 
 51 H       11.8420    -2.4430     2.9520 H     1 <1>   0.0800 
 52 H       16.3860    -2.6480     2.0330 H     1 <1>   0.1500 
 53 H       19.0990    -2.8170    -0.3990 H     1 <1>   0.0800 
 54 H       17.9260    -3.7040     0.5690 H     1 <1>   0.0800 
 55 H       18.4740    -2.0960     1.0800 H     1 <1>   0.0800 
@<TRIPOS>BOND
  1   1   2  1   
  2   2   3  ar  
  3   2   4  ar  
  4   3   5  ar  
  5   3  31  1   
  6   4   6  ar  
  7   4  32  1   
  8   5   7  1   
  9   5   8  ar  
 10   6   8  ar  
 11   6  33  1   
 12   7   9  2   
 13   8  10  1   
 14   9  10  1   
 15   9  34  1   
 16  10  11  1   
 17  11  12  1   
 18  11  13  1   
 19  11  35  1   
 20  12  14  1   
 21  12  36  1   
 22  12  37  1   
 23  13  15  1   
 24  13  38  1   
 25  13  39  1   
 26  14  16  1   
 27  14  40  1   
 28  14  41  1   
 29  15  16  1   
 30  15  42  1   
 31  15  43  1   
 32  16  17  1   
 33  17  18  1   
 34  17  44  1   
 35  17  45  1   
 36  18  19  2   
 37  18  20  am  
 38  20  21  1   
 39  20  46  1   
 40  21  22  ar  
 41  21  23  ar  
 42  22  24  1   
 43  22  25  ar  
 44  23  26  ar  
 45  23  47  1   
 46  24  27  1   
 47  25  28  ar  
 48  25  48  1   
 49  26  28  ar  
 50  26  29  1   
 51  27  49  1   
 52  27  50  1   
 53  27  51  1   
 54  28  52  1   
 55  29  30  1   
 56  30  53  1   
 57  30  54  1   
 58  30  55  1   
@<TRIPOS>SUBSTRUCTURE
  1 ****  12 GROUP 4 **** **** 0

# MOE 2024.06 (io_trps.svl 2023.06)
