@<TRIPOS>MOLECULE
3118
48 49 1 0 0 
SMALL
USER_CHARGES


@<TRIPOS>ATOM
  1 O       -1.0090     1.8900    -0.9520 O.2   1 <1>  -0.5700 
  2 C       -1.9690     2.2680    -0.3120 C.2   1 <1>   0.6340 
  3 O       -2.2280     1.6840     0.8620 O.3   1 <1>  -0.4300 
  4 C       -2.8540     3.3260    -0.7590 C.ar  1 <1>   0.0860 
  5 C       -1.4170     0.6450     1.3660 C.3   1 <1>   0.1200 
  6 C       -2.6420     3.9790    -1.9770 C.ar  1 <1>  -0.1500 
  7 C       -3.9530     3.7490    -0.0040 C.ar  1 <1>  -0.1500 
  8 C       -1.9870     0.2030     2.7150 C.3   1 <1>  -0.1600 
  9 C       -3.4770     4.9860    -2.4190 C.ar  1 <1>  -0.1500 
 10 C       -4.7880     4.7590    -0.4420 C.ar  1 <1>  -0.1500 
 11 C       -1.1530    -0.9260     3.3290 C.3   1 <1>  -0.2400 
 12 C       -4.5700     5.3870    -1.6620 C.ar  1 <1>   0.1170 
 13 N       -5.4020     6.4020    -2.1310 N.am  1 <1>  -0.5470 
 14 C       -6.7530     6.4240    -2.3260 C.2   1 <1>   0.5690 
 15 O       -7.2590     7.4090    -2.8030 O.2   1 <1>  -0.5700 
 16 C       -7.6220     5.2100    -2.0190 C.3   1 <1>   0.1810 
 17 O       -7.9680     5.1700    -0.6440 O.3   1 <1>  -0.3630 
 18 C       -8.5310     4.0650    -0.0970 C.ar  1 <1>   0.0830 
 19 C       -8.6130     4.0290     1.2850 C.ar  1 <1>  -0.1500 
 20 C       -9.0110     2.9910    -0.8420 C.ar  1 <1>  -0.1500 
 21 C       -9.1570     2.9330     1.9310 C.ar  1 <1>  -0.1430 
 22 C       -9.5560     1.8900    -0.2030 C.ar  1 <1>  -0.1430 
 23 C       -9.6280     1.8670     1.1810 C.ar  1 <1>  -0.1500 
 24 C       -9.2460     2.8960     3.4460 C.3   1 <1>  -0.0970 
 25 C      -10.0810     0.7160    -1.0100 C.3   1 <1>  -0.0970 
 26 H       -0.4130     1.0200     1.4740 H     1 <1>   0.0800 
 27 H       -1.4250    -0.1660     0.6580 H     1 <1>   0.0800 
 28 H       -1.8020     3.6830    -2.5840 H     1 <1>   0.1500 
 29 H       -4.1570     3.2810     0.9440 H     1 <1>   0.1500 
 30 H       -2.9980    -0.1390     2.5760 H     1 <1>   0.0800 
 31 H       -1.9960     1.0430     3.3870 H     1 <1>   0.0800 
 32 H       -3.2850     5.4640    -3.3630 H     1 <1>   0.1500 
 33 H       -5.6120     5.0680     0.1760 H     1 <1>   0.1500 
 34 H       -1.1420    -1.7830     2.6780 H     1 <1>   0.0800 
 35 H       -1.5720    -1.2200     4.2750 H     1 <1>   0.0800 
 36 H       -0.1400    -0.6000     3.4900 H     1 <1>   0.0800 
 37 H       -4.9500     7.2550    -2.4600 H     1 <1>   0.3700 
 38 H       -7.0860     4.3120    -2.2640 H     1 <1>   0.0800 
 39 H       -8.5310     5.2620    -2.5890 H     1 <1>   0.0800 
 40 H       -8.2470     4.8690     1.8470 H     1 <1>   0.1500 
 41 H       -8.9730     2.9990    -1.9130 H     1 <1>   0.1500 
 42 H      -10.0560     1.0150     1.6790 H     1 <1>   0.1500 
 43 H       -8.5540     3.5920     3.8840 H     1 <1>   0.0800 
 44 H       -9.0120     1.9110     3.8080 H     1 <1>   0.0800 
 45 H      -10.2420     3.1550     3.7570 H     1 <1>   0.0800 
 46 H       -9.5530     0.6320    -1.9430 H     1 <1>   0.0800 
 47 H      -11.1270     0.8550    -1.2140 H     1 <1>   0.0800 
 48 H       -9.9520    -0.2010    -0.4650 H     1 <1>   0.0800 
@<TRIPOS>BOND
  1   1   2  2   
  2   2   3  1   
  3   2   4  1   
  4   3   5  1   
  5   4   6  ar  
  6   4   7  ar  
  7   5   8  1   
  8   5  26  1   
  9   5  27  1   
 10   6   9  ar  
 11   6  28  1   
 12   7  10  ar  
 13   7  29  1   
 14   8  11  1   
 15   8  30  1   
 16   8  31  1   
 17   9  12  ar  
 18   9  32  1   
 19  10  12  ar  
 20  10  33  1   
 21  11  34  1   
 22  11  35  1   
 23  11  36  1   
 24  12  13  1   
 25  13  14  am  
 26  13  37  1   
 27  14  15  2   
 28  14  16  1   
 29  16  17  1   
 30  16  38  1   
 31  16  39  1   
 32  17  18  1   
 33  18  19  ar  
 34  18  20  ar  
 35  19  21  ar  
 36  19  40  1   
 37  20  22  ar  
 38  20  41  1   
 39  21  23  ar  
 40  21  24  1   
 41  22  23  ar  
 42  22  25  1   
 43  23  42  1   
 44  24  43  1   
 45  24  44  1   
 46  24  45  1   
 47  25  46  1   
 48  25  47  1   
 49  25  48  1   
@<TRIPOS>SUBSTRUCTURE
  1 ****  10 GROUP 4 **** **** 0

# MOE 2024.06 (io_trps.svl 2023.06)
