@<TRIPOS>MOLECULE
4-(5-Methyl-1H-benzoimidazol-2-yl)-piperidine-1-carboxylic acid (3-fluoro-phenyl)-amide
47 50 1 0 0 
SMALL
USER_CHARGES


@<TRIPOS>ATOM
  1 F       -2.5850     0.9830    -4.2310 F     1 <1>  -0.1900 
  2 C       -2.7030     1.7210    -3.1600 C.ar  1 <1>   0.1900 
  3 C       -3.9300     1.7850    -2.5310 C.ar  1 <1>  -0.1500 
  4 C       -1.5950     2.4080    -2.7020 C.ar  1 <1>  -0.1500 
  5 C       -4.0710     2.5670    -1.3910 C.ar  1 <1>   0.1170 
  6 C       -1.7310     3.1860    -1.5650 C.ar  1 <1>  -0.1500 
  7 N       -5.3170     2.6130    -0.7520 N.am  1 <1>  -0.5470 
  8 C       -2.9560     3.2600    -0.9200 C.ar  1 <1>  -0.1500 
  9 C       -5.8820     3.5570     0.0560 C.2   1 <1>   0.6900 
 10 O       -5.3590     4.6440     0.2160 O.2   1 <1>  -0.5700 
 11 N       -7.0790     3.2690     0.6600 N.am  1 <1>  -0.6600 
 12 C       -7.9710     4.3570     1.1390 C.3   1 <1>   0.1400 
 13 C       -7.5260     1.8960     1.0150 C.3   1 <1>   0.1400 
 14 C       -9.3850     4.1350     0.5910 C.3   1 <1>  -0.1600 
 15 C       -8.9260     1.6600     0.4470 C.3   1 <1>  -0.1600 
 16 C       -9.9170     2.7340     0.9310 C.3   1 <1>   0.1000 
 17 C      -11.3100     2.5320     0.3390 C.2   1 <1>   0.0060 
 18 N      -12.4000     3.1490     0.8670 N.pl3 1 <1>   0.0330 
 19 N      -11.5860     1.7900    -0.6800 N.2   1 <1>  -0.5650 
 20 C      -13.4570     2.7620     0.1140 C.ar  1 <1>  -0.1520 
 21 C      -12.9330     1.9170    -0.8430 C.ar  1 <1>   0.2270 
 22 C      -14.8220     3.0540     0.1580 C.ar  1 <1>  -0.1500 
 23 C      -13.7740     1.3370    -1.7900 C.ar  1 <1>  -0.1500 
 24 C      -15.6520     2.4780    -0.7810 C.ar  1 <1>  -0.1430 
 25 C      -15.1220     1.6190    -1.7550 C.ar  1 <1>  -0.1500 
 26 C      -17.1440     2.7580    -0.7830 C.3   1 <1>  -0.0970 
 27 H       -4.7600     1.2340    -2.9300 H     1 <1>   0.1500 
 28 H       -0.6570     2.3330    -3.2210 H     1 <1>   0.1500 
 29 H       -0.8880     3.7350    -1.1810 H     1 <1>   0.1500 
 30 H       -5.9870     1.9060    -1.0340 H     1 <1>   0.3700 
 31 H       -3.0440     3.8660    -0.0360 H     1 <1>   0.1500 
 32 H       -7.6070     5.3160     0.8080 H     1 <1>   0.0800 
 33 H       -7.9810     4.3560     2.2150 H     1 <1>   0.0800 
 34 H       -7.5480     1.8050     2.0880 H     1 <1>   0.0800 
 35 H       -6.8450     1.1530     0.6380 H     1 <1>   0.0800 
 36 H       -9.3660     4.2590    -0.4780 H     1 <1>   0.0800 
 37 H      -10.0390     4.8860     0.9940 H     1 <1>   0.0800 
 38 H       -9.2770     0.6890     0.7470 H     1 <1>   0.0800 
 39 H       -8.8750     1.6710    -0.6280 H     1 <1>   0.0800 
 40 H       -9.9980     2.6480     2.0010 H     1 <1>   0.0800 
 41 H      -12.4300     3.7820     1.6690 H     1 <1>   0.2700 
 42 H      -15.2050     3.7150     0.9140 H     1 <1>   0.1500 
 43 H      -13.3470     0.6830    -2.5260 H     1 <1>   0.1500 
 44 H      -15.7800     1.1770    -2.4820 H     1 <1>   0.1500 
 45 H      -17.4110     3.4290     0.0140 H     1 <1>   0.0800 
 46 H      -17.6880     1.8400    -0.6550 H     1 <1>   0.0800 
 47 H      -17.4300     3.2060    -1.7180 H     1 <1>   0.0800 
@<TRIPOS>BOND
  1   1   2  1   
  2   2   3  ar  
  3   2   4  ar  
  4   3   5  ar  
  5   3  27  1   
  6   4   6  ar  
  7   4  28  1   
  8   5   7  1   
  9   5   8  ar  
 10   6   8  ar  
 11   6  29  1   
 12   7   9  am  
 13   7  30  1   
 14   8  31  1   
 15   9  10  2   
 16   9  11  am  
 17  11  12  1   
 18  11  13  1   
 19  12  14  1   
 20  12  32  1   
 21  12  33  1   
 22  13  15  1   
 23  13  34  1   
 24  13  35  1   
 25  14  16  1   
 26  14  36  1   
 27  14  37  1   
 28  15  16  1   
 29  15  38  1   
 30  15  39  1   
 31  16  17  1   
 32  16  40  1   
 33  17  18  1   
 34  17  19  2   
 35  18  20  1   
 36  18  41  1   
 37  19  21  1   
 38  20  21  ar  
 39  20  22  ar  
 40  21  23  ar  
 41  22  24  ar  
 42  22  42  1   
 43  23  25  ar  
 44  23  43  1   
 45  24  25  ar  
 46  24  26  1   
 47  25  44  1   
 48  26  45  1   
 49  26  46  1   
 50  26  47  1   
@<TRIPOS>SUBSTRUCTURE
  1 ****  15 GROUP 4 **** **** 0

# MOE 2024.06 (io_trps.svl 2023.06)
