@<TRIPOS>MOLECULE
NONAME
53 55 1 0 0 
SMALL
USER_CHARGES


@<TRIPOS>ATOM
  1 S       -0.0430     0.0060     0.2680 S.o2  1 <1>   1.4470 
  2 O        0.1830    -0.7280    -0.9560 O.2   1 <1>  -0.6500 
  3 O        0.6140    -0.4000     1.4900 O.2   1 <1>  -0.6500 
  4 N        0.5340     1.5760    -0.0330 N.am  1 <1>  -0.8490 
  5 C       -1.8240     0.2560     0.5270 C.ar  1 <1>  -0.0090 
  6 C        0.5530     2.4180     1.1850 C.3   1 <1>   0.1960 
  7 C        1.8880     1.5200    -0.6330 C.3   1 <1>   0.1960 
  8 C       -2.3780     0.2590     1.8010 C.ar  1 <1>  -0.1500 
  9 C       -2.6820     0.4750    -0.5430 C.ar  1 <1>  -0.1500 
 10 C        1.0290     3.8650     0.8960 C.3   1 <1>   0.3430 
 11 C        2.5260     2.9180    -0.8360 C.3   1 <1>   0.3430 
 12 C       -3.7290     0.4850     1.9940 C.ar  1 <1>  -0.1500 
 13 C       -4.0350     0.6960    -0.3510 C.ar  1 <1>  -0.1500 
 14 N        1.5620     4.0250    -0.5040 N.4   1 <1>  -0.9590 
 15 C       -4.5980     0.7160     0.9270 C.ar  1 <1>   0.0860 
 16 C        2.1240     5.3840    -0.7620 C.3   1 <1>   0.2630 
 17 C       -6.0160     0.9570     1.1580 C.2   1 <1>   0.5440 
 18 O       -6.5140     0.6990     2.2360 O.2   1 <1>  -0.5700 
 19 N       -6.8140     1.4890     0.1830 N.am  1 <1>  -0.7300 
 20 C       -8.2600     1.7480     0.3020 C.3   1 <1>   0.2200 
 21 C       -8.9900     0.9920    -0.8130 C.3   1 <1>  -0.1600 
 22 C       -8.5030     3.2570     0.2020 C.3   1 <1>  -0.1600 
 23 C      -10.4930     1.3090    -0.8060 C.3   1 <1>  -0.1600 
 24 C      -10.0050     3.5790     0.2110 C.3   1 <1>  -0.1600 
 25 C      -10.7420     2.8210    -0.9020 C.3   1 <1>  -0.1600 
 26 H        1.2060     1.9820     1.9240 H     1 <1>   0.0800 
 27 H       -0.4330     2.4600     1.6170 H     1 <1>   0.0800 
 28 H        1.8310     1.0320    -1.5930 H     1 <1>   0.0800 
 29 H        2.5410     0.9240    -0.0150 H     1 <1>   0.0800 
 30 H       -1.7490     0.0770     2.6570 H     1 <1>   0.1500 
 31 H       -2.2840     0.4640    -1.5450 H     1 <1>   0.1500 
 32 H        1.7910     4.1270     1.6130 H     1 <1>   0.0800 
 33 H        0.2010     4.5380     1.0450 H     1 <1>   0.0800 
 34 H        2.8520     3.0060    -1.8590 H     1 <1>   0.0800 
 35 H        3.3990     2.9950    -0.2090 H     1 <1>   0.0800 
 36 H       -4.1290     0.4780     2.9950 H     1 <1>   0.1500 
 37 H       -4.6600     0.8440    -1.2120 H     1 <1>   0.1500 
 38 H        0.7490     3.8570    -1.1190 H     1 <1>   0.4500 
 39 H        2.9760     5.5660    -0.1260 H     1 <1>   0.0800 
 40 H        1.3810     6.1410    -0.5670 H     1 <1>   0.0800 
 41 H        2.4370     5.4710    -1.7900 H     1 <1>   0.0800 
 42 H       -6.4050     1.7860    -0.7000 H     1 <1>   0.3700 
 43 H       -8.6200     1.3970     1.2560 H     1 <1>   0.0800 
 44 H       -8.8520    -0.0660    -0.6730 H     1 <1>   0.0800 
 45 H       -8.5800     1.2690    -1.7680 H     1 <1>   0.0800 
 46 H       -8.0710     3.6350    -0.7070 H     1 <1>   0.0800 
 47 H       -8.0320     3.7470     1.0370 H     1 <1>   0.0800 
 48 H      -10.9310     0.9340     0.1030 H     1 <1>   0.0800 
 49 H      -10.9720     0.8110    -1.6320 H     1 <1>   0.0800 
 50 H      -10.1490     4.6380     0.0840 H     1 <1>   0.0800 
 51 H      -10.4220     3.3030     1.1650 H     1 <1>   0.0800 
 52 H      -11.7980     3.0170    -0.8330 H     1 <1>   0.0800 
 53 H      -10.4040     3.1780    -1.8600 H     1 <1>   0.0800 
@<TRIPOS>BOND
  1   1   2  2   
  2   1   3  2   
  3   1   4  am  
  4   1   5  1   
  5   4   6  1   
  6   4   7  1   
  7   5   8  ar  
  8   5   9  ar  
  9   6  10  1   
 10   6  26  1   
 11   6  27  1   
 12   7  11  1   
 13   7  28  1   
 14   7  29  1   
 15   8  12  ar  
 16   8  30  1   
 17   9  13  ar  
 18   9  31  1   
 19  10  14  1   
 20  10  32  1   
 21  10  33  1   
 22  11  14  1   
 23  11  34  1   
 24  11  35  1   
 25  12  15  ar  
 26  12  36  1   
 27  13  15  ar  
 28  13  37  1   
 29  14  16  1   
 30  14  38  1   
 31  15  17  1   
 32  16  39  1   
 33  16  40  1   
 34  16  41  1   
 35  17  18  2   
 36  17  19  am  
 37  19  20  1   
 38  19  42  1   
 39  20  21  1   
 40  20  22  1   
 41  20  43  1   
 42  21  23  1   
 43  21  44  1   
 44  21  45  1   
 45  22  24  1   
 46  22  46  1   
 47  22  47  1   
 48  23  25  1   
 49  23  48  1   
 50  23  49  1   
 51  24  25  1   
 52  24  50  1   
 53  24  51  1   
 54  25  52  1   
 55  25  53  1   
@<TRIPOS>SUBSTRUCTURE
  1 ****  13 GROUP 4 **** **** 0

# MOE 2024.06 (io_trps.svl 2023.06)
