@<TRIPOS>MOLECULE
5039
35 35 1 0 0 
SMALL
USER_CHARGES


@<TRIPOS>ATOM
  1 CL      -0.0250    -0.9010    -1.5620 Cl    1 <1>  -0.1770 
  2 C        1.5120    -1.3750    -0.8650 C.ar  1 <1>   0.1770 
  3 C        1.6590    -2.6670    -0.3640 C.ar  1 <1>   0.1170 
  4 C        2.5320    -0.4530    -0.8340 C.ar  1 <1>  -0.1500 
  5 N        0.5730    -3.5570    -0.4340 N.am  1 <1>  -0.5470 
  6 C        2.8950    -2.9910     0.1830 C.ar  1 <1>  -0.1500 
  7 C        3.7800    -0.7770    -0.2970 C.ar  1 <1>   0.0860 
  8 C        0.3720    -4.8180     0.0560 C.2   1 <1>   0.5690 
  9 C        3.9390    -2.0690     0.2300 C.ar  1 <1>   0.0830 
 10 C        4.8260     0.2190    -0.3050 C.2   1 <1>   0.6340 
 11 O        1.1910    -5.4350     0.6890 O.2   1 <1>  -0.5700 
 12 C       -0.9720    -5.4650    -0.2210 C.3   1 <1>  -0.0990 
 13 O        5.1290    -2.3760     0.8020 O.3   1 <1>  -0.3630 
 14 O        4.6020     1.3960    -0.0950 O.2   1 <1>  -0.5700 
 15 O        6.0750    -0.1500    -0.6110 O.3   1 <1>  -0.4300 
 16 C       -2.1090    -4.8200     0.5880 C.3   1 <1>  -0.1600 
 17 C        5.4080    -3.6380     1.3730 C.3   1 <1>   0.0400 
 18 C        7.1400     0.7780    -0.6450 C.3   1 <1>   0.0400 
 19 C       -3.4530    -5.4930     0.2920 C.3   1 <1>  -0.2400 
 20 H        2.3670     0.5340    -1.2310 H     1 <1>   0.1500 
 21 H       -0.2390    -3.1670    -0.9160 H     1 <1>   0.3700 
 22 H        3.0350    -3.9770     0.5760 H     1 <1>   0.1500 
 23 H       -0.9040    -6.5090     0.0300 H     1 <1>   0.0800 
 24 H       -1.1800    -5.3960    -1.2730 H     1 <1>   0.0800 
 25 H       -2.1800    -3.7710     0.3540 H     1 <1>   0.0800 
 26 H       -1.8910    -4.9100     1.6390 H     1 <1>   0.0800 
 27 H        4.7160    -3.8200     2.1760 H     1 <1>   0.0800 
 28 H        6.4130    -3.6170     1.7540 H     1 <1>   0.0800 
 29 H        5.3220    -4.3940     0.6120 H     1 <1>   0.0800 
 30 H        8.0410     0.2510    -0.9030 H     1 <1>   0.0800 
 31 H        7.2380     1.2290     0.3270 H     1 <1>   0.0800 
 32 H        6.9230     1.5300    -1.3840 H     1 <1>   0.0800 
 33 H       -3.7040    -5.3980    -0.7500 H     1 <1>   0.0800 
 34 H       -4.2310    -5.0300     0.8730 H     1 <1>   0.0800 
 35 H       -3.4150    -6.5380     0.5460 H     1 <1>   0.0800 
@<TRIPOS>BOND
  1   1   2  1   
  2   2   3  ar  
  3   2   4  ar  
  4   3   5  1   
  5   3   6  ar  
  6   4   7  ar  
  7   4  20  1   
  8   5   8  am  
  9   5  21  1   
 10   6   9  ar  
 11   6  22  1   
 12   7   9  ar  
 13   7  10  1   
 14   8  11  2   
 15   8  12  1   
 16   9  13  1   
 17  10  14  2   
 18  10  15  1   
 19  12  16  1   
 20  12  23  1   
 21  12  24  1   
 22  13  17  1   
 23  15  18  1   
 24  16  19  1   
 25  16  25  1   
 26  16  26  1   
 27  17  27  1   
 28  17  28  1   
 29  17  29  1   
 30  18  30  1   
 31  18  31  1   
 32  18  32  1   
 33  19  33  1   
 34  19  34  1   
 35  19  35  1   
@<TRIPOS>SUBSTRUCTURE
  1 ****   3 GROUP 4 **** **** 0

# MOE 2024.06 (io_trps.svl 2023.06)
