@<TRIPOS>MOLECULE
1-(4-Methyl-pyrimidin-2-yl)-piperidine-3-carboxylic acid (3-methoxy-phenyl)-amide
46 48 1 0 0 
SMALL
USER_CHARGES


@<TRIPOS>ATOM
  1 O        0.8500    -0.5580     1.2610 O.2   1 <1>  -0.5700 
  2 C        1.4190    -1.0880     0.3380 C.2   1 <1>   0.5690 
  3 N        0.8660    -2.0820    -0.4240 N.am  1 <1>  -0.5470 
  4 C        2.8380    -0.6580     0.0070 C.3   1 <1>  -0.0190 
  5 C       -0.4100    -2.6680    -0.3920 C.ar  1 <1>   0.1170 
  6 C        3.7690    -1.0850     1.1440 C.3   1 <1>   0.2090 
  7 C        2.9570     0.8610    -0.2450 C.3   1 <1>  -0.1600 
  8 C       -1.5260    -2.0300     0.1360 C.ar  1 <1>  -0.1500 
  9 C       -0.5690    -3.9390    -0.9310 C.ar  1 <1>  -0.1500 
 10 N        5.1650    -0.7030     0.7890 N.pl3 1 <1>  -0.8380 
 11 C        4.4230     1.2620    -0.4940 C.3   1 <1>  -0.1600 
 12 C       -2.7700    -2.6390     0.1310 C.ar  1 <1>   0.0830 
 13 C       -1.8060    -4.5580    -0.9420 C.ar  1 <1>  -0.1500 
 14 C        6.0910    -1.6210     0.3420 C.ar  1 <1>   0.7200 
 15 C        5.3590     0.7610     0.6150 C.3   1 <1>   0.2090 
 16 O       -3.7990    -1.9340     0.6670 O.3   1 <1>  -0.3630 
 17 C       -2.9100    -3.9130    -0.4120 C.ar  1 <1>  -0.1500 
 18 N        7.3680    -1.2450     0.3530 N.ar  1 <1>  -0.6200 
 19 N        5.6260    -2.8020    -0.0700 N.ar  1 <1>  -0.6200 
 20 C       -5.0970    -2.4780     0.7510 C.3   1 <1>   0.0400 
 21 C        8.2450    -2.1210    -0.0670 C.ar  1 <1>   0.1670 
 22 C        6.5240    -3.6610    -0.4850 C.ar  1 <1>   0.1600 
 23 C        7.8650    -3.3670    -0.5040 C.ar  1 <1>  -0.1500 
 24 C        9.6990    -1.7010    -0.0500 C.3   1 <1>  -0.0970 
 25 H        1.5020    -2.5010    -1.1000 H     1 <1>   0.3700 
 26 H        3.1550    -1.1750    -0.8800 H     1 <1>   0.0800 
 27 H        3.6910    -2.1450     1.3150 H     1 <1>   0.0800 
 28 H        3.4870    -0.5870     2.0560 H     1 <1>   0.0800 
 29 H        2.5870     1.3940     0.6150 H     1 <1>   0.0800 
 30 H        2.3530     1.1390    -1.0910 H     1 <1>   0.0800 
 31 H       -1.4420    -1.0460     0.5560 H     1 <1>   0.1500 
 32 H        0.2790    -4.4530    -1.3440 H     1 <1>   0.1500 
 33 H        4.5000     2.3320    -0.5630 H     1 <1>   0.0800 
 34 H        4.7570     0.8490    -1.4290 H     1 <1>   0.0800 
 35 H       -1.9120    -5.5440    -1.3620 H     1 <1>   0.1500 
 36 H        6.3790     0.9930     0.3570 H     1 <1>   0.0800 
 37 H        5.1320     1.2560     1.5430 H     1 <1>   0.0800 
 38 H       -3.8600    -4.4120    -0.4320 H     1 <1>   0.1500 
 39 H       -5.7330    -1.7510     1.2230 H     1 <1>   0.0800 
 40 H       -5.0630    -3.3740     1.3450 H     1 <1>   0.0800 
 41 H       -5.4540    -2.6850    -0.2430 H     1 <1>   0.0800 
 42 H        6.1830    -4.6250    -0.8190 H     1 <1>   0.1500 
 43 H        8.5830    -4.0870    -0.8470 H     1 <1>   0.1500 
 44 H        9.8300    -0.8350    -0.6720 H     1 <1>   0.0800 
 45 H       10.3340    -2.4890    -0.4090 H     1 <1>   0.0800 
 46 H        9.9870    -1.4510     0.9550 H     1 <1>   0.0800 
@<TRIPOS>BOND
  1   1   2  2   
  2   2   3  am  
  3   2   4  1   
  4   3   5  1   
  5   3  25  1   
  6   4   6  1   
  7   4   7  1   
  8   4  26  1   
  9   5   8  ar  
 10   5   9  ar  
 11   6  10  1   
 12   6  27  1   
 13   6  28  1   
 14   7  11  1   
 15   7  29  1   
 16   7  30  1   
 17   8  12  ar  
 18   8  31  1   
 19   9  13  ar  
 20   9  32  1   
 21  10  14  1   
 22  10  15  1   
 23  11  15  1   
 24  11  33  1   
 25  11  34  1   
 26  12  16  1   
 27  12  17  ar  
 28  13  17  ar  
 29  13  35  1   
 30  14  18  ar  
 31  14  19  ar  
 32  15  36  1   
 33  15  37  1   
 34  16  20  1   
 35  17  38  1   
 36  18  21  ar  
 37  19  22  ar  
 38  20  39  1   
 39  20  40  1   
 40  20  41  1   
 41  21  23  ar  
 42  21  24  1   
 43  22  23  ar  
 44  22  42  1   
 45  23  43  1   
 46  24  44  1   
 47  24  45  1   
 48  24  46  1   
@<TRIPOS>SUBSTRUCTURE
  1 ****   4 GROUP 4 **** **** 0

# MOE 2024.06 (io_trps.svl 2023.06)
