@<TRIPOS>MOLECULE
NONAME
57 60 1 0 0 
SMALL
USER_CHARGES


@<TRIPOS>ATOM
  1 O       -1.3340     0.6880    -0.2190 O.3   1 <1>  -0.5600 
  2 C       -1.6760     0.6620     1.1400 C.3   1 <1>   0.1200 
  3 C       -2.0840     1.5990    -0.9780 C.3   1 <1>   0.1200 
  4 C       -3.1580     0.2540     1.3180 C.3   1 <1>   0.3430 
  5 C       -3.5970     1.2940    -0.8620 C.3   1 <1>   0.3430 
  6 N       -3.8320     0.0600    -0.0230 N.4   1 <1>  -0.9590 
  7 C       -5.2790    -0.3400     0.0170 C.3   1 <1>   0.3430 
  8 C       -5.5040    -1.7640     0.5780 C.3   1 <1>   0.1860 
  9 N       -6.9360    -2.1750     0.4860 N.pl3 1 <1>  -0.1460 
 10 C       -7.5520    -3.3290     0.1390 C.cat 1 <1>   0.3950 
 11 N       -8.9150    -3.1800    -0.0340 N.pl3 1 <1>   0.5610 
 12 C       -7.0150    -4.6240    -0.0760 C.2   1 <1>  -0.1240 
 13 N       -9.6100    -2.0230     0.1530 N.2   1 <1>  -0.7070 
 14 C       -9.7270    -4.1810    -0.4650 C.2   1 <1>  -0.0680 
 15 C       -7.8400    -5.6390    -0.5420 C.2   1 <1>  -0.0380 
 16 C       -5.5460    -4.9410     0.2280 C.3   1 <1>  -0.1020 
 17 C      -10.8560    -2.3270    -0.1330 C.2   1 <1>   0.2350 
 18 N       -9.1570    -5.4190    -0.7320 N.pl3 1 <1>  -0.5840 
 19 C      -10.9710    -3.6660    -0.5310 C.2   1 <1>  -0.1500 
 20 C       -7.3800    -7.0530    -0.8720 C.3   1 <1>  -0.1020 
 21 C      -11.9630    -1.3980    -0.0470 C.ar  1 <1>   0.0540 
 22 C      -13.2310    -1.8140     0.3620 C.ar  1 <1>  -0.1500 
 23 C      -11.8010    -0.0510    -0.3680 C.ar  1 <1>  -0.1500 
 24 C      -14.2910    -0.9290     0.4440 C.ar  1 <1>  -0.1500 
 25 C      -12.8560     0.8390    -0.2890 C.ar  1 <1>  -0.1500 
 26 C      -14.1080     0.4110     0.1170 C.ar  1 <1>   0.0830 
 27 O      -15.0890     1.3440     0.1680 O.3   1 <1>  -0.3630 
 28 C      -16.3960     1.0160     0.5820 C.3   1 <1>   0.0400 
 29 H       -1.4880     1.6340     1.5640 H     1 <1>   0.0800 
 30 H       -1.0290    -0.0470     1.6290 H     1 <1>   0.0800 
 31 H       -1.7630     1.5160    -2.0020 H     1 <1>   0.0800 
 32 H       -1.8640     2.5980    -0.6390 H     1 <1>   0.0800 
 33 H       -3.6630     1.0200     1.8840 H     1 <1>   0.0800 
 34 H       -3.1950    -0.6560     1.8940 H     1 <1>   0.0800 
 35 H       -3.9990     1.1580    -1.8530 H     1 <1>   0.0800 
 36 H       -4.0920     2.1450    -0.4240 H     1 <1>   0.0800 
 37 H       -3.2450    -0.6470    -0.5020 H     1 <1>   0.4500 
 38 H       -5.6680    -0.3050    -0.9890 H     1 <1>   0.0800 
 39 H       -5.8240     0.3760     0.6120 H     1 <1>   0.0800 
 40 H       -5.2020    -1.8020     1.6110 H     1 <1>   0.0800 
 41 H       -4.9000    -2.4450     0.0080 H     1 <1>   0.0800 
 42 H       -7.6190    -1.4170     0.6770 H     1 <1>   0.4000 
 43 H       -5.2090    -4.4240     1.1070 H     1 <1>   0.0800 
 44 H       -4.9220    -4.6890    -0.6120 H     1 <1>   0.0800 
 45 H       -5.4040    -5.9860     0.4400 H     1 <1>   0.0800 
 46 H       -9.7730    -6.1750    -1.0720 H     1 <1>   0.4000 
 47 H      -11.8790    -4.1550    -0.8320 H     1 <1>   0.1500 
 48 H       -8.0420    -7.5120    -1.5860 H     1 <1>   0.0800 
 49 H       -7.3750    -7.6560     0.0190 H     1 <1>   0.0800 
 50 H       -6.3970    -7.0560    -1.3060 H     1 <1>   0.0800 
 51 H      -13.3920    -2.8430     0.6270 H     1 <1>   0.1500 
 52 H      -10.8380     0.3020    -0.6880 H     1 <1>   0.1500 
 53 H      -15.2480    -1.2950     0.7640 H     1 <1>   0.1500 
 54 H      -12.7180     1.8760    -0.5410 H     1 <1>   0.1500 
 55 H      -16.9910     1.9110     0.5470 H     1 <1>   0.0800 
 56 H      -16.3600     0.6410     1.5890 H     1 <1>   0.0800 
 57 H      -16.8010     0.2820    -0.0910 H     1 <1>   0.0800 
@<TRIPOS>BOND
  1   1   2  1   
  2   1   3  1   
  3   2   4  1   
  4   2  29  1   
  5   2  30  1   
  6   3   5  1   
  7   3  31  1   
  8   3  32  1   
  9   4   6  1   
 10   4  33  1   
 11   4  34  1   
 12   5   6  1   
 13   5  35  1   
 14   5  36  1   
 15   6   7  1   
 16   6  37  1   
 17   7   8  1   
 18   7  38  1   
 19   7  39  1   
 20   8   9  1   
 21   8  40  1   
 22   8  41  1   
 23   9  10  ar  
 24   9  42  1   
 25  10  11  ar  
 26  10  12  1   
 27  11  13  1   
 28  11  14  1   
 29  12  15  2   
 30  12  16  1   
 31  13  17  2   
 32  14  18  1   
 33  14  19  2   
 34  15  18  1   
 35  15  20  1   
 36  16  43  1   
 37  16  44  1   
 38  16  45  1   
 39  17  19  1   
 40  17  21  1   
 41  18  46  1   
 42  19  47  1   
 43  20  48  1   
 44  20  49  1   
 45  20  50  1   
 46  21  22  ar  
 47  21  23  ar  
 48  22  24  ar  
 49  22  51  1   
 50  23  25  ar  
 51  23  52  1   
 52  24  26  ar  
 53  24  53  1   
 54  25  26  ar  
 55  25  54  1   
 56  26  27  1   
 57  27  28  1   
 58  28  55  1   
 59  28  56  1   
 60  28  57  1   
@<TRIPOS>SUBSTRUCTURE
  1 ****  13 GROUP 4 **** **** 0

# MOE 2024.06 (io_trps.svl 2023.06)
