@<TRIPOS>MOLECULE
9334
49 50 1 0 0 
SMALL
USER_CHARGES


@<TRIPOS>ATOM
  1 O       -0.5290     0.6700    -0.1390 O.2   1 <1>  -0.5700 
  2 C       -1.3670    -0.1850     0.0410 C.2   1 <1>   0.6340 
  3 O       -0.9290    -1.4370     0.1860 O.3   1 <1>  -0.4300 
  4 C       -2.7840     0.1070     0.0830 C.ar  1 <1>   0.0860 
  5 C       -1.6230    -2.5460    -0.3460 C.3   1 <1>   0.1200 
  6 C       -3.6210    -0.4200     1.0690 C.ar  1 <1>  -0.1500 
  7 C       -3.3710     0.9450    -0.8650 C.ar  1 <1>  -0.1500 
  8 C       -0.7480    -3.8020    -0.2170 C.3   1 <1>  -0.0800 
  9 C       -4.9730    -0.1390     1.0930 C.ar  1 <1>  -0.1500 
 10 C       -4.7240     1.2250    -0.8440 C.ar  1 <1>  -0.1500 
 11 C       -1.4450    -5.0020    -0.8690 C.3   1 <1>  -0.2400 
 12 C       -0.4270    -4.1240     1.2500 C.3   1 <1>  -0.2400 
 13 C       -5.5530     0.6880     0.1380 C.ar  1 <1>   0.1170 
 14 N       -6.9300     0.9270     0.2000 N.am  1 <1>  -0.5470 
 15 C       -7.7090     1.9350    -0.3250 C.2   1 <1>   0.5440 
 16 O       -7.1900     2.8900    -0.8660 O.2   1 <1>  -0.5700 
 17 C       -9.1530     1.8650    -0.1900 C.ar  1 <1>   0.0860 
 18 C       -9.9190     3.0290    -0.1210 C.ar  1 <1>  -0.1500 
 19 C       -9.8290     0.6460    -0.1220 C.ar  1 <1>  -0.1500 
 20 C      -11.3000     2.9810     0.0280 C.ar  1 <1>   0.0830 
 21 C      -11.2020     0.5830     0.0310 C.ar  1 <1>   0.0830 
 22 O      -12.0870     4.0830     0.1020 O.3   1 <1>  -0.3630 
 23 C      -11.9390     1.7580     0.1080 C.ar  1 <1>  -0.1500 
 24 O      -11.7490    -0.6560     0.0970 O.3   1 <1>  -0.3630 
 25 C      -11.5480     5.3810    -0.0310 C.3   1 <1>   0.0400 
 26 C      -13.1440    -0.8330     0.2130 C.3   1 <1>   0.0400 
 27 H       -1.8360    -2.3430    -1.3820 H     1 <1>   0.0800 
 28 H       -2.5440    -2.6780     0.1940 H     1 <1>   0.0800 
 29 H       -3.1950    -1.0520     1.8300 H     1 <1>   0.1500 
 30 H       -2.7490     1.3830    -1.6270 H     1 <1>   0.1500 
 31 H        0.1740    -3.6220    -0.7450 H     1 <1>   0.0800 
 32 H       -5.5860    -0.5610     1.8690 H     1 <1>   0.1500 
 33 H       -5.1350     1.8690    -1.6000 H     1 <1>   0.1500 
 34 H       -2.3740    -5.2210    -0.3720 H     1 <1>   0.0800 
 35 H       -0.8150    -5.8730    -0.8140 H     1 <1>   0.0800 
 36 H       -1.6470    -4.8010    -1.9070 H     1 <1>   0.0800 
 37 H       -1.3290    -4.2950     1.8100 H     1 <1>   0.0800 
 38 H        0.1090    -3.3080     1.7030 H     1 <1>   0.0800 
 39 H        0.1900    -5.0030     1.3120 H     1 <1>   0.0800 
 40 H       -7.4440     0.2850     0.7990 H     1 <1>   0.3700 
 41 H       -9.4040     3.9700    -0.1840 H     1 <1>   0.1500 
 42 H       -9.2900    -0.2800    -0.1990 H     1 <1>   0.1500 
 43 H      -13.0050     1.7530     0.2260 H     1 <1>   0.1500 
 44 H      -12.3570     6.0870     0.0340 H     1 <1>   0.0800 
 45 H      -11.0670     5.4640    -0.9890 H     1 <1>   0.0800 
 46 H      -10.8490     5.5530     0.7680 H     1 <1>   0.0800 
 47 H      -13.3470    -1.8880     0.2320 H     1 <1>   0.0800 
 48 H      -13.6250    -0.3830    -0.6380 H     1 <1>   0.0800 
 49 H      -13.4790    -0.3800     1.1290 H     1 <1>   0.0800 
@<TRIPOS>BOND
  1   1   2  2   
  2   2   3  1   
  3   2   4  1   
  4   3   5  1   
  5   4   6  ar  
  6   4   7  ar  
  7   5   8  1   
  8   5  27  1   
  9   5  28  1   
 10   6   9  ar  
 11   6  29  1   
 12   7  10  ar  
 13   7  30  1   
 14   8  11  1   
 15   8  12  1   
 16   8  31  1   
 17   9  13  ar  
 18   9  32  1   
 19  10  13  ar  
 20  10  33  1   
 21  11  34  1   
 22  11  35  1   
 23  11  36  1   
 24  12  37  1   
 25  12  38  1   
 26  12  39  1   
 27  13  14  1   
 28  14  15  am  
 29  14  40  1   
 30  15  16  2   
 31  15  17  1   
 32  17  18  ar  
 33  17  19  ar  
 34  18  20  ar  
 35  18  41  1   
 36  19  21  ar  
 37  19  42  1   
 38  20  22  1   
 39  20  23  ar  
 40  21  23  ar  
 41  21  24  1   
 42  22  25  1   
 43  23  43  1   
 44  24  26  1   
 45  25  44  1   
 46  25  45  1   
 47  25  46  1   
 48  26  47  1   
 49  26  48  1   
 50  26  49  1   
@<TRIPOS>SUBSTRUCTURE
  1 ****  14 GROUP 4 **** **** 0

# MOE 2024.06 (io_trps.svl 2023.06)
