@<TRIPOS>MOLECULE
NONAME
42 44 1 0 0 
SMALL
USER_CHARGES


@<TRIPOS>ATOM
  1 F       -0.7600     0.6150    -0.8260 F     1 <1>  -0.1900 
  2 C       -1.7450     1.3830    -0.4460 C.ar  1 <1>   0.1900 
  3 C       -1.5080     2.3420     0.5200 C.ar  1 <1>  -0.1500 
  4 C       -2.9870     1.2090    -1.0240 C.ar  1 <1>  -0.1500 
  5 C       -2.5570     3.1530     0.9210 C.ar  1 <1>  -0.1500 
  6 C       -4.0280     2.0260    -0.6150 C.ar  1 <1>  -0.1500 
  7 C       -3.8190     2.9980     0.3570 C.ar  1 <1>  -0.1430 
  8 C       -4.9700     3.8850     0.8030 C.3   1 <1>   0.2840 
  9 N       -5.4720     4.6330    -0.3640 N.am  1 <1>  -0.7300 
 10 C       -6.7390     4.8170    -0.8040 C.2   1 <1>   0.5690 
 11 O       -6.9080     5.3710    -1.8600 O.2   1 <1>  -0.5700 
 12 C       -7.9420     4.3290     0.0100 C.3   1 <1>  -0.0190 
 13 C       -8.2620     2.8560    -0.3010 C.3   1 <1>  -0.1600 
 14 C       -9.2040     5.1830    -0.2240 C.3   1 <1>  -0.1600 
 15 C       -9.4390     2.3510     0.5350 C.3   1 <1>   0.2090 
 16 C      -10.3940     4.6800     0.5960 C.3   1 <1>   0.2090 
 17 N      -10.6180     3.2330     0.3220 N.pl3 1 <1>  -0.8380 
 18 C      -11.8630     2.7310     0.0010 C.ar  1 <1>   0.7200 
 19 N      -11.9070     1.5320    -0.5790 N.ar  1 <1>  -0.6200 
 20 N      -12.9200     3.4860     0.3050 N.ar  1 <1>  -0.6200 
 21 C      -13.0960     1.0710    -0.8810 C.ar  1 <1>   0.1600 
 22 C      -14.0950     2.9990    -0.0060 C.ar  1 <1>   0.1600 
 23 C      -14.2420     1.7760    -0.6110 C.ar  1 <1>  -0.1500 
 24 H       -0.5260     2.4470     0.9440 H     1 <1>   0.1500 
 25 H       -3.1320     0.4540    -1.7750 H     1 <1>   0.1500 
 26 H       -2.3820     3.9040     1.6720 H     1 <1>   0.1500 
 27 H       -5.0010     1.9060    -1.0610 H     1 <1>   0.1500 
 28 H       -4.6360     4.5840     1.5500 H     1 <1>   0.0800 
 29 H       -5.7440     3.2740     1.2300 H     1 <1>   0.0800 
 30 H       -4.7430     4.9620    -1.0000 H     1 <1>   0.3700 
 31 H       -7.6940     4.4160     1.0520 H     1 <1>   0.0800 
 32 H       -7.4050     2.2380    -0.1060 H     1 <1>   0.0800 
 33 H       -8.5110     2.7500    -1.3430 H     1 <1>   0.0800 
 34 H       -9.4740     5.1570    -1.2660 H     1 <1>   0.0800 
 35 H       -9.0030     6.2070     0.0330 H     1 <1>   0.0800 
 36 H       -9.1810     2.3680     1.5800 H     1 <1>   0.0800 
 37 H       -9.6540     1.3310     0.2690 H     1 <1>   0.0800 
 38 H      -11.2600     5.2640     0.3360 H     1 <1>   0.0800 
 39 H      -10.2050     4.8130     1.6470 H     1 <1>   0.0800 
 40 H      -13.1560     0.1060    -1.3550 H     1 <1>   0.1500 
 41 H      -14.9640     3.5910     0.2280 H     1 <1>   0.1500 
 42 H      -15.2110     1.3870    -0.8620 H     1 <1>   0.1500 
@<TRIPOS>BOND
  1   1   2  1   
  2   2   3  ar  
  3   2   4  ar  
  4   3   5  ar  
  5   3  24  1   
  6   4   6  ar  
  7   4  25  1   
  8   5   7  ar  
  9   5  26  1   
 10   6   7  ar  
 11   6  27  1   
 12   7   8  1   
 13   8   9  1   
 14   8  28  1   
 15   8  29  1   
 16   9  10  am  
 17   9  30  1   
 18  10  11  2   
 19  10  12  1   
 20  12  13  1   
 21  12  14  1   
 22  12  31  1   
 23  13  15  1   
 24  13  32  1   
 25  13  33  1   
 26  14  16  1   
 27  14  34  1   
 28  14  35  1   
 29  15  17  1   
 30  15  36  1   
 31  15  37  1   
 32  16  17  1   
 33  16  38  1   
 34  16  39  1   
 35  17  18  1   
 36  18  19  ar  
 37  18  20  ar  
 38  19  21  ar  
 39  20  22  ar  
 40  21  23  ar  
 41  21  40  1   
 42  22  23  ar  
 43  22  41  1   
 44  23  42  1   
@<TRIPOS>SUBSTRUCTURE
  1 ****  13 GROUP 4 **** **** 0

# MOE 2024.06 (io_trps.svl 2023.06)
