@<TRIPOS>MOLECULE
ka-06102
27 28 1 0 0 
SMALL
USER_CHARGES


@<TRIPOS>ATOM
  1 O        0.4230     0.2550    -0.4060 O.2   1 <1>  -0.5700 
  2 C        1.4640     0.8650    -0.2300 C.2   1 <1>   0.6900 
  3 N        2.6250     0.1860     0.0770 N.am  1 <1>  -0.4690 
  4 N        1.4920     2.2390    -0.3090 N.am  1 <1>  -0.4200 
  5 C        3.8430     0.8510     0.1210 C.2   1 <1>   0.2090 
  6 C        2.4880    -1.1680     0.6890 C.3   1 <1>   0.0600 
  7 C        2.6440     2.9410     0.0230 C.2   1 <1>   0.6160 
  8 C        0.2490     2.9860    -0.6660 C.3   1 <1>   0.0600 
  9 N        5.0260     0.1410     0.0540 N.pl3 1 <1>  -0.5690 
 10 C        3.8610     2.2290     0.2460 C.2   1 <1>   0.0290 
 11 O        2.5410     4.1580     0.0900 O.2   1 <1>  -0.5700 
 12 C        6.2170     0.7310     0.4440 C.2   1 <1>  -0.0500 
 13 C        5.1830    -1.1280    -0.7060 C.3   1 <1>   0.1290 
 14 C        5.1000     2.8650     0.5890 C.2   1 <1>   0.5410 
 15 O        7.2260     0.0240     0.5390 O.3   1 <1>  -0.8500 
 16 C        6.2400     2.0850     0.6990 C.2   1 <1>  -0.1360 
 17 O        5.1850     4.0910     0.8160 O.2   1 <1>  -0.5700 
 18 H        1.5970    -1.2140     1.2900 H     1 <1>   0.0800 
 19 H        3.3320    -1.3790     1.3230 H     1 <1>   0.0800 
 20 H        2.4240    -1.9100    -0.0870 H     1 <1>   0.0800 
 21 H       -0.4250     2.3640    -1.2290 H     1 <1>   0.0800 
 22 H        0.4940     3.8460    -1.2650 H     1 <1>   0.0800 
 23 H       -0.2410     3.3140     0.2340 H     1 <1>   0.0800 
 24 H        4.3230    -1.3170    -1.3200 H     1 <1>   0.0800 
 25 H        5.3400    -1.9340    -0.0130 H     1 <1>   0.0800 
 26 H        6.0480    -1.0530    -1.3420 H     1 <1>   0.0800 
 27 H        7.1680     2.5360     0.9840 H     1 <1>   0.1500 
@<TRIPOS>BOND
  1   1   2  2   
  2   2   3  am  
  3   2   4  am  
  4   3   5  1   
  5   3   6  1   
  6   4   7  am  
  7   4   8  1   
  8   5   9  1   
  9   5  10  2   
 10   6  18  1   
 11   6  19  1   
 12   6  20  1   
 13   7  10  1   
 14   7  11  2   
 15   8  21  1   
 16   8  22  1   
 17   8  23  1   
 18   9  12  1   
 19   9  13  1   
 20  10  14  1   
 21  12  15  1   
 22  12  16  2   
 23  13  24  1   
 24  13  25  1   
 25  13  26  1   
 26  14  16  1   
 27  14  17  2   
 28  16  27  1   
@<TRIPOS>SUBSTRUCTURE
  1 ****   5 GROUP 4 **** **** 0

# MOE 2024.06 (io_trps.svl 2023.06)
