@<TRIPOS>MOLECULE
NONAME
48 50 1 0 0 
SMALL
USER_CHARGES


@<TRIPOS>ATOM
  1 F       -2.1340     0.6260     0.6430 F     1 <1>  -0.1900 
  2 C       -2.7680    -0.5120     0.5530 C.ar  1 <1>   0.1900 
  3 C       -3.8300    -0.7510     1.4030 C.ar  1 <1>  -0.1500 
  4 C       -2.3540    -1.4330    -0.3890 C.ar  1 <1>  -0.1500 
  5 C       -4.5000    -1.9590     1.3010 C.ar  1 <1>  -0.1500 
  6 C       -3.0320    -2.6380    -0.4820 C.ar  1 <1>  -0.1500 
  7 C       -4.1050    -2.9040     0.3610 C.ar  1 <1>  -0.1430 
  8 C       -4.8600    -4.2170     0.2580 C.3   1 <1>   0.2840 
  9 N       -6.1390    -3.9450    -0.4160 N.am  1 <1>  -0.7300 
 10 C       -7.3430    -4.4040     0.0030 C.2   1 <1>   0.5690 
 11 O       -7.4280    -5.1980     0.9090 O.2   1 <1>  -0.5700 
 12 C       -8.5940    -3.8810    -0.7040 C.3   1 <1>  -0.0190 
 13 C       -8.8240    -2.3900    -0.3900 C.3   1 <1>  -0.1600 
 14 C       -9.8660    -4.6800    -0.3550 C.3   1 <1>  -0.1600 
 15 C      -10.0590    -1.8380    -1.1060 C.3   1 <1>   0.2090 
 16 C      -11.0940    -4.1290    -1.0790 C.3   1 <1>   0.2090 
 17 N      -11.2410    -2.6780    -0.7790 N.pl3 1 <1>  -0.8380 
 18 C      -12.4330    -2.1330    -0.3420 C.ar  1 <1>   0.7200 
 19 N      -12.6260    -0.8330    -0.5680 N.ar  1 <1>  -0.6200 
 20 N      -13.2900    -2.9520     0.2650 N.ar  1 <1>  -0.6200 
 21 C      -13.7570    -0.3270    -0.1500 C.ar  1 <1>   0.1670 
 22 C      -14.4140    -2.4260     0.6780 C.ar  1 <1>   0.1670 
 23 C      -14.7000    -1.0950     0.4900 C.ar  1 <1>  -0.1500 
 24 C      -13.9850     1.1480    -0.4040 C.3   1 <1>  -0.0970 
 25 C      -15.3880    -3.3510     1.3740 C.3   1 <1>  -0.0970 
 26 H       -4.1220    -0.0100     2.1250 H     1 <1>   0.1500 
 27 H       -1.5210    -1.2090    -1.0310 H     1 <1>   0.1500 
 28 H       -5.3330    -2.1650     1.9530 H     1 <1>   0.1500 
 29 H       -2.7210    -3.3640    -1.2130 H     1 <1>   0.1500 
 30 H       -5.0320    -4.6220     1.2420 H     1 <1>   0.0800 
 31 H       -4.2990    -4.9360    -0.3130 H     1 <1>   0.0800 
 32 H       -6.0860    -3.2300    -1.1410 H     1 <1>   0.3700 
 33 H       -8.4250    -3.9820    -1.7600 H     1 <1>   0.0800 
 34 H       -7.9670    -1.8110    -0.6830 H     1 <1>   0.0800 
 35 H       -8.9590    -2.2620     0.6700 H     1 <1>   0.0800 
 36 H      -10.0470    -4.6370     0.7050 H     1 <1>   0.0800 
 37 H       -9.7310    -5.7130    -0.6210 H     1 <1>   0.0800 
 38 H       -9.9090    -1.8450    -2.1720 H     1 <1>   0.0800 
 39 H      -10.2100    -0.8170    -0.7970 H     1 <1>   0.0800 
 40 H      -11.9650    -4.6850    -0.7770 H     1 <1>   0.0800 
 41 H      -10.9800    -4.2530    -2.1410 H     1 <1>   0.0800 
 42 H      -15.6240    -0.6720     0.8310 H     1 <1>   0.1500 
 43 H      -13.9500     1.3390    -1.4610 H     1 <1>   0.0800 
 44 H      -13.2100     1.7170     0.0770 H     1 <1>   0.0800 
 45 H      -14.9380     1.4640    -0.0230 H     1 <1>   0.0800 
 46 H      -15.6690    -4.1430     0.7050 H     1 <1>   0.0800 
 47 H      -16.2710    -2.8230     1.6820 H     1 <1>   0.0800 
 48 H      -14.9170    -3.7800     2.2390 H     1 <1>   0.0800 
@<TRIPOS>BOND
  1   1   2  1   
  2   2   3  ar  
  3   2   4  ar  
  4   3   5  ar  
  5   3  26  1   
  6   4   6  ar  
  7   4  27  1   
  8   5   7  ar  
  9   5  28  1   
 10   6   7  ar  
 11   6  29  1   
 12   7   8  1   
 13   8   9  1   
 14   8  30  1   
 15   8  31  1   
 16   9  10  am  
 17   9  32  1   
 18  10  11  2   
 19  10  12  1   
 20  12  13  1   
 21  12  14  1   
 22  12  33  1   
 23  13  15  1   
 24  13  34  1   
 25  13  35  1   
 26  14  16  1   
 27  14  36  1   
 28  14  37  1   
 29  15  17  1   
 30  15  38  1   
 31  15  39  1   
 32  16  17  1   
 33  16  40  1   
 34  16  41  1   
 35  17  18  1   
 36  18  19  ar  
 37  18  20  ar  
 38  19  21  ar  
 39  20  22  ar  
 40  21  23  ar  
 41  21  24  1   
 42  22  23  ar  
 43  22  25  1   
 44  23  42  1   
 45  24  43  1   
 46  24  44  1   
 47  24  45  1   
 48  25  46  1   
 49  25  47  1   
 50  25  48  1   
@<TRIPOS>SUBSTRUCTURE
  1 ****  13 GROUP 4 **** **** 0

# MOE 2024.06 (io_trps.svl 2023.06)
