@<TRIPOS>MOLECULE
NONAME
42 44 1 0 0 
SMALL
USER_CHARGES


@<TRIPOS>ATOM
  1 S       -0.2380    -0.7970     0.2880 S.3   1 <1>  -0.3320 
  2 C        1.5350    -1.0070     0.3760 C.ar  1 <1>   0.7220 
  3 C       -0.8990    -1.8700     1.6620 C.3   1 <1>   0.1310 
  4 N        1.9830    -1.8370     1.3480 N.ar  1 <1>  -0.3100 
  5 N        2.2300    -0.3380    -0.5060 N.ar  1 <1>  -0.5670 
  6 C       -2.4180    -1.8200     1.7460 C.2   1 <1>   0.5690 
  7 N        3.2610    -2.0460     1.4810 N.ar  1 <1>  -0.2560 
  8 C        3.5380    -0.5610    -0.3580 C.ar  1 <1>   0.1050 
  9 O       -2.9600    -2.4810     2.5980 O.2   1 <1>  -0.5700 
 10 N       -3.1240    -1.0480     0.8780 N.am  1 <1>  -0.7300 
 11 C        4.0520    -1.3990     0.6160 C.ar  1 <1>   0.2560 
 12 N        4.5700    -0.0380    -1.0940 N.pl3 1 <1>   0.0480 
 13 C       -4.5940    -0.9200     0.8350 C.3   1 <1>   0.1400 
 14 C        5.4650    -1.3920     0.4730 C.ar  1 <1>   0.0000 
 15 C        5.7560    -0.5420    -0.5910 C.ar  1 <1>  -0.1520 
 16 C        4.4450     0.8990    -2.2270 C.3   1 <1>   0.0160 
 17 C       -5.0780    -1.2120    -0.5850 C.3   1 <1>  -0.1600 
 18 C        6.5010    -2.0310     1.1560 C.ar  1 <1>  -0.1500 
 19 C        7.0780    -0.3240    -0.9840 C.ar  1 <1>  -0.1500 
 20 C       -6.6040    -1.0930    -0.6860 C.3   1 <1>  -0.1600 
 21 C        7.8040    -1.8130     0.7670 C.ar  1 <1>  -0.1500 
 22 C        8.0920    -0.9610    -0.3020 C.ar  1 <1>  -0.1500 
 23 C       -7.0860    -1.3860    -2.1100 C.3   1 <1>  -0.2400 
 24 H       -0.4690    -1.5170     2.5810 H     1 <1>   0.0800 
 25 H       -0.5750    -2.8760     1.4700 H     1 <1>   0.0800 
 26 H       -2.6060    -0.5070     0.1800 H     1 <1>   0.3700 
 27 H       -4.8710     0.0790     1.1260 H     1 <1>   0.0800 
 28 H       -5.0430    -1.6140     1.5270 H     1 <1>   0.0800 
 29 H        3.4080     1.1230    -2.4010 H     1 <1>   0.0800 
 30 H        4.8650     0.4490    -3.1070 H     1 <1>   0.0800 
 31 H        4.9710     1.8060    -1.9960 H     1 <1>   0.0800 
 32 H       -4.7810    -2.2100    -0.8570 H     1 <1>   0.0800 
 33 H       -4.6210    -0.5170    -1.2670 H     1 <1>   0.0800 
 34 H        6.2650    -2.6850     1.9770 H     1 <1>   0.1500 
 35 H        7.2990     0.3330    -1.8060 H     1 <1>   0.1500 
 36 H       -6.9110    -0.0990    -0.4070 H     1 <1>   0.0800 
 37 H       -7.0680    -1.7890    -0.0070 H     1 <1>   0.0800 
 38 H        8.6130    -2.3000     1.2850 H     1 <1>   0.1500 
 39 H        9.1180    -0.8060    -0.5880 H     1 <1>   0.1500 
 40 H       -6.6530    -0.6890    -2.8060 H     1 <1>   0.0800 
 41 H       -8.1570    -1.2990    -2.1610 H     1 <1>   0.0800 
 42 H       -6.8100    -2.3840    -2.4020 H     1 <1>   0.0800 
@<TRIPOS>BOND
  1   1   2  1   
  2   1   3  1   
  3   2   4  ar  
  4   2   5  ar  
  5   3   6  1   
  6   3  24  1   
  7   3  25  1   
  8   4   7  ar  
  9   5   8  ar  
 10   6   9  2   
 11   6  10  am  
 12   7  11  ar  
 13   8  11  ar  
 14   8  12  1   
 15  10  13  1   
 16  10  26  1   
 17  11  14  1   
 18  12  15  1   
 19  12  16  1   
 20  13  17  1   
 21  13  27  1   
 22  13  28  1   
 23  14  15  ar  
 24  14  18  ar  
 25  15  19  ar  
 26  16  29  1   
 27  16  30  1   
 28  16  31  1   
 29  17  20  1   
 30  17  32  1   
 31  17  33  1   
 32  18  21  ar  
 33  18  34  1   
 34  19  22  ar  
 35  19  35  1   
 36  20  23  1   
 37  20  36  1   
 38  20  37  1   
 39  21  22  ar  
 40  21  38  1   
 41  22  39  1   
 42  23  40  1   
 43  23  41  1   
 44  23  42  1   
@<TRIPOS>SUBSTRUCTURE
  1 ****   2 GROUP 4 **** **** 0

# MOE 2024.06 (io_trps.svl 2023.06)
