@<TRIPOS>MOLECULE
NONAME
30 31 1 0 0 
SMALL
USER_CHARGES


@<TRIPOS>ATOM
  1 O       -0.1450    -0.6220    -0.6580 O.co2 1 <1>  -0.9000 
  2 C       -0.8910    -1.3830    -0.0190 C.2   1 <1>   1.0320 
  3 O       -0.3650    -2.3040     0.6330 O.co2 1 <1>  -0.9000 
  4 C       -2.3360    -1.2150    -0.0450 C.2   1 <1>  -0.3840 
  5 N       -3.2140    -2.2590     0.1780 N.pl3 1 <1>   0.0480 
  6 C       -3.0870    -0.0950    -0.2820 C.2   1 <1>  -0.1810 
  7 C       -4.5040    -1.7900     0.0810 C.ar  1 <1>  -0.1520 
  8 C       -2.8390    -3.6660     0.4230 C.3   1 <1>   0.0160 
  9 C       -4.4510    -0.4350    -0.2130 C.ar  1 <1>   0.0000 
 10 C       -2.5950     1.3100    -0.5740 C.3   1 <1>  -0.0590 
 11 C       -5.7400    -2.4310     0.2260 C.ar  1 <1>  -0.1500 
 12 C       -5.6390     0.2900    -0.3730 C.ar  1 <1>  -0.1500 
 13 C       -6.8990    -1.7070     0.0680 C.ar  1 <1>  -0.1500 
 14 C       -6.8560    -0.3380    -0.2350 C.ar  1 <1>  -0.1430 
 15 C       -8.1540     0.4330    -0.4060 C.3   1 <1>  -0.0170 
 16 C       -8.7450     0.8030     0.9560 C.3   1 <1>  -0.2400 
 17 H       -2.1090    -3.9650    -0.3060 H     1 <1>   0.0800 
 18 H       -3.6980    -4.3020     0.3510 H     1 <1>   0.0800 
 19 H       -2.4040    -3.7420     1.4030 H     1 <1>   0.0800 
 20 H       -1.5490     1.4000    -0.3490 H     1 <1>   0.0800 
 21 H       -3.1330     2.0190     0.0270 H     1 <1>   0.0800 
 22 H       -2.7440     1.5340    -1.6130 H     1 <1>   0.0800 
 23 H       -5.7760    -3.4780     0.4600 H     1 <1>   0.1500 
 24 H       -5.5680     1.3360    -0.6020 H     1 <1>   0.1500 
 25 H       -7.8520    -2.1910     0.1780 H     1 <1>   0.1500 
 26 H       -8.8560    -0.1640    -0.9600 H     1 <1>   0.0800 
 27 H       -7.9700     1.3300    -0.9710 H     1 <1>   0.0800 
 28 H       -8.9620    -0.0860     1.5220 H     1 <1>   0.0800 
 29 H       -9.6530     1.3640     0.8280 H     1 <1>   0.0800 
 30 H       -8.0420     1.3990     1.5120 H     1 <1>   0.0800 
@<TRIPOS>BOND
  1   1   2  ar  
  2   2   3  ar  
  3   2   4  1   
  4   4   5  1   
  5   4   6  2   
  6   5   7  1   
  7   5   8  1   
  8   6   9  1   
  9   6  10  1   
 10   7   9  ar  
 11   7  11  ar  
 12   8  17  1   
 13   8  18  1   
 14   8  19  1   
 15   9  12  ar  
 16  10  20  1   
 17  10  21  1   
 18  10  22  1   
 19  11  13  ar  
 20  11  23  1   
 21  12  14  ar  
 22  12  24  1   
 23  13  14  ar  
 24  13  25  1   
 25  14  15  1   
 26  15  16  1   
 27  15  26  1   
 28  15  27  1   
 29  16  28  1   
 30  16  29  1   
 31  16  30  1   
@<TRIPOS>SUBSTRUCTURE
  1 ****   9 GROUP 4 **** **** 0

# MOE 2024.06 (io_trps.svl 2023.06)
