@<TRIPOS>MOLECULE
NONAME
38 40 1 0 0 
SMALL
USER_CHARGES


@<TRIPOS>ATOM
  1 N       -0.0440     0.2700     0.3490 N.2   1 <1>  -0.6120 
  2 C       -1.0330     1.0140    -0.0770 C.2   1 <1>   0.3750 
  3 C        1.0820     0.9340     0.5590 C.cat 1 <1>   0.9620 
  4 C       -0.9300     2.3820    -0.2950 C.2   1 <1>  -0.1360 
  5 C       -2.3460     0.3040    -0.3350 C.3   1 <1>  -0.1790 
  6 N        2.2100     0.3990     0.9840 N.pl3 1 <1>  -0.7000 
  7 N        1.2920     2.2490     0.3840 N.pl3 1 <1>  -0.3220 
  8 C        0.2580     3.0310    -0.0610 C.2   1 <1>   0.4790 
  9 C        3.1060     1.4160     1.0600 C.2   1 <1>   0.5030 
 10 N        2.5990     2.5400     0.7100 N.2   1 <1>  -0.2600 
 11 N        0.3840     4.3730    -0.2660 N.pl3 1 <1>  -0.8690 
 12 C        1.5600     5.2460    -0.0260 C.3   1 <1>   0.2090 
 13 C        1.2050     6.7120    -0.3140 C.3   1 <1>  -0.0800 
 14 C        2.4650     7.5890    -0.1930 C.3   1 <1>  -0.1600 
 15 C        0.0990     7.2380     0.6260 C.3   1 <1>  -0.1600 
 16 C        2.1530     9.0660    -0.4640 C.3   1 <1>  -0.1600 
 17 C       -0.2130     8.7160     0.3570 C.3   1 <1>  -0.1600 
 18 C        1.0500     9.5790     0.4680 C.3   1 <1>  -0.1600 
 19 H       -1.7790     2.9370    -0.6450 H     1 <1>   0.1500 
 20 H       -3.1000     0.9860    -0.6820 H     1 <1>   0.0800 
 21 H       -2.6930    -0.1600     0.5700 H     1 <1>   0.0800 
 22 H       -2.2060    -0.4600    -1.0790 H     1 <1>   0.0800 
 23 H        2.3160    -0.5910     1.1920 H     1 <1>   0.4500 
 24 H        4.1280     1.2740     1.3820 H     1 <1>   0.1500 
 25 H       -0.4200     4.9070    -0.6120 H     1 <1>   0.4000 
 26 H        2.3660     4.9370    -0.6710 H     1 <1>   0.0800 
 27 H        1.8820     5.1460     0.9980 H     1 <1>   0.0800 
 28 H        0.8590     6.7790    -1.3320 H     1 <1>   0.0800 
 29 H        3.2120     7.2550    -0.8940 H     1 <1>   0.0800 
 30 H        2.8770     7.4960     0.7980 H     1 <1>   0.0800 
 31 H        0.4170     7.1280     1.6490 H     1 <1>   0.0800 
 32 H       -0.8040     6.6680     0.5020 H     1 <1>   0.0800 
 33 H        1.8400     9.1860    -1.4870 H     1 <1>   0.0800 
 34 H        3.0440     9.6550    -0.3230 H     1 <1>   0.0800 
 35 H       -0.9480     9.0650     1.0620 H     1 <1>   0.0800 
 36 H       -0.6290     8.8210    -0.6300 H     1 <1>   0.0800 
 37 H        0.8120    10.5990     0.2180 H     1 <1>   0.0800 
 38 H        1.4050     9.5650     1.4850 H     1 <1>   0.0800 
@<TRIPOS>BOND
  1   1   2  2   
  2   1   3  1   
  3   2   4  1   
  4   2   5  1   
  5   3   6  ar  
  6   3   7  ar  
  7   4   8  2   
  8   4  19  1   
  9   5  20  1   
 10   5  21  1   
 11   5  22  1   
 12   6   9  1   
 13   6  23  1   
 14   7   8  1   
 15   7  10  1   
 16   8  11  1   
 17   9  10  2   
 18   9  24  1   
 19  11  12  1   
 20  11  25  1   
 21  12  13  1   
 22  12  26  1   
 23  12  27  1   
 24  13  14  1   
 25  13  15  1   
 26  13  28  1   
 27  14  16  1   
 28  14  29  1   
 29  14  30  1   
 30  15  17  1   
 31  15  31  1   
 32  15  32  1   
 33  16  18  1   
 34  16  33  1   
 35  16  34  1   
 36  17  18  1   
 37  17  35  1   
 38  17  36  1   
 39  18  37  1   
 40  18  38  1   
@<TRIPOS>SUBSTRUCTURE
  1 ****  11 GROUP 4 **** **** 0

# MOE 2024.06 (io_trps.svl 2023.06)
