@<TRIPOS>MOLECULE
N-(5-Methyl-[1,3,4]thiadiazol-2-yl)-2-(3,5,8-trimethyl-quinolin-2-ylsulfanyl)-acetamide
42 44 1 0 0 
SMALL
USER_CHARGES


@<TRIPOS>ATOM
  1 S        0.0020     1.3520     0.2590 S.3   1 <1>  -0.0800 
  2 C       -1.1830     0.1450    -0.1390 C.2   1 <1>   0.4420 
  3 C        1.2120     0.1880    -0.1510 C.2   1 <1>   0.1980 
  4 N       -0.6440    -0.9550    -0.5200 N.2   1 <1>  -0.3380 
  5 N       -2.5370     0.3840    -0.0430 N.am  1 <1>  -0.4940 
  6 N        0.7230    -0.9240    -0.5240 N.2   1 <1>  -0.3380 
  7 C        2.6610     0.5990    -0.0270 C.3   1 <1>  -0.0600 
  8 C       -3.2560     1.4820     0.3390 C.2   1 <1>   0.5690 
  9 O       -2.7480     2.5180     0.6860 O.2   1 <1>  -0.5700 
 10 C       -4.7750     1.4040     0.3300 C.3   1 <1>   0.1310 
 11 S       -5.3860    -0.2630    -0.2360 S.3   1 <1>  -0.3320 
 12 C       -7.1690    -0.1050    -0.1590 C.ar  1 <1>   0.4120 
 13 N       -7.6120     1.0430     0.2420 N.ar  1 <1>  -0.6200 
 14 C       -7.9610    -1.2080    -0.5300 C.ar  1 <1>  -0.1430 
 15 C       -8.9620     1.1980     0.3130 C.ar  1 <1>   0.3100 
 16 C       -9.3150    -1.0660    -0.4640 C.ar  1 <1>  -0.1500 
 17 C       -7.3390    -2.5200    -0.9900 C.3   1 <1>  -0.0970 
 18 C       -9.8650     0.1610    -0.0340 C.ar  1 <1>   0.0000 
 19 C       -9.4800     2.4390     0.7470 C.ar  1 <1>  -0.1430 
 20 C      -11.2580     0.3980     0.0660 C.ar  1 <1>  -0.1430 
 21 C      -10.8330     2.6360     0.8320 C.ar  1 <1>  -0.1500 
 22 C       -8.5340     3.5740     1.1260 C.3   1 <1>  -0.0970 
 23 C      -11.7200     1.6140     0.4910 C.ar  1 <1>  -0.1500 
 24 C      -12.2630    -0.6880    -0.2960 C.3   1 <1>  -0.0970 
 25 H       -3.1050    -0.4210    -0.3110 H     1 <1>   0.3700 
 26 H        2.8770     0.8720     0.9900 H     1 <1>   0.0800 
 27 H        2.8590     1.4370    -0.6690 H     1 <1>   0.0800 
 28 H        3.2970    -0.2190    -0.3130 H     1 <1>   0.0800 
 29 H       -5.1810     2.1370    -0.3410 H     1 <1>   0.0800 
 30 H       -5.1620     1.5660     1.3190 H     1 <1>   0.0800 
 31 H       -9.9650    -1.8760    -0.7350 H     1 <1>   0.1500 
 32 H       -6.7170    -2.9270    -0.2120 H     1 <1>   0.0800 
 33 H       -6.7380    -2.3560    -1.8670 H     1 <1>   0.0800 
 34 H       -8.0970    -3.2430    -1.2300 H     1 <1>   0.0800 
 35 H      -11.2390     3.5770     1.1610 H     1 <1>   0.1500 
 36 H       -7.8970     3.2630     1.9350 H     1 <1>   0.0800 
 37 H       -9.0760     4.4490     1.4350 H     1 <1>   0.0800 
 38 H       -7.9180     3.8320     0.2830 H     1 <1>   0.0800 
 39 H      -12.7750     1.8110     0.5720 H     1 <1>   0.1500 
 40 H      -12.1190    -1.5480     0.3330 H     1 <1>   0.0800 
 41 H      -12.1400    -0.9770    -1.3250 H     1 <1>   0.0800 
 42 H      -13.2720    -0.3410    -0.1640 H     1 <1>   0.0800 
@<TRIPOS>BOND
  1   1   2  1   
  2   1   3  1   
  3   2   4  2   
  4   2   5  1   
  5   3   6  2   
  6   3   7  1   
  7   4   6  1   
  8   5   8  am  
  9   5  25  1   
 10   7  26  1   
 11   7  27  1   
 12   7  28  1   
 13   8   9  2   
 14   8  10  1   
 15  10  11  1   
 16  10  29  1   
 17  10  30  1   
 18  11  12  1   
 19  12  13  ar  
 20  12  14  ar  
 21  13  15  ar  
 22  14  16  ar  
 23  14  17  1   
 24  15  18  ar  
 25  15  19  ar  
 26  16  18  ar  
 27  16  31  1   
 28  17  32  1   
 29  17  33  1   
 30  17  34  1   
 31  18  20  ar  
 32  19  21  ar  
 33  19  22  1   
 34  20  23  ar  
 35  20  24  1   
 36  21  23  ar  
 37  21  35  1   
 38  22  36  1   
 39  22  37  1   
 40  22  38  1   
 41  23  39  1   
 42  24  40  1   
 43  24  41  1   
 44  24  42  1   
@<TRIPOS>SUBSTRUCTURE
  1 ****  11 GROUP 4 **** **** 0

# MOE 2024.06 (io_trps.svl 2023.06)
