@<TRIPOS>MOLECULE
11121
45 46 1 0 0 
SMALL
USER_CHARGES


@<TRIPOS>ATOM
  1 O       -0.4050    -0.6220    -3.5160 O.2   1 <1>  -0.5700 
  2 C       -0.1740    -1.3860    -2.6110 C.2   1 <1>   0.5690 
  3 N        1.1120    -1.6130    -2.2320 N.am  1 <1>  -0.5470 
  4 C       -1.3230    -2.1150    -1.9240 C.3   1 <1>   0.1810 
  5 C        1.5740    -2.4930    -1.2450 C.ar  1 <1>   0.1170 
  6 O       -1.6140    -1.5260    -0.6670 O.3   1 <1>  -0.3630 
  7 C        1.8080    -3.8340    -1.5550 C.ar  1 <1>  -0.1430 
  8 C        1.7890    -2.0400     0.0570 C.ar  1 <1>  -0.1430 
  9 C       -2.2280    -2.3000     0.2540 C.ar  1 <1>   0.0830 
 10 C        2.2320    -4.7040    -0.5650 C.ar  1 <1>  -0.1500 
 11 C        1.6110    -4.3660    -2.9700 C.3   1 <1>  -0.0970 
 12 C        2.2140    -2.9260     1.0310 C.ar  1 <1>  -0.1500 
 13 C        1.5540    -0.5820     0.4350 C.3   1 <1>  -0.0970 
 14 C       -3.5020    -1.9650     0.7030 C.ar  1 <1>  -0.1430 
 15 C       -1.5730    -3.4140     0.7650 C.ar  1 <1>  -0.1500 
 16 C        2.4350    -4.2580     0.7300 C.ar  1 <1>  -0.1430 
 17 C       -4.1130    -2.7700     1.6520 C.ar  1 <1>  -0.1500 
 18 C       -4.2320    -0.7350     0.1770 C.3   1 <1>  -0.0170 
 19 C       -2.1940    -4.2100     1.7090 C.ar  1 <1>  -0.1500 
 20 C        2.8940    -5.2160     1.8140 C.3   1 <1>  -0.0970 
 21 C       -3.4650    -3.8890     2.1510 C.ar  1 <1>  -0.1500 
 22 C       -3.8190     0.5120     0.9620 C.3   1 <1>  -0.2400 
 23 H        1.8040    -1.0360    -2.7080 H     1 <1>   0.3700 
 24 H       -1.0650    -3.1480    -1.7850 H     1 <1>   0.0800 
 25 H       -2.2090    -2.0520    -2.5280 H     1 <1>   0.0800 
 26 H        2.4080    -5.7390    -0.7990 H     1 <1>   0.1500 
 27 H        0.5680    -4.3570    -3.2280 H     1 <1>   0.0800 
 28 H        1.9750    -5.3740    -3.0580 H     1 <1>   0.0800 
 29 H        2.1480    -3.7550    -3.6730 H     1 <1>   0.0800 
 30 H        2.3720    -2.5810     2.0380 H     1 <1>   0.1500 
 31 H        0.5100    -0.3430     0.3490 H     1 <1>   0.0800 
 32 H        2.1130     0.0650    -0.2160 H     1 <1>   0.0800 
 33 H        1.8610    -0.3900     1.4470 H     1 <1>   0.0800 
 34 H       -0.5790    -3.6520     0.4330 H     1 <1>   0.1500 
 35 H       -5.0970    -2.5280     2.0110 H     1 <1>   0.1500 
 36 H       -5.2950    -0.8770     0.2630 H     1 <1>   0.0800 
 37 H       -4.0100    -0.5940    -0.8660 H     1 <1>   0.0800 
 38 H       -1.6860    -5.0730     2.1020 H     1 <1>   0.1500 
 39 H        2.0500    -5.5310     2.4020 H     1 <1>   0.0800 
 40 H        3.6060    -4.7330     2.4590 H     1 <1>   0.0800 
 41 H        3.3600    -6.0840     1.3840 H     1 <1>   0.0800 
 42 H       -3.9500    -4.5060     2.8870 H     1 <1>   0.1500 
 43 H       -4.0470     0.3860     2.0050 H     1 <1>   0.0800 
 44 H       -4.3410     1.3750     0.5910 H     1 <1>   0.0800 
 45 H       -2.7610     0.6760     0.8580 H     1 <1>   0.0800 
@<TRIPOS>BOND
  1   1   2  2   
  2   2   3  am  
  3   2   4  1   
  4   3   5  1   
  5   3  23  1   
  6   4   6  1   
  7   4  24  1   
  8   4  25  1   
  9   5   7  ar  
 10   5   8  ar  
 11   6   9  1   
 12   7  10  ar  
 13   7  11  1   
 14   8  12  ar  
 15   8  13  1   
 16   9  14  ar  
 17   9  15  ar  
 18  10  16  ar  
 19  10  26  1   
 20  11  27  1   
 21  11  28  1   
 22  11  29  1   
 23  12  16  ar  
 24  12  30  1   
 25  13  31  1   
 26  13  32  1   
 27  13  33  1   
 28  14  17  ar  
 29  14  18  1   
 30  15  19  ar  
 31  15  34  1   
 32  16  20  1   
 33  17  21  ar  
 34  17  35  1   
 35  18  22  1   
 36  18  36  1   
 37  18  37  1   
 38  19  21  ar  
 39  19  38  1   
 40  20  39  1   
 41  20  40  1   
 42  20  41  1   
 43  21  42  1   
 44  22  43  1   
 45  22  44  1   
 46  22  45  1   
@<TRIPOS>SUBSTRUCTURE
  1 ****   6 GROUP 4 **** **** 0

# MOE 2024.06 (io_trps.svl 2023.06)
