@<TRIPOS>MOLECULE
5-Dimethylaminomethyl-4-p-tolyl-thiazol-2-ylamine
35 36 1 0 0 
SMALL
USER_CHARGES


@<TRIPOS>ATOM
  1 S        0.3610     0.4400     0.6000 S.3   1 <1>  -0.0800 
  2 C       -0.2610     1.9680     0.0070 C.2   1 <1>   0.4620 
  3 C       -1.2730    -0.1550     0.6740 C.2   1 <1>  -0.1400 
  4 N       -1.5310     2.0040    -0.1120 N.2   1 <1>  -0.5650 
  5 N        0.6090     2.9640    -0.2780 N.pl3 1 <1>  -0.8840 
  6 C       -2.1220     0.8110     0.2720 C.2   1 <1>   0.1730 
  7 C       -1.5000    -1.5800     1.1110 C.3   1 <1>   0.5230 
  8 C       -3.5580     0.6650     0.1720 C.ar  1 <1>   0.0540 
  9 N       -1.1590    -2.4820    -0.0260 N.4   1 <1>  -0.9590 
 10 C       -4.2110     0.8880    -1.0360 C.ar  1 <1>  -0.1500 
 11 C       -4.3260     0.2680     1.2640 C.ar  1 <1>  -0.1500 
 12 C       -2.1150    -2.2970    -1.1670 C.3   1 <1>   0.2630 
 13 C       -1.1050    -3.9110     0.4050 C.3   1 <1>   0.2630 
 14 C       -5.5730     0.6840    -1.1620 C.ar  1 <1>  -0.1500 
 15 C       -5.6880     0.0620     1.1420 C.ar  1 <1>  -0.1500 
 16 C       -6.3180     0.2610    -0.0740 C.ar  1 <1>  -0.1430 
 17 C       -7.8150     0.0420    -0.2100 C.3   1 <1>  -0.0970 
 18 H        0.2390     3.8820    -0.5330 H     1 <1>   0.4000 
 19 H        1.5970     2.9220    -0.0290 H     1 <1>   0.4000 
 20 H       -2.5320    -1.7170     1.3900 H     1 <1>   0.0800 
 21 H       -0.8790    -1.7950     1.9650 H     1 <1>   0.0800 
 22 H       -0.2230    -2.1900    -0.3480 H     1 <1>   0.4500 
 23 H       -3.6430     1.2310    -1.8840 H     1 <1>   0.1500 
 24 H       -3.8590     0.1320     2.2230 H     1 <1>   0.1500 
 25 H       -3.1220    -2.5300    -0.8580 H     1 <1>   0.0800 
 26 H       -1.8480    -2.9420    -1.9890 H     1 <1>   0.0800 
 27 H       -2.0930    -1.2760    -1.5150 H     1 <1>   0.0800 
 28 H       -2.0710    -4.2360     0.7560 H     1 <1>   0.0800 
 29 H       -0.3860    -4.0380     1.1990 H     1 <1>   0.0800 
 30 H       -0.8120    -4.5390    -0.4220 H     1 <1>   0.0800 
 31 H       -6.0540     0.8640    -2.1080 H     1 <1>   0.1500 
 32 H       -6.2630    -0.2430     2.0000 H     1 <1>   0.1500 
 33 H       -8.3360     0.9600    -0.0030 H     1 <1>   0.0800 
 34 H       -8.1520    -0.7100     0.4810 H     1 <1>   0.0800 
 35 H       -8.0610    -0.2790    -1.2060 H     1 <1>   0.0800 
@<TRIPOS>BOND
  1   1   2  1   
  2   1   3  1   
  3   2   4  2   
  4   2   5  1   
  5   3   6  2   
  6   3   7  1   
  7   4   6  1   
  8   5  18  1   
  9   5  19  1   
 10   6   8  1   
 11   7   9  1   
 12   7  20  1   
 13   7  21  1   
 14   8  10  ar  
 15   8  11  ar  
 16   9  12  1   
 17   9  13  1   
 18   9  22  1   
 19  10  14  ar  
 20  10  23  1   
 21  11  15  ar  
 22  11  24  1   
 23  12  25  1   
 24  12  26  1   
 25  12  27  1   
 26  13  28  1   
 27  13  29  1   
 28  13  30  1   
 29  14  16  ar  
 30  14  31  1   
 31  15  16  ar  
 32  15  32  1   
 33  16  17  1   
 34  17  33  1   
 35  17  34  1   
 36  17  35  1   
@<TRIPOS>SUBSTRUCTURE
  1 ****   8 GROUP 4 **** **** 0

# MOE 2024.06 (io_trps.svl 2023.06)
