@<TRIPOS>MOLECULE
NONAME
58 60 1 0 0 
SMALL
USER_CHARGES


@<TRIPOS>ATOM
  1 S        0.2580     0.1860    -2.8880 S.3   1 <1>  -0.3220 
  2 C       -0.6930    -0.3260    -1.4690 C.cat 1 <1>   0.8920 
  3 C        1.7760    -0.8890    -3.1110 C.3   1 <1>   0.1310 
  4 N       -0.4790    -1.3940    -0.7260 N.pl3 1 <1>  -0.7000 
  5 N       -1.6960     0.3970    -0.9970 N.pl3 1 <1>  -0.7640 
  6 C        2.1780    -1.5470    -1.8090 C.2   1 <1>   0.5690 
  7 C       -1.3390    -1.3430     0.3170 C.2   1 <1>   0.4260 
  8 C       -2.1260    -0.2510     0.1710 C.2   1 <1>   0.2770 
  9 C       -2.2690     1.6570    -1.5290 C.3   1 <1>   0.3540 
 10 O        1.7540    -2.6600    -1.6130 O.2   1 <1>  -0.5700 
 11 N        2.8350    -0.8270    -0.8510 N.am  1 <1>  -0.5470 
 12 N       -1.4120    -2.2110     1.3870 N.am  1 <1>  -0.4360 
 13 C       -3.1260     0.0030     1.1680 C.2   1 <1>   0.7030 
 14 C       -1.6260     2.8390    -0.8110 C.3   1 <1>  -0.2400 
 15 C        2.7160    -1.0090     0.5380 C.ar  1 <1>   0.1170 
 16 C       -2.3850    -1.9810     2.3470 C.2   1 <1>   0.6900 
 17 C       -0.4210    -3.3170     1.5440 C.3   1 <1>   0.0600 
 18 O       -3.8710     0.9640     1.0820 O.2   1 <1>  -0.5700 
 19 N       -3.2220    -0.8750     2.2410 N.am  1 <1>  -0.4200 
 20 C        3.1940    -2.1550     1.1900 C.ar  1 <1>  -0.1430 
 21 C        2.0900    -0.0060     1.2910 C.ar  1 <1>  -0.1430 
 22 O       -2.5080    -2.7490     3.2800 O.2   1 <1>  -0.5700 
 23 C       -4.2590    -0.6560     3.2980 C.3   1 <1>   0.0600 
 24 C        2.9830    -2.3030     2.5510 C.ar  1 <1>  -0.1500 
 25 C        3.9910    -3.2600     0.4900 C.3   1 <1>  -0.0170 
 26 C        1.8870    -0.1860     2.6480 C.ar  1 <1>  -0.1500 
 27 C        1.6320     1.3230     0.6920 C.3   1 <1>  -0.0170 
 28 C        2.3220    -1.3340     3.2780 C.ar  1 <1>  -0.1500 
 29 C        3.2680    -4.6130     0.5220 C.3   1 <1>  -0.2400 
 30 C        2.7580     2.3560     0.7600 C.3   1 <1>  -0.2400 
 31 H        2.5630    -0.2620    -3.4880 H     1 <1>   0.0800 
 32 H        1.5290    -1.6350    -3.8450 H     1 <1>   0.0800 
 33 H        0.2510    -2.1080    -0.8710 H     1 <1>   0.4500 
 34 H       -3.3350     1.6680    -1.3720 H     1 <1>   0.0800 
 35 H       -2.0900     1.7310    -2.5890 H     1 <1>   0.0800 
 36 H        3.2190     0.0810    -1.1180 H     1 <1>   0.3700 
 37 H       -1.8160     2.7910     0.2460 H     1 <1>   0.0800 
 38 H       -2.0500     3.7540    -1.1840 H     1 <1>   0.0800 
 39 H       -0.5660     2.8630    -0.9910 H     1 <1>   0.0800 
 40 H        0.5360    -3.0270     1.1480 H     1 <1>   0.0800 
 41 H       -0.7690    -4.1940     1.0280 H     1 <1>   0.0800 
 42 H       -0.2880    -3.5590     2.5860 H     1 <1>   0.0800 
 43 H       -4.5960     0.3660     3.3090 H     1 <1>   0.0800 
 44 H       -3.8520    -0.8850     4.2690 H     1 <1>   0.0800 
 45 H       -5.1010    -1.3000     3.1150 H     1 <1>   0.0800 
 46 H        3.3460    -3.1770     3.0640 H     1 <1>   0.1500 
 47 H        4.9400    -3.3620     0.9870 H     1 <1>   0.0800 
 48 H        4.2060    -3.0010    -0.5300 H     1 <1>   0.0800 
 49 H        1.4020     0.5750     3.2360 H     1 <1>   0.1500 
 50 H        0.7840     1.6950     1.2410 H     1 <1>   0.0800 
 51 H        1.3220     1.2080    -0.3270 H     1 <1>   0.0800 
 52 H        2.1630    -1.4660     4.3350 H     1 <1>   0.1500 
 53 H        3.1410    -4.9560     1.5330 H     1 <1>   0.0800 
 54 H        3.8440    -5.3450    -0.0140 H     1 <1>   0.0800 
 55 H        2.3020    -4.5370     0.0600 H     1 <1>   0.0800 
 56 H        3.0480     2.5200     1.7830 H     1 <1>   0.0800 
 57 H        2.4320     3.2920     0.3430 H     1 <1>   0.0800 
 58 H        3.6200     2.0150     0.2150 H     1 <1>   0.0800 
@<TRIPOS>BOND
  1   1   2  1   
  2   1   3  1   
  3   2   4  ar  
  4   2   5  ar  
  5   3   6  1   
  6   3  31  1   
  7   3  32  1   
  8   4   7  1   
  9   4  33  1   
 10   5   8  1   
 11   5   9  1   
 12   6  10  2   
 13   6  11  am  
 14   7   8  2   
 15   7  12  1   
 16   8  13  1   
 17   9  14  1   
 18   9  34  1   
 19   9  35  1   
 20  11  15  1   
 21  11  36  1   
 22  12  16  am  
 23  12  17  1   
 24  13  18  2   
 25  13  19  am  
 26  14  37  1   
 27  14  38  1   
 28  14  39  1   
 29  15  20  ar  
 30  15  21  ar  
 31  16  19  am  
 32  16  22  2   
 33  17  40  1   
 34  17  41  1   
 35  17  42  1   
 36  19  23  1   
 37  20  24  ar  
 38  20  25  1   
 39  21  26  ar  
 40  21  27  1   
 41  23  43  1   
 42  23  44  1   
 43  23  45  1   
 44  24  28  ar  
 45  24  46  1   
 46  25  29  1   
 47  25  47  1   
 48  25  48  1   
 49  26  28  ar  
 50  26  49  1   
 51  27  30  1   
 52  27  50  1   
 53  27  51  1   
 54  28  52  1   
 55  29  53  1   
 56  29  54  1   
 57  29  55  1   
 58  30  56  1   
 59  30  57  1   
 60  30  58  1   
@<TRIPOS>SUBSTRUCTURE
  1 ****   4 GROUP 4 **** **** 0

# MOE 2024.06 (io_trps.svl 2023.06)
