@<TRIPOS>MOLECULE
NONAME
51 52 1 0 0 
SMALL
USER_CHARGES


@<TRIPOS>ATOM
  1 O       -0.3300     2.8980     2.4490 O.2   1 <1>  -0.5700 
  2 C        0.0430     2.6490     1.3280 C.2   1 <1>   0.5690 
  3 N       -0.7020     1.9000     0.4740 N.am  1 <1>  -0.7300 
  4 C        1.3900     3.1630     0.8510 C.3   1 <1>  -0.0190 
  5 C       -2.0310     1.3380     0.7810 C.3   1 <1>   0.1400 
  6 C        2.4980     2.4210     1.5990 C.3   1 <1>   0.2090 
  7 C        1.5430     4.6890     1.0270 C.3   1 <1>  -0.1600 
  8 C       -2.9310     1.4960    -0.4410 C.3   1 <1>  -0.1600 
  9 N        3.8190     2.8960     1.1010 N.pl3 1 <1>  -0.8380 
 10 C        2.9530     5.1480     0.6150 C.3   1 <1>  -0.1600 
 11 C       -4.3300     0.9590    -0.1530 C.3   1 <1>   0.1200 
 12 C        4.5780     2.1620     0.2130 C.ar  1 <1>   0.7200 
 13 C        4.0550     4.3480     1.3220 C.3   1 <1>   0.2090 
 14 O       -5.0740     1.0850    -1.3170 O.3   1 <1>  -0.5600 
 15 N        3.9730     1.1520    -0.4120 N.ar  1 <1>  -0.6200 
 16 N        5.8470     2.5330     0.0510 N.ar  1 <1>  -0.6200 
 17 C       -6.3870     0.6540    -1.2000 C.3   1 <1>   0.1200 
 18 C        4.7040     0.4620    -1.2500 C.ar  1 <1>   0.1670 
 19 C        6.5600     1.8290    -0.7900 C.ar  1 <1>   0.1670 
 20 C       -7.0580     0.8540    -2.5530 C.3   1 <1>  -0.2400 
 21 C        6.0250     0.7660    -1.4770 C.ar  1 <1>  -0.1500 
 22 C        4.0290    -0.6910    -1.9600 C.3   1 <1>  -0.0970 
 23 C        8.0050     2.2390    -0.9750 C.3   1 <1>  -0.0970 
 24 H       -0.3310     1.6790    -0.4510 H     1 <1>   0.3700 
 25 H        1.4920     2.9270    -0.1930 H     1 <1>   0.0800 
 26 H       -2.4580     1.8550     1.6250 H     1 <1>   0.0800 
 27 H       -1.9240     0.2970     1.0340 H     1 <1>   0.0800 
 28 H        2.3930     1.3580     1.4640 H     1 <1>   0.0800 
 29 H        2.4250     2.6230     2.6540 H     1 <1>   0.0800 
 30 H        1.3760     4.9460     2.0600 H     1 <1>   0.0800 
 31 H        0.8040     5.2000     0.4360 H     1 <1>   0.0800 
 32 H       -2.5130     0.9520    -1.2690 H     1 <1>   0.0800 
 33 H       -3.0060     2.5390    -0.6960 H     1 <1>   0.0800 
 34 H        3.0750     6.1920     0.8400 H     1 <1>   0.0800 
 35 H        3.0770     5.0260    -0.4470 H     1 <1>   0.0800 
 36 H       -4.8040     1.5310     0.6270 H     1 <1>   0.0800 
 37 H       -4.2910    -0.0820     0.1200 H     1 <1>   0.0800 
 38 H        5.0180     4.6500     0.9480 H     1 <1>   0.0800 
 39 H        4.0350     4.5460     2.3800 H     1 <1>   0.0800 
 40 H       -6.8800     1.2400    -0.4420 H     1 <1>   0.0800 
 41 H       -6.3900    -0.3870    -0.9250 H     1 <1>   0.0800 
 42 H       -7.0360     1.8940    -2.8240 H     1 <1>   0.0800 
 43 H       -8.0820     0.5320    -2.5050 H     1 <1>   0.0800 
 44 H       -6.5500     0.2770    -3.3040 H     1 <1>   0.0800 
 45 H        6.6170     0.1950    -2.1650 H     1 <1>   0.1500 
 46 H        3.1940    -0.3230    -2.5280 H     1 <1>   0.0800 
 47 H        3.6700    -1.3980    -1.2340 H     1 <1>   0.0800 
 48 H        4.7110    -1.1890    -2.6240 H     1 <1>   0.0800 
 49 H        8.0480     3.2530    -1.3300 H     1 <1>   0.0800 
 50 H        8.5020     1.6000    -1.6810 H     1 <1>   0.0800 
 51 H        8.5160     2.1810    -0.0320 H     1 <1>   0.0800 
@<TRIPOS>BOND
  1   1   2  2   
  2   2   3  am  
  3   2   4  1   
  4   3   5  1   
  5   3  24  1   
  6   4   6  1   
  7   4   7  1   
  8   4  25  1   
  9   5   8  1   
 10   5  26  1   
 11   5  27  1   
 12   6   9  1   
 13   6  28  1   
 14   6  29  1   
 15   7  10  1   
 16   7  30  1   
 17   7  31  1   
 18   8  11  1   
 19   8  32  1   
 20   8  33  1   
 21   9  12  1   
 22   9  13  1   
 23  10  13  1   
 24  10  34  1   
 25  10  35  1   
 26  11  14  1   
 27  11  36  1   
 28  11  37  1   
 29  12  15  ar  
 30  12  16  ar  
 31  13  38  1   
 32  13  39  1   
 33  14  17  1   
 34  15  18  ar  
 35  16  19  ar  
 36  17  20  1   
 37  17  40  1   
 38  17  41  1   
 39  18  21  ar  
 40  18  22  1   
 41  19  21  ar  
 42  19  23  1   
 43  20  42  1   
 44  20  43  1   
 45  20  44  1   
 46  21  45  1   
 47  22  46  1   
 48  22  47  1   
 49  22  48  1   
 50  23  49  1   
 51  23  50  1   
 52  23  51  1   
@<TRIPOS>SUBSTRUCTURE
  1 ****   4 GROUP 4 **** **** 0

# MOE 2024.06 (io_trps.svl 2023.06)
