@<TRIPOS>MOLECULE
8409
48 49 1 0 0 
SMALL
USER_CHARGES


@<TRIPOS>ATOM
  1 O        0.5120    -3.7410    -2.4060 O.2   1 <1>  -0.5700 
  2 C       -0.0210    -3.8380    -1.3290 C.2   1 <1>   0.5690 
  3 N        0.6220    -3.5680    -0.1670 N.am  1 <1>  -0.7300 
  4 C       -1.4690    -4.2800    -1.2640 C.3   1 <1>  -0.0990 
  5 C        2.0160    -3.1110    -0.0570 C.3   1 <1>   0.2200 
  6 C       -2.4060    -3.1370    -0.8420 C.3   1 <1>  -0.1600 
  7 C        2.7970    -4.1040     0.8100 C.3   1 <1>  -0.1600 
  8 C        2.0290    -1.7060     0.5560 C.3   1 <1>  -0.1600 
  9 C       -3.8660    -3.5890    -0.8310 C.3   1 <1>   0.1200 
 10 C        4.2350    -3.6200     1.0500 C.3   1 <1>  -0.1600 
 11 C        3.4650    -1.2180     0.7950 C.3   1 <1>  -0.1600 
 12 O       -4.6500    -2.5150    -0.3690 O.3   1 <1>  -0.3630 
 13 C        4.2520    -2.2110     1.6610 C.3   1 <1>  -0.1600 
 14 C       -5.9960    -2.6290    -0.2420 C.ar  1 <1>   0.0820 
 15 C       -6.7130    -3.7770    -0.5670 C.ar  1 <1>  -0.1500 
 16 C       -6.6720    -1.5220     0.2430 C.ar  1 <1>  -0.1500 
 17 C       -8.0880    -3.8050    -0.4030 C.ar  1 <1>  -0.1500 
 18 C       -8.0460    -1.5530     0.4050 C.ar  1 <1>  -0.1500 
 19 C       -8.7620    -2.6950     0.0820 C.ar  1 <1>  -0.1440 
 20 C      -10.2710    -2.7300     0.2610 C.3   1 <1>  -0.0170 
 21 C      -10.6360    -3.2300     1.6600 C.3   1 <1>  -0.2400 
 22 H        0.1220    -3.6410     0.7170 H     1 <1>   0.3700 
 23 H       -1.5470    -5.0990    -0.5730 H     1 <1>   0.0800 
 24 H       -1.7550    -4.6400    -2.2370 H     1 <1>   0.0800 
 25 H        2.4650    -3.0710    -1.0370 H     1 <1>   0.0800 
 26 H       -2.2970    -2.3180    -1.5330 H     1 <1>   0.0800 
 27 H       -2.1370    -2.7940     0.1410 H     1 <1>   0.0800 
 28 H        2.8220    -5.0600     0.3170 H     1 <1>   0.0800 
 29 H        2.3050    -4.2200     1.7600 H     1 <1>   0.0800 
 30 H        1.5020    -1.7160     1.4930 H     1 <1>   0.0800 
 31 H        1.5290    -1.0260    -0.1110 H     1 <1>   0.0800 
 32 H       -4.0050    -4.4200    -0.1610 H     1 <1>   0.0800 
 33 H       -4.1940    -3.8480    -1.8230 H     1 <1>   0.0800 
 34 H        4.7660    -3.6070     0.1130 H     1 <1>   0.0800 
 35 H        4.7420    -4.3050     1.7070 H     1 <1>   0.0800 
 36 H        3.4440    -0.2560     1.2770 H     1 <1>   0.0800 
 37 H        3.9620    -1.1000    -0.1530 H     1 <1>   0.0800 
 38 H        5.2700    -1.8750     1.7600 H     1 <1>   0.0800 
 39 H        3.8200    -2.2450     2.6460 H     1 <1>   0.0800 
 40 H       -6.2250    -4.6540    -0.9460 H     1 <1>   0.1500 
 41 H       -6.1160    -0.6370     0.4920 H     1 <1>   0.1500 
 42 H       -8.6350    -4.6960    -0.6540 H     1 <1>   0.1500 
 43 H       -8.5540    -0.6850     0.7860 H     1 <1>   0.1500 
 44 H      -10.7090    -3.3760    -0.4800 H     1 <1>   0.0800 
 45 H      -10.6770    -1.7440     0.1120 H     1 <1>   0.0800 
 46 H      -10.2490    -4.2220     1.8110 H     1 <1>   0.0800 
 47 H      -11.7040    -3.2510     1.7800 H     1 <1>   0.0800 
 48 H      -10.2150    -2.5800     2.4060 H     1 <1>   0.0800 
@<TRIPOS>BOND
  1   1   2  2   
  2   2   3  am  
  3   2   4  1   
  4   3   5  1   
  5   3  22  1   
  6   4   6  1   
  7   4  23  1   
  8   4  24  1   
  9   5   7  1   
 10   5   8  1   
 11   5  25  1   
 12   6   9  1   
 13   6  26  1   
 14   6  27  1   
 15   7  10  1   
 16   7  28  1   
 17   7  29  1   
 18   8  11  1   
 19   8  30  1   
 20   8  31  1   
 21   9  12  1   
 22   9  32  1   
 23   9  33  1   
 24  10  13  1   
 25  10  34  1   
 26  10  35  1   
 27  11  13  1   
 28  11  36  1   
 29  11  37  1   
 30  12  14  1   
 31  13  38  1   
 32  13  39  1   
 33  14  15  ar  
 34  14  16  ar  
 35  15  17  ar  
 36  15  40  1   
 37  16  18  ar  
 38  16  41  1   
 39  17  19  ar  
 40  17  42  1   
 41  18  19  ar  
 42  18  43  1   
 43  19  20  1   
 44  20  21  1   
 45  20  44  1   
 46  20  45  1   
 47  21  46  1   
 48  21  47  1   
 49  21  48  1   
@<TRIPOS>SUBSTRUCTURE
  1 ****   6 GROUP 4 **** **** 0

# MOE 2024.06 (io_trps.svl 2023.06)
