@<TRIPOS>MOLECULE
5090
35 35 1 0 0 
SMALL
USER_CHARGES


@<TRIPOS>ATOM
  1 O       -1.4830    -0.2940    -1.4560 O.2   1 <1>  -0.5700 
  2 C       -1.7900     0.6210    -0.7340 C.2   1 <1>   0.5690 
  3 N       -3.0160     0.7580    -0.1460 N.am  1 <1>  -0.5470 
  4 C       -0.7610     1.7050    -0.4660 C.3   1 <1>  -0.0990 
  5 C       -4.1620    -0.0550    -0.1840 C.ar  1 <1>   0.1170 
  6 C       -0.2620     1.7130     0.9880 C.3   1 <1>  -0.2400 
  7 C       -5.3860     0.5050     0.1670 C.ar  1 <1>  -0.1500 
  8 C       -4.1310    -1.3990    -0.5420 C.ar  1 <1>  -0.1500 
  9 C       -6.5470    -0.2480     0.1590 C.ar  1 <1>  -0.1500 
 10 C       -5.2880    -2.1560    -0.5520 C.ar  1 <1>  -0.1500 
 11 C       -6.5030    -1.5910    -0.2030 C.ar  1 <1>   0.0830 
 12 O       -7.5910    -2.4050    -0.2400 O.3   1 <1>  -0.3630 
 13 C       -8.8750    -1.9150     0.0700 C.3   1 <1>   0.1200 
 14 C       -9.8740    -3.0620    -0.0800 C.3   1 <1>  -0.1600 
 15 C      -11.3010    -2.6030     0.2430 C.3   1 <1>  -0.1600 
 16 C      -12.2970    -3.7550     0.0910 C.3   1 <1>  -0.2400 
 17 H       -3.1240     1.6080     0.4020 H     1 <1>   0.3700 
 18 H       -1.1890     2.6600    -0.7120 H     1 <1>   0.0800 
 19 H        0.0760     1.5470    -1.1230 H     1 <1>   0.0800 
 20 H       -1.0700     1.9080     1.6710 H     1 <1>   0.0800 
 21 H        0.4890     2.4720     1.1170 H     1 <1>   0.0800 
 22 H        0.1720     0.7580     1.2320 H     1 <1>   0.0800 
 23 H       -5.4350     1.5410     0.4460 H     1 <1>   0.1500 
 24 H       -3.2020    -1.8660    -0.8120 H     1 <1>   0.1500 
 25 H       -7.4700     0.2250     0.4360 H     1 <1>   0.1500 
 26 H       -5.2550    -3.1940    -0.8320 H     1 <1>   0.1500 
 27 H       -9.1080    -1.1170    -0.6130 H     1 <1>   0.0800 
 28 H       -8.8640    -1.5510     1.0830 H     1 <1>   0.0800 
 29 H       -9.5940    -3.8590     0.5880 H     1 <1>   0.0800 
 30 H       -9.8350    -3.4300    -1.0910 H     1 <1>   0.0800 
 31 H      -11.5830    -1.8030    -0.4210 H     1 <1>   0.0800 
 32 H      -11.3430    -2.2310     1.2530 H     1 <1>   0.0800 
 33 H      -12.2880    -4.1300    -0.9180 H     1 <1>   0.0800 
 34 H      -13.2920    -3.4160     0.3200 H     1 <1>   0.0800 
 35 H      -12.0480    -4.5590     0.7610 H     1 <1>   0.0800 
@<TRIPOS>BOND
  1   1   2  2   
  2   2   3  am  
  3   2   4  1   
  4   3   5  1   
  5   3  17  1   
  6   4   6  1   
  7   4  18  1   
  8   4  19  1   
  9   5   7  ar  
 10   5   8  ar  
 11   6  20  1   
 12   6  21  1   
 13   6  22  1   
 14   7   9  ar  
 15   7  23  1   
 16   8  10  ar  
 17   8  24  1   
 18   9  11  ar  
 19   9  25  1   
 20  10  11  ar  
 21  10  26  1   
 22  11  12  1   
 23  12  13  1   
 24  13  14  1   
 25  13  27  1   
 26  13  28  1   
 27  14  15  1   
 28  14  29  1   
 29  14  30  1   
 30  15  16  1   
 31  15  31  1   
 32  15  32  1   
 33  16  33  1   
 34  16  34  1   
 35  16  35  1   
@<TRIPOS>SUBSTRUCTURE
  1 ****  11 GROUP 4 **** **** 0

# MOE 2024.06 (io_trps.svl 2023.06)
