@<TRIPOS>MOLECULE
1-[3-(4-Chloro-phenyl)-[1,2,4]oxadiazol-5-ylmethyl]-1,3-diethyl-urea
38 39 1 0 0 
SMALL
USER_CHARGES


@<TRIPOS>ATOM
  1 CL      -1.1890    -0.1730    -2.1980 Cl    1 <1>  -0.1770 
  2 C       -2.7060     0.1390    -1.3950 C.ar  1 <1>   0.1770 
  3 C       -2.9070     1.3520    -0.7670 C.ar  1 <1>  -0.1500 
  4 C       -3.6890    -0.8310    -1.3950 C.ar  1 <1>  -0.1500 
  5 C       -4.1120     1.5940    -0.1310 C.ar  1 <1>  -0.1500 
  6 C       -4.8900    -0.5780    -0.7560 C.ar  1 <1>  -0.1500 
  7 C       -5.1340     0.6380    -0.1080 C.ar  1 <1>   0.0540 
  8 C       -6.3960     0.9050     0.5630 C.2   1 <1>   0.4620 
  9 N       -6.7090     1.9970     1.1680 N.2   1 <1>  -0.4100 
 10 N       -7.3880     0.0120     0.6170 N.2   1 <1>  -0.5650 
 11 O       -7.9070     1.8620     1.6390 O.3   1 <1>  -0.0190 
 12 C       -8.2640     0.6590     1.2720 C.2   1 <1>   0.2980 
 13 C       -9.6520     0.1660     1.6670 C.3   1 <1>   0.3200 
 14 N      -10.7410     0.5560     0.7070 N.am  1 <1>  -0.6600 
 15 C      -11.7950    -0.3030     0.5520 C.2   1 <1>   0.6900 
 16 C      -10.7450     1.9530     0.1850 C.3   1 <1>   0.1400 
 17 O      -11.9500    -1.2310     1.3230 O.2   1 <1>  -0.5700 
 18 N      -12.6660    -0.1240    -0.4700 N.am  1 <1>  -0.7300 
 19 C      -11.1810     2.9150     1.2880 C.3   1 <1>  -0.2400 
 20 C      -13.8340    -0.9790    -0.7460 C.3   1 <1>   0.1400 
 21 C      -14.9370    -0.1160    -1.3460 C.3   1 <1>  -0.2400 
 22 H       -2.1280     2.0940    -0.7780 H     1 <1>   0.1500 
 23 H       -3.5120    -1.7690    -1.8900 H     1 <1>   0.1500 
 24 H       -4.2640     2.5410     0.3580 H     1 <1>   0.1500 
 25 H       -5.6540    -1.3370    -0.7600 H     1 <1>   0.1500 
 26 H       -9.8970     0.5390     2.6440 H     1 <1>   0.0800 
 27 H       -9.6030    -0.9070     1.7320 H     1 <1>   0.0800 
 28 H      -11.4250     2.0430    -0.6430 H     1 <1>   0.0800 
 29 H       -9.7680     2.2180    -0.1800 H     1 <1>   0.0800 
 30 H      -12.3950     0.5180    -1.2090 H     1 <1>   0.3700 
 31 H      -12.1570     2.6450     1.6500 H     1 <1>   0.0800 
 32 H      -11.2280     3.9140     0.8950 H     1 <1>   0.0800 
 33 H      -10.4820     2.9090     2.1030 H     1 <1>   0.0800 
 34 H      -14.1770    -1.4340     0.1690 H     1 <1>   0.0800 
 35 H      -13.5510    -1.7590    -1.4320 H     1 <1>   0.0800 
 36 H      -15.2150     0.6620    -0.6570 H     1 <1>   0.0800 
 37 H      -15.8020    -0.7240    -1.5400 H     1 <1>   0.0800 
 38 H      -14.6130     0.3200    -2.2740 H     1 <1>   0.0800 
@<TRIPOS>BOND
  1   1   2  1   
  2   2   3  ar  
  3   2   4  ar  
  4   3   5  ar  
  5   3  22  1   
  6   4   6  ar  
  7   4  23  1   
  8   5   7  ar  
  9   5  24  1   
 10   6   7  ar  
 11   6  25  1   
 12   7   8  1   
 13   8   9  2   
 14   8  10  1   
 15   9  11  1   
 16  10  12  2   
 17  11  12  1   
 18  12  13  1   
 19  13  14  1   
 20  13  26  1   
 21  13  27  1   
 22  14  15  am  
 23  14  16  1   
 24  15  17  2   
 25  15  18  am  
 26  16  19  1   
 27  16  28  1   
 28  16  29  1   
 29  18  20  1   
 30  18  30  1   
 31  19  31  1   
 32  19  32  1   
 33  19  33  1   
 34  20  21  1   
 35  20  34  1   
 36  20  35  1   
 37  21  36  1   
 38  21  37  1   
 39  21  38  1   
@<TRIPOS>SUBSTRUCTURE
  1 ****  10 GROUP 4 **** **** 0

# MOE 2024.06 (io_trps.svl 2023.06)
