@<TRIPOS>MOLECULE
N-Cycloheptyl-2-(6-fluoro-9-methyl-9H-1,3,4,9-tetraaza-fluoren-2-ylsulfanyl)-acetamide
49 52 1 0 0 
SMALL
USER_CHARGES


@<TRIPOS>ATOM
  1 S       -0.1910    -0.6460     0.2590 S.3   1 <1>  -0.3320 
  2 C        1.5890    -0.7450     0.1340 C.ar  1 <1>   0.7220 
  3 C       -0.8090    -2.0350    -0.8190 C.3   1 <1>   0.1310 
  4 N        2.0730    -1.7330    -0.6560 N.ar  1 <1>  -0.3100 
  5 N        2.2560     0.1470     0.8190 N.ar  1 <1>  -0.5670 
  6 C       -2.3290    -2.1090    -0.8400 C.2   1 <1>   0.5690 
  7 N        3.3590    -1.8740    -0.8010 N.ar  1 <1>  -0.2560 
  8 C        3.5730    -0.0090     0.6600 C.ar  1 <1>   0.1050 
  9 O       -2.8470    -2.9600    -1.5210 O.2   1 <1>  -0.5700 
 10 N       -3.0610    -1.2320    -0.1050 N.am  1 <1>  -0.7300 
 11 C        4.1210    -1.0010    -0.1340 C.ar  1 <1>   0.2560 
 12 N        4.5820     0.7340     1.2180 N.pl3 1 <1>   0.0480 
 13 C       -4.5300    -1.1820    -0.0260 C.3   1 <1>   0.2200 
 14 C        5.5330    -0.8630    -0.0640 C.ar  1 <1>   0.0000 
 15 C        5.7900     0.2180     0.7800 C.ar  1 <1>  -0.1520 
 16 C        4.4140     1.8840     2.1270 C.3   1 <1>   0.0160 
 17 C       -4.9790     0.1560    -0.6250 C.3   1 <1>  -0.1600 
 18 C       -4.9300    -1.4030     1.4390 C.3   1 <1>  -0.1600 
 19 C        6.5930    -1.5630    -0.6430 C.ar  1 <1>  -0.1500 
 20 C        7.1000     0.6200     1.0620 C.ar  1 <1>  -0.1500 
 21 C       -6.4890     0.4330    -0.5450 C.3   1 <1>  -0.1600 
 22 C       -6.4310    -1.6890     1.6010 C.3   1 <1>  -0.1600 
 23 C        7.8710    -1.1490    -0.3510 C.ar  1 <1>   0.1900 
 24 C        8.1470    -0.0710     0.4900 C.ar  1 <1>  -0.1500 
 25 C       -6.9470     0.7730     0.8810 C.3   1 <1>  -0.1600 
 26 C       -7.3150    -0.4410     1.7490 C.3   1 <1>  -0.1600 
 27 F        8.8810    -1.7890    -0.8820 F     1 <1>  -0.1900 
 28 H       -0.4030    -2.9510    -0.4310 H     1 <1>   0.0800 
 29 H       -0.4380    -1.8630    -1.8120 H     1 <1>   0.0800 
 30 H       -2.5680    -0.5300     0.4510 H     1 <1>   0.3700 
 31 H       -4.9380    -1.9820    -0.6210 H     1 <1>   0.0800 
 32 H        3.3670     2.0650     2.2960 H     1 <1>   0.0800 
 33 H        4.8590     2.7550     1.6840 H     1 <1>   0.0800 
 34 H        4.8930     1.6690     3.0650 H     1 <1>   0.0800 
 35 H       -4.6990     0.1540    -1.6640 H     1 <1>   0.0800 
 36 H       -4.4490     0.9610    -0.1470 H     1 <1>   0.0800 
 37 H       -4.6370    -0.5660     2.0480 H     1 <1>   0.0800 
 38 H       -4.4000    -2.2710     1.7920 H     1 <1>   0.0800 
 39 H        6.4080    -2.3980    -1.2940 H     1 <1>   0.1500 
 40 H        7.2860     1.4560     1.7140 H     1 <1>   0.1500 
 41 H       -7.0530    -0.3930    -0.9420 H     1 <1>   0.0800 
 42 H       -6.6950     1.2870    -1.1680 H     1 <1>   0.0800 
 43 H       -6.5730    -2.2960     2.4790 H     1 <1>   0.0800 
 44 H       -6.7740    -2.2740     0.7650 H     1 <1>   0.0800 
 45 H        9.1700     0.2020     0.6770 H     1 <1>   0.1500 
 46 H       -7.8160     1.4060     0.8210 H     1 <1>   0.0800 
 47 H       -6.1830     1.3480     1.3760 H     1 <1>   0.0800 
 48 H       -7.2990    -0.1270     2.7780 H     1 <1>   0.0800 
 49 H       -8.3290    -0.7290     1.5270 H     1 <1>   0.0800 
@<TRIPOS>BOND
  1   1   2  1   
  2   1   3  1   
  3   2   4  ar  
  4   2   5  ar  
  5   3   6  1   
  6   3  28  1   
  7   3  29  1   
  8   4   7  ar  
  9   5   8  ar  
 10   6   9  2   
 11   6  10  am  
 12   7  11  ar  
 13   8  11  ar  
 14   8  12  1   
 15  10  13  1   
 16  10  30  1   
 17  11  14  1   
 18  12  15  1   
 19  12  16  1   
 20  13  17  1   
 21  13  18  1   
 22  13  31  1   
 23  14  15  ar  
 24  14  19  ar  
 25  15  20  ar  
 26  16  32  1   
 27  16  33  1   
 28  16  34  1   
 29  17  21  1   
 30  17  35  1   
 31  17  36  1   
 32  18  22  1   
 33  18  37  1   
 34  18  38  1   
 35  19  23  ar  
 36  19  39  1   
 37  20  24  ar  
 38  20  40  1   
 39  21  25  1   
 40  21  41  1   
 41  21  42  1   
 42  22  26  1   
 43  22  43  1   
 44  22  44  1   
 45  23  24  ar  
 46  23  27  1   
 47  24  45  1   
 48  25  26  1   
 49  25  46  1   
 50  25  47  1   
 51  26  48  1   
 52  26  49  1   
@<TRIPOS>SUBSTRUCTURE
  1 ****   2 GROUP 4 **** **** 0

# MOE 2024.06 (io_trps.svl 2023.06)
