@<TRIPOS>MOLECULE
N-sec-Butyl-2-(3-cyano-6,7-dimethyl-quinolin-2-ylsulfanyl)-acetamide
44 45 1 0 0 
SMALL
USER_CHARGES


@<TRIPOS>ATOM
  1 S       -0.3610    -0.3340     0.4660 S.3   1 <1>  -0.3320 
  2 C        1.4290    -0.3400     0.5690 C.ar  1 <1>   0.4120 
  3 C       -0.7820    -1.9490    -0.3670 C.3   1 <1>   0.1310 
  4 N        2.0140    -1.3900     0.0780 N.ar  1 <1>  -0.6200 
  5 C        2.0730     0.7660     1.1610 C.ar  1 <1>   0.0730 
  6 C       -2.2820    -2.1230    -0.5560 C.2   1 <1>   0.5690 
  7 C        3.3680    -1.4220     0.1420 C.ar  1 <1>   0.3100 
  8 C        1.3220     1.8720     1.6700 C.1   1 <1>   0.4840 
  9 C        3.4390     0.7350     1.2270 C.ar  1 <1>  -0.1500 
 10 O       -2.6670    -3.1380    -1.0840 O.2   1 <1>  -0.5700 
 11 N       -3.1310    -1.1440    -0.1330 N.am  1 <1>  -0.7300 
 12 C        4.1260    -0.3770     0.7110 C.ar  1 <1>   0.0000 
 13 C        4.0490    -2.5340    -0.3740 C.ar  1 <1>  -0.1500 
 14 N        0.7520     2.7690     2.0850 N.1   1 <1>  -0.5570 
 15 C       -4.6030    -1.0930    -0.2230 C.3   1 <1>   0.2200 
 16 C        5.5280    -0.4920     0.7370 C.ar  1 <1>  -0.1500 
 17 C        5.4170    -2.6330    -0.3420 C.ar  1 <1>  -0.1430 
 18 C       -5.2200    -2.2610     0.5620 C.3   1 <1>  -0.1600 
 19 C       -5.0170    -1.0590    -1.6940 C.3   1 <1>  -0.2400 
 20 C        6.1700    -1.5890     0.2250 C.ar  1 <1>  -0.1430 
 21 C        6.0960    -3.8670    -0.9200 C.3   1 <1>  -0.0970 
 22 C       -6.7400    -2.1310     0.7450 C.3   1 <1>  -0.2400 
 23 C        7.6900    -1.6660     0.2770 C.3   1 <1>  -0.0970 
 24 H       -0.3940    -2.7380     0.2500 H     1 <1>   0.0800 
 25 H       -0.2870    -1.9560    -1.3200 H     1 <1>   0.0800 
 26 H        4.0000     1.5430     1.6650 H     1 <1>   0.1500 
 27 H       -2.7040    -0.3210     0.3000 H     1 <1>   0.3700 
 28 H        3.4490    -3.3150    -0.8010 H     1 <1>   0.1500 
 29 H       -4.9220    -0.1730     0.2380 H     1 <1>   0.0800 
 30 H        6.0930     0.3130     1.1730 H     1 <1>   0.1500 
 31 H       -4.7650    -2.3000     1.5360 H     1 <1>   0.0800 
 32 H       -5.0080    -3.1880     0.0590 H     1 <1>   0.0800 
 33 H       -4.7880    -1.9940    -2.1730 H     1 <1>   0.0800 
 34 H       -4.5020    -0.2650    -2.2050 H     1 <1>   0.0800 
 35 H       -6.0730    -0.8840    -1.7810 H     1 <1>   0.0800 
 36 H        5.3710    -4.5590    -1.3100 H     1 <1>   0.0800 
 37 H        6.6630    -4.3690    -0.1570 H     1 <1>   0.0800 
 38 H        6.7560    -3.5860    -1.7210 H     1 <1>   0.0800 
 39 H       -6.9850    -1.2010     1.2260 H     1 <1>   0.0800 
 40 H       -7.1020    -2.9380     1.3570 H     1 <1>   0.0800 
 41 H       -7.2440    -2.1780    -0.2040 H     1 <1>   0.0800 
 42 H        8.1060    -0.7890     0.7410 H     1 <1>   0.0800 
 43 H        8.0910    -1.7410    -0.7180 H     1 <1>   0.0800 
 44 H        7.9980    -2.5240     0.8460 H     1 <1>   0.0800 
@<TRIPOS>BOND
  1   1   2  1   
  2   1   3  1   
  3   2   4  ar  
  4   2   5  ar  
  5   3   6  1   
  6   3  24  1   
  7   3  25  1   
  8   4   7  ar  
  9   5   8  1   
 10   5   9  ar  
 11   6  10  2   
 12   6  11  am  
 13   7  12  ar  
 14   7  13  ar  
 15   8  14  3   
 16   9  12  ar  
 17   9  26  1   
 18  11  15  1   
 19  11  27  1   
 20  12  16  ar  
 21  13  17  ar  
 22  13  28  1   
 23  15  18  1   
 24  15  19  1   
 25  15  29  1   
 26  16  20  ar  
 27  16  30  1   
 28  17  20  ar  
 29  17  21  1   
 30  18  22  1   
 31  18  31  1   
 32  18  32  1   
 33  19  33  1   
 34  19  34  1   
 35  19  35  1   
 36  20  23  1   
 37  21  36  1   
 38  21  37  1   
 39  21  38  1   
 40  22  39  1   
 41  22  40  1   
 42  22  41  1   
 43  23  42  1   
 44  23  43  1   
 45  23  44  1   
@<TRIPOS>SUBSTRUCTURE
  1 ****   2 GROUP 4 **** **** 0

# MOE 2024.06 (io_trps.svl 2023.06)
