@<TRIPOS>MOLECULE
[1,2,3]Thiadiazole-4-carboxylic acid [tert-butylcarbamoyl-(5-methyl-furan-2-yl)-methyl]-(5-chloro-2-methyl-p
53 55 1 0 0 
SMALL
USER_CHARGES


@<TRIPOS>ATOM
  1 CL      -4.4670    -0.9010    -4.0620 Cl    1 <1>  -0.1770 
  2 C       -4.3600    -0.7710    -2.3250 C.ar  1 <1>   0.1770 
  3 C       -4.6940    -1.8550    -1.5420 C.ar  1 <1>  -0.1500 
  4 C       -3.9420     0.4180    -1.7630 C.ar  1 <1>  -0.1500 
  5 C       -4.6120    -1.7670    -0.1550 C.ar  1 <1>   0.1170 
  6 C       -3.8640     0.5190    -0.3860 C.ar  1 <1>  -0.1500 
  7 N       -4.9460    -2.8840     0.6360 N.am  1 <1>  -0.4770 
  8 C       -4.2010    -0.5580     0.4220 C.ar  1 <1>  -0.1430 
  9 C       -4.0650    -3.4940     1.5030 C.2   1 <1>   0.7160 
 10 C       -6.3390    -3.4470     0.5740 C.3   1 <1>   0.4610 
 11 C       -4.1120    -0.3690     1.9330 C.3   1 <1>  -0.0960 
 12 O       -4.4980    -3.8830     2.5740 O.2   1 <1>  -0.5700 
 13 C       -2.6510    -3.6580     1.2090 C.2   1 <1>   0.1410 
 14 C       -6.3290    -4.7920    -0.1500 C.2   1 <1>  -0.0400 
 15 C       -7.3690    -2.4430     0.0110 C.2   1 <1>   0.5690 
 16 N       -2.1600    -3.5490    -0.0920 N.2   1 <1>  -0.2270 
 17 C       -1.6930    -3.9460     2.1060 C.2   1 <1>  -0.1100 
 18 O       -7.3720    -5.5870     0.0010 O.3   1 <1>  -0.2800 
 19 C       -5.4070    -5.3810    -0.9470 C.2   1 <1>  -0.1500 
 20 O       -7.8000    -2.5790    -1.1130 O.2   1 <1>  -0.5700 
 21 N       -7.7390    -1.3870     0.8020 N.am  1 <1>  -0.7300 
 22 N       -0.9220    -3.7250    -0.2240 N.2   1 <1>  -0.2210 
 23 S       -0.1970    -4.0570     1.2690 S.3   1 <1>   0.1810 
 24 C       -7.1500    -6.6830    -0.6940 C.2   1 <1>  -0.0400 
 25 C       -5.9490    -6.6210    -1.3050 C.2   1 <1>  -0.1500 
 26 C       -8.5550    -0.2230     0.4490 C.3   1 <1>   0.3000 
 27 C       -8.2080    -7.7630    -0.6970 C.3   1 <1>  -0.0600 
 28 C       -9.9730    -0.6690     0.0970 C.3   1 <1>  -0.2400 
 29 C       -7.8990     0.5360    -0.7060 C.3   1 <1>  -0.2400 
 30 C       -8.5890     0.6690     1.6880 C.3   1 <1>  -0.2400 
 31 H       -5.0200    -2.7600    -2.0180 H     1 <1>   0.1500 
 32 H       -3.6840     1.2470    -2.3970 H     1 <1>   0.1500 
 33 H       -3.5390     1.4480     0.0500 H     1 <1>   0.1500 
 34 H       -6.6610    -3.6520     1.5780 H     1 <1>   0.0800 
 35 H       -3.2060    -0.8110     2.3050 H     1 <1>   0.0800 
 36 H       -4.9520    -0.8250     2.4250 H     1 <1>   0.0800 
 37 H       -4.1090     0.6750     2.1880 H     1 <1>   0.0800 
 38 H       -1.7150    -4.1080     3.1680 H     1 <1>   0.1500 
 39 H       -4.4470    -5.0150    -1.2670 H     1 <1>   0.1500 
 40 H       -7.3100    -1.2950     1.7210 H     1 <1>   0.3700 
 41 H       -5.4760    -7.3470    -1.9410 H     1 <1>   0.1500 
 42 H       -9.1250    -7.3660    -1.0930 H     1 <1>   0.0800 
 43 H       -8.3790    -8.1060     0.3070 H     1 <1>   0.0800 
 44 H       -7.8920    -8.5910    -1.3040 H     1 <1>   0.0800 
 45 H       -9.9730    -1.2680    -0.7960 H     1 <1>   0.0800 
 46 H      -10.5980     0.1870    -0.0820 H     1 <1>   0.0800 
 47 H      -10.3990    -1.2420     0.9000 H     1 <1>   0.0800 
 48 H       -6.8880     0.8030    -0.4580 H     1 <1>   0.0800 
 49 H       -8.4480     1.4340    -0.9180 H     1 <1>   0.0800 
 50 H       -7.8900    -0.0630    -1.5990 H     1 <1>   0.0800 
 51 H       -9.0330     0.1470     2.5180 H     1 <1>   0.0800 
 52 H       -9.1790     1.5460     1.4930 H     1 <1>   0.0800 
 53 H       -7.5970     0.9870     1.9550 H     1 <1>   0.0800 
@<TRIPOS>BOND
  1   1   2  1   
  2   2   3  ar  
  3   2   4  ar  
  4   3   5  ar  
  5   3  31  1   
  6   4   6  ar  
  7   4  32  1   
  8   5   7  1   
  9   5   8  ar  
 10   6   8  ar  
 11   6  33  1   
 12   7   9  am  
 13   7  10  1   
 14   8  11  1   
 15   9  12  2   
 16   9  13  1   
 17  10  14  1   
 18  10  15  1   
 19  10  34  1   
 20  11  35  1   
 21  11  36  1   
 22  11  37  1   
 23  13  16  1   
 24  13  17  2   
 25  14  18  1   
 26  14  19  2   
 27  15  20  2   
 28  15  21  am  
 29  16  22  2   
 30  17  23  1   
 31  17  38  1   
 32  18  24  1   
 33  19  25  1   
 34  19  39  1   
 35  21  26  1   
 36  21  40  1   
 37  22  23  1   
 38  24  25  2   
 39  24  27  1   
 40  25  41  1   
 41  26  28  1   
 42  26  29  1   
 43  26  30  1   
 44  27  42  1   
 45  27  43  1   
 46  27  44  1   
 47  28  45  1   
 48  28  46  1   
 49  28  47  1   
 50  29  48  1   
 51  29  49  1   
 52  29  50  1   
 53  30  51  1   
 54  30  52  1   
 55  30  53  1   
@<TRIPOS>SUBSTRUCTURE
  1 ****   7 GROUP 4 **** **** 0

# MOE 2024.06 (io_trps.svl 2023.06)
