@<TRIPOS>MOLECULE
4893
54 56 1 0 0 
SMALL
USER_CHARGES


@<TRIPOS>ATOM
  1 S       -0.6150    -0.1310    -0.8020 S.3   1 <1>  -0.0800 
  2 C        0.9220     0.4250    -0.1740 C.2   1 <1>   0.1040 
  3 C       -1.1670     1.5050    -1.0860 C.2   1 <1>  -0.1400 
  4 N        1.8660    -0.5010     0.2440 N.am  1 <1>  -0.4940 
  5 C        0.9910     1.7950    -0.1830 C.2   1 <1>  -0.0860 
  6 C       -0.2230     2.3920    -0.7160 C.2   1 <1>  -0.1810 
  7 C       -2.5600     1.6100    -1.6790 C.3   1 <1>  -0.0600 
  8 C        1.9120    -1.8750     0.3150 C.2   1 <1>   0.5690 
  9 C        2.1380     2.5400     0.2920 C.2   1 <1>   0.8060 
 10 C       -0.3940     3.9020    -0.8450 C.3   1 <1>  -0.0590 
 11 O        0.9740    -2.5770     0.0250 O.2   1 <1>  -0.5700 
 12 C        3.2170    -2.4830     0.8790 C.3   1 <1>   0.2810 
 13 O        2.1750     3.7500     0.4120 O.2   1 <1>  -0.5700 
 14 O        3.2420     1.8490     0.6390 O.3   1 <1>  -0.4300 
 15 N        4.4350    -1.7340     0.4220 N.am  1 <1>  -0.4200 
 16 C        3.4480    -4.0170     0.7260 C.3   1 <1>  -0.0800 
 17 C        4.4140     2.4650     1.1360 C.3   1 <1>   0.1200 
 18 C        5.4170    -1.2840     1.2620 C.2   1 <1>   0.5440 
 19 C        4.7780    -1.3860    -0.8620 C.2   1 <1>   0.5440 
 20 C        3.4260    -4.5360    -0.7220 C.3   1 <1>  -0.2400 
 21 C        2.4660    -4.8380     1.5790 C.3   1 <1>  -0.2400 
 22 C        5.2650     2.9400    -0.0410 C.3   1 <1>  -0.2400 
 23 O        5.3660    -1.3760     2.4690 O.2   1 <1>  -0.5700 
 24 C        6.4520    -0.6640     0.4850 C.ar  1 <1>   0.0860 
 25 O        4.0840    -1.5740    -1.8340 O.2   1 <1>  -0.5700 
 26 C        6.0540    -0.7300    -0.8400 C.ar  1 <1>   0.0860 
 27 C        7.6570    -0.0630     0.8280 C.ar  1 <1>  -0.1500 
 28 C        6.8570    -0.2000    -1.8420 C.ar  1 <1>  -0.1500 
 29 C        8.4570     0.4670    -0.1710 C.ar  1 <1>  -0.1500 
 30 C        8.0590     0.3990    -1.5000 C.ar  1 <1>  -0.1500 
 31 H        2.7430    -0.0610     0.5280 H     1 <1>   0.3700 
 32 H       -2.5860     1.1070    -2.6290 H     1 <1>   0.0800 
 33 H       -2.8530     2.6320    -1.8230 H     1 <1>   0.0800 
 34 H       -3.2690     1.1400    -1.0210 H     1 <1>   0.0800 
 35 H       -1.3330     4.1580    -1.2960 H     1 <1>   0.0800 
 36 H        0.3900     4.3110    -1.4550 H     1 <1>   0.0800 
 37 H       -0.3550     4.3610     0.1270 H     1 <1>   0.0800 
 38 H        3.1410    -2.3140     1.9380 H     1 <1>   0.0800 
 39 H        4.4270    -4.2240     1.1260 H     1 <1>   0.0800 
 40 H        4.9490     1.7320     1.7140 H     1 <1>   0.0800 
 41 H        4.1440     3.2840     1.7840 H     1 <1>   0.0800 
 42 H        2.4890    -4.3070    -1.2000 H     1 <1>   0.0800 
 43 H        3.5590    -5.6030    -0.7390 H     1 <1>   0.0800 
 44 H        4.2180    -4.1000    -1.3010 H     1 <1>   0.0800 
 45 H        1.4610    -4.7560     1.2030 H     1 <1>   0.0800 
 46 H        2.4780    -4.5030     2.6010 H     1 <1>   0.0800 
 47 H        2.7420    -5.8780     1.5650 H     1 <1>   0.0800 
 48 H        5.4760     2.1270    -0.7100 H     1 <1>   0.0800 
 49 H        6.1960     3.3350     0.3220 H     1 <1>   0.0800 
 50 H        4.7560     3.7210    -0.5780 H     1 <1>   0.0800 
 51 H        7.9560    -0.0180     1.8620 H     1 <1>   0.1500 
 52 H        6.5360    -0.2580    -2.8690 H     1 <1>   0.1500 
 53 H        9.3950     0.9340     0.0820 H     1 <1>   0.1500 
 54 H        8.6900     0.8130    -2.2690 H     1 <1>   0.1500 
@<TRIPOS>BOND
  1   1   2  1   
  2   1   3  1   
  3   2   4  1   
  4   2   5  2   
  5   3   6  2   
  6   3   7  1   
  7   4   8  am  
  8   4  31  1   
  9   5   6  1   
 10   5   9  1   
 11   6  10  1   
 12   7  32  1   
 13   7  33  1   
 14   7  34  1   
 15   8  11  2   
 16   8  12  1   
 17   9  13  2   
 18   9  14  1   
 19  10  35  1   
 20  10  36  1   
 21  10  37  1   
 22  12  15  1   
 23  12  16  1   
 24  12  38  1   
 25  14  17  1   
 26  15  18  am  
 27  15  19  am  
 28  16  20  1   
 29  16  21  1   
 30  16  39  1   
 31  17  22  1   
 32  17  40  1   
 33  17  41  1   
 34  18  23  2   
 35  18  24  1   
 36  19  25  2   
 37  19  26  1   
 38  20  42  1   
 39  20  43  1   
 40  20  44  1   
 41  21  45  1   
 42  21  46  1   
 43  21  47  1   
 44  22  48  1   
 45  22  49  1   
 46  22  50  1   
 47  24  26  ar  
 48  24  27  ar  
 49  26  28  ar  
 50  27  29  ar  
 51  27  51  1   
 52  28  30  ar  
 53  28  52  1   
 54  29  30  ar  
 55  29  53  1   
 56  30  54  1   
@<TRIPOS>SUBSTRUCTURE
  1 ****   4 GROUP 4 **** **** 0

# MOE 2024.06 (io_trps.svl 2023.06)
