@<TRIPOS>MOLECULE
NONAME
49 52 1 0 0 
SMALL
USER_CHARGES


@<TRIPOS>ATOM
  1 O        1.0600    -0.4170     0.3620 O.3   1 <1>  -0.5600 
  2 C        0.3550    -1.3490    -0.4070 C.3   1 <1>   0.2000 
  3 C        0.4180     0.8230     0.3890 C.3   1 <1>   0.1200 
  4 C       -1.0720    -0.8220    -0.4730 C.3   1 <1>  -0.1600 
  5 C        0.4930    -2.7610     0.1960 C.3   1 <1>   0.2090 
  6 C       -0.8570     0.6770    -0.4330 C.3   1 <1>  -0.1600 
  7 N        1.8250    -2.9390     0.8410 N.pl3 1 <1>  -0.8650 
  8 C        2.7810    -3.7550     0.2450 C.2   1 <1>   0.4460 
  9 N        2.5200    -5.0930     0.1100 N.pl3 1 <1>  -0.6290 
 10 C        4.0410    -3.5030    -0.2380 C.2   1 <1>   0.3090 
 11 C        3.6030    -5.6530    -0.4710 C.cat 1 <1>   0.7910 
 12 C        1.4830    -5.8860     0.5520 C.2   1 <1>   0.2290 
 13 N        4.5160    -4.7100    -0.7030 N.pl3 1 <1>  -0.7000 
 14 C        4.8220    -2.2890    -0.3060 C.ar  1 <1>   0.0410 
 15 C        3.6490    -7.0350    -0.7130 C.2   1 <1>  -0.1410 
 16 C        1.5040    -7.2360     0.3380 C.2   1 <1>  -0.1380 
 17 C        6.2050    -2.2720    -0.0580 C.ar  1 <1>   0.0820 
 18 C        4.2080    -1.0800    -0.6320 C.ar  1 <1>  -0.1500 
 19 C        2.6060    -7.8270    -0.3190 C.2   1 <1>  -0.1500 
 20 C        0.3720    -8.1410     0.7980 C.3   1 <1>  -0.1020 
 21 O        6.8150    -3.4500     0.2510 O.3   1 <1>  -0.3630 
 22 C        6.9170    -1.0770    -0.1260 C.ar  1 <1>  -0.1500 
 23 C        4.9170     0.1030    -0.6950 C.ar  1 <1>  -0.1500 
 24 C        8.1350    -3.4950     0.7570 C.3   1 <1>   0.0400 
 25 C        6.2750     0.1050    -0.4400 C.ar  1 <1>  -0.1500 
 26 H        0.7870    -1.3310    -1.3930 H     1 <1>   0.0800 
 27 H        1.0790     1.5710    -0.0170 H     1 <1>   0.0800 
 28 H        0.1940     1.0520     1.4170 H     1 <1>   0.0800 
 29 H       -1.6280    -1.1350     0.3940 H     1 <1>   0.0800 
 30 H       -1.5850    -1.1420    -1.3630 H     1 <1>   0.0800 
 31 H        0.3330    -3.4960    -0.5740 H     1 <1>   0.0800 
 32 H       -0.2650    -2.9000     0.9470 H     1 <1>   0.0800 
 33 H       -0.6880     1.0620    -1.4230 H     1 <1>   0.0800 
 34 H       -1.6840     1.2040     0.0120 H     1 <1>   0.0800 
 35 H        2.1640    -1.9870     1.0680 H     1 <1>   0.4000 
 36 H        0.6720    -5.4020     1.0740 H     1 <1>   0.1500 
 37 H        5.4810    -4.8310    -1.0180 H     1 <1>   0.4500 
 38 H        4.5130    -7.4420    -1.2020 H     1 <1>   0.1500 
 39 H        3.1570    -1.0540    -0.8490 H     1 <1>   0.1500 
 40 H        2.6110    -8.8920    -0.4910 H     1 <1>   0.1500 
 41 H        0.7450    -8.8760     1.4890 H     1 <1>   0.0800 
 42 H       -0.0610    -8.6500    -0.0450 H     1 <1>   0.0800 
 43 H       -0.4020    -7.5770     1.2880 H     1 <1>   0.0800 
 44 H        7.9740    -1.0390     0.0580 H     1 <1>   0.1500 
 45 H        4.4150     1.0230    -0.9430 H     1 <1>   0.1500 
 46 H        8.1990    -2.8650     1.6280 H     1 <1>   0.0800 
 47 H        8.8170    -3.1650    -0.0070 H     1 <1>   0.0800 
 48 H        8.3580    -4.5110     1.0290 H     1 <1>   0.0800 
 49 H        6.8300     1.0270    -0.4900 H     1 <1>   0.1500 
@<TRIPOS>BOND
  1   1   2  1   
  2   1   3  1   
  3   2   4  1   
  4   2   5  1   
  5   2  26  1   
  6   3   6  1   
  7   3  27  1   
  8   3  28  1   
  9   4   6  1   
 10   4  29  1   
 11   4  30  1   
 12   5   7  1   
 13   5  31  1   
 14   5  32  1   
 15   6  33  1   
 16   6  34  1   
 17   7   8  1   
 18   7  35  1   
 19   8   9  1   
 20   8  10  2   
 21   9  11  ar  
 22   9  12  1   
 23  10  13  1   
 24  10  14  1   
 25  11  13  ar  
 26  11  15  1   
 27  12  16  2   
 28  12  36  1   
 29  13  37  1   
 30  14  17  ar  
 31  14  18  ar  
 32  15  19  2   
 33  15  38  1   
 34  16  19  1   
 35  16  20  1   
 36  17  21  1   
 37  17  22  ar  
 38  18  23  ar  
 39  18  39  1   
 40  19  40  1   
 41  20  41  1   
 42  20  42  1   
 43  20  43  1   
 44  21  24  1   
 45  22  25  ar  
 46  22  44  1   
 47  23  25  ar  
 48  23  45  1   
 49  24  46  1   
 50  24  47  1   
 51  24  48  1   
 52  25  49  1   
@<TRIPOS>SUBSTRUCTURE
  1 ****   8 GROUP 4 **** **** 0

# MOE 2024.06 (io_trps.svl 2023.06)
