@<TRIPOS>MOLECULE
N-Cyclohexyl-2-(2,4-dioxo-3-phenethyl-3,4-dihydro-2H-thieno[3,2-d]pyrimidin-1-yl
54 57 1 0 0 
SMALL
USER_CHARGES


@<TRIPOS>ATOM
  1 S        0.6770    -0.8260     2.7070 S.3   1 <1>  -0.0800 
  2 C        1.9840    -1.0520     1.5370 C.2   1 <1>  -0.0450 
  3 C       -0.1900    -2.2120     2.0670 C.2   1 <1>  -0.1100 
  4 C        3.1660    -0.2720     1.4460 C.2   1 <1>   0.7150 
  5 C        1.7130    -2.1030     0.7290 C.2   1 <1>   0.0630 
  6 C        0.4840    -2.7700     1.0420 C.2   1 <1>  -0.1500 
  7 O        3.3720     0.7050     2.1470 O.2   1 <1>  -0.5700 
  8 N        4.1020    -0.6670     0.5050 N.am  1 <1>  -0.4200 
  9 N        2.6320    -2.4140    -0.2740 N.am  1 <1>  -0.4230 
 10 C        3.8410    -1.7320    -0.3470 C.2   1 <1>   0.6900 
 11 C        5.4130     0.0410     0.4250 C.3   1 <1>   0.1400 
 12 C        2.3670    -3.5370    -1.2310 C.3   1 <1>   0.2010 
 13 O        4.6820    -2.0800    -1.1600 O.2   1 <1>  -0.5700 
 14 C        5.3450     1.1840    -0.5880 C.3   1 <1>  -0.0160 
 15 C        2.9900    -4.8420    -0.7560 C.2   1 <1>   0.5690 
 16 C        6.7070     1.8460    -0.7030 C.ar  1 <1>  -0.1440 
 17 O        2.2660    -5.7600    -0.4540 O.2   1 <1>  -0.5700 
 18 N        4.3430    -4.9220    -0.6800 N.am  1 <1>  -0.7300 
 19 C        7.0400     2.9100     0.1200 C.ar  1 <1>  -0.1500 
 20 C        7.6310     1.3820    -1.6270 C.ar  1 <1>  -0.1500 
 21 C        5.1150    -6.0560    -0.1590 C.3   1 <1>   0.2200 
 22 C        8.2850     3.5060     0.0200 C.ar  1 <1>  -0.1500 
 23 C        8.8770     1.9780    -1.7270 C.ar  1 <1>  -0.1500 
 24 C        5.7400    -5.6450     1.1790 C.3   1 <1>  -0.1600 
 25 C        6.1890    -6.4330    -1.1830 C.3   1 <1>  -0.1600 
 26 C        9.2040     3.0410    -0.9030 C.ar  1 <1>  -0.1500 
 27 C        6.6600    -6.7470     1.7240 C.3   1 <1>  -0.1600 
 28 C        7.1110    -7.5360    -0.6410 C.3   1 <1>  -0.1600 
 29 C        7.7370    -7.1270     0.6990 C.3   1 <1>  -0.1600 
 30 H       -1.1230    -2.4710     2.5350 H     1 <1>   0.1500 
 31 H        0.1550    -3.6410     0.5030 H     1 <1>   0.1500 
 32 H        6.1850    -0.6510     0.1350 H     1 <1>   0.0800 
 33 H        5.6810     0.4320     1.3920 H     1 <1>   0.0800 
 34 H        2.7740    -3.2940    -2.1950 H     1 <1>   0.0800 
 35 H        1.3100    -3.6740    -1.3580 H     1 <1>   0.0800 
 36 H        4.6160     1.9090    -0.2710 H     1 <1>   0.0800 
 37 H        5.0510     0.8030    -1.5510 H     1 <1>   0.0800 
 38 H        4.8950    -4.0860    -0.9180 H     1 <1>   0.3700 
 39 H        6.3320     3.2790     0.8430 H     1 <1>   0.1500 
 40 H        7.3870     0.5550    -2.2710 H     1 <1>   0.1500 
 41 H        4.4610    -6.8990    -0.0010 H     1 <1>   0.0800 
 42 H        8.5380     4.3320     0.6610 H     1 <1>   0.1500 
 43 H        9.5900     1.6140    -2.4460 H     1 <1>   0.1500 
 44 H        4.9570    -5.4510     1.8900 H     1 <1>   0.0800 
 45 H        6.3130    -4.7440     1.0470 H     1 <1>   0.0800 
 46 H        6.7830    -5.5670    -1.4190 H     1 <1>   0.0800 
 47 H        5.7140    -6.7780    -2.0850 H     1 <1>   0.0800 
 48 H       10.1720     3.5040    -0.9810 H     1 <1>   0.1500 
 49 H        6.0710    -7.6170     1.9610 H     1 <1>   0.0800 
 50 H        7.1280    -6.4090     2.6330 H     1 <1>   0.0800 
 51 H        7.8890    -7.7400    -1.3570 H     1 <1>   0.0800 
 52 H        6.5420    -8.4400    -0.5070 H     1 <1>   0.0800 
 53 H        8.3280    -7.9400     1.0830 H     1 <1>   0.0800 
 54 H        8.3930    -6.2870     0.5440 H     1 <1>   0.0800 
@<TRIPOS>BOND
  1   1   2  1   
  2   1   3  1   
  3   2   4  1   
  4   2   5  2   
  5   3   6  2   
  6   3  30  1   
  7   4   7  2   
  8   4   8  am  
  9   5   6  1   
 10   5   9  1   
 11   6  31  1   
 12   8  10  am  
 13   8  11  1   
 14   9  10  am  
 15   9  12  1   
 16  10  13  2   
 17  11  14  1   
 18  11  32  1   
 19  11  33  1   
 20  12  15  1   
 21  12  34  1   
 22  12  35  1   
 23  14  16  1   
 24  14  36  1   
 25  14  37  1   
 26  15  17  2   
 27  15  18  am  
 28  16  19  ar  
 29  16  20  ar  
 30  18  21  1   
 31  18  38  1   
 32  19  22  ar  
 33  19  39  1   
 34  20  23  ar  
 35  20  40  1   
 36  21  24  1   
 37  21  25  1   
 38  21  41  1   
 39  22  26  ar  
 40  22  42  1   
 41  23  26  ar  
 42  23  43  1   
 43  24  27  1   
 44  24  44  1   
 45  24  45  1   
 46  25  28  1   
 47  25  46  1   
 48  25  47  1   
 49  26  48  1   
 50  27  29  1   
 51  27  49  1   
 52  27  50  1   
 53  28  29  1   
 54  28  51  1   
 55  28  52  1   
 56  29  53  1   
 57  29  54  1   
@<TRIPOS>SUBSTRUCTURE
  1 ****  10 GROUP 4 **** **** 0

# MOE 2024.06 (io_trps.svl 2023.06)
