@<TRIPOS>MOLECULE
NONAME
60 64 1 0 0 
SMALL
USER_CHARGES


@<TRIPOS>ATOM
  1 O       -1.9570     1.1520    -2.3190 O.2   1 <1>  -0.5700 
  2 C       -2.8020     1.5550    -1.5590 C.2   1 <1>   0.5690 
  3 N       -4.1310     1.2240    -1.5460 N.am  1 <1>  -0.5090 
  4 C       -2.5320     2.5260    -0.4520 C.3   1 <1>  -0.0190 
  5 C       -4.9000     2.1440    -0.6280 C.3   1 <1>   0.2810 
  6 C       -4.8330     0.3780    -2.5260 C.3   1 <1>   0.0490 
  7 C       -3.8600     3.2580    -0.4760 C.3   1 <1>   0.4180 
  8 C       -1.5380     3.7020    -0.3260 C.3   1 <1>  -0.0190 
  9 C       -5.2720     1.5120     0.7130 C.2   1 <1>   0.5690 
 10 C       -5.7420    -0.7050    -2.0370 C.3   1 <1>  -0.2000 
 11 C       -4.4170    -1.0530    -2.6390 C.3   1 <1>  -0.2000 
 12 O       -3.6260     4.1070     0.5890 O.3   1 <1>  -0.5600 
 13 C       -3.9260     4.2950    -1.5950 C.2   1 <1>  -0.2880 
 14 C       -0.4570     3.5530     0.7320 C.2   1 <1>   0.5690 
 15 C       -2.5260     4.8230     0.0740 C.3   1 <1>   0.3380 
 16 O       -6.1830     1.9990     1.3380 O.2   1 <1>  -0.5700 
 17 N       -4.5890     0.4080     1.1410 N.am  1 <1>  -0.7300 
 18 C       -3.1290     5.2850    -1.2260 C.2   1 <1>  -0.2880 
 19 O       -0.4730     2.6290     1.5050 O.2   1 <1>  -0.5700 
 20 N        0.5440     4.4580     0.8220 N.am  1 <1>  -0.7300 
 21 C       -4.6440    -0.2740     2.4320 C.3   1 <1>   0.3000 
 22 C        0.8530     5.6350    -0.0100 C.3   1 <1>   0.2200 
 23 C       -6.0240    -0.9020     2.6230 C.3   1 <1>  -0.2400 
 24 C       -3.5790    -1.3670     2.3840 C.3   1 <1>  -0.2400 
 25 C       -4.3140     0.7160     3.5490 C.3   1 <1>  -0.2400 
 26 C        2.2780     5.5020    -0.5310 C.3   1 <1>  -0.1600 
 27 C        0.9200     6.8640     0.8880 C.3   1 <1>  -0.1600 
 28 C        3.1860     5.9670     0.6140 C.3   1 <1>  -0.1600 
 29 C        2.3120     6.8350     1.5280 C.3   1 <1>  -0.1600 
 30 H       -2.4950     1.9380     0.4460 H     1 <1>   0.0800 
 31 H       -5.7810     2.5130    -1.1180 H     1 <1>   0.0800 
 32 H       -5.0860     0.9050    -3.4320 H     1 <1>   0.1000 
 33 H       -1.0750     3.9010    -1.2750 H     1 <1>   0.0800 
 34 H       -6.6270    -0.9350    -2.6030 H     1 <1>   0.1000 
 35 H       -5.8780    -0.8570    -0.9810 H     1 <1>   0.1000 
 36 H       -3.6200    -1.4030    -2.0070 H     1 <1>   0.1000 
 37 H       -4.3980    -1.5050    -3.6140 H     1 <1>   0.1000 
 38 H       -4.5380     4.1520    -2.4690 H     1 <1>   0.1500 
 39 H       -2.1930     5.5860     0.7570 H     1 <1>   0.0800 
 40 H       -3.9310    -0.0220     0.4900 H     1 <1>   0.3700 
 41 H       -2.8640     6.2250    -1.6770 H     1 <1>   0.1500 
 42 H        1.2290     4.2790     1.5590 H     1 <1>   0.3700 
 43 H        0.1420     5.7550    -0.8080 H     1 <1>   0.0800 
 44 H       -6.2540    -1.5630     1.8080 H     1 <1>   0.0800 
 45 H       -6.7800    -0.1400     2.6800 H     1 <1>   0.0800 
 46 H       -6.0510    -1.4640     3.5380 H     1 <1>   0.0800 
 47 H       -2.6030    -0.9370     2.2350 H     1 <1>   0.0800 
 48 H       -3.7850    -2.0640     1.5920 H     1 <1>   0.0800 
 49 H       -3.5650    -1.9090     3.3130 H     1 <1>   0.0800 
 50 H       -3.3630     1.1850     3.3680 H     1 <1>   0.0800 
 51 H       -4.2700     0.2070     4.4940 H     1 <1>   0.0800 
 52 H       -5.0700     1.4770     3.6190 H     1 <1>   0.0800 
 53 H        2.4020     6.1700    -1.3650 H     1 <1>   0.0800 
 54 H        2.5020     4.5010    -0.8570 H     1 <1>   0.0800 
 55 H        0.1300     6.8820     1.6190 H     1 <1>   0.0800 
 56 H        0.8390     7.7430     0.2720 H     1 <1>   0.0800 
 57 H        4.0290     6.5180     0.2340 H     1 <1>   0.0800 
 58 H        3.5500     5.1150     1.1630 H     1 <1>   0.0800 
 59 H        2.2570     6.3880     2.5060 H     1 <1>   0.0800 
 60 H        2.7120     7.8310     1.6250 H     1 <1>   0.0800 
@<TRIPOS>BOND
  1   1   2  2   
  2   2   3  am  
  3   2   4  1   
  4   3   5  1   
  5   3   6  1   
  6   4   7  1   
  7   4   8  1   
  8   4  30  1   
  9   5   7  1   
 10   5   9  1   
 11   5  31  1   
 12   6  10  1   
 13   6  11  1   
 14   6  32  1   
 15   7  12  1   
 16   7  13  1   
 17   8  14  1   
 18   8  15  1   
 19   8  33  1   
 20   9  16  2   
 21   9  17  am  
 22  10  11  1   
 23  10  34  1   
 24  10  35  1   
 25  11  36  1   
 26  11  37  1   
 27  12  15  1   
 28  13  18  2   
 29  13  38  1   
 30  14  19  2   
 31  14  20  am  
 32  15  18  1   
 33  15  39  1   
 34  17  21  1   
 35  17  40  1   
 36  18  41  1   
 37  20  22  1   
 38  20  42  1   
 39  21  23  1   
 40  21  24  1   
 41  21  25  1   
 42  22  26  1   
 43  22  27  1   
 44  22  43  1   
 45  23  44  1   
 46  23  45  1   
 47  23  46  1   
 48  24  47  1   
 49  24  48  1   
 50  24  49  1   
 51  25  50  1   
 52  25  51  1   
 53  25  52  1   
 54  26  28  1   
 55  26  53  1   
 56  26  54  1   
 57  27  29  1   
 58  27  55  1   
 59  27  56  1   
 60  28  29  1   
 61  28  57  1   
 62  28  58  1   
 63  29  59  1   
 64  29  60  1   
@<TRIPOS>SUBSTRUCTURE
  1 ****   4 GROUP 4 **** **** 0

# MOE 2024.06 (io_trps.svl 2023.06)
