@<TRIPOS>MOLECULE
NONAME
49 52 1 0 0 
SMALL
USER_CHARGES


@<TRIPOS>ATOM
  1 S       -0.4540     0.5290    -1.1150 S.o2  1 <1>   1.4470 
  2 O        0.6510     0.8030    -2.0110 O.2   1 <1>  -0.6500 
  3 O       -1.7040     0.0330    -1.6510 O.2   1 <1>  -0.6500 
  4 N        0.0820    -0.5340     0.1000 N.am  1 <1>  -0.8490 
  5 C       -0.7970     2.0340    -0.1550 C.ar  1 <1>  -0.0090 
  6 C        1.4790    -0.9770    -0.0010 C.3   1 <1>   0.1960 
  7 C       -0.8330    -1.6230     0.4550 C.3   1 <1>   0.1960 
  8 C        0.2080     2.9500     0.1290 C.ar  1 <1>  -0.1500 
  9 C       -2.0630     2.2970     0.3510 C.ar  1 <1>  -0.1500 
 10 C        1.6470    -2.1190    -1.0220 C.3   1 <1>  -0.0800 
 11 C       -0.7320    -2.7920    -0.5360 C.3   1 <1>  -0.1600 
 12 C       -0.0430     4.0840     0.8830 C.ar  1 <1>  -0.1500 
 13 C       -2.3160     3.4300     1.1060 C.ar  1 <1>  -0.1500 
 14 C        0.7120    -3.2890    -0.6820 C.3   1 <1>  -0.1600 
 15 C        3.1030    -2.5980    -1.0670 C.3   1 <1>  -0.2400 
 16 C       -1.3110     4.3460     1.3870 C.ar  1 <1>  -0.0090 
 17 S       -1.6490     5.8480     2.3460 S.o2  1 <1>   1.2950 
 18 O       -0.3960     6.3480     2.8760 O.2   1 <1>  -0.6500 
 19 O       -2.7480     5.5840     3.2530 O.2   1 <1>  -0.6500 
 20 N       -2.1860     6.9390     1.0770 N.pl3 1 <1>   0.3170 
 21 C       -3.3940     6.9720     0.4370 C.ar  1 <1>  -0.1520 
 22 C       -1.3690     7.7000     0.2970 C.2   1 <1>   0.0360 
 23 C       -3.2070     7.7550    -0.6860 C.ar  1 <1>   0.2270 
 24 C       -4.6420     6.4040     0.7180 C.ar  1 <1>  -0.1500 
 25 N       -1.9240     8.2020    -0.7480 N.2   1 <1>  -0.5650 
 26 C       -4.2610     7.9790    -1.5680 C.ar  1 <1>  -0.1500 
 27 C       -5.6800     6.6310    -0.1590 C.ar  1 <1>  -0.1500 
 28 C       -5.4910     7.4160    -1.3020 C.ar  1 <1>  -0.1500 
 29 H        1.7960    -1.3270     0.9670 H     1 <1>   0.0800 
 30 H        2.1130    -0.1470    -0.2650 H     1 <1>   0.0800 
 31 H       -1.8460    -1.2600     0.4990 H     1 <1>   0.0800 
 32 H       -0.5750    -1.9790     1.4390 H     1 <1>   0.0800 
 33 H        1.2020     2.7710    -0.2480 H     1 <1>   0.1500 
 34 H       -2.8630     1.6020     0.1500 H     1 <1>   0.1500 
 35 H        1.3940    -1.7440    -1.9990 H     1 <1>   0.0800 
 36 H       -1.1080    -2.4840    -1.4960 H     1 <1>   0.0800 
 37 H       -1.3560    -3.5980    -0.1930 H     1 <1>   0.0800 
 38 H        0.7650     4.7690     1.0830 H     1 <1>   0.1500 
 39 H       -3.3130     3.5960     1.4830 H     1 <1>   0.1500 
 40 H        1.0230    -3.7450     0.2420 H     1 <1>   0.0800 
 41 H        0.7600    -4.0350    -1.4560 H     1 <1>   0.0800 
 42 H        3.4110    -2.9800    -0.1090 H     1 <1>   0.0800 
 43 H        3.7530    -1.7850    -1.3390 H     1 <1>   0.0800 
 44 H        3.2150    -3.3770    -1.8000 H     1 <1>   0.0800 
 45 H       -0.3340     7.8450     0.5630 H     1 <1>   0.1500 
 46 H       -4.7930     5.8090     1.6030 H     1 <1>   0.1500 
 47 H       -4.0900     8.5880    -2.4360 H     1 <1>   0.1500 
 48 H       -6.6530     6.2100     0.0300 H     1 <1>   0.1500 
 49 H       -6.3170     7.5780    -1.9730 H     1 <1>   0.1500 
@<TRIPOS>BOND
  1   1   2  2   
  2   1   3  2   
  3   1   4  am  
  4   1   5  1   
  5   4   6  1   
  6   4   7  1   
  7   5   8  ar  
  8   5   9  ar  
  9   6  10  1   
 10   6  29  1   
 11   6  30  1   
 12   7  11  1   
 13   7  31  1   
 14   7  32  1   
 15   8  12  ar  
 16   8  33  1   
 17   9  13  ar  
 18   9  34  1   
 19  10  14  1   
 20  10  15  1   
 21  10  35  1   
 22  11  14  1   
 23  11  36  1   
 24  11  37  1   
 25  12  16  ar  
 26  12  38  1   
 27  13  16  ar  
 28  13  39  1   
 29  14  40  1   
 30  14  41  1   
 31  15  42  1   
 32  15  43  1   
 33  15  44  1   
 34  16  17  1   
 35  17  18  2   
 36  17  19  2   
 37  17  20  1   
 38  20  21  1   
 39  20  22  1   
 40  21  23  ar  
 41  21  24  ar  
 42  22  25  2   
 43  22  45  1   
 44  23  25  1   
 45  23  26  ar  
 46  24  27  ar  
 47  24  46  1   
 48  26  28  ar  
 49  26  47  1   
 50  27  28  ar  
 51  27  48  1   
 52  28  49  1   
@<TRIPOS>SUBSTRUCTURE
  1 ****   9 GROUP 4 **** **** 0

# MOE 2024.06 (io_trps.svl 2023.06)
