@<TRIPOS>MOLECULE
NONAME
27 28 1 0 0 
SMALL
USER_CHARGES


@<TRIPOS>ATOM
  1 O       -0.4790    -1.0430     1.1560 O.2   1 <1>  -0.5700 
  2 C       -0.0360    -1.7710     0.3050 C.2   1 <1>   0.6590 
  3 O        1.2390    -2.1440     0.2860 O.3   1 <1>  -0.4300 
  4 C       -0.9030    -2.2940    -0.8240 C.3   1 <1>   0.0440 
  5 C        2.1430    -1.7400     1.2940 C.3   1 <1>   0.0400 
  6 C       -1.1650    -3.7890    -0.7000 C.ar  1 <1>  -0.1440 
  7 C       -2.2740    -4.2460    -0.0020 C.ar  1 <1>  -0.1500 
  8 C       -0.2960    -4.7050    -1.2770 C.ar  1 <1>  -0.1500 
  9 C       -2.5150    -5.6040     0.1140 C.ar  1 <1>   0.0830 
 10 C       -0.5340    -6.0650    -1.1690 C.ar  1 <1>  -0.1500 
 11 O       -3.6000    -6.0200     0.8160 O.3   1 <1>  -0.3630 
 12 C       -1.6450    -6.5190    -0.4820 C.ar  1 <1>   0.0830 
 13 C       -3.6320    -7.3850     1.1890 C.3   1 <1>   0.1200 
 14 O       -1.8690    -7.8560    -0.4030 O.3   1 <1>  -0.3630 
 15 C       -3.1540    -8.2650     0.0250 C.3   1 <1>   0.1200 
 16 H       -0.4140    -2.0830    -1.7570 H     1 <1>   0.0800 
 17 H       -1.8350    -1.7600    -0.8170 H     1 <1>   0.0800 
 18 H        1.7860    -2.0990     2.2440 H     1 <1>   0.0800 
 19 H        2.1990    -0.6650     1.3000 H     1 <1>   0.0800 
 20 H        3.1070    -2.1620     1.0760 H     1 <1>   0.0800 
 21 H       -2.9580    -3.5580     0.4630 H     1 <1>   0.1500 
 22 H        0.5740    -4.3640    -1.8120 H     1 <1>   0.1500 
 23 H        0.1350    -6.7770    -1.6170 H     1 <1>   0.1500 
 24 H       -4.6420    -7.6290     1.4640 H     1 <1>   0.0800 
 25 H       -2.9910    -7.5130     2.0430 H     1 <1>   0.0800 
 26 H       -3.8280    -8.1790    -0.8090 H     1 <1>   0.0800 
 27 H       -3.0910    -9.2950     0.3250 H     1 <1>   0.0800 
@<TRIPOS>BOND
  1   1   2  2   
  2   2   3  1   
  3   2   4  1   
  4   3   5  1   
  5   4   6  1   
  6   4  16  1   
  7   4  17  1   
  8   5  18  1   
  9   5  19  1   
 10   5  20  1   
 11   6   7  ar  
 12   6   8  ar  
 13   7   9  ar  
 14   7  21  1   
 15   8  10  ar  
 16   8  22  1   
 17   9  11  1   
 18   9  12  ar  
 19  10  12  ar  
 20  10  23  1   
 21  11  13  1   
 22  12  14  1   
 23  13  15  1   
 24  13  24  1   
 25  13  25  1   
 26  14  15  1   
 27  15  26  1   
 28  15  27  1   
@<TRIPOS>SUBSTRUCTURE
  1 ****   7 GROUP 4 **** **** 0

# MOE 2024.06 (io_trps.svl 2023.06)
