@<TRIPOS>MOLECULE
Pyrrolidine-1,2-dicarboxylic acid 2-[(5-ethyl-[1,3,4]thiadiazol-2-yl)-amide] 1-p-tolylamide
46 48 1 0 0 
SMALL
USER_CHARGES


@<TRIPOS>ATOM
  1 S        0.6130    -0.2510     0.1020 S.3   1 <1>  -0.0800 
  2 C        0.2300     1.3100     0.7620 C.2   1 <1>   0.4420 
  3 C       -0.9190    -0.7950     0.6930 C.2   1 <1>   0.1980 
  4 N       -0.9210     1.3240     1.3290 N.2   1 <1>  -0.3380 
  5 N        1.0900     2.3800     0.6500 N.am  1 <1>  -0.4940 
  6 N       -1.5700     0.1200     1.2890 N.2   1 <1>  -0.3380 
  7 C       -1.3080    -2.2420     0.4590 C.3   1 <1>   0.0200 
  8 C        2.3470     2.5110     0.1310 C.2   1 <1>   0.5690 
  9 C       -1.6500    -2.5140    -1.0120 C.3   1 <1>  -0.2400 
 10 O        2.9950     1.5610    -0.2400 O.2   1 <1>  -0.5700 
 11 C        2.9740     3.9240     0.0390 C.3   1 <1>   0.2810 
 12 N        2.0020     5.0640    -0.0740 N.am  1 <1>  -0.6600 
 13 C        3.8870     4.0890    -1.1910 C.3   1 <1>  -0.1600 
 14 C        1.3500     5.5700     1.0190 C.2   1 <1>   0.6900 
 15 C        2.1730     5.7580    -1.3710 C.3   1 <1>   0.1400 
 16 C        3.6250     5.4910    -1.7330 C.3   1 <1>  -0.1600 
 17 O        1.0960     4.8360     1.9520 O.2   1 <1>  -0.5700 
 18 N        0.9340     6.8590     1.1140 N.am  1 <1>  -0.5470 
 19 C        1.6420     8.0370     0.8570 C.ar  1 <1>   0.1170 
 20 C        0.9490     9.1990     0.5460 C.ar  1 <1>  -0.1500 
 21 C        3.0310     8.0830     0.9110 C.ar  1 <1>  -0.1500 
 22 C        1.6260    10.3760     0.2840 C.ar  1 <1>  -0.1500 
 23 C        3.7090     9.2590     0.6480 C.ar  1 <1>  -0.1500 
 24 C        3.0110    10.4120     0.3300 C.ar  1 <1>  -0.1440 
 25 C        3.7540    11.7040     0.0430 C.3   1 <1>  -0.0970 
 26 H        0.7340     3.2390     1.0860 H     1 <1>   0.3700 
 27 H       -2.1640    -2.4700     1.0690 H     1 <1>   0.0800 
 28 H       -0.4990    -2.8790     0.7710 H     1 <1>   0.0800 
 29 H       -2.4540    -1.8730    -1.3270 H     1 <1>   0.0800 
 30 H       -1.9530    -3.5380    -1.1380 H     1 <1>   0.0800 
 31 H       -0.7940    -2.3280    -1.6370 H     1 <1>   0.0800 
 32 H        3.5610     4.0770     0.9280 H     1 <1>   0.0800 
 33 H        3.6150     3.3690    -1.9440 H     1 <1>   0.0800 
 34 H        4.9200     3.9340    -0.9360 H     1 <1>   0.0800 
 35 H        1.9640     6.8110    -1.3230 H     1 <1>   0.0800 
 36 H        1.5200     5.3040    -2.0970 H     1 <1>   0.0800 
 37 H        3.7920     5.5600    -2.7940 H     1 <1>   0.0800 
 38 H        4.2510     6.2090    -1.2310 H     1 <1>   0.0800 
 39 H        0.2030     6.9510     1.8170 H     1 <1>   0.3700 
 40 H       -0.1240     9.1810     0.5040 H     1 <1>   0.1500 
 41 H        3.5830     7.1960     1.1640 H     1 <1>   0.1500 
 42 H        1.0720    11.2670     0.0440 H     1 <1>   0.1500 
 43 H        4.7840     9.2750     0.6960 H     1 <1>   0.1500 
 44 H        3.8800    12.2610     0.9550 H     1 <1>   0.0800 
 45 H        3.2050    12.3060    -0.6580 H     1 <1>   0.0800 
 46 H        4.7230    11.4980    -0.3740 H     1 <1>   0.0800 
@<TRIPOS>BOND
  1   1   2  1   
  2   1   3  1   
  3   2   4  2   
  4   2   5  1   
  5   3   6  2   
  6   3   7  1   
  7   4   6  1   
  8   5   8  am  
  9   5  26  1   
 10   7   9  1   
 11   7  27  1   
 12   7  28  1   
 13   8  10  2   
 14   8  11  1   
 15   9  29  1   
 16   9  30  1   
 17   9  31  1   
 18  11  12  1   
 19  11  13  1   
 20  11  32  1   
 21  12  14  am  
 22  12  15  1   
 23  13  16  1   
 24  13  33  1   
 25  13  34  1   
 26  14  17  2   
 27  14  18  am  
 28  15  16  1   
 29  15  35  1   
 30  15  36  1   
 31  16  37  1   
 32  16  38  1   
 33  18  19  1   
 34  18  39  1   
 35  19  20  ar  
 36  19  21  ar  
 37  20  22  ar  
 38  20  40  1   
 39  21  23  ar  
 40  21  41  1   
 41  22  24  ar  
 42  22  42  1   
 43  23  24  ar  
 44  23  43  1   
 45  24  25  1   
 46  25  44  1   
 47  25  45  1   
 48  25  46  1   
@<TRIPOS>SUBSTRUCTURE
  1 ****  12 GROUP 4 **** **** 0

# MOE 2024.06 (io_trps.svl 2023.06)
