@<TRIPOS>MOLECULE
Furan-2-carboxylic acid cyclohexylcarbamoyl-pyridin-2-yl-methyl ester
44 46 1 0 0 
SMALL
USER_CHARGES


@<TRIPOS>ATOM
  1 O        1.6050     2.5110    -1.6340 O.2   1 <1>  -0.5700 
  2 C        1.0630     2.2500    -0.5780 C.2   1 <1>   0.8050 
  3 O        1.3690     1.1050     0.0330 O.3   1 <1>  -0.4300 
  4 C        0.0840     3.0900     0.0680 C.2   1 <1>   0.0550 
  5 C        2.4540     0.3070    -0.4400 C.3   1 <1>   0.4040 
  6 O       -0.3630     4.2070    -0.5030 O.3   1 <1>  -0.2800 
  7 C       -0.5410     2.9520     1.2730 C.2   1 <1>  -0.1500 
  8 C        2.3490    -1.1120     0.1150 C.ar  1 <1>   0.1660 
  9 C        3.8200     0.8960    -0.0590 C.2   1 <1>   0.5690 
 10 C       -1.2400     4.7740     0.2930 C.2   1 <1>  -0.0100 
 11 C       -1.3980     4.0430     1.4160 C.2   1 <1>  -0.1500 
 12 N        2.7870    -2.0850    -0.6800 N.ar  1 <1>  -0.6200 
 13 C        1.8390    -1.3350     1.3890 C.ar  1 <1>  -0.1500 
 14 O        3.8770     1.8630     0.6700 O.2   1 <1>  -0.5700 
 15 N        4.9430     0.2850    -0.5430 N.am  1 <1>  -0.7300 
 16 C        2.6970    -3.3130    -0.1940 C.ar  1 <1>   0.1600 
 17 C        1.7560    -2.6190     1.8810 C.ar  1 <1>  -0.1500 
 18 C        6.3590     0.6490    -0.3300 C.3   1 <1>   0.2200 
 19 C        2.1980    -3.6300     1.0570 C.ar  1 <1>  -0.1500 
 20 C        6.7410     0.5090     1.1480 C.3   1 <1>  -0.1600 
 21 C        6.6540     2.0580    -0.8620 C.3   1 <1>  -0.1600 
 22 C        8.2150     0.8810     1.3710 C.3   1 <1>  -0.1600 
 23 C        8.1290     2.4290    -0.6410 C.3   1 <1>  -0.1600 
 24 C        8.5170     2.2890     0.8390 C.3   1 <1>  -0.1600 
 25 H        2.3840     0.2500    -1.5110 H     1 <1>   0.0800 
 26 H       -0.4110     2.1620     1.9920 H     1 <1>   0.1500 
 27 H       -1.7050     5.6950    -0.0140 H     1 <1>   0.1500 
 28 H       -2.0390     4.2370     2.2590 H     1 <1>   0.1500 
 29 H        1.5120    -0.5100     1.9970 H     1 <1>   0.1500 
 30 H        4.8110    -0.6120    -1.0230 H     1 <1>   0.3700 
 31 H        3.0400    -4.1140    -0.8280 H     1 <1>   0.1500 
 32 H        1.3640    -2.8220     2.8630 H     1 <1>   0.1500 
 33 H        6.9610    -0.0450    -0.8930 H     1 <1>   0.0800 
 34 H        2.1590    -4.6550     1.3790 H     1 <1>   0.1500 
 35 H        6.5740    -0.5040     1.4700 H     1 <1>   0.0800 
 36 H        6.1270     1.1620     1.7430 H     1 <1>   0.0800 
 37 H        6.0390     2.7760    -0.3500 H     1 <1>   0.0800 
 38 H        6.4260     2.1020    -1.9120 H     1 <1>   0.0800 
 39 H        8.8450     0.1670     0.8690 H     1 <1>   0.0800 
 40 H        8.4410     0.8380     2.4230 H     1 <1>   0.0800 
 41 H        8.2950     3.4420    -0.9620 H     1 <1>   0.0800 
 42 H        8.7540     1.7860    -1.2360 H     1 <1>   0.0800 
 43 H        9.5640     2.5040     0.9590 H     1 <1>   0.0800 
 44 H        7.9650     3.0110     1.4170 H     1 <1>   0.0800 
@<TRIPOS>BOND
  1   1   2  2   
  2   2   3  1   
  3   2   4  1   
  4   3   5  1   
  5   4   6  1   
  6   4   7  2   
  7   5   8  1   
  8   5   9  1   
  9   5  25  1   
 10   6  10  1   
 11   7  11  1   
 12   7  26  1   
 13   8  12  ar  
 14   8  13  ar  
 15   9  14  2   
 16   9  15  am  
 17  10  11  2   
 18  10  27  1   
 19  11  28  1   
 20  12  16  ar  
 21  13  17  ar  
 22  13  29  1   
 23  15  18  1   
 24  15  30  1   
 25  16  19  ar  
 26  16  31  1   
 27  17  19  ar  
 28  17  32  1   
 29  18  20  1   
 30  18  21  1   
 31  18  33  1   
 32  19  34  1   
 33  20  22  1   
 34  20  35  1   
 35  20  36  1   
 36  21  23  1   
 37  21  37  1   
 38  21  38  1   
 39  22  24  1   
 40  22  39  1   
 41  22  40  1   
 42  23  24  1   
 43  23  41  1   
 44  23  42  1   
 45  24  43  1   
 46  24  44  1   
@<TRIPOS>SUBSTRUCTURE
  1 ****   9 GROUP 4 **** **** 0

# MOE 2024.06 (io_trps.svl 2023.06)
