@<TRIPOS>MOLECULE
9564
45 46 1 0 0 
SMALL
USER_CHARGES


@<TRIPOS>ATOM
  1 O        0.2040     0.1860     1.1620 O.2   1 <1>  -0.5700 
  2 C        0.0390    -0.9690     0.8600 C.2   1 <1>   0.5690 
  3 N        1.0670    -1.6730     0.3540 N.am  1 <1>  -0.7300 
  4 C       -1.3130    -1.6340     1.0790 C.3   1 <1>   0.1810 
  5 C        2.1030    -2.5430    -0.2030 C.3   1 <1>   0.2200 
  6 O       -1.8740    -2.0710    -0.1480 O.3   1 <1>  -0.3630 
  7 C        1.4820    -3.9070    -0.5120 C.3   1 <1>  -0.1600 
  8 C        3.2490    -2.6660     0.8060 C.3   1 <1>  -0.1600 
  9 C       -3.1470    -2.5200    -0.0730 C.ar  1 <1>   0.0820 
 10 C        2.5410    -4.9050    -1.0030 C.3   1 <1>  -0.1600 
 11 C        4.3130    -3.6610     0.3180 C.3   1 <1>  -0.1600 
 12 C       -4.2120    -1.6200    -0.1380 C.ar  1 <1>  -0.1430 
 13 C       -3.3670    -3.8860     0.0690 C.ar  1 <1>  -0.1430 
 14 C        3.6920    -5.0290     0.0050 C.3   1 <1>  -0.1600 
 15 C       -5.5120    -2.1010    -0.0080 C.ar  1 <1>  -0.1430 
 16 C       -3.9570    -0.1270    -0.3540 C.3   1 <1>  -0.0970 
 17 C       -4.6650    -4.3480     0.1860 C.ar  1 <1>  -0.1500 
 18 C       -2.2100    -4.8750     0.0900 C.3   1 <1>  -0.0970 
 19 C       -5.7260    -3.4610     0.1530 C.ar  1 <1>  -0.1500 
 20 C       -6.7220    -1.1770    -0.0410 C.3   1 <1>  -0.0970 
 21 H        1.7000    -0.8690     0.3880 H     1 <1>   0.3700 
 22 H       -1.9880    -0.9330     1.5340 H     1 <1>   0.0800 
 23 H       -1.1980    -2.4870     1.7190 H     1 <1>   0.0800 
 24 H        2.4730    -2.1090    -1.1180 H     1 <1>   0.0800 
 25 H        0.7240    -3.7880    -1.2670 H     1 <1>   0.0800 
 26 H        1.0170    -4.2960     0.3770 H     1 <1>   0.0800 
 27 H        2.8580    -3.0090     1.7480 H     1 <1>   0.0800 
 28 H        3.7070    -1.7050     0.9570 H     1 <1>   0.0800 
 29 H        2.9310    -4.5740    -1.9510 H     1 <1>   0.0800 
 30 H        2.0860    -5.8690    -1.1520 H     1 <1>   0.0800 
 31 H        5.0730    -3.7750     1.0720 H     1 <1>   0.0800 
 32 H        4.7860    -3.2740    -0.5690 H     1 <1>   0.0800 
 33 H        4.4480    -5.6860    -0.3910 H     1 <1>   0.0800 
 34 H        3.3210    -5.4680     0.9160 H     1 <1>   0.0800 
 35 H       -2.9790     0.0510    -0.7630 H     1 <1>   0.0800 
 36 H       -4.0380     0.3960     0.5810 H     1 <1>   0.0800 
 37 H       -4.6670     0.2820    -1.0480 H     1 <1>   0.0800 
 38 H       -4.8600    -5.3990     0.3020 H     1 <1>   0.1500 
 39 H       -1.5670    -4.6980    -0.7530 H     1 <1>   0.0800 
 40 H       -2.5670    -5.8880     0.0360 H     1 <1>   0.0800 
 41 H       -1.6410    -4.7580     0.9930 H     1 <1>   0.0800 
 42 H       -6.7260    -3.8440     0.2500 H     1 <1>   0.1500 
 43 H       -6.5810    -0.3560     0.6390 H     1 <1>   0.0800 
 44 H       -7.6140    -1.7000     0.2490 H     1 <1>   0.0800 
 45 H       -6.8610    -0.7930    -1.0350 H     1 <1>   0.0800 
@<TRIPOS>BOND
  1   1   2  2   
  2   2   3  am  
  3   2   4  1   
  4   3   5  1   
  5   3  21  1   
  6   4   6  1   
  7   4  22  1   
  8   4  23  1   
  9   5   7  1   
 10   5   8  1   
 11   5  24  1   
 12   6   9  1   
 13   7  10  1   
 14   7  25  1   
 15   7  26  1   
 16   8  11  1   
 17   8  27  1   
 18   8  28  1   
 19   9  12  ar  
 20   9  13  ar  
 21  10  14  1   
 22  10  29  1   
 23  10  30  1   
 24  11  14  1   
 25  11  31  1   
 26  11  32  1   
 27  12  15  ar  
 28  12  16  1   
 29  13  17  ar  
 30  13  18  1   
 31  14  33  1   
 32  14  34  1   
 33  15  19  ar  
 34  15  20  1   
 35  16  35  1   
 36  16  36  1   
 37  16  37  1   
 38  17  19  ar  
 39  17  38  1   
 40  18  39  1   
 41  18  40  1   
 42  18  41  1   
 43  19  42  1   
 44  20  43  1   
 45  20  44  1   
 46  20  45  1   
@<TRIPOS>SUBSTRUCTURE
  1 ****   6 GROUP 4 **** **** 0

# MOE 2024.06 (io_trps.svl 2023.06)
