@<TRIPOS>MOLECULE
NONAME
59 61 1 0 0 
SMALL
USER_CHARGES


@<TRIPOS>ATOM
  1 S       -0.4630     0.1970    -3.5230 S.3   1 <1>  -0.3220 
  2 C       -0.9610    -0.2760    -1.8790 C.cat 1 <1>   0.8920 
  3 C        0.8910    -0.9420    -4.1290 C.3   1 <1>   0.1310 
  4 N       -0.6250    -1.3920    -1.2550 N.pl3 1 <1>  -0.7000 
  5 N       -1.6960     0.5090    -1.1100 N.pl3 1 <1>  -0.7640 
  6 C        1.6450    -1.5300    -2.9560 C.2   1 <1>   0.5690 
  7 C       -1.0840    -1.2930     0.0150 C.2   1 <1>   0.4260 
  8 C       -1.7610    -0.1260     0.1380 C.2   1 <1>   0.2770 
  9 C       -2.2840     1.8330    -1.4260 C.3   1 <1>   0.3540 
 10 O        1.4030    -2.6770    -2.6600 O.2   1 <1>  -0.5700 
 11 N        2.3800    -0.7050    -2.1570 N.am  1 <1>  -0.5470 
 12 N       -0.8830    -2.1800     1.0550 N.am  1 <1>  -0.4360 
 13 C       -2.3180     0.2070     1.4170 C.2   1 <1>   0.7030 
 14 C       -1.3070     2.9340    -1.0150 C.3   1 <1>  -0.1600 
 15 C        2.5680    -0.8730    -0.7750 C.ar  1 <1>   0.1170 
 16 C       -1.4160    -1.8640     2.2940 C.2   1 <1>   0.6900 
 17 C       -0.0730    -3.4220     0.8760 C.3   1 <1>   0.0600 
 18 O       -2.9460     1.2390     1.5840 O.2   1 <1>  -0.5700 
 19 N       -2.1180    -0.6760     2.4710 N.am  1 <1>  -0.4200 
 20 C       -1.8850     4.3310    -1.2740 C.3   1 <1>  -0.1600 
 21 C        2.1990     0.1530     0.1000 C.ar  1 <1>   0.0830 
 22 C        3.0820    -2.0510    -0.2520 C.ar  1 <1>  -0.1500 
 23 O       -1.2730    -2.6300     3.2250 O.2   1 <1>  -0.5700 
 24 C       -2.6910    -0.3740     3.8210 C.3   1 <1>   0.0600 
 25 C       -0.8900     5.4190    -0.8630 C.3   1 <1>  -0.2400 
 26 O        1.7040     1.3050    -0.4370 O.3   1 <1>  -0.3620 
 27 C        2.3220    -0.0240     1.4710 C.ar  1 <1>  -0.1500 
 28 C        3.2070    -2.2300     1.1160 C.ar  1 <1>  -0.1430 
 29 C        1.9920     2.5320     0.2070 C.3   1 <1>   0.0400 
 30 C        2.8220    -1.2130     1.9740 C.ar  1 <1>  -0.1500 
 31 C        3.7670    -3.5250     1.6750 C.3   1 <1>  -0.0970 
 32 H        1.5430    -0.3660    -4.7590 H     1 <1>   0.0800 
 33 H        0.4210    -1.7190    -4.7050 H     1 <1>   0.0800 
 34 H       -0.0200    -2.1400    -1.6230 H     1 <1>   0.4500 
 35 H       -3.2160     1.9520    -0.8970 H     1 <1>   0.0800 
 36 H       -2.4920     1.9030    -2.4810 H     1 <1>   0.0800 
 37 H        2.4800     0.2690    -2.4550 H     1 <1>   0.3700 
 38 H       -0.3970     2.8220    -1.5770 H     1 <1>   0.0800 
 39 H       -1.0860     2.8380     0.0330 H     1 <1>   0.0800 
 40 H        0.5290    -3.5950     1.7520 H     1 <1>   0.0800 
 41 H        0.5850    -3.3390     0.0300 H     1 <1>   0.0800 
 42 H       -0.7290    -4.2640     0.7360 H     1 <1>   0.0800 
 43 H       -2.7960     4.4590    -0.7120 H     1 <1>   0.0800 
 44 H       -2.1190     4.4460    -2.3200 H     1 <1>   0.0800 
 45 H        3.3850    -2.8350    -0.9250 H     1 <1>   0.1500 
 46 H       -2.8850     0.6780     3.9350 H     1 <1>   0.0800 
 47 H       -2.0010    -0.6730     4.5920 H     1 <1>   0.0800 
 48 H       -3.6110    -0.9160     3.9500 H     1 <1>   0.0800 
 49 H       -0.6560     5.3420     0.1850 H     1 <1>   0.0800 
 50 H       -1.3150     6.3920    -1.0430 H     1 <1>   0.0800 
 51 H        0.0200     5.3380    -1.4310 H     1 <1>   0.0800 
 52 H        2.0350     0.7460     2.1620 H     1 <1>   0.1500 
 53 H        1.7650     3.3330    -0.4740 H     1 <1>   0.0800 
 54 H        3.0370     2.5600     0.4630 H     1 <1>   0.0800 
 55 H        1.3810     2.6220     1.0870 H     1 <1>   0.0800 
 56 H        2.9170    -1.3430     3.0400 H     1 <1>   0.1500 
 57 H        3.2640    -3.7900     2.5880 H     1 <1>   0.0800 
 58 H        4.8160    -3.4080     1.8810 H     1 <1>   0.0800 
 59 H        3.6410    -4.3300     0.9730 H     1 <1>   0.0800 
@<TRIPOS>BOND
  1   1   2  1   
  2   1   3  1   
  3   2   4  ar  
  4   2   5  ar  
  5   3   6  1   
  6   3  32  1   
  7   3  33  1   
  8   4   7  1   
  9   4  34  1   
 10   5   8  1   
 11   5   9  1   
 12   6  10  2   
 13   6  11  am  
 14   7   8  2   
 15   7  12  1   
 16   8  13  1   
 17   9  14  1   
 18   9  35  1   
 19   9  36  1   
 20  11  15  1   
 21  11  37  1   
 22  12  16  am  
 23  12  17  1   
 24  13  18  2   
 25  13  19  am  
 26  14  20  1   
 27  14  38  1   
 28  14  39  1   
 29  15  21  ar  
 30  15  22  ar  
 31  16  19  am  
 32  16  23  2   
 33  17  40  1   
 34  17  41  1   
 35  17  42  1   
 36  19  24  1   
 37  20  25  1   
 38  20  43  1   
 39  20  44  1   
 40  21  26  1   
 41  21  27  ar  
 42  22  28  ar  
 43  22  45  1   
 44  24  46  1   
 45  24  47  1   
 46  24  48  1   
 47  25  49  1   
 48  25  50  1   
 49  25  51  1   
 50  26  29  1   
 51  27  30  ar  
 52  27  52  1   
 53  28  30  ar  
 54  28  31  1   
 55  29  53  1   
 56  29  54  1   
 57  29  55  1   
 58  30  56  1   
 59  31  57  1   
 60  31  58  1   
 61  31  59  1   
@<TRIPOS>SUBSTRUCTURE
  1 ****   7 GROUP 4 **** **** 0

# MOE 2024.06 (io_trps.svl 2023.06)
