@<TRIPOS>MOLECULE
NONAME
49 51 1 0 0 
SMALL
USER_CHARGES


@<TRIPOS>ATOM
  1 CL      -4.0450     0.9560     2.7560 Cl    1 <1>  -0.1770 
  2 C       -3.2430     1.6940     1.3930 C.ar  1 <1>   0.1770 
  3 C       -3.9930     2.3730     0.4520 C.ar  1 <1>  -0.1500 
  4 C       -1.8700     1.5880     1.2770 C.ar  1 <1>  -0.1500 
  5 C       -3.3600     2.9630    -0.6330 C.ar  1 <1>  -0.1440 
  6 C       -1.2370     2.1730     0.1940 C.ar  1 <1>  -0.1500 
  7 C       -1.9810     2.8560    -0.7560 C.ar  1 <1>  -0.1500 
  8 C       -4.1810     3.7140    -1.6730 C.3   1 <1>   0.2390 
  9 N       -4.8600     4.8740    -1.0630 N.pl3 1 <1>   0.0480 
 10 C       -6.1780     4.9280    -0.7550 C.ar  1 <1>   0.1050 
 11 C       -4.3550     6.0920    -0.7060 C.2   1 <1>   0.0060 
 12 N       -7.1040     3.9690    -0.9000 N.ar  1 <1>  -0.5670 
 13 C       -6.3890     6.1900    -0.2380 C.ar  1 <1>   0.2270 
 14 N       -5.2280     6.9030    -0.2170 N.2   1 <1>  -0.5650 
 15 C       -2.8920     6.4580    -0.8620 C.3   1 <1>  -0.0600 
 16 C       -8.3110     4.3140    -0.5060 C.ar  1 <1>   0.1670 
 17 C       -7.6660     6.5370     0.1680 C.ar  1 <1>  -0.1500 
 18 C       -8.6530     5.5870     0.0300 C.ar  1 <1>   0.1170 
 19 C       -9.3570     3.2210    -0.6470 C.3   1 <1>  -0.0970 
 20 N       -9.9520     5.9340     0.4580 N.am  1 <1>  -0.5470 
 21 C      -11.1130     5.9560    -0.2630 C.2   1 <1>   0.5690 
 22 O      -11.1480     5.6100    -1.4200 O.2   1 <1>  -0.5700 
 23 C      -12.4000     6.4450     0.4480 C.3   1 <1>   0.0610 
 24 C      -12.7190     5.5440     1.6570 C.3   1 <1>  -0.2400 
 25 C      -12.2220     7.8940     0.9450 C.3   1 <1>  -0.2400 
 26 C      -13.6220     6.4180    -0.4950 C.3   1 <1>  -0.2400 
 27 H       -5.0610     2.4370     0.5740 H     1 <1>   0.1500 
 28 H       -1.3110     1.0550     2.0240 H     1 <1>   0.1500 
 29 H       -0.1680     2.0970     0.0920 H     1 <1>   0.1500 
 30 H       -1.4720     3.3040    -1.5920 H     1 <1>   0.1500 
 31 H       -4.9220     3.0560    -2.0910 H     1 <1>   0.0800 
 32 H       -3.5540     4.0630    -2.4720 H     1 <1>   0.0800 
 33 H       -2.2840     5.8080    -0.2600 H     1 <1>   0.0800 
 34 H       -2.7350     7.4710    -0.5360 H     1 <1>   0.0800 
 35 H       -2.5950     6.3790    -1.8910 H     1 <1>   0.0800 
 36 H       -7.8440     7.5180     0.5640 H     1 <1>   0.1500 
 37 H       -8.8930     2.2530    -0.5970 H     1 <1>   0.0800 
 38 H       -9.8470     3.3160    -1.5990 H     1 <1>   0.0800 
 39 H      -10.0900     3.2820     0.1350 H     1 <1>   0.0800 
 40 H      -10.0080     6.3530     1.3840 H     1 <1>   0.3700 
 41 H      -11.9270     5.5730     2.3830 H     1 <1>   0.0800 
 42 H      -12.8440     4.5250     1.3340 H     1 <1>   0.0800 
 43 H      -13.6280     5.8610     2.1370 H     1 <1>   0.0800 
 44 H      -11.4300     7.9640     1.6680 H     1 <1>   0.0800 
 45 H      -13.1270     8.2520     1.4030 H     1 <1>   0.0800 
 46 H      -11.9830     8.5390     0.1170 H     1 <1>   0.0800 
 47 H      -13.7940     5.4180    -0.8530 H     1 <1>   0.0800 
 48 H      -13.4480     7.0510    -1.3480 H     1 <1>   0.0800 
 49 H      -14.5090     6.7580     0.0080 H     1 <1>   0.0800 
@<TRIPOS>BOND
  1   1   2  1   
  2   2   3  ar  
  3   2   4  ar  
  4   3   5  ar  
  5   3  27  1   
  6   4   6  ar  
  7   4  28  1   
  8   5   7  ar  
  9   5   8  1   
 10   6   7  ar  
 11   6  29  1   
 12   7  30  1   
 13   8   9  1   
 14   8  31  1   
 15   8  32  1   
 16   9  10  1   
 17   9  11  1   
 18  10  12  ar  
 19  10  13  ar  
 20  11  14  2   
 21  11  15  1   
 22  12  16  ar  
 23  13  14  1   
 24  13  17  ar  
 25  15  33  1   
 26  15  34  1   
 27  15  35  1   
 28  16  18  ar  
 29  16  19  1   
 30  17  18  ar  
 31  17  36  1   
 32  18  20  1   
 33  19  37  1   
 34  19  38  1   
 35  19  39  1   
 36  20  21  am  
 37  20  40  1   
 38  21  22  2   
 39  21  23  1   
 40  23  24  1   
 41  23  25  1   
 42  23  26  1   
 43  24  41  1   
 44  24  42  1   
 45  24  43  1   
 46  25  44  1   
 47  25  45  1   
 48  25  46  1   
 49  26  47  1   
 50  26  48  1   
 51  26  49  1   
@<TRIPOS>SUBSTRUCTURE
  1 ****  10 GROUP 4 **** **** 0

# MOE 2024.06 (io_trps.svl 2023.06)
