@<TRIPOS>MOLECULE
NONAME
39 40 1 0 0 
SMALL
USER_CHARGES


@<TRIPOS>ATOM
  1 CL       0.6530    -0.0110     0.1970 Cl    1 <1>  -0.1770 
  2 C        0.5460     1.7260     0.3350 C.ar  1 <1>   0.1770 
  3 C        1.3060     2.5210    -0.5020 C.ar  1 <1>  -0.1500 
  4 C       -0.3010     2.2760     1.2780 C.ar  1 <1>  -0.1500 
  5 C        1.2310     3.9080    -0.4220 C.ar  1 <1>  -0.0090 
  6 C       -0.3820     3.6520     1.3770 C.ar  1 <1>  -0.1500 
  7 S        2.2100     4.9540    -1.5320 S.o2  1 <1>   1.4470 
  8 C        0.3730     4.4550     0.5320 C.ar  1 <1>   0.0830 
  9 O        1.3380     5.9080    -2.1900 O.2   1 <1>  -0.6500 
 10 O        3.0260     4.1110    -2.3810 O.2   1 <1>  -0.6500 
 11 N        3.2580     5.8190    -0.5230 N.am  1 <1>  -0.8490 
 12 O        0.2780     5.7910     0.6730 O.3   1 <1>  -0.3630 
 13 C        4.2350     4.9660     0.2000 C.3   1 <1>   0.1960 
 14 C        3.8330     6.9830    -1.2020 C.3   1 <1>   0.1960 
 15 C       -0.8480     6.4150     0.1030 C.3   1 <1>   0.1200 
 16 C        5.6890     5.2380    -0.2010 C.3   1 <1>  -0.1860 
 17 C        4.8760     7.6620    -0.3110 C.3   1 <1>  -0.1600 
 18 C       -0.6190     7.9210     0.1510 C.3   1 <1>  -0.2400 
 19 C        6.6340     4.3130     0.5490 C.2   1 <1>   0.9060 
 20 C        6.0540     6.7250     0.0070 C.3   1 <1>  -0.1600 
 21 O        7.8180     4.2800     0.2000 O.co2 1 <1>  -0.9000 
 22 O        6.2020     3.6260     1.4820 O.co2 1 <1>  -0.9000 
 23 H        1.9600     2.0550    -1.2190 H     1 <1>   0.1500 
 24 H       -0.8780     1.6360     1.9210 H     1 <1>   0.1500 
 25 H       -1.0230     4.1090     2.1110 H     1 <1>   0.1500 
 26 H        4.0200     3.9200     0.0510 H     1 <1>   0.0800 
 27 H        4.1340     5.1590     1.2550 H     1 <1>   0.0800 
 28 H        3.0470     7.6810    -1.4340 H     1 <1>   0.0800 
 29 H        4.2940     6.6740    -2.1270 H     1 <1>   0.0800 
 30 H       -1.7190     6.1350     0.6690 H     1 <1>   0.0800 
 31 H       -0.9490     6.0800    -0.9160 H     1 <1>   0.0800 
 32 H        5.7980     4.9850    -1.2390 H     1 <1>   0.0800 
 33 H        4.3930     7.9570     0.6050 H     1 <1>   0.0800 
 34 H        5.2420     8.5500    -0.7910 H     1 <1>   0.0800 
 35 H       -0.5010     8.2470     1.1680 H     1 <1>   0.0800 
 36 H       -1.4590     8.4320    -0.2830 H     1 <1>   0.0800 
 37 H        0.2630     8.1710    -0.4120 H     1 <1>   0.0800 
 38 H        6.8980     6.9550    -0.6190 H     1 <1>   0.0800 
 39 H        6.3580     6.8780     1.0280 H     1 <1>   0.0800 
@<TRIPOS>BOND
  1   1   2  1   
  2   2   3  ar  
  3   2   4  ar  
  4   3   5  ar  
  5   3  23  1   
  6   4   6  ar  
  7   4  24  1   
  8   5   7  1   
  9   5   8  ar  
 10   6   8  ar  
 11   6  25  1   
 12   7   9  2   
 13   7  10  2   
 14   7  11  am  
 15   8  12  1   
 16  11  13  1   
 17  11  14  1   
 18  12  15  1   
 19  13  16  1   
 20  13  26  1   
 21  13  27  1   
 22  14  17  1   
 23  14  28  1   
 24  14  29  1   
 25  15  18  1   
 26  15  30  1   
 27  15  31  1   
 28  16  19  1   
 29  16  20  1   
 30  16  32  1   
 31  17  20  1   
 32  17  33  1   
 33  17  34  1   
 34  18  35  1   
 35  18  36  1   
 36  18  37  1   
 37  19  21  ar  
 38  19  22  ar  
 39  20  38  1   
 40  20  39  1   
@<TRIPOS>SUBSTRUCTURE
  1 ****  11 GROUP 4 **** **** 0

# MOE 2024.06 (io_trps.svl 2023.06)
