@<TRIPOS>MOLECULE
Thiophene-2-carboxylic acid [(benzo[1,3]dioxol-5-yl-cyclohexylcarbamoylmethyl-carbamoyl)-methyl]-amide
56 59 1 0 0 
SMALL
USER_CHARGES


@<TRIPOS>ATOM
  1 S        0.0650     0.2170    -0.8750 S.3   1 <1>  -0.0800 
  2 C        1.4250    -0.8950    -0.6710 C.2   1 <1>  -0.0450 
  3 C       -1.1010    -1.0870    -0.8710 C.2   1 <1>  -0.1100 
  4 C        2.7620    -0.3600    -0.5980 C.2   1 <1>   0.7150 
  5 C        0.9380    -2.1630    -0.6120 C.2   1 <1>  -0.1500 
  6 C       -0.4790    -2.2710    -0.7240 C.2   1 <1>  -0.1500 
  7 O        2.9940     0.8310    -0.6740 O.2   1 <1>  -0.5700 
  8 N        3.8170    -1.2040    -0.4370 N.am  1 <1>  -0.7300 
  9 C        5.2360    -0.7830    -0.2540 C.3   1 <1>   0.2010 
 10 C        6.1170    -1.9050     0.3160 C.2   1 <1>   0.5690 
 11 O        5.6630    -3.0280     0.3630 O.2   1 <1>  -0.5700 
 12 N        7.3870    -1.6240     0.7640 N.am  1 <1>  -0.4770 
 13 C        7.9690    -0.3460     0.6930 C.ar  1 <1>   0.1170 
 14 C        8.1410    -2.7190     1.4750 C.3   1 <1>   0.2010 
 15 C        8.3510     0.1750    -0.5420 C.ar  1 <1>  -0.1500 
 16 C        8.1820     0.4010     1.8550 C.ar  1 <1>  -0.1500 
 17 C        9.6350    -2.4630     1.6780 C.2   1 <1>   0.5690 
 18 C        8.9370     1.4230    -0.5720 C.ar  1 <1>   0.0830 
 19 C        8.7720     1.6570     1.8050 C.ar  1 <1>  -0.1500 
 20 O       10.0700    -2.4570     2.8050 O.2   1 <1>  -0.5700 
 21 N       10.4300    -2.2450     0.5970 N.am  1 <1>  -0.7300 
 22 O        9.3850     2.0990    -1.6330 O.3   1 <1>  -0.3630 
 23 C        9.1430     2.1440     0.5670 C.ar  1 <1>   0.0830 
 24 C       11.8430    -1.8450     0.6550 C.3   1 <1>   0.2200 
 25 C        9.9060     3.3340    -1.1410 C.3   1 <1>   0.4000 
 26 O        9.7300     3.3110     0.2750 O.3   1 <1>  -0.3630 
 27 C       11.9420    -0.3480     0.3450 C.3   1 <1>  -0.1600 
 28 C       12.6380    -2.6770    -0.3560 C.3   1 <1>  -0.1600 
 29 C       13.4040     0.1140     0.2810 C.3   1 <1>  -0.1600 
 30 C       14.1030    -2.2190    -0.4220 C.3   1 <1>  -0.1600 
 31 C       14.2030    -0.7190    -0.7310 C.3   1 <1>  -0.1600 
 32 H       -2.1390    -0.8270    -0.9810 H     1 <1>   0.1500 
 33 H        1.5380    -3.0470    -0.4910 H     1 <1>   0.1500 
 34 H       -0.9680    -3.2290    -0.6900 H     1 <1>   0.1500 
 35 H        3.6630    -2.2070    -0.3050 H     1 <1>   0.3700 
 36 H        5.2670     0.0630     0.4100 H     1 <1>   0.0800 
 37 H        5.6300    -0.4780    -1.2060 H     1 <1>   0.0800 
 38 H        8.0390    -3.6350     0.9210 H     1 <1>   0.0800 
 39 H        7.6910    -2.8710     2.4390 H     1 <1>   0.0800 
 40 H        8.2060    -0.3720    -1.4540 H     1 <1>   0.1500 
 41 H        7.8920    -0.0070     2.8070 H     1 <1>   0.1500 
 42 H        8.9440     2.2390     2.6920 H     1 <1>   0.1500 
 43 H       10.0060    -2.1700    -0.3270 H     1 <1>   0.3700 
 44 H       12.2320    -2.0270     1.6450 H     1 <1>   0.0800 
 45 H        9.3500     4.1530    -1.5610 H     1 <1>   0.0800 
 46 H       10.9540     3.4020    -1.3730 H     1 <1>   0.0800 
 47 H       11.4290     0.2070     1.1120 H     1 <1>   0.0800 
 48 H       11.4700    -0.1420    -0.5990 H     1 <1>   0.0800 
 49 H       12.1980    -2.5750    -1.3330 H     1 <1>   0.0800 
 50 H       12.6020    -3.7130    -0.0700 H     1 <1>   0.0800 
 51 H       13.8510     0.0140     1.2560 H     1 <1>   0.0800 
 52 H       13.4430     1.1540     0.0060 H     1 <1>   0.0800 
 53 H       14.6230    -2.7800    -1.1790 H     1 <1>   0.0800 
 54 H       14.5810    -2.4200     0.5230 H     1 <1>   0.0800 
 55 H       15.2360    -0.4160    -0.7110 H     1 <1>   0.0800 
 56 H       13.8260    -0.5330    -1.7220 H     1 <1>   0.0800 
@<TRIPOS>BOND
  1   1   2  1   
  2   1   3  1   
  3   2   4  1   
  4   2   5  2   
  5   3   6  2   
  6   3  32  1   
  7   4   7  2   
  8   4   8  am  
  9   5   6  1   
 10   5  33  1   
 11   6  34  1   
 12   8   9  1   
 13   8  35  1   
 14   9  10  1   
 15   9  36  1   
 16   9  37  1   
 17  10  11  2   
 18  10  12  am  
 19  12  13  1   
 20  12  14  1   
 21  13  15  ar  
 22  13  16  ar  
 23  14  17  1   
 24  14  38  1   
 25  14  39  1   
 26  15  18  ar  
 27  15  40  1   
 28  16  19  ar  
 29  16  41  1   
 30  17  20  2   
 31  17  21  am  
 32  18  22  1   
 33  18  23  ar  
 34  19  23  ar  
 35  19  42  1   
 36  21  24  1   
 37  21  43  1   
 38  22  25  1   
 39  23  26  1   
 40  24  27  1   
 41  24  28  1   
 42  24  44  1   
 43  25  26  1   
 44  25  45  1   
 45  25  46  1   
 46  27  29  1   
 47  27  47  1   
 48  27  48  1   
 49  28  30  1   
 50  28  49  1   
 51  28  50  1   
 52  29  31  1   
 53  29  51  1   
 54  29  52  1   
 55  30  31  1   
 56  30  53  1   
 57  30  54  1   
 58  31  55  1   
 59  31  56  1   
@<TRIPOS>SUBSTRUCTURE
  1 ****  13 GROUP 4 **** **** 0

# MOE 2024.06 (io_trps.svl 2023.06)
