@<TRIPOS>MOLECULE
3-(3-Methyl-benzoylamino)-9-aza-bicyclo[3.3.1]nonane-9-carboxylic acid (2-fluoro-phenyl)-amide
55 58 1 0 0 
SMALL
USER_CHARGES


@<TRIPOS>ATOM
  1 F        1.3010    -0.0950     0.4370 F     1 <1>  -0.1900 
  2 C        2.5380    -0.2090     0.0170 C.ar  1 <1>   0.1900 
  3 C        3.0530     0.7530    -0.8500 C.ar  1 <1>   0.1170 
  4 C        3.2740    -1.2910     0.4620 C.ar  1 <1>  -0.1500 
  5 N        2.2870     1.8380    -1.2980 N.am  1 <1>  -0.5470 
  6 C        4.3630     0.5780    -1.2820 C.ar  1 <1>  -0.1500 
  7 C        4.5810    -1.4330     0.0250 C.ar  1 <1>  -0.1500 
  8 C        2.6930     3.0980    -1.6030 C.2   1 <1>   0.6900 
  9 C        5.1200    -0.4970    -0.8460 C.ar  1 <1>  -0.1500 
 10 O        2.2780     3.5690    -2.6450 O.2   1 <1>  -0.5700 
 11 N        3.4840     3.8360    -0.7570 N.am  1 <1>  -0.6600 
 12 C        3.5090     3.7280     0.7150 C.3   1 <1>   0.2200 
 13 C        3.9280     5.1740    -1.0770 C.3   1 <1>   0.2200 
 14 C        4.8920     3.1870     1.0360 C.3   1 <1>  -0.1600 
 15 C        2.0980     4.0830     1.1640 C.3   1 <1>  -0.1600 
 16 C        5.4470     5.1470    -0.7050 C.3   1 <1>  -0.1600 
 17 C        2.9370     6.1440    -0.3280 C.3   1 <1>  -0.1600 
 18 C        5.8740     4.3150     0.5650 C.3   1 <1>   0.2200 
 19 C        1.7320     5.4280     0.4220 C.3   1 <1>  -0.1600 
 20 N        7.2610     3.8060     0.4600 N.am  1 <1>  -0.7300 
 21 C        7.7620     2.8860    -0.4240 C.2   1 <1>   0.5440 
 22 O        7.0360     2.4110    -1.2730 O.2   1 <1>  -0.5700 
 23 C        9.1490     2.4680    -0.3270 C.ar  1 <1>   0.0860 
 24 C        9.5290     1.1700    -0.6680 C.ar  1 <1>  -0.1500 
 25 C       10.1520     3.3360     0.1100 C.ar  1 <1>  -0.1500 
 26 C       10.8420     0.7420    -0.5670 C.ar  1 <1>  -0.1430 
 27 C       11.4660     2.9190     0.2150 C.ar  1 <1>  -0.1500 
 28 C       11.8110     1.6230    -0.1200 C.ar  1 <1>  -0.1500 
 29 C       11.2280    -0.6780    -0.9420 C.3   1 <1>  -0.0970 
 30 H        2.8330    -2.0040     1.1340 H     1 <1>   0.1500 
 31 H        1.4450     1.5920    -1.8110 H     1 <1>   0.3700 
 32 H        4.8000     1.2960    -1.9550 H     1 <1>   0.1500 
 33 H        5.1770    -2.2640     0.3590 H     1 <1>   0.1500 
 34 H        6.1360    -0.5960    -1.1880 H     1 <1>   0.1500 
 35 H        3.8070     4.6500     1.1730 H     1 <1>   0.0800 
 36 H        3.8390     5.3460    -2.1370 H     1 <1>   0.0800 
 37 H        5.0690     2.2690     0.5160 H     1 <1>   0.0800 
 38 H        4.9940     3.0170     2.0920 H     1 <1>   0.0800 
 39 H        2.0810     4.2280     2.2310 H     1 <1>   0.0800 
 40 H        1.4050     3.2950     0.9260 H     1 <1>   0.0800 
 41 H        5.8060     6.1550    -0.6130 H     1 <1>   0.0800 
 42 H        5.9420     4.7210    -1.5580 H     1 <1>   0.0800 
 43 H        2.5390     6.8430    -1.0420 H     1 <1>   0.0800 
 44 H        3.4980     6.7250     0.3820 H     1 <1>   0.0800 
 45 H        5.8860     5.0320     1.3680 H     1 <1>   0.0800 
 46 H        1.2700     6.1140     1.1100 H     1 <1>   0.0800 
 47 H        0.9920     5.1900    -0.3240 H     1 <1>   0.0800 
 48 H        7.8640     4.0780     1.2340 H     1 <1>   0.3700 
 49 H        8.7690     0.4930    -1.0180 H     1 <1>   0.1500 
 50 H        9.9040     4.3510     0.3600 H     1 <1>   0.1500 
 51 H       12.2250     3.6030     0.5550 H     1 <1>   0.1500 
 52 H       12.8350     1.3030    -0.0360 H     1 <1>   0.1500 
 53 H       10.3890    -1.2090    -1.3540 H     1 <1>   0.0800 
 54 H       11.5750    -1.2040    -0.0710 H     1 <1>   0.0800 
 55 H       12.0140    -0.6620    -1.6750 H     1 <1>   0.0800 
@<TRIPOS>BOND
  1   1   2  1   
  2   2   3  ar  
  3   2   4  ar  
  4   3   5  1   
  5   3   6  ar  
  6   4   7  ar  
  7   4  30  1   
  8   5   8  am  
  9   5  31  1   
 10   6   9  ar  
 11   6  32  1   
 12   7   9  ar  
 13   7  33  1   
 14   8  10  2   
 15   8  11  am  
 16   9  34  1   
 17  11  12  1   
 18  11  13  1   
 19  12  14  1   
 20  12  15  1   
 21  12  35  1   
 22  13  16  1   
 23  13  17  1   
 24  13  36  1   
 25  14  18  1   
 26  14  37  1   
 27  14  38  1   
 28  15  19  1   
 29  15  39  1   
 30  15  40  1   
 31  16  18  1   
 32  16  41  1   
 33  16  42  1   
 34  17  19  1   
 35  17  43  1   
 36  17  44  1   
 37  18  20  1   
 38  18  45  1   
 39  19  46  1   
 40  19  47  1   
 41  20  21  am  
 42  20  48  1   
 43  21  22  2   
 44  21  23  1   
 45  23  24  ar  
 46  23  25  ar  
 47  24  26  ar  
 48  24  49  1   
 49  25  27  ar  
 50  25  50  1   
 51  26  28  ar  
 52  26  29  1   
 53  27  28  ar  
 54  27  51  1   
 55  28  52  1   
 56  29  53  1   
 57  29  54  1   
 58  29  55  1   
@<TRIPOS>SUBSTRUCTURE
  1 ****  22 GROUP 4 **** **** 0

# MOE 2024.06 (io_trps.svl 2023.06)
