@<TRIPOS>MOLECULE
NONAME
56 59 1 0 0 
SMALL
USER_CHARGES


@<TRIPOS>ATOM
  1 O       -0.0840     3.0100     3.6790 O.2   1 <1>  -0.5700 
  2 C       -0.4180     3.4840     2.6210 C.2   1 <1>   0.5690 
  3 N        0.2550     3.1920     1.4790 N.am  1 <1>  -0.7300 
  4 C       -1.5850     4.4400     2.6060 C.3   1 <1>   0.1570 
  5 C        1.3470     2.2110     1.3860 C.3   1 <1>   0.2840 
  6 N       -2.5010     4.0800     1.5260 N.pl3 1 <1>   0.5800 
  7 C        1.5550     1.8850    -0.0810 C.ar  1 <1>  -0.1440 
  8 N       -2.2900     4.4160     0.2650 N.2   1 <1>  -0.4180 
  9 N       -3.6200     3.4160     1.7080 N.2   1 <1>  -0.7070 
 10 C        0.6240     1.1120    -0.7590 C.ar  1 <1>  -0.1500 
 11 C        2.6670     2.3610    -0.7600 C.ar  1 <1>  -0.1500 
 12 N       -3.2770     3.9550    -0.3860 N.2   1 <1>  -0.2270 
 13 C       -4.0780     3.3500     0.5010 C.2   1 <1>   0.4620 
 14 C        0.8030     0.8160    -2.0990 C.ar  1 <1>  -0.1500 
 15 C        2.8470     2.0660    -2.1000 C.ar  1 <1>  -0.1500 
 16 C       -5.3250     2.7040     0.1260 C.ar  1 <1>   0.0540 
 17 C        1.9150     1.2930    -2.7700 C.ar  1 <1>  -0.1500 
 18 C       -5.8240     2.7590    -1.1770 C.ar  1 <1>  -0.1500 
 19 C       -6.0820     1.9990     1.0620 C.ar  1 <1>  -0.1500 
 20 C       -7.0180     2.1550    -1.5240 C.ar  1 <1>  -0.1500 
 21 C       -7.2770     1.3910     0.7250 C.ar  1 <1>  -0.1500 
 22 C       -7.7600     1.4720    -0.5720 C.ar  1 <1>  -0.1430 
 23 C       -9.0840     0.8310    -0.9390 C.3   1 <1>   0.4860 
 24 N      -10.1020     1.9040    -1.0950 N.4   1 <1>  -0.9590 
 25 C      -10.3470     2.6260     0.1900 C.3   1 <1>   0.3430 
 26 C      -11.3620     1.3820    -1.6960 C.3   1 <1>   0.3430 
 27 C      -11.2870     3.8080    -0.0550 C.3   1 <1>  -0.1600 
 28 C      -12.3180     2.5430    -1.9760 C.3   1 <1>  -0.1600 
 29 C      -12.6000     3.3660    -0.7130 C.3   1 <1>  -0.1600 
 30 H       -0.0700     3.5320     0.5650 H     1 <1>   0.3700 
 31 H       -1.2340     5.4410     2.4500 H     1 <1>   0.0800 
 32 H       -2.1110     4.3860     3.5390 H     1 <1>   0.0800 
 33 H        1.0840     1.3200     1.9320 H     1 <1>   0.0800 
 34 H        2.2410     2.6260     1.8170 H     1 <1>   0.0800 
 35 H       -0.2460     0.7390    -0.2450 H     1 <1>   0.1500 
 36 H        3.3970     2.9660    -0.2500 H     1 <1>   0.1500 
 37 H        0.0760     0.2170    -2.6190 H     1 <1>   0.1500 
 38 H        3.7120     2.4370    -2.6220 H     1 <1>   0.1500 
 39 H        2.0550     1.0640    -3.8120 H     1 <1>   0.1500 
 40 H       -5.2650     3.2850    -1.9330 H     1 <1>   0.1500 
 41 H       -5.7210     1.9270     2.0750 H     1 <1>   0.1500 
 42 H       -7.3540     2.2230    -2.5450 H     1 <1>   0.1500 
 43 H       -7.8180     0.8560     1.4880 H     1 <1>   0.1500 
 44 H       -9.3860     0.1380    -0.1710 H     1 <1>   0.0800 
 45 H       -8.9700     0.2890    -1.8640 H     1 <1>   0.0800 
 46 H       -9.7020     2.5960    -1.7400 H     1 <1>   0.4500 
 47 H       -9.4160     2.9920     0.5960 H     1 <1>   0.0800 
 48 H      -10.7910     1.9560     0.9090 H     1 <1>   0.0800 
 49 H      -11.8310     0.6880    -1.0170 H     1 <1>   0.0800 
 50 H      -11.1480     0.8640    -2.6180 H     1 <1>   0.0800 
 51 H      -10.7900     4.5350    -0.6750 H     1 <1>   0.0800 
 52 H      -11.5020     4.2850     0.8860 H     1 <1>   0.0800 
 53 H      -13.2450     2.1500    -2.3580 H     1 <1>   0.0800 
 54 H      -11.9000     3.1750    -2.7410 H     1 <1>   0.0800 
 55 H      -13.1930     4.2310    -0.9640 H     1 <1>   0.0800 
 56 H      -13.1690     2.7720    -0.0160 H     1 <1>   0.0800 
@<TRIPOS>BOND
  1   1   2  2   
  2   2   3  am  
  3   2   4  1   
  4   3   5  1   
  5   3  30  1   
  6   4   6  1   
  7   4  31  1   
  8   4  32  1   
  9   5   7  1   
 10   5  33  1   
 11   5  34  1   
 12   6   8  1   
 13   6   9  1   
 14   7  10  ar  
 15   7  11  ar  
 16   8  12  2   
 17   9  13  2   
 18  10  14  ar  
 19  10  35  1   
 20  11  15  ar  
 21  11  36  1   
 22  12  13  1   
 23  13  16  1   
 24  14  17  ar  
 25  14  37  1   
 26  15  17  ar  
 27  15  38  1   
 28  16  18  ar  
 29  16  19  ar  
 30  17  39  1   
 31  18  20  ar  
 32  18  40  1   
 33  19  21  ar  
 34  19  41  1   
 35  20  22  ar  
 36  20  42  1   
 37  21  22  ar  
 38  21  43  1   
 39  22  23  1   
 40  23  24  1   
 41  23  44  1   
 42  23  45  1   
 43  24  25  1   
 44  24  26  1   
 45  24  46  1   
 46  25  27  1   
 47  25  47  1   
 48  25  48  1   
 49  26  28  1   
 50  26  49  1   
 51  26  50  1   
 52  27  29  1   
 53  27  51  1   
 54  27  52  1   
 55  28  29  1   
 56  28  53  1   
 57  28  54  1   
 58  29  55  1   
 59  29  56  1   
@<TRIPOS>SUBSTRUCTURE
  1 ****  13 GROUP 4 **** **** 0

# MOE 2024.06 (io_trps.svl 2023.06)
