@<TRIPOS>MOLECULE
NONAME
55 57 1 0 0 
SMALL
USER_CHARGES


@<TRIPOS>ATOM
  1 F       -0.5720    -2.6110    -1.9070 F     1 <1>  -0.1900 
  2 C       -0.3450    -2.8470    -0.6400 C.ar  1 <1>   0.1900 
  3 C       -1.1750    -2.2790     0.3140 C.ar  1 <1>  -0.1440 
  4 C        0.7150    -3.6700    -0.3110 C.ar  1 <1>  -0.1500 
  5 C       -0.9210    -2.5630     1.6480 C.ar  1 <1>  -0.1500 
  6 C       -2.3300    -1.3790    -0.0840 C.3   1 <1>   0.2840 
  7 C        0.9550    -3.9410     1.0250 C.ar  1 <1>  -0.1500 
  8 C        0.1370    -3.3880     1.9990 C.ar  1 <1>  -0.1500 
  9 N       -3.3720    -2.2220    -0.7090 N.am  1 <1>  -0.7300 
 10 C       -4.6250    -2.3920    -0.2160 C.2   1 <1>   0.5690 
 11 O       -5.0310    -1.7610     0.7320 O.2   1 <1>  -0.5700 
 12 C       -5.5910    -3.4050    -0.8590 C.3   1 <1>   0.4040 
 13 N       -7.0380    -3.1640    -0.4840 N.4   1 <1>  -0.9590 
 14 C       -7.8990    -4.3540    -0.7370 C.3   1 <1>   0.3430 
 15 C       -7.5590    -1.9100    -1.1070 C.3   1 <1>   0.3430 
 16 C       -9.3070    -4.0870    -0.2190 C.3   1 <1>  -0.1600 
 17 C       -8.9700    -1.6240    -0.5970 C.3   1 <1>  -0.1600 
 18 C       -9.8760    -2.8230    -0.8600 C.3   1 <1>   0.2200 
 19 N      -11.2140    -2.5660    -0.3160 N.am  1 <1>  -0.7300 
 20 C      -12.3610    -3.1000    -0.8370 C.2   1 <1>   0.5440 
 21 O      -12.2530    -3.8640    -1.7770 O.2   1 <1>  -0.5700 
 22 C      -13.6590    -2.7870    -0.2650 C.ar  1 <1>   0.0860 
 23 C      -13.9090    -1.5720     0.3790 C.ar  1 <1>  -0.1500 
 24 C      -14.7100    -3.7010    -0.3360 C.ar  1 <1>  -0.1500 
 25 C      -15.1420    -1.2860     0.9420 C.ar  1 <1>  -0.1430 
 26 C      -15.9450    -3.4260     0.2200 C.ar  1 <1>  -0.1500 
 27 C      -16.1600    -2.2200     0.8620 C.ar  1 <1>  -0.1500 
 28 C      -15.3950     0.0390     1.6400 C.3   1 <1>  -0.0970 
 29 H        1.3360    -4.0890    -1.0830 H     1 <1>   0.1500 
 30 H       -1.5430    -2.1460     2.4220 H     1 <1>   0.1500 
 31 H       -1.9930    -0.6370    -0.7890 H     1 <1>   0.0800 
 32 H       -2.7220    -0.8680     0.7800 H     1 <1>   0.0800 
 33 H        1.7750    -4.5790     1.3080 H     1 <1>   0.1500 
 34 H        0.3270    -3.6020     3.0380 H     1 <1>   0.1500 
 35 H       -2.9970    -2.7850    -1.4790 H     1 <1>   0.3700 
 36 H       -5.2950    -4.3850    -0.5270 H     1 <1>   0.0800 
 37 H       -5.4780    -3.3650    -1.9280 H     1 <1>   0.0800 
 38 H       -7.0130    -2.9780     0.5340 H     1 <1>   0.4500 
 39 H       -7.4940    -5.2210    -0.2390 H     1 <1>   0.0800 
 40 H       -7.9410    -4.5590    -1.7950 H     1 <1>   0.0800 
 41 H       -7.5810    -2.0150    -2.1800 H     1 <1>   0.0800 
 42 H       -6.9170    -1.0790    -0.8590 H     1 <1>   0.0800 
 43 H       -9.2890    -3.9940     0.8530 H     1 <1>   0.0800 
 44 H       -9.9340    -4.9240    -0.4740 H     1 <1>   0.0800 
 45 H       -9.3580    -0.7640    -1.1130 H     1 <1>   0.0800 
 46 H       -8.9290    -1.4000     0.4540 H     1 <1>   0.0800 
 47 H       -9.9580    -2.9740    -1.9260 H     1 <1>   0.0800 
 48 H      -11.2730    -2.0480     0.5620 H     1 <1>   0.3700 
 49 H      -13.1290    -0.8360     0.4310 H     1 <1>   0.1500 
 50 H      -14.5510    -4.6410    -0.8380 H     1 <1>   0.1500 
 51 H      -16.7390    -4.1490     0.1540 H     1 <1>   0.1500 
 52 H      -17.1230    -2.0110     1.2940 H     1 <1>   0.1500 
 53 H      -14.5110     0.6510     1.6440 H     1 <1>   0.0800 
 54 H      -15.6960    -0.1350     2.6570 H     1 <1>   0.0800 
 55 H      -16.1790     0.5730     1.1330 H     1 <1>   0.0800 
@<TRIPOS>BOND
  1   1   2  1   
  2   2   3  ar  
  3   2   4  ar  
  4   3   5  ar  
  5   3   6  1   
  6   4   7  ar  
  7   4  29  1   
  8   5   8  ar  
  9   5  30  1   
 10   6   9  1   
 11   6  31  1   
 12   6  32  1   
 13   7   8  ar  
 14   7  33  1   
 15   8  34  1   
 16   9  10  am  
 17   9  35  1   
 18  10  11  2   
 19  10  12  1   
 20  12  13  1   
 21  12  36  1   
 22  12  37  1   
 23  13  14  1   
 24  13  15  1   
 25  13  38  1   
 26  14  16  1   
 27  14  39  1   
 28  14  40  1   
 29  15  17  1   
 30  15  41  1   
 31  15  42  1   
 32  16  18  1   
 33  16  43  1   
 34  16  44  1   
 35  17  18  1   
 36  17  45  1   
 37  17  46  1   
 38  18  19  1   
 39  18  47  1   
 40  19  20  am  
 41  19  48  1   
 42  20  21  2   
 43  20  22  1   
 44  22  23  ar  
 45  22  24  ar  
 46  23  25  ar  
 47  23  49  1   
 48  24  26  ar  
 49  24  50  1   
 50  25  27  ar  
 51  25  28  1   
 52  26  27  ar  
 53  26  51  1   
 54  27  52  1   
 55  28  53  1   
 56  28  54  1   
 57  28  55  1   
@<TRIPOS>SUBSTRUCTURE
  1 ****  13 GROUP 4 **** **** 0

# MOE 2024.06 (io_trps.svl 2023.06)
