@<TRIPOS>MOLECULE
NONAME
47 49 1 0 0 
SMALL
USER_CHARGES


@<TRIPOS>ATOM
  1 O        1.1120    -1.0340     0.1790 O.2   1 <1>  -0.5700 
  2 C        0.3670    -1.9890     0.1440 C.2   1 <1>   0.5690 
  3 N        0.7570    -3.2090    -0.3520 N.am  1 <1>  -0.4770 
  4 C       -1.0660    -1.8540     0.6930 C.3   1 <1>   0.2610 
  5 C       -0.1950    -4.2550    -0.4640 C.ar  1 <1>   0.1170 
  6 C        2.1570    -3.3710    -0.8830 C.3   1 <1>   0.2010 
  7 O       -1.9730    -2.7010     0.0020 O.3   1 <1>  -0.3630 
  8 C       -1.6450    -0.4340     0.6140 C.3   1 <1>  -0.2400 
  9 C       -1.5550    -3.9570    -0.3050 C.ar  1 <1>   0.0830 
 10 C        0.1460    -5.5780    -0.7360 C.ar  1 <1>  -0.1500 
 11 C        3.1670    -3.8640     0.1630 C.2   1 <1>   0.5690 
 12 C       -2.5240    -4.9320    -0.4540 C.ar  1 <1>  -0.1500 
 13 C       -0.8200    -6.5630    -0.8740 C.ar  1 <1>  -0.1440 
 14 O        3.0930    -5.0290     0.4880 O.2   1 <1>  -0.5700 
 15 N        4.1540    -3.0550     0.6810 N.am  1 <1>  -0.6600 
 16 C       -2.1580    -6.2350    -0.7400 C.ar  1 <1>  -0.1500 
 17 C       -0.4090    -7.9940    -1.1710 C.3   1 <1>  -0.0970 
 18 C        5.1360    -3.6000     1.6540 C.3   1 <1>   0.1400 
 19 C        4.3740    -1.6170     0.3640 C.3   1 <1>   0.1400 
 20 C        6.3140    -4.2770     0.9410 C.3   1 <1>  -0.1600 
 21 C        5.4810    -1.4390    -0.6810 C.3   1 <1>  -0.1600 
 22 C        6.8130    -3.6050    -0.3520 C.3   1 <1>  -0.1600 
 23 C        6.8390    -2.0680    -0.3140 C.3   1 <1>  -0.1600 
 24 H       -1.0580    -2.1780     1.7170 H     1 <1>   0.0800 
 25 H        2.4870    -2.4450    -1.3090 H     1 <1>   0.0800 
 26 H        2.1450    -4.0780    -1.6900 H     1 <1>   0.0800 
 27 H       -1.6600    -0.1000    -0.4080 H     1 <1>   0.0800 
 28 H       -1.0330     0.2410     1.1840 H     1 <1>   0.0800 
 29 H       -2.6410    -0.4170     1.0150 H     1 <1>   0.0800 
 30 H        1.1750    -5.8630    -0.8390 H     1 <1>   0.1500 
 31 H       -3.5600    -4.6690    -0.3420 H     1 <1>   0.1500 
 32 H       -2.9170    -6.9880    -0.8520 H     1 <1>   0.1500 
 33 H        0.5440    -8.2110    -0.7210 H     1 <1>   0.0800 
 34 H       -0.3320    -8.1380    -2.2330 H     1 <1>   0.0800 
 35 H       -1.1330    -8.6840    -0.7770 H     1 <1>   0.0800 
 36 H        4.6510    -4.3120     2.3010 H     1 <1>   0.0800 
 37 H        5.5050    -2.8040     2.2770 H     1 <1>   0.0800 
 38 H        4.6410    -1.0920     1.2640 H     1 <1>   0.0800 
 39 H        3.4740    -1.1630     0.0010 H     1 <1>   0.0800 
 40 H        6.0280    -5.2890     0.7090 H     1 <1>   0.0800 
 41 H        7.1270    -4.3380     1.6420 H     1 <1>   0.0800 
 42 H        5.6270    -0.3830    -0.8220 H     1 <1>   0.0800 
 43 H        5.1410    -1.8340    -1.6220 H     1 <1>   0.0800 
 44 H        6.1980    -3.9280    -1.1740 H     1 <1>   0.0800 
 45 H        7.8080    -3.9660    -0.5480 H     1 <1>   0.0800 
 46 H        7.1730    -1.7200     0.6480 H     1 <1>   0.0800 
 47 H        7.5590    -1.7330    -1.0410 H     1 <1>   0.0800 
@<TRIPOS>BOND
  1   1   2  2   
  2   2   3  am  
  3   2   4  1   
  4   3   5  1   
  5   3   6  1   
  6   4   7  1   
  7   4   8  1   
  8   4  24  1   
  9   5   9  ar  
 10   5  10  ar  
 11   6  11  1   
 12   6  25  1   
 13   6  26  1   
 14   7   9  1   
 15   8  27  1   
 16   8  28  1   
 17   8  29  1   
 18   9  12  ar  
 19  10  13  ar  
 20  10  30  1   
 21  11  14  2   
 22  11  15  am  
 23  12  16  ar  
 24  12  31  1   
 25  13  16  ar  
 26  13  17  1   
 27  15  18  1   
 28  15  19  1   
 29  16  32  1   
 30  17  33  1   
 31  17  34  1   
 32  17  35  1   
 33  18  20  1   
 34  18  36  1   
 35  18  37  1   
 36  19  21  1   
 37  19  38  1   
 38  19  39  1   
 39  20  22  1   
 40  20  40  1   
 41  20  41  1   
 42  21  23  1   
 43  21  42  1   
 44  21  43  1   
 45  22  23  1   
 46  22  44  1   
 47  22  45  1   
 48  23  46  1   
 49  23  47  1   
@<TRIPOS>SUBSTRUCTURE
  1 ****   6 GROUP 4 **** **** 0

# MOE 2024.06 (io_trps.svl 2023.06)
