@<TRIPOS>MOLECULE
NONAME
57 60 1 0 0 
SMALL
USER_CHARGES


@<TRIPOS>ATOM
  1 S       -0.0240     0.1150    -0.9000 S.3   1 <1>  -0.2860 
  2 C       -1.3570    -1.1030    -0.7000 C.2   1 <1>   0.2420 
  3 C       -0.5550     1.6860    -0.0870 C.3   1 <1>   0.0700 
  4 N       -1.1000    -2.3600    -0.7300 N.2   1 <1>  -0.3380 
  5 N       -2.6590    -0.8310    -0.5060 N.pl3 1 <1>   0.3260 
  6 C        0.6000     2.6880    -0.1020 C.3   1 <1>   0.3430 
  7 N       -2.2590    -2.9800    -0.5240 N.2   1 <1>  -0.3380 
  8 C       -3.2890     0.4370    -0.4330 C.ar  1 <1>  -0.0230 
  9 C       -3.1860    -2.0740    -0.3870 C.2   1 <1>   0.1330 
 10 N        0.2290     3.9670     0.5950 N.4   1 <1>  -0.9590 
 11 C       -3.5840     1.0060     0.8010 C.ar  1 <1>  -0.1500 
 12 C       -3.5530     1.1580    -1.5940 C.ar  1 <1>  -0.1500 
 13 C       -4.5730    -2.3710    -0.1080 C.ar  1 <1>   0.0530 
 14 C       -0.9710     4.6430    -0.0030 C.3   1 <1>   0.3430 
 15 C        1.4000     4.8910     0.6370 C.3   1 <1>   0.3430 
 16 C       -4.0540     2.3040     0.8730 C.ar  1 <1>  -0.1500 
 17 C       -4.0310     2.4540    -1.5220 C.ar  1 <1>  -0.1500 
 18 C       -4.8990    -3.4220     0.7520 C.ar  1 <1>   0.1600 
 19 C       -5.6350    -1.6620    -0.6570 C.ar  1 <1>  -0.1500 
 20 C       -1.3570     5.8560     0.8430 C.3   1 <1>  -0.1600 
 21 C        1.0650     6.1110     1.4970 C.3   1 <1>  -0.1600 
 22 C       -4.2540     3.0420    -0.2810 C.ar  1 <1>   0.0830 
 23 N       -6.1200    -3.7840     1.1130 N.ar  1 <1>  -0.6200 
 24 C       -6.9150    -2.0240    -0.2980 C.ar  1 <1>  -0.1500 
 25 C       -0.1880     6.8380     0.9930 C.3   1 <1>  -0.1600 
 26 O       -4.6420     4.3290    -0.1260 O.3   1 <1>  -0.3630 
 27 C       -7.1020    -3.0760     0.5810 C.ar  1 <1>   0.1600 
 28 C       -5.3580     4.9920    -1.1450 C.3   1 <1>   0.1200 
 29 C       -5.8370     6.3290    -0.5890 C.3   1 <1>  -0.2400 
 30 H       -0.8540     1.4390     0.9150 H     1 <1>   0.0800 
 31 H       -1.3690     2.0700    -0.6640 H     1 <1>   0.0800 
 32 H        0.8720     2.8960    -1.1240 H     1 <1>   0.0800 
 33 H        1.4510     2.2430     0.3880 H     1 <1>   0.0800 
 34 H       -0.0080     3.7540     1.5730 H     1 <1>   0.4500 
 35 H       -3.4340     0.4430     1.7090 H     1 <1>   0.1500 
 36 H       -3.3650     0.7140    -2.5590 H     1 <1>   0.1500 
 37 H       -1.8100     3.9670    -0.0380 H     1 <1>   0.0800 
 38 H       -0.7490     4.9610    -1.0090 H     1 <1>   0.0800 
 39 H        1.6490     5.2130    -0.3610 H     1 <1>   0.0800 
 40 H        2.2580     4.3860     1.0540 H     1 <1>   0.0800 
 41 H       -4.2720     2.7550     1.8270 H     1 <1>   0.1500 
 42 H       -4.2130     2.9940    -2.4340 H     1 <1>   0.1500 
 43 H       -4.0890    -3.9970     1.1690 H     1 <1>   0.1500 
 44 H       -5.4800    -0.8550    -1.3490 H     1 <1>   0.1500 
 45 H       -1.6890     5.5250     1.8110 H     1 <1>   0.0800 
 46 H       -2.1880     6.3570     0.3760 H     1 <1>   0.0800 
 47 H        1.8990     6.7920     1.4820 H     1 <1>   0.0800 
 48 H        0.9240     5.8030     2.5190 H     1 <1>   0.0800 
 49 H       -7.7660    -1.5000    -0.6950 H     1 <1>   0.1500 
 50 H       -0.4580     7.6250     1.6780 H     1 <1>   0.0800 
 51 H        0.0210     7.2950     0.0390 H     1 <1>   0.0800 
 52 H       -8.1060    -3.3510     0.8570 H     1 <1>   0.1500 
 53 H       -6.1960     4.3770    -1.4310 H     1 <1>   0.0800 
 54 H       -4.7060     5.1460    -1.9860 H     1 <1>   0.0800 
 55 H       -6.4800     6.1680     0.2580 H     1 <1>   0.0800 
 56 H       -6.3930     6.8570    -1.3420 H     1 <1>   0.0800 
 57 H       -4.9990     6.9340    -0.2950 H     1 <1>   0.0800 
@<TRIPOS>BOND
  1   1   2  1   
  2   1   3  1   
  3   2   4  2   
  4   2   5  1   
  5   3   6  1   
  6   3  30  1   
  7   3  31  1   
  8   4   7  1   
  9   5   8  1   
 10   5   9  1   
 11   6  10  1   
 12   6  32  1   
 13   6  33  1   
 14   7   9  2   
 15   8  11  ar  
 16   8  12  ar  
 17   9  13  1   
 18  10  14  1   
 19  10  15  1   
 20  10  34  1   
 21  11  16  ar  
 22  11  35  1   
 23  12  17  ar  
 24  12  36  1   
 25  13  18  ar  
 26  13  19  ar  
 27  14  20  1   
 28  14  37  1   
 29  14  38  1   
 30  15  21  1   
 31  15  39  1   
 32  15  40  1   
 33  16  22  ar  
 34  16  41  1   
 35  17  22  ar  
 36  17  42  1   
 37  18  23  ar  
 38  18  43  1   
 39  19  24  ar  
 40  19  44  1   
 41  20  25  1   
 42  20  45  1   
 43  20  46  1   
 44  21  25  1   
 45  21  47  1   
 46  21  48  1   
 47  22  26  1   
 48  23  27  ar  
 49  24  27  ar  
 50  24  49  1   
 51  25  50  1   
 52  25  51  1   
 53  26  28  1   
 54  27  52  1   
 55  28  29  1   
 56  28  53  1   
 57  28  54  1   
 58  29  55  1   
 59  29  56  1   
 60  29  57  1   
@<TRIPOS>SUBSTRUCTURE
  1 ****   8 GROUP 4 **** **** 0

# MOE 2024.06 (io_trps.svl 2023.06)
