@<TRIPOS>MOLECULE
ka-04807
26 26 1 0 0 
SMALL
USER_CHARGES


@<TRIPOS>ATOM
  1 CL      -2.2390    -2.3360     1.6760 Cl    1 <1>  -0.2900 
  2 C       -1.6430    -1.1210     0.5420 C.3   1 <1>   0.2710 
  3 C       -2.7500    -0.1170     0.2070 C.2   1 <1>   0.5690 
  4 C       -1.1160    -1.8690    -0.6880 C.3   1 <1>  -0.2400 
  5 O       -2.4240     0.9540    -0.2470 O.2   1 <1>  -0.5700 
  6 N       -4.0530    -0.4760     0.4370 N.am  1 <1>  -0.5470 
  7 C       -5.2640     0.1980     0.2090 C.ar  1 <1>   0.1170 
  8 C       -5.3920     1.2530    -0.6890 C.ar  1 <1>  -0.1500 
  9 C       -6.3960    -0.2180     0.9020 C.ar  1 <1>  -0.1500 
 10 C       -6.6120     1.8750    -0.8820 C.ar  1 <1>  -0.1500 
 11 C       -7.6200     0.3990     0.7120 C.ar  1 <1>  -0.1500 
 12 C       -7.7340     1.4560    -0.1860 C.ar  1 <1>   0.0830 
 13 O       -8.8940     2.1190    -0.4350 O.3   1 <1>  -0.3630 
 14 C      -10.0840     1.7800     0.2400 C.3   1 <1>   0.0400 
 15 H       -0.8400    -0.6020     1.0330 H     1 <1>   0.0800 
 16 H       -1.9130    -2.4120    -1.1650 H     1 <1>   0.0800 
 17 H       -0.3360    -2.5510    -0.4020 H     1 <1>   0.0800 
 18 H       -0.7140    -1.1650    -1.3940 H     1 <1>   0.0800 
 19 H       -4.1510    -1.3750     0.9140 H     1 <1>   0.3700 
 20 H       -4.5390     1.5970    -1.2450 H     1 <1>   0.1500 
 21 H       -6.3210    -1.0310     1.6010 H     1 <1>   0.1500 
 22 H       -6.7020     2.6910    -1.5760 H     1 <1>   0.1500 
 23 H       -8.4670     0.0470     1.2690 H     1 <1>   0.1500 
 24 H      -10.8620     2.4360    -0.1070 H     1 <1>   0.0800 
 25 H       -9.9360     1.9150     1.2970 H     1 <1>   0.0800 
 26 H      -10.3370     0.7600     0.0100 H     1 <1>   0.0800 
@<TRIPOS>BOND
  1   1   2  1   
  2   2   3  1   
  3   2   4  1   
  4   2  15  1   
  5   3   5  2   
  6   3   6  am  
  7   4  16  1   
  8   4  17  1   
  9   4  18  1   
 10   6   7  1   
 11   6  19  1   
 12   7   8  ar  
 13   7   9  ar  
 14   8  10  ar  
 15   8  20  1   
 16   9  11  ar  
 17   9  21  1   
 18  10  12  ar  
 19  10  22  1   
 20  11  12  ar  
 21  11  23  1   
 22  12  13  1   
 23  13  14  1   
 24  14  24  1   
 25  14  25  1   
 26  14  26  1   
@<TRIPOS>SUBSTRUCTURE
  1 ****   7 GROUP 4 **** **** 0

# MOE 2024.06 (io_trps.svl 2023.06)
