@<TRIPOS>MOLECULE
NONAME
40 43 1 0 0 
SMALL
USER_CHARGES


@<TRIPOS>ATOM
  1 S        0.0150    -0.1130     0.2450 S.3   1 <1>  -0.3320 
  2 C       -1.4910     0.8420     0.1310 C.ar  1 <1>   0.4120 
  3 C       -0.4430    -1.7700    -0.4770 C.3   1 <1>   0.1310 
  4 N       -2.5060     0.2430    -0.3920 N.ar  1 <1>  -0.6200 
  5 C       -1.4950     2.1660     0.6070 C.ar  1 <1>   0.0000 
  6 C        0.7290    -2.7400    -0.4650 C.2   1 <1>   0.5690 
  7 C       -3.6320     0.9730    -0.4670 C.ar  1 <1>   0.5880 
  8 C       -2.7220     2.8230     0.4710 C.ar  1 <1>   0.3100 
  9 C       -0.4120     2.8630     1.1860 C.ar  1 <1>  -0.1500 
 10 O        0.5470    -3.8510    -0.9030 O.2   1 <1>  -0.5700 
 11 N        1.9260    -2.3280     0.0340 N.am  1 <1>  -0.4930 
 12 N       -3.7850     2.1970    -0.0760 N.ar  1 <1>  -0.6200 
 13 C       -4.8240     0.2540    -1.0850 C.3   1 <1>  -0.0680 
 14 C       -2.8430     4.1490     0.9100 C.ar  1 <1>  -0.1500 
 15 C       -0.5530     4.1590     1.6090 C.ar  1 <1>  -0.1500 
 16 C        3.1370    -3.0040     0.1600 C.2   1 <1>   0.3520 
 17 C       -6.2230     0.4300    -0.5650 C.3   1 <1>  -0.2000 
 18 C       -5.5040    -0.8670    -0.3540 C.3   1 <1>  -0.2000 
 19 C       -1.7810     4.8110     1.4700 C.ar  1 <1>  -0.1500 
 20 N        4.1720    -2.4320     0.6670 N.2   1 <1>  -0.4100 
 21 C        3.4310    -4.3180    -0.2100 C.2   1 <1>  -0.1500 
 22 O        5.1290    -3.3270     0.6400 O.3   1 <1>  -0.0190 
 23 C        4.7200    -4.4570     0.1250 C.2   1 <1>  -0.0400 
 24 C        5.6780    -5.6230     0.0050 C.3   1 <1>  -0.0600 
 25 H       -0.7730    -1.5990    -1.4850 H     1 <1>   0.0800 
 26 H       -1.2540    -2.1600     0.1090 H     1 <1>   0.0800 
 27 H        0.5370     2.3690     1.2960 H     1 <1>   0.1500 
 28 H        1.9670    -1.3690     0.3800 H     1 <1>   0.3700 
 29 H       -4.7050     0.1490    -2.1480 H     1 <1>   0.1000 
 30 H       -3.7970     4.6310     0.7940 H     1 <1>   0.1500 
 31 H        0.2740     4.6890     2.0500 H     1 <1>   0.1500 
 32 H       -7.0310     0.4720    -1.2740 H     1 <1>   0.1000 
 33 H       -6.3800     1.0800     0.2780 H     1 <1>   0.1000 
 34 H       -5.1670    -1.1140     0.6380 H     1 <1>   0.1000 
 35 H       -5.8120    -1.7330    -0.9140 H     1 <1>   0.1000 
 36 H       -1.8800     5.8290     1.8060 H     1 <1>   0.1500 
 37 H        2.7530    -5.0200    -0.6570 H     1 <1>   0.1500 
 38 H        5.1810    -6.4670    -0.4370 H     1 <1>   0.0800 
 39 H        6.0390    -5.9000     0.9790 H     1 <1>   0.0800 
 40 H        6.5130    -5.3460    -0.6130 H     1 <1>   0.0800 
@<TRIPOS>BOND
  1   1   2  1   
  2   1   3  1   
  3   2   4  ar  
  4   2   5  ar  
  5   3   6  1   
  6   3  25  1   
  7   3  26  1   
  8   4   7  ar  
  9   5   8  ar  
 10   5   9  ar  
 11   6  10  2   
 12   6  11  am  
 13   7  12  ar  
 14   7  13  1   
 15   8  12  ar  
 16   8  14  ar  
 17   9  15  ar  
 18   9  27  1   
 19  11  16  1   
 20  11  28  1   
 21  13  17  1   
 22  13  18  1   
 23  13  29  1   
 24  14  19  ar  
 25  14  30  1   
 26  15  19  ar  
 27  15  31  1   
 28  16  20  2   
 29  16  21  1   
 30  17  18  1   
 31  17  32  1   
 32  17  33  1   
 33  18  34  1   
 34  18  35  1   
 35  19  36  1   
 36  20  22  1   
 37  21  23  2   
 38  21  37  1   
 39  22  23  1   
 40  23  24  1   
 41  24  38  1   
 42  24  39  1   
 43  24  40  1   
@<TRIPOS>SUBSTRUCTURE
  1 ****   1 GROUP 4 **** **** 0

# MOE 2024.06 (io_trps.svl 2023.06)
