@<TRIPOS>MOLECULE
2-Benzoylamino-4-methylsulfanyl-butyric acid methyl ester
35 35 1 0 0 
SMALL
USER_CHARGES


@<TRIPOS>ATOM
  1 S       -0.7590     0.0700     0.8280 S.3   1 <1>  -0.4600 
  2 C        0.3640     1.2630     0.0590 C.3   1 <1>   0.0700 
  3 C       -0.1600    -1.5210     0.2030 C.3   1 <1>  -0.0100 
  4 C       -0.0520     2.6610     0.5280 C.3   1 <1>  -0.1600 
  5 C        0.7940     3.7620    -0.1300 C.3   1 <1>   0.2810 
  6 N        2.2240     3.5500     0.2560 N.am  1 <1>  -0.7300 
  7 C        0.3020     5.1880     0.2160 C.2   1 <1>   0.6590 
  8 C        3.2490     3.3190    -0.6140 C.2   1 <1>   0.5440 
  9 O       -0.2710     5.4150     1.2500 O.2   1 <1>  -0.5700 
 10 O        0.5200     6.1870    -0.6410 O.3   1 <1>  -0.4300 
 11 O        2.9840     3.2670    -1.7990 O.2   1 <1>  -0.5700 
 12 C        4.6110     3.1360    -0.1390 C.ar  1 <1>   0.0860 
 13 C        1.3970     6.1400    -1.7500 C.3   1 <1>   0.0400 
 14 C        5.0540     3.6750     1.0720 C.ar  1 <1>  -0.1500 
 15 C        5.5350     2.4050    -0.8870 C.ar  1 <1>  -0.1500 
 16 C        6.3490     3.4830     1.5180 C.ar  1 <1>  -0.1500 
 17 C        6.8320     2.2100    -0.4480 C.ar  1 <1>  -0.1500 
 18 C        7.2410     2.7480     0.7580 C.ar  1 <1>  -0.1500 
 19 H        0.2700     1.1550    -1.0070 H     1 <1>   0.0800 
 20 H        1.3620     1.0120     0.3720 H     1 <1>   0.0800 
 21 H       -0.7870    -2.2910     0.6160 H     1 <1>   0.0800 
 22 H        0.8590    -1.6440     0.5240 H     1 <1>   0.0800 
 23 H       -0.2300    -1.5050    -0.8700 H     1 <1>   0.0800 
 24 H        0.0280     2.7280     1.5990 H     1 <1>   0.0800 
 25 H       -1.0840     2.8180     0.2670 H     1 <1>   0.0800 
 26 H        0.6890     3.6380    -1.1920 H     1 <1>   0.0800 
 27 H        2.4030     3.5700     1.2620 H     1 <1>   0.3700 
 28 H        1.3980     7.1090    -2.2160 H     1 <1>   0.0800 
 29 H        1.0520     5.4020    -2.4530 H     1 <1>   0.0800 
 30 H        2.3890     5.9040    -1.4070 H     1 <1>   0.0800 
 31 H        4.3840     4.2620     1.6740 H     1 <1>   0.1500 
 32 H        5.2270     1.9850    -1.8300 H     1 <1>   0.1500 
 33 H        6.6680     3.9070     2.4550 H     1 <1>   0.1500 
 34 H        7.5230     1.6400    -1.0450 H     1 <1>   0.1500 
 35 H        8.2500     2.5970     1.1030 H     1 <1>   0.1500 
@<TRIPOS>BOND
  1   1   2  1   
  2   1   3  1   
  3   2   4  1   
  4   2  19  1   
  5   2  20  1   
  6   3  21  1   
  7   3  22  1   
  8   3  23  1   
  9   4   5  1   
 10   4  24  1   
 11   4  25  1   
 12   5   6  1   
 13   5   7  1   
 14   5  26  1   
 15   6   8  am  
 16   6  27  1   
 17   7   9  2   
 18   7  10  1   
 19   8  11  2   
 20   8  12  1   
 21  10  13  1   
 22  12  14  ar  
 23  12  15  ar  
 24  13  28  1   
 25  13  29  1   
 26  13  30  1   
 27  14  16  ar  
 28  14  31  1   
 29  15  17  ar  
 30  15  32  1   
 31  16  18  ar  
 32  16  33  1   
 33  17  18  ar  
 34  17  34  1   
 35  18  35  1   
@<TRIPOS>SUBSTRUCTURE
  1 ****   6 GROUP 4 **** **** 0

# MOE 2024.06 (io_trps.svl 2023.06)
