@<TRIPOS>MOLECULE
NONAME
60 62 1 0 0 
SMALL
USER_CHARGES


@<TRIPOS>ATOM
  1 S        0.4510     0.7230    -1.0350 S.o2  1 <1>   1.4470 
  2 O        1.6350     0.2170    -1.7040 O.2   1 <1>  -0.6500 
  3 O        0.0240     2.0630    -1.3610 O.2   1 <1>  -0.6500 
  4 N        0.8620     0.7570     0.6180 N.am  1 <1>  -0.8490 
  5 C       -0.9330    -0.4490    -1.1350 C.ar  1 <1>  -0.0090 
  6 C        1.3390     2.0810     1.0750 C.3   1 <1>   0.1960 
  7 C        1.8190    -0.2980     1.0350 C.3   1 <1>   0.1960 
  8 C       -2.0210    -0.3500    -0.2770 C.ar  1 <1>  -0.1500 
  9 C       -0.9530    -1.4670    -2.0800 C.ar  1 <1>  -0.1500 
 10 C        2.6960     2.4820     0.4400 C.3   1 <1>   0.3430 
 11 C        3.3190     0.1050     0.9050 C.3   1 <1>   0.3430 
 12 C       -3.0810    -1.2370    -0.3570 C.ar  1 <1>  -0.1500 
 13 C       -2.0140    -2.3540    -2.1590 C.ar  1 <1>  -0.1500 
 14 N        3.5210     1.2910     0.0040 N.4   1 <1>  -0.9590 
 15 C       -3.0990    -2.2600    -1.2960 C.ar  1 <1>  -0.0090 
 16 C        4.9540     1.5490    -0.3120 C.3   1 <1>   0.4230 
 17 S       -4.5010    -3.4160    -1.4040 S.o2  1 <1>   1.4470 
 18 C        5.6980     2.2270     0.8400 C.3   1 <1>  -0.1600 
 19 C        5.0850     2.5250    -1.4780 C.3   1 <1>  -0.1600 
 20 O       -4.0920    -4.6230    -2.0920 O.2   1 <1>  -0.6500 
 21 O       -5.6390    -2.6820    -1.9160 O.2   1 <1>  -0.6500 
 22 N       -4.8120    -3.8240     0.2220 N.am  1 <1>  -0.8490 
 23 C        5.7090     3.7370     0.5610 C.3   1 <1>  -0.1600 
 24 C        5.2230     3.9290    -0.8790 C.3   1 <1>  -0.1600 
 25 C       -6.2410    -3.9720     0.5110 C.3   1 <1>   0.1960 
 26 C       -4.0550    -4.9800     0.7180 C.3   1 <1>   0.1960 
 27 C       -6.7760    -2.6480     1.0490 C.3   1 <1>  -0.2400 
 28 C       -2.5690    -4.6550     0.8500 C.3   1 <1>  -0.2400 
 29 H        1.4550     2.0560     2.1450 H     1 <1>   0.0800 
 30 H        0.6030     2.8410     0.8690 H     1 <1>   0.0800 
 31 H        1.6290    -0.5480     2.0650 H     1 <1>   0.0800 
 32 H        1.6390    -1.1970     0.4680 H     1 <1>   0.0800 
 33 H       -2.0440     0.4340     0.4620 H     1 <1>   0.1500 
 34 H       -0.1310    -1.5710    -2.7710 H     1 <1>   0.1500 
 35 H        2.5020     3.1070    -0.4170 H     1 <1>   0.0800 
 36 H        3.2430     3.0740     1.1530 H     1 <1>   0.0800 
 37 H        3.8750    -0.7400     0.5340 H     1 <1>   0.0800 
 38 H        3.6990     0.3360     1.8860 H     1 <1>   0.0800 
 39 H       -3.9140    -1.1370     0.3200 H     1 <1>   0.1500 
 40 H       -2.0040    -3.1330    -2.9040 H     1 <1>   0.1500 
 41 H        3.0890     0.9900    -0.8940 H     1 <1>   0.4500 
 42 H        5.4310     0.6170    -0.5680 H     1 <1>   0.0800 
 43 H        6.7180     1.8810     0.8200 H     1 <1>   0.0800 
 44 H        5.2900     1.9940     1.8070 H     1 <1>   0.0800 
 45 H        5.9990     2.2950    -1.9980 H     1 <1>   0.0800 
 46 H        4.2740     2.4530    -2.1830 H     1 <1>   0.0800 
 47 H        6.7070     4.1280     0.6750 H     1 <1>   0.0800 
 48 H        5.0660     4.2640     1.2460 H     1 <1>   0.0800 
 49 H        4.2730     4.4350    -0.8850 H     1 <1>   0.0800 
 50 H        5.9200     4.5220    -1.4490 H     1 <1>   0.0800 
 51 H       -6.4060    -4.7240     1.2640 H     1 <1>   0.0800 
 52 H       -6.7850    -4.2740    -0.3710 H     1 <1>   0.0800 
 53 H       -4.2010    -5.8340     0.0760 H     1 <1>   0.0800 
 54 H       -4.4100    -5.2410     1.7010 H     1 <1>   0.0800 
 55 H       -6.2370    -2.3630     1.9340 H     1 <1>   0.0800 
 56 H       -7.8150    -2.7550     1.3000 H     1 <1>   0.0800 
 57 H       -6.6880    -1.8710     0.3110 H     1 <1>   0.0800 
 58 H       -2.1030    -4.5720    -0.1150 H     1 <1>   0.0800 
 59 H       -2.0790    -5.4520     1.3790 H     1 <1>   0.0800 
 60 H       -2.4330    -3.7450     1.4050 H     1 <1>   0.0800 
@<TRIPOS>BOND
  1   1   2  2   
  2   1   3  2   
  3   1   4  am  
  4   1   5  1   
  5   4   6  1   
  6   4   7  1   
  7   5   8  ar  
  8   5   9  ar  
  9   6  10  1   
 10   6  29  1   
 11   6  30  1   
 12   7  11  1   
 13   7  31  1   
 14   7  32  1   
 15   8  12  ar  
 16   8  33  1   
 17   9  13  ar  
 18   9  34  1   
 19  10  14  1   
 20  10  35  1   
 21  10  36  1   
 22  11  14  1   
 23  11  37  1   
 24  11  38  1   
 25  12  15  ar  
 26  12  39  1   
 27  13  15  ar  
 28  13  40  1   
 29  14  16  1   
 30  14  41  1   
 31  15  17  1   
 32  16  18  1   
 33  16  19  1   
 34  16  42  1   
 35  17  20  2   
 36  17  21  2   
 37  17  22  am  
 38  18  23  1   
 39  18  43  1   
 40  18  44  1   
 41  19  24  1   
 42  19  45  1   
 43  19  46  1   
 44  22  25  1   
 45  22  26  1   
 46  23  24  1   
 47  23  47  1   
 48  23  48  1   
 49  24  49  1   
 50  24  50  1   
 51  25  27  1   
 52  25  51  1   
 53  25  52  1   
 54  26  28  1   
 55  26  53  1   
 56  26  54  1   
 57  27  55  1   
 58  27  56  1   
 59  27  57  1   
 60  28  58  1   
 61  28  59  1   
 62  28  60  1   
@<TRIPOS>SUBSTRUCTURE
  1 ****   5 GROUP 4 **** **** 0

# MOE 2024.06 (io_trps.svl 2023.06)
