@<TRIPOS>MOLECULE
4-(4-Fluoro-benzoylamino)-piperidine-1-carboxylic acid benzylamide
48 50 1 0 0 
SMALL
USER_CHARGES


@<TRIPOS>ATOM
  1 F       -2.1900     1.2600     2.1530 F     1 <1>  -0.1900 
  2 C       -3.0920     0.5820     1.5010 C.ar  1 <1>   0.1900 
  3 C       -4.4260     0.8760     1.7040 C.ar  1 <1>  -0.1500 
  4 C       -2.6860    -0.4080     0.6280 C.ar  1 <1>  -0.1500 
  5 C       -5.3790     0.1510     1.0090 C.ar  1 <1>  -0.1500 
  6 C       -3.6530    -1.1230    -0.0570 C.ar  1 <1>  -0.1500 
  7 C       -5.0180    -0.8690     0.1200 C.ar  1 <1>   0.0860 
  8 C       -6.0120    -1.6430    -0.6040 C.2   1 <1>   0.5440 
  9 O       -5.7500    -2.1330    -1.6840 O.2   1 <1>  -0.5700 
 10 N       -7.2580    -1.8460    -0.0790 N.am  1 <1>  -0.7300 
 11 C       -8.3390    -2.6160    -0.7180 C.3   1 <1>   0.2200 
 12 C       -9.4550    -1.6540    -1.1310 C.3   1 <1>  -0.1600 
 13 C       -8.8470    -3.6720     0.2650 C.3   1 <1>  -0.1600 
 14 C      -10.6430    -2.4280    -1.7040 C.3   1 <1>   0.1400 
 15 C      -10.0530    -4.4180    -0.3110 C.3   1 <1>   0.1400 
 16 N      -11.0970    -3.4330    -0.7040 N.am  1 <1>  -0.6600 
 17 C      -12.3730    -3.5160    -0.2060 C.2   1 <1>   0.6900 
 18 O      -12.7340    -4.4830     0.4370 O.2   1 <1>  -0.5700 
 19 N      -13.2380    -2.4990    -0.4140 N.am  1 <1>  -0.7300 
 20 C      -14.5510    -2.3870     0.2340 C.3   1 <1>   0.2840 
 21 C      -14.8440    -0.9090     0.4150 C.ar  1 <1>  -0.1430 
 22 C      -14.3600    -0.2360     1.5270 C.ar  1 <1>  -0.1500 
 23 C      -15.5850    -0.2160    -0.5300 C.ar  1 <1>  -0.1500 
 24 C      -14.6160     1.1140     1.6940 C.ar  1 <1>  -0.1500 
 25 C      -15.8420     1.1340    -0.3640 C.ar  1 <1>  -0.1500 
 26 C      -15.3580     1.7990     0.7480 C.ar  1 <1>  -0.1500 
 27 H       -4.7040     1.6580     2.3880 H     1 <1>   0.1500 
 28 H       -1.6390    -0.6090     0.4890 H     1 <1>   0.1500 
 29 H       -6.4180     0.3870     1.1540 H     1 <1>   0.1500 
 30 H       -3.3540    -1.8960    -0.7450 H     1 <1>   0.1500 
 31 H       -7.4670    -1.5110     0.8600 H     1 <1>   0.3700 
 32 H       -7.9630    -3.1130    -1.5980 H     1 <1>   0.0800 
 33 H       -9.0810    -0.9780    -1.8780 H     1 <1>   0.0800 
 34 H       -9.7880    -1.0830    -0.2830 H     1 <1>   0.0800 
 35 H       -9.1440    -3.2110     1.1900 H     1 <1>   0.0800 
 36 H       -8.0640    -4.3790     0.4700 H     1 <1>   0.0800 
 37 H      -10.3430    -2.9430    -2.6010 H     1 <1>   0.0800 
 38 H      -11.4320    -1.7470    -1.9660 H     1 <1>   0.0800 
 39 H      -10.4330    -5.1080     0.4230 H     1 <1>   0.0800 
 40 H       -9.7610    -4.9840    -1.1790 H     1 <1>   0.0800 
 41 H      -12.8590    -1.6120    -0.7280 H     1 <1>   0.3700 
 42 H      -14.5400    -2.8870     1.1880 H     1 <1>   0.0800 
 43 H      -15.2980    -2.8500    -0.3870 H     1 <1>   0.0800 
 44 H      -13.7810    -0.7640     2.2660 H     1 <1>   0.1500 
 45 H      -15.9640    -0.7250    -1.4000 H     1 <1>   0.1500 
 46 H      -14.2390     1.6300     2.5600 H     1 <1>   0.1500 
 47 H      -16.4190     1.6660    -1.1000 H     1 <1>   0.1500 
 48 H      -15.5580     2.8490     0.8770 H     1 <1>   0.1500 
@<TRIPOS>BOND
  1   1   2  1   
  2   2   3  ar  
  3   2   4  ar  
  4   3   5  ar  
  5   3  27  1   
  6   4   6  ar  
  7   4  28  1   
  8   5   7  ar  
  9   5  29  1   
 10   6   7  ar  
 11   6  30  1   
 12   7   8  1   
 13   8   9  2   
 14   8  10  am  
 15  10  11  1   
 16  10  31  1   
 17  11  12  1   
 18  11  13  1   
 19  11  32  1   
 20  12  14  1   
 21  12  33  1   
 22  12  34  1   
 23  13  15  1   
 24  13  35  1   
 25  13  36  1   
 26  14  16  1   
 27  14  37  1   
 28  14  38  1   
 29  15  16  1   
 30  15  39  1   
 31  15  40  1   
 32  16  17  am  
 33  17  18  2   
 34  17  19  am  
 35  19  20  1   
 36  19  41  1   
 37  20  21  1   
 38  20  42  1   
 39  20  43  1   
 40  21  22  ar  
 41  21  23  ar  
 42  22  24  ar  
 43  22  44  1   
 44  23  25  ar  
 45  23  45  1   
 46  24  26  ar  
 47  24  46  1   
 48  25  26  ar  
 49  25  47  1   
 50  26  48  1   
@<TRIPOS>SUBSTRUCTURE
  1 ****  12 GROUP 4 **** **** 0

# MOE 2024.06 (io_trps.svl 2023.06)
