@<TRIPOS>MOLECULE
[1,2,3]Thiadiazole-4-carboxylic acid (tert-butylcarbamoyl-furan-2-yl-methyl)-(5-chloro-2-methyl-phenyl)-amid
50 52 1 0 0 
SMALL
USER_CHARGES


@<TRIPOS>ATOM
  1 CL      -3.0390    -0.8040    -2.5830 Cl    1 <1>  -0.1770 
  2 C       -3.5620     0.0900    -1.1790 C.ar  1 <1>   0.1770 
  3 C       -3.5910     1.4670    -1.2260 C.ar  1 <1>  -0.1500 
  4 C       -3.9400    -0.5970    -0.0430 C.ar  1 <1>  -0.1500 
  5 C       -4.0040     2.1950    -0.1150 C.ar  1 <1>   0.1170 
  6 C       -4.3560     0.1180     1.0660 C.ar  1 <1>  -0.1500 
  7 N       -4.0180     3.6000    -0.2020 N.am  1 <1>  -0.4770 
  8 C       -4.3920     1.5050     1.0400 C.ar  1 <1>  -0.1430 
  9 C       -2.8560     4.3540    -0.1980 C.2   1 <1>   0.7160 
 10 C       -5.2880     4.2620    -0.6860 C.3   1 <1>   0.4610 
 11 C       -4.8490     2.2370     2.2940 C.3   1 <1>  -0.0960 
 12 O       -2.8850     5.4740    -0.6750 O.2   1 <1>  -0.5700 
 13 C       -1.5920     3.8680     0.3300 C.2   1 <1>   0.1410 
 14 C       -5.9070     5.1130     0.4310 C.2   1 <1>  -0.0400 
 15 C       -6.2980     3.2620    -1.2900 C.2   1 <1>   0.5690 
 16 N       -1.5370     3.0100     1.4260 N.2   1 <1>  -0.2270 
 17 C       -0.3750     4.2010    -0.1340 C.2   1 <1>  -0.1100 
 18 O       -7.1270     5.5940     0.2620 O.3   1 <1>  -0.2800 
 19 C       -5.4200     5.5120     1.6300 C.2   1 <1>  -0.1500 
 20 O       -6.1850     2.9850    -2.4630 O.2   1 <1>  -0.5700 
 21 N       -7.2690     2.7050    -0.5020 N.am  1 <1>  -0.7300 
 22 N       -0.3840     2.6740     1.8010 N.2   1 <1>  -0.2210 
 23 S        0.7980     3.3960     0.8290 S.3   1 <1>   0.1810 
 24 C       -7.4430     6.2920     1.3330 C.2   1 <1>  -0.0100 
 25 C       -6.4290     6.2800     2.2220 C.2   1 <1>  -0.1500 
 26 C       -8.2520     1.6730    -0.8300 C.3   1 <1>   0.3000 
 27 C       -9.2060     2.1980    -1.9030 C.3   1 <1>  -0.2400 
 28 C       -9.0260     1.3940     0.4570 C.3   1 <1>  -0.2400 
 29 C       -7.5380     0.4010    -1.2850 C.3   1 <1>  -0.2400 
 30 H       -3.3020     1.9690    -2.1310 H     1 <1>   0.1500 
 31 H       -3.9070    -1.6710    -0.0310 H     1 <1>   0.1500 
 32 H       -4.6490    -0.4190     1.9520 H     1 <1>   0.1500 
 33 H       -5.0450     4.9310    -1.4920 H     1 <1>   0.0800 
 34 H       -4.1240     2.9790     2.5750 H     1 <1>   0.0800 
 35 H       -4.9590     1.5570     3.1190 H     1 <1>   0.0800 
 36 H       -5.7960     2.7130     2.1210 H     1 <1>   0.0800 
 37 H       -0.0500     4.8370    -0.9360 H     1 <1>   0.1500 
 38 H       -4.4610     5.3140     2.0740 H     1 <1>   0.1500 
 39 H       -7.3960     3.0990     0.4300 H     1 <1>   0.3700 
 40 H       -8.4080     6.7660     1.3790 H     1 <1>   0.1500 
 41 H       -6.3720     6.7540     3.1870 H     1 <1>   0.1500 
 42 H       -8.6790     2.3730    -2.8230 H     1 <1>   0.0800 
 43 H       -9.6640     3.1160    -1.5840 H     1 <1>   0.0800 
 44 H       -9.9790     1.4770    -2.0960 H     1 <1>   0.0800 
 45 H       -9.5270     2.2820     0.7990 H     1 <1>   0.0800 
 46 H       -8.3620     1.0410     1.2260 H     1 <1>   0.0800 
 47 H       -9.7680     0.6360     0.2820 H     1 <1>   0.0800 
 48 H       -7.0060     0.5690    -2.2030 H     1 <1>   0.0800 
 49 H       -8.2520    -0.3830    -1.4570 H     1 <1>   0.0800 
 50 H       -6.8440     0.0710    -0.5350 H     1 <1>   0.0800 
@<TRIPOS>BOND
  1   1   2  1   
  2   2   3  ar  
  3   2   4  ar  
  4   3   5  ar  
  5   3  30  1   
  6   4   6  ar  
  7   4  31  1   
  8   5   7  1   
  9   5   8  ar  
 10   6   8  ar  
 11   6  32  1   
 12   7   9  am  
 13   7  10  1   
 14   8  11  1   
 15   9  12  2   
 16   9  13  1   
 17  10  14  1   
 18  10  15  1   
 19  10  33  1   
 20  11  34  1   
 21  11  35  1   
 22  11  36  1   
 23  13  16  1   
 24  13  17  2   
 25  14  18  1   
 26  14  19  2   
 27  15  20  2   
 28  15  21  am  
 29  16  22  2   
 30  17  23  1   
 31  17  37  1   
 32  18  24  1   
 33  19  25  1   
 34  19  38  1   
 35  21  26  1   
 36  21  39  1   
 37  22  23  1   
 38  24  25  2   
 39  24  40  1   
 40  25  41  1   
 41  26  27  1   
 42  26  28  1   
 43  26  29  1   
 44  27  42  1   
 45  27  43  1   
 46  27  44  1   
 47  28  45  1   
 48  28  46  1   
 49  28  47  1   
 50  29  48  1   
 51  29  49  1   
 52  29  50  1   
@<TRIPOS>SUBSTRUCTURE
  1 ****   7 GROUP 4 **** **** 0

# MOE 2024.06 (io_trps.svl 2023.06)
