@<TRIPOS>MOLECULE
2-[4-(2,3-Dihydro-benzo[1,4]dioxine-6-carbonyl)-piperidin-1-yl]-N-(4-fluoro-benzyl)-acetamide
56 59 1 0 0 
SMALL
USER_CHARGES


@<TRIPOS>ATOM
  1 F        0.6390    -0.9600     0.5000 F     1 <1>  -0.1900 
  2 C        1.8090    -1.5170     0.3440 C.ar  1 <1>   0.1900 
  3 C        2.4490    -1.3940    -0.8730 C.ar  1 <1>  -0.1500 
  4 C        2.3640    -2.2090     1.4030 C.ar  1 <1>  -0.1500 
  5 C        3.6920    -1.9850    -1.0320 C.ar  1 <1>  -0.1500 
  6 C        3.6070    -2.7960     1.2340 C.ar  1 <1>  -0.1500 
  7 C        4.2740    -2.6850     0.0190 C.ar  1 <1>  -0.1430 
  8 C        5.6420    -3.3150    -0.1610 C.3   1 <1>   0.2840 
  9 N        6.6440    -2.2780     0.1570 N.am  1 <1>  -0.7300 
 10 C        7.8400    -2.1530    -0.4750 C.2   1 <1>   0.5690 
 11 O        8.2070    -2.9590    -1.2970 O.2   1 <1>  -0.5700 
 12 C        8.7810    -0.9760    -0.1550 C.3   1 <1>   0.4040 
 13 N       10.2120    -1.2040    -0.5950 N.4   1 <1>  -0.9590 
 14 C       10.8590    -2.3060     0.1750 C.3   1 <1>   0.3430 
 15 C       11.0140     0.0490    -0.6060 C.3   1 <1>   0.3430 
 16 C       12.2270    -2.6170    -0.4280 C.3   1 <1>  -0.1600 
 17 C       12.3810    -0.2290    -1.2260 C.3   1 <1>  -0.1600 
 18 C       13.1280    -1.3710    -0.5080 C.3   1 <1>  -0.0190 
 19 C       14.4450    -1.7040    -1.2220 C.2   1 <1>   0.4230 
 20 O       14.3860    -1.8650    -2.4140 O.2   1 <1>  -0.5700 
 21 C       15.6830    -1.7940    -0.4800 C.ar  1 <1>   0.0860 
 22 C       16.8910    -1.4780    -1.1080 C.ar  1 <1>  -0.1500 
 23 C       15.7450    -2.1900     0.8630 C.ar  1 <1>  -0.1500 
 24 C       18.0930    -1.5290    -0.4300 C.ar  1 <1>   0.0830 
 25 C       16.9450    -2.2520     1.5480 C.ar  1 <1>  -0.1500 
 26 O       19.2300    -1.1810    -1.0840 O.3   1 <1>  -0.3630 
 27 C       18.1250    -1.9250     0.9070 C.ar  1 <1>   0.0830 
 28 C       20.3730    -0.9230    -0.2890 C.3   1 <1>   0.1200 
 29 O       19.2890    -2.0050     1.5880 O.3   1 <1>  -0.3630 
 30 C       20.4870    -1.9620     0.8350 C.3   1 <1>   0.1200 
 31 H        1.9830    -0.8500    -1.6740 H     1 <1>   0.1500 
 32 H        1.8320    -2.2840     2.3350 H     1 <1>   0.1500 
 33 H        4.2020    -1.8980    -1.9760 H     1 <1>   0.1500 
 34 H        4.0480    -3.3400     2.0520 H     1 <1>   0.1500 
 35 H        5.7650    -3.6630    -1.1730 H     1 <1>   0.0800 
 36 H        5.7610    -4.1530     0.5060 H     1 <1>   0.0800 
 37 H        6.2800    -1.5770     0.8090 H     1 <1>   0.3700 
 38 H        8.7530    -0.7890     0.9050 H     1 <1>   0.0800 
 39 H        8.3900    -0.1080    -0.6570 H     1 <1>   0.0800 
 40 H       10.1430    -1.5590    -1.5650 H     1 <1>   0.4500 
 41 H       10.2450    -3.1930     0.1350 H     1 <1>   0.0800 
 42 H       10.9740    -2.0160     1.2070 H     1 <1>   0.0800 
 43 H       11.1420     0.4130     0.4010 H     1 <1>   0.0800 
 44 H       10.5100     0.8080    -1.1830 H     1 <1>   0.0800 
 45 H       12.0890    -3.0310    -1.4130 H     1 <1>   0.0800 
 46 H       12.7080    -3.3740     0.1670 H     1 <1>   0.0800 
 47 H       12.9760     0.6670    -1.1860 H     1 <1>   0.0800 
 48 H       12.2450    -0.4710    -2.2670 H     1 <1>   0.0800 
 49 H       13.3450    -1.0340     0.4900 H     1 <1>   0.0800 
 50 H       16.8920    -1.1830    -2.1430 H     1 <1>   0.1500 
 51 H       14.8510    -2.4700     1.3880 H     1 <1>   0.1500 
 52 H       16.9810    -2.5580     2.5790 H     1 <1>   0.1500 
 53 H       20.2770     0.0650     0.1230 H     1 <1>   0.0800 
 54 H       21.2360    -0.9560    -0.9300 H     1 <1>   0.0800 
 55 H       21.2910    -1.7160     1.5040 H     1 <1>   0.0800 
 56 H       20.6570    -2.9410     0.4230 H     1 <1>   0.0800 
@<TRIPOS>BOND
  1   1   2  1   
  2   2   3  ar  
  3   2   4  ar  
  4   3   5  ar  
  5   3  31  1   
  6   4   6  ar  
  7   4  32  1   
  8   5   7  ar  
  9   5  33  1   
 10   6   7  ar  
 11   6  34  1   
 12   7   8  1   
 13   8   9  1   
 14   8  35  1   
 15   8  36  1   
 16   9  10  am  
 17   9  37  1   
 18  10  11  2   
 19  10  12  1   
 20  12  13  1   
 21  12  38  1   
 22  12  39  1   
 23  13  14  1   
 24  13  15  1   
 25  13  40  1   
 26  14  16  1   
 27  14  41  1   
 28  14  42  1   
 29  15  17  1   
 30  15  43  1   
 31  15  44  1   
 32  16  18  1   
 33  16  45  1   
 34  16  46  1   
 35  17  18  1   
 36  17  47  1   
 37  17  48  1   
 38  18  19  1   
 39  18  49  1   
 40  19  20  2   
 41  19  21  1   
 42  21  22  ar  
 43  21  23  ar  
 44  22  24  ar  
 45  22  50  1   
 46  23  25  ar  
 47  23  51  1   
 48  24  26  1   
 49  24  27  ar  
 50  25  27  ar  
 51  25  52  1   
 52  26  28  1   
 53  27  29  1   
 54  28  30  1   
 55  28  53  1   
 56  28  54  1   
 57  29  30  1   
 58  30  55  1   
 59  30  56  1   
@<TRIPOS>SUBSTRUCTURE
  1 ****  14 GROUP 4 **** **** 0

# MOE 2024.06 (io_trps.svl 2023.06)
