@<TRIPOS>MOLECULE
NONAME
56 59 1 0 0 
SMALL
USER_CHARGES


@<TRIPOS>ATOM
  1 F       -2.2130     0.5440     2.9300 F     1 <1>  -0.1900 
  2 C       -2.0570    -0.1120     1.8130 C.ar  1 <1>   0.1900 
  3 C       -2.1150     0.5710     0.5990 C.ar  1 <1>   0.0860 
  4 C       -1.8330    -1.4730     1.9060 C.ar  1 <1>  -0.1500 
  5 C       -2.3760     1.9930     0.4970 C.2   1 <1>   0.5440 
  6 C       -1.8980    -0.1930    -0.5500 C.ar  1 <1>  -0.1500 
  7 C       -1.6420    -2.2020     0.7470 C.ar  1 <1>  -0.1500 
  8 O       -1.7110     2.6880    -0.2360 O.2   1 <1>  -0.5700 
  9 N       -3.3880     2.6480     1.1330 N.am  1 <1>  -0.7300 
 10 C       -1.6710    -1.5580    -0.4800 C.ar  1 <1>  -0.1500 
 11 C       -4.6630     2.1480     1.7030 C.3   1 <1>   0.2200 
 12 C       -5.3850     1.2140     0.6400 C.3   1 <1>  -0.1600 
 13 C       -5.5050     3.4230     2.0670 C.3   1 <1>  -0.1600 
 14 C       -5.9910     1.9730    -0.5990 C.3   1 <1>   0.4230 
 15 C       -6.5180     3.5830     0.9530 C.3   1 <1>   0.4230 
 16 N       -5.7830     3.3790    -0.3110 N.4   1 <1>  -0.9590 
 17 C       -7.5240     1.8190    -0.8840 C.3   1 <1>  -0.1600 
 18 C       -7.9690     3.9250     0.6930 C.3   1 <1>  -0.1600 
 19 C       -5.9370     4.3600    -1.4170 C.3   1 <1>   0.4860 
 20 C       -8.5450     2.6600    -0.0240 C.3   1 <1>  -0.1600 
 21 C       -5.0410     5.5340    -1.0800 C.ar  1 <1>  -0.1430 
 22 C       -5.5920     6.7650    -0.7420 C.ar  1 <1>   0.0830 
 23 C       -3.6620     5.3780    -1.1020 C.ar  1 <1>  -0.1500 
 24 O       -6.9450     6.8710    -0.7650 O.3   1 <1>  -0.3620 
 25 C       -4.7530     7.8240    -0.4040 C.ar  1 <1>  -0.1500 
 26 C       -2.8350     6.4340    -0.7640 C.ar  1 <1>  -0.1500 
 27 C       -7.5880     8.1150    -0.5820 C.3   1 <1>   0.0400 
 28 C       -3.3810     7.6550    -0.4130 C.ar  1 <1>  -0.1500 
 29 H       -1.8010    -1.9510     2.8700 H     1 <1>   0.1500 
 30 H       -1.9020     0.2950    -1.5100 H     1 <1>   0.1500 
 31 H       -1.4630    -3.2640     0.7960 H     1 <1>   0.1500 
 32 H       -3.1550     3.6250     1.3480 H     1 <1>   0.3700 
 33 H       -1.5090    -2.1240    -1.3830 H     1 <1>   0.1500 
 34 H       -4.4450     1.5940     2.6010 H     1 <1>   0.0800 
 35 H       -6.1850     0.6980     1.1430 H     1 <1>   0.0800 
 36 H       -4.7300     0.4380     0.2950 H     1 <1>   0.0800 
 37 H       -4.9110     4.3120     2.1940 H     1 <1>   0.0800 
 38 H       -6.0390     3.2470     2.9850 H     1 <1>   0.0800 
 39 H       -5.4310     1.6950    -1.4780 H     1 <1>   0.0800 
 40 H       -6.8750     2.6150     1.2370 H     1 <1>   0.0800 
 41 H       -4.7850     3.4530    -0.0580 H     1 <1>   0.4500 
 42 H       -7.7870     0.7770    -0.8300 H     1 <1>   0.0800 
 43 H       -7.6730     2.0970    -1.9130 H     1 <1>   0.0800 
 44 H       -8.0860     4.8140     0.1070 H     1 <1>   0.0800 
 45 H       -8.4830     4.0820     1.6250 H     1 <1>   0.0800 
 46 H       -6.9610     4.6680    -1.5340 H     1 <1>   0.0800 
 47 H       -5.6030     3.9270    -2.3450 H     1 <1>   0.0800 
 48 H       -8.9280     2.0050     0.7420 H     1 <1>   0.0800 
 49 H       -9.3930     2.9400    -0.6280 H     1 <1>   0.0800 
 50 H       -3.2080     4.4420    -1.3830 H     1 <1>   0.1500 
 51 H       -5.1440     8.7870    -0.1320 H     1 <1>   0.1500 
 52 H       -1.7650     6.3040    -0.7790 H     1 <1>   0.1500 
 53 H       -8.6470     7.9680    -0.7010 H     1 <1>   0.0800 
 54 H       -7.2320     8.8070    -1.3250 H     1 <1>   0.0800 
 55 H       -7.3800     8.4770     0.4100 H     1 <1>   0.0800 
 56 H       -2.7330     8.4750    -0.1510 H     1 <1>   0.1500 
@<TRIPOS>BOND
  1   1   2  1   
  2   2   3  ar  
  3   2   4  ar  
  4   3   5  1   
  5   3   6  ar  
  6   4   7  ar  
  7   4  29  1   
  8   5   8  2   
  9   5   9  am  
 10   6  10  ar  
 11   6  30  1   
 12   7  10  ar  
 13   7  31  1   
 14   9  11  1   
 15   9  32  1   
 16  10  33  1   
 17  11  12  1   
 18  11  13  1   
 19  11  34  1   
 20  12  14  1   
 21  12  35  1   
 22  12  36  1   
 23  13  15  1   
 24  13  37  1   
 25  13  38  1   
 26  14  16  1   
 27  14  17  1   
 28  14  39  1   
 29  15  16  1   
 30  15  18  1   
 31  15  40  1   
 32  16  19  1   
 33  16  41  1   
 34  17  20  1   
 35  17  42  1   
 36  17  43  1   
 37  18  20  1   
 38  18  44  1   
 39  18  45  1   
 40  19  21  1   
 41  19  46  1   
 42  19  47  1   
 43  20  48  1   
 44  20  49  1   
 45  21  22  ar  
 46  21  23  ar  
 47  22  24  1   
 48  22  25  ar  
 49  23  26  ar  
 50  23  50  1   
 51  24  27  1   
 52  25  28  ar  
 53  25  51  1   
 54  26  28  ar  
 55  26  52  1   
 56  27  53  1   
 57  27  54  1   
 58  27  55  1   
 59  28  56  1   
@<TRIPOS>SUBSTRUCTURE
  1 ****  16 GROUP 4 **** **** 0

# MOE 2024.06 (io_trps.svl 2023.06)
