@<TRIPOS>MOLECULE
3800
53 55 1 0 0 
SMALL
USER_CHARGES


@<TRIPOS>ATOM
  1 O       -0.5240    -3.2340     1.9790 O.2   1 <1>  -0.5700 
  2 C       -0.5390    -3.1470     0.7680 C.2   1 <1>   0.6340 
  3 O        0.5700    -2.7620     0.1300 O.3   1 <1>  -0.4300 
  4 C       -1.7090    -3.4530    -0.0310 C.ar  1 <1>   0.0860 
  5 C        1.7620    -2.4150     0.8030 C.3   1 <1>   0.2000 
  6 C       -1.6850    -3.4380    -1.4290 C.ar  1 <1>  -0.1500 
  7 C       -2.9260    -3.7850     0.5720 C.ar  1 <1>  -0.1500 
  8 C        1.6680    -0.9530     1.2630 C.3   1 <1>  -0.1600 
  9 C        2.9240    -2.6200    -0.1740 C.3   1 <1>  -0.1600 
 10 C       -2.8030    -3.7520    -2.1780 C.ar  1 <1>  -0.1500 
 11 C       -4.0460    -4.0960    -0.1740 C.ar  1 <1>  -0.1500 
 12 C        2.9950    -0.4780     1.8730 C.3   1 <1>  -0.1600 
 13 C        4.2520    -2.1480     0.4370 C.3   1 <1>  -0.1600 
 14 C       -3.9980    -4.1010    -1.5640 C.ar  1 <1>   0.1170 
 15 C        4.1610    -0.6860     0.8970 C.3   1 <1>  -0.1600 
 16 N       -5.1030    -4.4430    -2.3410 N.am  1 <1>  -0.5470 
 17 C       -6.0690    -5.3990    -2.1700 C.2   1 <1>   0.5440 
 18 O       -7.0270    -5.3170    -2.9070 O.2   1 <1>  -0.5700 
 19 C       -5.9760    -6.4580    -1.1810 C.ar  1 <1>   0.0860 
 20 C       -4.7680    -7.0870    -0.8770 C.ar  1 <1>  -0.1500 
 21 C       -7.1070    -6.8870    -0.4890 C.ar  1 <1>  -0.1500 
 22 C       -4.6640    -8.0600     0.1070 C.ar  1 <1>   0.0830 
 23 C       -7.0290    -7.8770     0.4730 C.ar  1 <1>  -0.1500 
 24 O       -3.4410    -8.5810     0.3970 O.3   1 <1>  -0.3630 
 25 C       -5.8210    -8.4780     0.7860 C.ar  1 <1>   0.0830 
 26 C       -2.3330    -7.7110     0.5120 C.3   1 <1>   0.0400 
 27 O       -5.8960    -9.4340     1.7510 O.3   1 <1>  -0.3630 
 28 C       -4.8670   -10.3660     1.9970 C.3   1 <1>   0.0400 
 29 H        1.8880    -3.0680     1.6510 H     1 <1>   0.0800 
 30 H       -0.7720    -3.1770    -1.9380 H     1 <1>   0.1500 
 31 H       -2.9890    -3.7950     1.6480 H     1 <1>   0.1500 
 32 H        0.8890    -0.8570     1.9990 H     1 <1>   0.0800 
 33 H        1.4240    -0.3300     0.4210 H     1 <1>   0.0800 
 34 H        2.7340    -2.0610    -1.0730 H     1 <1>   0.0800 
 35 H        2.9990    -3.6630    -0.4260 H     1 <1>   0.0800 
 36 H       -2.7480    -3.7360    -3.2530 H     1 <1>   0.1500 
 37 H       -4.9660    -4.3370     0.3280 H     1 <1>   0.1500 
 38 H        3.1860    -1.0280     2.7790 H     1 <1>   0.0800 
 39 H        2.9200     0.5640     2.1300 H     1 <1>   0.0800 
 40 H        5.0400    -2.2490    -0.2900 H     1 <1>   0.0800 
 41 H        4.4990    -2.7710     1.2800 H     1 <1>   0.0800 
 42 H        5.0840    -0.4000     1.3720 H     1 <1>   0.0800 
 43 H        4.0240    -0.0510     0.0380 H     1 <1>   0.0800 
 44 H       -5.2780    -3.8780    -3.1730 H     1 <1>   0.3700 
 45 H       -3.8960    -6.8020    -1.4320 H     1 <1>   0.1500 
 46 H       -8.0580    -6.4360    -0.7140 H     1 <1>   0.1500 
 47 H       -7.9160    -8.1940     0.9920 H     1 <1>   0.1500 
 48 H       -2.0050    -7.4220    -0.4700 H     1 <1>   0.0800 
 49 H       -2.6210    -6.8480     1.0880 H     1 <1>   0.0800 
 50 H       -1.5440    -8.2390     1.0150 H     1 <1>   0.0800 
 51 H       -4.0380    -9.8560     2.4530 H     1 <1>   0.0800 
 52 H       -5.2470   -11.1160     2.6650 H     1 <1>   0.0800 
 53 H       -4.5750   -10.8170     1.0650 H     1 <1>   0.0800 
@<TRIPOS>BOND
  1   1   2  2   
  2   2   3  1   
  3   2   4  1   
  4   3   5  1   
  5   4   6  ar  
  6   4   7  ar  
  7   5   8  1   
  8   5   9  1   
  9   5  29  1   
 10   6  10  ar  
 11   6  30  1   
 12   7  11  ar  
 13   7  31  1   
 14   8  12  1   
 15   8  32  1   
 16   8  33  1   
 17   9  13  1   
 18   9  34  1   
 19   9  35  1   
 20  10  14  ar  
 21  10  36  1   
 22  11  14  ar  
 23  11  37  1   
 24  12  15  1   
 25  12  38  1   
 26  12  39  1   
 27  13  15  1   
 28  13  40  1   
 29  13  41  1   
 30  14  16  1   
 31  15  42  1   
 32  15  43  1   
 33  16  17  am  
 34  16  44  1   
 35  17  18  2   
 36  17  19  1   
 37  19  20  ar  
 38  19  21  ar  
 39  20  22  ar  
 40  20  45  1   
 41  21  23  ar  
 42  21  46  1   
 43  22  24  1   
 44  22  25  ar  
 45  23  25  ar  
 46  23  47  1   
 47  24  26  1   
 48  25  27  1   
 49  26  48  1   
 50  26  49  1   
 51  26  50  1   
 52  27  28  1   
 53  28  51  1   
 54  28  52  1   
 55  28  53  1   
@<TRIPOS>SUBSTRUCTURE
  1 ****   7 GROUP 4 **** **** 0

# MOE 2024.06 (io_trps.svl 2023.06)
