@<TRIPOS>MOLECULE
NONAME
43 46 1 0 0 
SMALL
USER_CHARGES


@<TRIPOS>ATOM
  1 S       -0.3190    -0.1120    -0.4550 S.3   1 <1>  -0.0800 
  2 C       -1.7240     0.6520     0.1980 C.2   1 <1>   0.4420 
  3 C        0.6570     0.9940     0.4700 C.2   1 <1>   0.3250 
  4 N       -1.4210     1.6060     1.0000 N.2   1 <1>  -0.3380 
  5 N       -2.9420     0.1580    -0.2110 N.am  1 <1>  -0.4940 
  6 N       -0.0820     1.7960     1.1500 N.2   1 <1>  -0.3380 
  7 C        2.0970     0.9280     0.4040 C.ar  1 <1>   0.0530 
  8 C       -4.2010     0.5540     0.1450 C.2   1 <1>   0.5690 
  9 C        2.8680     1.8200     1.1540 C.ar  1 <1>   0.1600 
 10 C        2.7950     0.0110    -0.3790 C.ar  1 <1>  -0.1500 
 11 O       -4.4130     1.4570     0.9120 O.2   1 <1>  -0.5700 
 12 C       -5.3710    -0.2070    -0.4850 C.3   1 <1>  -0.0190 
 13 N        4.1900     1.8720     1.1890 N.ar  1 <1>  -0.6200 
 14 C        4.1720     0.0490    -0.3570 C.ar  1 <1>  -0.1500 
 15 C       -6.7140     0.5420    -0.3600 C.3   1 <1>  -0.1600 
 16 C       -5.5090    -1.6170     0.1220 C.3   1 <1>  -0.1600 
 17 C        4.8140     0.9850     0.4330 C.ar  1 <1>   0.1600 
 18 C       -7.8620    -0.2460    -0.9920 C.3   1 <1>   0.2090 
 19 C       -6.6670    -2.3990    -0.5030 C.3   1 <1>   0.2090 
 20 N       -7.9180    -1.6050    -0.3860 N.pl3 1 <1>  -0.8380 
 21 C       -9.0450    -2.0900     0.2510 C.ar  1 <1>   0.7200 
 22 N       -9.1230    -3.4090     0.4280 N.ar  1 <1>  -0.6200 
 23 N       -9.9600    -1.2000     0.6350 N.ar  1 <1>  -0.6200 
 24 C      -10.1960    -3.8550     1.0340 C.ar  1 <1>   0.1600 
 25 C      -11.0210    -1.6740     1.2400 C.ar  1 <1>   0.1600 
 26 C      -11.1910    -3.0170     1.4690 C.ar  1 <1>  -0.1500 
 27 H       -2.8930    -0.6180    -0.8620 H     1 <1>   0.3700 
 28 H        2.3500     2.5390     1.7670 H     1 <1>   0.1500 
 29 H        2.2910    -0.7140    -0.9910 H     1 <1>   0.1500 
 30 H       -5.1600    -0.3100    -1.5340 H     1 <1>   0.0800 
 31 H        4.7490    -0.6410    -0.9460 H     1 <1>   0.1500 
 32 H       -6.6410     1.5040    -0.8340 H     1 <1>   0.0800 
 33 H       -6.9490     0.7080     0.6780 H     1 <1>   0.0800 
 34 H       -5.6880    -1.5360     1.1810 H     1 <1>   0.0800 
 35 H       -4.6020    -2.1760    -0.0140 H     1 <1>   0.0800 
 36 H        5.8910     1.0070     0.4440 H     1 <1>   0.1500 
 37 H       -7.7000    -0.3450    -2.0510 H     1 <1>   0.0800 
 38 H       -8.7840     0.2910    -0.8540 H     1 <1>   0.0800 
 39 H       -6.7530    -3.3490    -0.0040 H     1 <1>   0.0800 
 40 H       -6.4720    -2.5890    -1.5450 H     1 <1>   0.0800 
 41 H      -10.2820    -4.9170     1.1880 H     1 <1>   0.1500 
 42 H      -11.7720    -0.9730     1.5610 H     1 <1>   0.1500 
 43 H      -12.0650    -3.3940     1.9650 H     1 <1>   0.1500 
@<TRIPOS>BOND
  1   1   2  1   
  2   1   3  1   
  3   2   4  2   
  4   2   5  1   
  5   3   6  2   
  6   3   7  1   
  7   4   6  1   
  8   5   8  am  
  9   5  27  1   
 10   7   9  ar  
 11   7  10  ar  
 12   8  11  2   
 13   8  12  1   
 14   9  13  ar  
 15   9  28  1   
 16  10  14  ar  
 17  10  29  1   
 18  12  15  1   
 19  12  16  1   
 20  12  30  1   
 21  13  17  ar  
 22  14  17  ar  
 23  14  31  1   
 24  15  18  1   
 25  15  32  1   
 26  15  33  1   
 27  16  19  1   
 28  16  34  1   
 29  16  35  1   
 30  17  36  1   
 31  18  20  1   
 32  18  37  1   
 33  18  38  1   
 34  19  20  1   
 35  19  39  1   
 36  19  40  1   
 37  20  21  1   
 38  21  22  ar  
 39  21  23  ar  
 40  22  24  ar  
 41  23  25  ar  
 42  24  26  ar  
 43  24  41  1   
 44  25  26  ar  
 45  25  42  1   
 46  26  43  1   
@<TRIPOS>SUBSTRUCTURE
  1 ****   5 GROUP 4 **** **** 0

# MOE 2024.06 (io_trps.svl 2023.06)
