@<TRIPOS>MOLECULE
NONAME
53 55 1 0 0 
SMALL
USER_CHARGES


@<TRIPOS>ATOM
  1 F        0.6790     0.1270     1.6260 F     1 <1>  -0.1900 
  2 C        1.8510     0.6240     1.3250 C.ar  1 <1>   0.1900 
  3 C        1.9220     1.6570     0.4090 C.ar  1 <1>  -0.1500 
  4 C        2.9750     0.0980     1.9330 C.ar  1 <1>  -0.1500 
  5 C        3.1670     2.1740     0.0970 C.ar  1 <1>  -0.1500 
  6 C        4.2120     0.6270     1.6070 C.ar  1 <1>  -0.1500 
  7 C        4.3240     1.6690     0.6860 C.ar  1 <1>   0.1000 
  8 N        5.5560     2.2160     0.3310 N.pl3 1 <1>  -0.8380 
  9 C        6.0850     1.9360    -1.0360 C.3   1 <1>   0.2090 
 10 C        6.6330     2.4280     1.3490 C.3   1 <1>   0.2090 
 11 C        7.1500     0.8240    -1.0110 C.3   1 <1>   0.1100 
 12 C        7.7150     1.3310     1.2890 C.3   1 <1>   0.1100 
 13 N        8.2580     1.1370    -0.0830 N.3   1 <1>  -0.8100 
 14 C        9.4010     0.1890    -0.1740 C.3   1 <1>   0.3700 
 15 C        9.3200    -0.9720     0.8330 C.2   1 <1>   0.0060 
 16 C       10.7530     0.9560    -0.1920 C.3   1 <1>  -0.0800 
 17 N        9.6950    -0.9610     2.0600 N.2   1 <1>  -0.3380 
 18 N        8.8360    -2.1700     0.5420 N.pl3 1 <1>   0.3140 
 19 C       11.9420    -0.0010    -0.3860 C.3   1 <1>  -0.2400 
 20 C       11.0310     1.8710     1.0160 C.3   1 <1>  -0.2400 
 21 N        9.4360    -2.1720     2.5330 N.2   1 <1>   0.0000 
 22 N        8.9190    -2.9120     1.6230 N.2   1 <1>  -0.4180 
 23 C        8.3140    -2.7120    -0.7230 C.3   1 <1>   0.0960 
 24 C        9.4620    -3.2970    -1.5410 C.3   1 <1>   0.1200 
 25 O        9.0020    -3.5700    -2.8270 O.3   1 <1>  -0.5600 
 26 C        8.4760    -4.8480    -3.0080 C.3   1 <1>   0.0400 
 27 H        1.0270     2.0440    -0.0410 H     1 <1>   0.1500 
 28 H        2.8790    -0.7040     2.6410 H     1 <1>   0.1500 
 29 H        3.2580     2.9830    -0.6050 H     1 <1>   0.1500 
 30 H        5.0930     0.2260     2.0670 H     1 <1>   0.1500 
 31 H        6.5200     2.8360    -1.4340 H     1 <1>   0.0800 
 32 H        5.2770     1.6420    -1.6830 H     1 <1>   0.0800 
 33 H        6.2010     2.4560     2.3330 H     1 <1>   0.0800 
 34 H        7.0960     3.3820     1.1680 H     1 <1>   0.0800 
 35 H        7.5360     0.7050    -2.0090 H     1 <1>   0.0800 
 36 H        6.6720    -0.0940    -0.7160 H     1 <1>   0.0800 
 37 H        7.2820     0.4130     1.6420 H     1 <1>   0.0800 
 38 H        8.5060     1.5940     1.9660 H     1 <1>   0.0800 
 39 H        9.3560    -0.2560    -1.1520 H     1 <1>   0.0800 
 40 H       10.7220     1.5920    -1.0600 H     1 <1>   0.0800 
 41 H       12.0640    -0.6400     0.4720 H     1 <1>   0.0800 
 42 H       12.8520     0.5590    -0.5180 H     1 <1>   0.0800 
 43 H       11.7990    -0.6140    -1.2570 H     1 <1>   0.0800 
 44 H       11.0390     1.3130     1.9340 H     1 <1>   0.0800 
 45 H       10.2840     2.6410     1.0800 H     1 <1>   0.0800 
 46 H       11.9860     2.3520     0.9060 H     1 <1>   0.0800 
 47 H        7.8330    -1.9270    -1.2730 H     1 <1>   0.0800 
 48 H        7.5940    -3.4760    -0.4940 H     1 <1>   0.0800 
 49 H        9.8570    -4.1940    -1.0920 H     1 <1>   0.0800 
 50 H       10.2540    -2.5760    -1.6410 H     1 <1>   0.0800 
 51 H        8.1430    -4.9310    -4.0280 H     1 <1>   0.0800 
 52 H        7.6430    -4.9960    -2.3430 H     1 <1>   0.0800 
 53 H        9.2440    -5.5790    -2.8210 H     1 <1>   0.0800 
@<TRIPOS>BOND
  1   1   2  1   
  2   2   3  ar  
  3   2   4  ar  
  4   3   5  ar  
  5   3  27  1   
  6   4   6  ar  
  7   4  28  1   
  8   5   7  ar  
  9   5  29  1   
 10   6   7  ar  
 11   6  30  1   
 12   7   8  1   
 13   8   9  1   
 14   8  10  1   
 15   9  11  1   
 16   9  31  1   
 17   9  32  1   
 18  10  12  1   
 19  10  33  1   
 20  10  34  1   
 21  11  13  1   
 22  11  35  1   
 23  11  36  1   
 24  12  13  1   
 25  12  37  1   
 26  12  38  1   
 27  13  14  1   
 28  14  15  1   
 29  14  16  1   
 30  14  39  1   
 31  15  17  2   
 32  15  18  1   
 33  16  19  1   
 34  16  20  1   
 35  16  40  1   
 36  17  21  1   
 37  18  22  1   
 38  18  23  1   
 39  19  41  1   
 40  19  42  1   
 41  19  43  1   
 42  20  44  1   
 43  20  45  1   
 44  20  46  1   
 45  21  22  2   
 46  23  24  1   
 47  23  47  1   
 48  23  48  1   
 49  24  25  1   
 50  24  49  1   
 51  24  50  1   
 52  25  26  1   
 53  26  51  1   
 54  26  52  1   
 55  26  53  1   
@<TRIPOS>SUBSTRUCTURE
  1 ****  11 GROUP 4 **** **** 0

# MOE 2024.06 (io_trps.svl 2023.06)
