@<TRIPOS>MOLECULE
NONAME
50 52 1 0 0 
SMALL
USER_CHARGES


@<TRIPOS>ATOM
  1 CL       3.5740     0.0290    -2.1960 Cl    1 <1>  -0.2970 
  2 C        2.7340     1.4230    -1.5110 C.3   1 <1>   0.1840 
  3 C        3.7200     2.5190    -1.1160 C.2   1 <1>   0.5640 
  4 O        3.2970     3.5920    -0.7460 O.2   1 <1>  -0.5750 
  5 N        5.0600     2.2910    -1.1890 N.am  1 <1>  -0.7340 
  6 C        6.1290     3.2140    -0.7380 C.3   1 <1>   0.1320 
  7 C        6.2150     4.4410    -1.6630 C.3   1 <1>   0.1600 
  8 N        6.4560     5.6850    -0.8880 N.pl3 1 <1>  -0.7180 
  9 C        5.5660     6.4400    -0.2440 C.cat 1 <1>   1.0690 
 10 N        4.2980     6.0900    -0.0850 N.pl3 1 <1>  -0.7040 
 11 N        5.7840     7.6260     0.3390 N.pl3 1 <1>  -0.7680 
 12 C        3.6630     7.0620     0.6140 C.2   1 <1>   0.4200 
 13 C        4.5530     8.0350     0.8920 C.2   1 <1>   0.2700 
 14 C        7.0050     8.4770     0.4650 C.3   1 <1>   0.4920 
 15 N        2.3390     7.0970     1.0000 N.am  1 <1>  -0.4420 
 16 C        4.1100     9.1820     1.6250 C.2   1 <1>   0.6990 
 17 C        8.2050     7.7780    -0.1460 C.ar  1 <1>  -0.1510 
 18 C        1.8960     8.2020     1.7150 C.2   1 <1>   0.6860 
 19 C        1.4280     5.9650     0.6540 C.3   1 <1>   0.0520 
 20 O        4.8810    10.0930     1.8800 O.2   1 <1>  -0.5750 
 21 N        2.7830     9.2260     2.0340 N.am  1 <1>  -0.4260 
 22 C        8.5220     7.9740    -1.4830 C.ar  1 <1>  -0.1580 
 23 C        8.9580     6.8930     0.6130 C.ar  1 <1>  -0.1580 
 24 O        0.7350     8.2770     2.0600 O.2   1 <1>  -0.5750 
 25 C        2.2750    10.4030     2.8060 C.3   1 <1>   0.0520 
 26 C        9.5650     7.2730    -2.0590 C.ar  1 <1>  -0.1580 
 27 C       10.0010     6.1940     0.0340 C.ar  1 <1>  -0.1580 
 28 C       10.3020     6.3800    -1.3020 C.ar  1 <1>  -0.1580 
 29 H        2.1900     1.0820    -0.6500 H     1 <1>   0.0720 
 30 H        2.0490     1.7860    -2.2550 H     1 <1>   0.0720 
 31 H        5.3660     1.3640    -1.5190 H     1 <1>   0.3640 
 32 H        7.0710     2.6920    -0.7330 H     1 <1>   0.0720 
 33 H        5.9060     3.5190     0.2700 H     1 <1>   0.0720 
 34 H        5.3000     4.5500    -2.2190 H     1 <1>   0.0720 
 35 H        7.0160     4.3010    -2.3700 H     1 <1>   0.0720 
 36 H        7.4240     6.0410    -0.9160 H     1 <1>   0.4440 
 37 H        3.8940     5.1950    -0.3960 H     1 <1>   0.4440 
 38 H        7.1970     8.6810     1.5050 H     1 <1>   0.0720 
 39 H        6.8390     9.4200    -0.0300 H     1 <1>   0.0720 
 40 H        1.7560     5.0690     1.1520 H     1 <1>   0.0720 
 41 H        1.4370     5.8000    -0.4100 H     1 <1>   0.0720 
 42 H        0.4160     6.1730     0.9560 H     1 <1>   0.0720 
 43 H        7.9610     8.6670    -2.0900 H     1 <1>   0.1420 
 44 H        8.7400     6.7360     1.6580 H     1 <1>   0.1420 
 45 H        3.0830    10.9490     3.2630 H     1 <1>   0.0720 
 46 H        1.6090    10.0740     3.5860 H     1 <1>   0.0720 
 47 H        1.7370    11.0610     2.1460 H     1 <1>   0.0720 
 48 H        9.8120     7.4260    -3.0970 H     1 <1>   0.1420 
 49 H       10.5870     5.5080     0.6240 H     1 <1>   0.1420 
 50 H       11.1190     5.8390    -1.7510 H     1 <1>   0.1420 
@<TRIPOS>BOND
  1   1   2  1   
  2   2   3  1   
  3   2  29  1   
  4   2  30  1   
  5   3   4  2   
  6   3   5  am  
  7   5   6  1   
  8   5  31  1   
  9   6   7  1   
 10   6  32  1   
 11   6  33  1   
 12   7   8  1   
 13   7  34  1   
 14   7  35  1   
 15   8   9  ar  
 16   8  36  1   
 17   9  10  ar  
 18   9  11  ar  
 19  10  12  1   
 20  10  37  1   
 21  11  13  1   
 22  11  14  1   
 23  12  13  2   
 24  12  15  1   
 25  13  16  1   
 26  14  17  1   
 27  14  38  1   
 28  14  39  1   
 29  15  18  am  
 30  15  19  1   
 31  16  20  2   
 32  16  21  am  
 33  17  22  ar  
 34  17  23  ar  
 35  18  21  am  
 36  18  24  2   
 37  19  40  1   
 38  19  41  1   
 39  19  42  1   
 40  21  25  1   
 41  22  26  ar  
 42  22  43  1   
 43  23  27  ar  
 44  23  44  1   
 45  25  45  1   
 46  25  46  1   
 47  25  47  1   
 48  26  28  ar  
 49  26  48  1   
 50  27  28  ar  
 51  27  49  1   
 52  28  50  1   
@<TRIPOS>SUBSTRUCTURE
  1 ****   9 GROUP 4 **** **** 0

# MOE 2024.06 (io_trps.svl 2023.06)
