@<TRIPOS>MOLECULE
NONAME
58 60 1 0 0 
SMALL
USER_CHARGES


@<TRIPOS>ATOM
  1 S        0.3080     1.5260     0.8260 S.o   1 <1>   0.1130 
  2 O        1.2650     2.5680     1.3310 O.2   1 <1>  -0.5000 
  3 C        0.9910     0.8570    -0.7220 C.3   1 <1>   0.0940 
  4 C       -1.1610     2.4280     0.2640 C.3   1 <1>   0.0940 
  5 C        2.1610    -0.0810    -0.4740 C.2   1 <1>   0.5690 
  6 C       -2.1940     1.4940    -0.3220 C.2   1 <1>   0.5690 
  7 O        1.9350    -1.2630    -0.5710 O.2   1 <1>  -0.5700 
  8 N        3.4260     0.3640    -0.1550 N.am  1 <1>  -0.6600 
  9 O       -2.1040     1.2380    -1.4970 O.2   1 <1>  -0.5700 
 10 N       -3.1600     0.9850     0.5030 N.am  1 <1>  -0.5470 
 11 C        4.4820    -0.6190     0.2520 C.3   1 <1>   0.1400 
 12 C        3.7960     1.8000     0.0520 C.3   1 <1>   0.1400 
 13 C       -4.2130     0.0940     0.2330 C.ar  1 <1>   0.1170 
 14 C        5.8630    -0.2450    -0.3120 C.3   1 <1>   0.3430 
 15 C        5.2000     2.1220    -0.4920 C.3   1 <1>   0.3430 
 16 C       -5.3310     0.1140     1.0580 C.ar  1 <1>  -0.1500 
 17 C       -4.1800    -0.8230    -0.8130 C.ar  1 <1>  -0.1500 
 18 N        6.2500     1.1730     0.0260 N.4   1 <1>  -0.9590 
 19 C       -6.3920    -0.7500     0.8480 C.ar  1 <1>  -0.1500 
 20 C       -5.2380    -1.6880    -1.0280 C.ar  1 <1>  -0.1500 
 21 C        7.6080     1.5230    -0.4720 C.3   1 <1>   0.4230 
 22 C       -6.3490    -1.6600    -0.2030 C.ar  1 <1>   0.0830 
 23 C        8.6690     0.5530     0.0540 C.3   1 <1>  -0.1600 
 24 C        8.0510     2.9130     0.0140 C.3   1 <1>  -0.1600 
 25 O       -7.3430    -2.5440    -0.4840 O.3   1 <1>  -0.3630 
 26 C        9.9350     1.3890     0.2050 C.3   1 <1>  -0.1600 
 27 C        9.4240     2.7460     0.6730 C.3   1 <1>  -0.1600 
 28 C       -8.5270    -2.5740     0.2810 C.3   1 <1>   0.0400 
 29 H        1.2950     1.6430    -1.3840 H     1 <1>   0.0800 
 30 H        0.2410     0.2850    -1.2360 H     1 <1>   0.0800 
 31 H       -0.8930     3.1440    -0.4900 H     1 <1>   0.0800 
 32 H       -1.6010     2.9700     1.0790 H     1 <1>   0.0800 
 33 H       -3.1400     1.3120     1.4680 H     1 <1>   0.3700 
 34 H        4.5270    -0.6600     1.3260 H     1 <1>   0.0800 
 35 H        4.2310    -1.6070    -0.0960 H     1 <1>   0.0800 
 36 H        3.7630     2.0220     1.1060 H     1 <1>   0.0800 
 37 H        3.0900     2.4480    -0.4350 H     1 <1>   0.0800 
 38 H        5.8410    -0.3700    -1.3820 H     1 <1>   0.0800 
 39 H        6.5920    -0.9320     0.0840 H     1 <1>   0.0800 
 40 H        5.1690     2.0710    -1.5680 H     1 <1>   0.0800 
 41 H        5.4490     3.1340    -0.2200 H     1 <1>   0.0800 
 42 H       -5.3800     0.8130     1.8730 H     1 <1>   0.1500 
 43 H       -3.3280    -0.8720    -1.4660 H     1 <1>   0.1500 
 44 H        6.2740     1.2570     1.0500 H     1 <1>   0.4500 
 45 H       -7.2380    -0.7010     1.5070 H     1 <1>   0.1500 
 46 H       -5.2060    -2.3930    -1.8400 H     1 <1>   0.1500 
 47 H        7.6260     1.5100    -1.5500 H     1 <1>   0.0800 
 48 H        8.3960     0.1780     1.0260 H     1 <1>   0.0800 
 49 H        8.8320    -0.2680    -0.6220 H     1 <1>   0.0800 
 50 H        7.3700     3.3550     0.7190 H     1 <1>   0.0800 
 51 H        8.1460     3.5640    -0.8380 H     1 <1>   0.0800 
 52 H       10.4220     1.4960    -0.7510 H     1 <1>   0.0800 
 53 H       10.6310     0.9560     0.9050 H     1 <1>   0.0800 
 54 H        9.3130     2.7330     1.7450 H     1 <1>   0.0800 
 55 H       10.1020     3.5410     0.4070 H     1 <1>   0.0800 
 56 H       -9.1670    -3.3360    -0.1250 H     1 <1>   0.0800 
 57 H       -9.0110    -1.6160     0.2140 H     1 <1>   0.0800 
 58 H       -8.2780    -2.8120     1.3000 H     1 <1>   0.0800 
@<TRIPOS>BOND
  1   1   2  2   
  2   1   3  1   
  3   1   4  1   
  4   3   5  1   
  5   3  29  1   
  6   3  30  1   
  7   4   6  1   
  8   4  31  1   
  9   4  32  1   
 10   5   7  2   
 11   5   8  am  
 12   6   9  2   
 13   6  10  am  
 14   8  11  1   
 15   8  12  1   
 16  10  13  1   
 17  10  33  1   
 18  11  14  1   
 19  11  34  1   
 20  11  35  1   
 21  12  15  1   
 22  12  36  1   
 23  12  37  1   
 24  13  16  ar  
 25  13  17  ar  
 26  14  18  1   
 27  14  38  1   
 28  14  39  1   
 29  15  18  1   
 30  15  40  1   
 31  15  41  1   
 32  16  19  ar  
 33  16  42  1   
 34  17  20  ar  
 35  17  43  1   
 36  18  21  1   
 37  18  44  1   
 38  19  22  ar  
 39  19  45  1   
 40  20  22  ar  
 41  20  46  1   
 42  21  23  1   
 43  21  24  1   
 44  21  47  1   
 45  22  25  1   
 46  23  26  1   
 47  23  48  1   
 48  23  49  1   
 49  24  27  1   
 50  24  50  1   
 51  24  51  1   
 52  25  28  1   
 53  26  27  1   
 54  26  52  1   
 55  26  53  1   
 56  27  54  1   
 57  27  55  1   
 58  28  56  1   
 59  28  57  1   
 60  28  58  1   
@<TRIPOS>SUBSTRUCTURE
  1 ****   3 GROUP 4 **** **** 0

# MOE 2024.06 (io_trps.svl 2023.06)
