@<TRIPOS>MOLECULE
4995
53 55 1 0 0 
SMALL
USER_CHARGES


@<TRIPOS>ATOM
  1 S       -0.2510     0.5350    -1.4230 S.3   1 <1>  -0.0800 
  2 C       -0.8560    -1.0490    -0.9550 C.2   1 <1>   0.1040 
  3 C        1.0140     0.4630    -0.2210 C.2   1 <1>  -0.1400 
  4 N       -1.9420    -1.5820    -1.6350 N.am  1 <1>  -0.4940 
  5 C       -0.1060    -1.5810     0.0660 C.2   1 <1>  -0.0860 
  6 C        0.9510    -0.6780     0.4800 C.2   1 <1>  -0.1810 
  7 C        1.9890     1.6100    -0.0860 C.3   1 <1>   0.0200 
  8 C       -2.8540    -1.0530    -2.5170 C.2   1 <1>   0.5690 
  9 C       -0.3340    -2.8790     0.6540 C.2   1 <1>   0.8060 
 10 C        1.9480    -0.9370     1.6060 C.3   1 <1>   0.0210 
 11 C        3.1760     1.1580     0.7820 C.3   1 <1>  -0.1600 
 12 O       -2.9260     0.1200    -2.7890 O.2   1 <1>  -0.5700 
 13 C       -3.8660    -2.0080    -3.1660 C.3   1 <1>   0.2610 
 14 O        0.4010    -3.4020     1.4700 O.2   1 <1>  -0.5700 
 15 O       -1.4290    -3.5540     0.2720 O.3   1 <1>  -0.4300 
 16 C        2.7080     0.3450     2.0050 C.3   1 <1>  -0.1600 
 17 O       -3.9260    -3.2540    -2.4810 O.3   1 <1>  -0.3630 
 18 C       -3.5000    -2.3250    -4.6190 C.3   1 <1>  -0.2400 
 19 C       -1.8160    -4.7880     0.8440 C.3   1 <1>   0.1200 
 20 C       -4.6530    -3.4120    -1.3440 C.ar  1 <1>   0.0830 
 21 C       -2.5720    -4.5150     2.1430 C.3   1 <1>  -0.2400 
 22 C       -4.9470    -4.7140    -0.9760 C.ar  1 <1>  -0.1500 
 23 C       -5.0970    -2.3570    -0.5510 C.ar  1 <1>  -0.1500 
 24 C       -5.6720    -4.9690     0.1730 C.ar  1 <1>  -0.1500 
 25 C       -5.8220    -2.6130     0.6010 C.ar  1 <1>  -0.1500 
 26 C       -6.1110    -3.9250     0.9700 C.ar  1 <1>   0.0830 
 27 O       -6.8050    -4.2610     2.0880 O.3   1 <1>  -0.3630 
 28 C       -7.2880    -3.2740     2.9710 C.3   1 <1>   0.0400 
 29 H       -2.1560    -2.5570    -1.3950 H     1 <1>   0.3700 
 30 H        1.4860     2.4420     0.3740 H     1 <1>   0.0800 
 31 H        2.3390     1.9150    -1.0560 H     1 <1>   0.0800 
 32 H        2.6470    -1.6880     1.2810 H     1 <1>   0.0800 
 33 H        1.4350    -1.3100     2.4750 H     1 <1>   0.0800 
 34 H        3.7340     2.0200     1.1030 H     1 <1>   0.0800 
 35 H        3.8280     0.5430     0.1870 H     1 <1>   0.0800 
 36 H       -4.8450    -1.5630    -3.1400 H     1 <1>   0.0800 
 37 H        3.5540     0.0810     2.6140 H     1 <1>   0.0800 
 38 H        2.0560     0.9610     2.6000 H     1 <1>   0.0800 
 39 H       -2.5310    -2.7880    -4.6680 H     1 <1>   0.0800 
 40 H       -3.4730    -1.4150    -5.1910 H     1 <1>   0.0800 
 41 H       -4.2360    -2.9790    -5.0520 H     1 <1>   0.0800 
 42 H       -0.9430    -5.3970     1.0120 H     1 <1>   0.0800 
 43 H       -2.4570    -5.2860     0.1380 H     1 <1>   0.0800 
 44 H       -1.9190    -4.0680     2.8720 H     1 <1>   0.0800 
 45 H       -2.9450    -5.4390     2.5450 H     1 <1>   0.0800 
 46 H       -3.4060    -3.8620     1.9590 H     1 <1>   0.0800 
 47 H       -4.6090    -5.5260    -1.5950 H     1 <1>   0.1500 
 48 H       -4.8900    -1.3330    -0.8020 H     1 <1>   0.1500 
 49 H       -5.9020    -5.9790     0.4610 H     1 <1>   0.1500 
 50 H       -6.1500    -1.7820     1.1960 H     1 <1>   0.1500 
 51 H       -7.7990    -3.7680     3.7770 H     1 <1>   0.0800 
 52 H       -7.9740    -2.6370     2.4410 H     1 <1>   0.0800 
 53 H       -6.4560    -2.7110     3.3550 H     1 <1>   0.0800 
@<TRIPOS>BOND
  1   1   2  1   
  2   1   3  1   
  3   2   4  1   
  4   2   5  2   
  5   3   6  2   
  6   3   7  1   
  7   4   8  am  
  8   4  29  1   
  9   5   6  1   
 10   5   9  1   
 11   6  10  1   
 12   7  11  1   
 13   7  30  1   
 14   7  31  1   
 15   8  12  2   
 16   8  13  1   
 17   9  14  2   
 18   9  15  1   
 19  10  16  1   
 20  10  32  1   
 21  10  33  1   
 22  11  16  1   
 23  11  34  1   
 24  11  35  1   
 25  13  17  1   
 26  13  18  1   
 27  13  36  1   
 28  15  19  1   
 29  16  37  1   
 30  16  38  1   
 31  17  20  1   
 32  18  39  1   
 33  18  40  1   
 34  18  41  1   
 35  19  21  1   
 36  19  42  1   
 37  19  43  1   
 38  20  22  ar  
 39  20  23  ar  
 40  21  44  1   
 41  21  45  1   
 42  21  46  1   
 43  22  24  ar  
 44  22  47  1   
 45  23  25  ar  
 46  23  48  1   
 47  24  26  ar  
 48  24  49  1   
 49  25  26  ar  
 50  25  50  1   
 51  26  27  1   
 52  27  28  1   
 53  28  51  1   
 54  28  52  1   
 55  28  53  1   
@<TRIPOS>SUBSTRUCTURE
  1 ****   4 GROUP 4 **** **** 0

# MOE 2024.06 (io_trps.svl 2023.06)
