@<TRIPOS>MOLECULE
Cyclopropanecarboxylic acid [2-(3-cyano-8-methyl-quinolin-2-ylamino)-ethyl]-amide
40 42 1 0 0 
SMALL
USER_CHARGES


@<TRIPOS>ATOM
  1 O        0.9160    -0.5130    -0.0270 O.2   1 <1>  -0.5700 
  2 C        1.1970    -1.5770     0.4670 C.2   1 <1>   0.6300 
  3 N        2.4660    -1.8930     0.8220 N.am  1 <1>  -0.7300 
  4 C        0.1050    -2.6070     0.7040 C.3   1 <1>  -0.1000 
  5 C        3.6350    -0.9870     0.6790 C.3   1 <1>   0.1400 
  6 C        0.2970    -4.0600     0.3670 C.3   1 <1>  -0.2000 
  7 C       -0.6290    -3.2190    -0.4540 C.3   1 <1>  -0.2000 
  8 C        4.0730    -0.8830    -0.7850 C.3   1 <1>   0.2090 
  9 N        5.2970    -0.0420    -0.8990 N.pl3 1 <1>  -0.8690 
 10 C        6.5860    -0.5060    -0.7280 C.ar  1 <1>   0.4100 
 11 N        6.7090    -1.7290    -0.2880 N.ar  1 <1>  -0.6200 
 12 C        7.6970     0.3290    -1.0160 C.ar  1 <1>   0.0730 
 13 C        7.9540    -2.2340    -0.0980 C.ar  1 <1>   0.3100 
 14 C        7.4800     1.6580    -1.4920 C.1   1 <1>   0.4840 
 15 C        8.9560    -0.1620    -0.8290 C.ar  1 <1>  -0.1500 
 16 C        9.1170    -1.4740    -0.3590 C.ar  1 <1>   0.0000 
 17 C        8.1090    -3.5580     0.3740 C.ar  1 <1>  -0.1440 
 18 N        7.2970     2.7180    -1.8730 N.1   1 <1>  -0.5570 
 19 C       10.3830    -2.0480    -0.1430 C.ar  1 <1>  -0.1500 
 20 C        9.3590    -4.0880     0.5750 C.ar  1 <1>  -0.1500 
 21 C        6.8770    -4.4080     0.6640 C.3   1 <1>  -0.0970 
 22 C       10.5030    -3.3300     0.3150 C.ar  1 <1>  -0.1500 
 23 H        2.6540    -2.8160     1.2150 H     1 <1>   0.3700 
 24 H       -0.4800    -2.3620     1.5710 H     1 <1>   0.1000 
 25 H        4.4490    -1.3650     1.2720 H     1 <1>   0.0800 
 26 H        3.3680    -0.0080     1.0380 H     1 <1>   0.0800 
 27 H       -0.1260    -4.8030     1.0210 H     1 <1>   0.1000 
 28 H        1.2140    -4.3870    -0.0910 H     1 <1>   0.1000 
 29 H       -0.3360    -2.9310    -1.4500 H     1 <1>   0.1000 
 30 H       -1.6910    -3.3660    -0.3650 H     1 <1>   0.1000 
 31 H        3.2830    -0.4420    -1.3690 H     1 <1>   0.0800 
 32 H        4.2770    -1.8680    -1.1710 H     1 <1>   0.0800 
 33 H        5.1370     0.9080    -1.2510 H     1 <1>   0.4000 
 34 H        9.8290     0.4330    -1.0330 H     1 <1>   0.1500 
 35 H       11.2610    -1.4610    -0.3440 H     1 <1>   0.1500 
 36 H        9.4830    -5.0950     0.9340 H     1 <1>   0.1500 
 37 H        6.2770    -3.9330     1.4190 H     1 <1>   0.0800 
 38 H        7.1500    -5.3880     1.0090 H     1 <1>   0.0800 
 39 H        6.2870    -4.5110    -0.2300 H     1 <1>   0.0800 
 40 H       11.4720    -3.7700     0.4810 H     1 <1>   0.1500 
@<TRIPOS>BOND
  1   1   2  2   
  2   2   3  am  
  3   2   4  1   
  4   3   5  1   
  5   3  23  1   
  6   4   6  1   
  7   4   7  1   
  8   4  24  1   
  9   5   8  1   
 10   5  25  1   
 11   5  26  1   
 12   6   7  1   
 13   6  27  1   
 14   6  28  1   
 15   7  29  1   
 16   7  30  1   
 17   8   9  1   
 18   8  31  1   
 19   8  32  1   
 20   9  10  1   
 21   9  33  1   
 22  10  11  ar  
 23  10  12  ar  
 24  11  13  ar  
 25  12  14  1   
 26  12  15  ar  
 27  13  16  ar  
 28  13  17  ar  
 29  14  18  3   
 30  15  16  ar  
 31  15  34  1   
 32  16  19  ar  
 33  17  20  ar  
 34  17  21  1   
 35  19  22  ar  
 36  19  35  1   
 37  20  22  ar  
 38  20  36  1   
 39  21  37  1   
 40  21  38  1   
 41  21  39  1   
 42  22  40  1   
@<TRIPOS>SUBSTRUCTURE
  1 ****  11 GROUP 4 **** **** 0

# MOE 2024.06 (io_trps.svl 2023.06)
