@<TRIPOS>MOLECULE
NONAME
23 24 1 0 0 
SMALL
USER_CHARGES


@<TRIPOS>ATOM
  1 O       -1.1860    -0.7220    -2.7070 O.2   1 <1>  -0.5700 
  2 C       -1.9590    -0.4350    -1.8320 C.2   1 <1>   0.5690 
  3 N       -2.5280     0.7960    -1.8140 N.am  1 <1>  -0.7300 
  4 C       -2.2820    -1.5050    -0.7700 C.3   1 <1>   0.4040 
  5 C       -3.4690     1.3410    -0.8210 C.3   1 <1>   0.2200 
  6 N       -3.4910    -1.2560     0.1270 N.4   1 <1>  -0.9590 
  7 C       -4.8080     0.6140    -0.9530 C.3   1 <1>  -0.1600 
  8 C       -2.8940     1.1440     0.5860 C.3   1 <1>  -0.1600 
  9 C       -4.6980    -0.8960    -0.6950 C.3   1 <1>   0.3430 
 10 C       -3.1900    -0.2380     1.1820 C.3   1 <1>   0.3430 
 11 H       -2.2450     1.4300    -2.5700 H     1 <1>   0.3700 
 12 H       -1.4050    -1.6330    -0.1610 H     1 <1>   0.0800 
 13 H       -2.4300    -2.4280    -1.3050 H     1 <1>   0.0800 
 14 H       -3.5970     2.3950    -1.0140 H     1 <1>   0.0800 
 15 H       -3.6940    -2.1470     0.6010 H     1 <1>   0.4500 
 16 H       -5.2230     0.7830    -1.9320 H     1 <1>   0.0800 
 17 H       -5.5020     1.0350    -0.2480 H     1 <1>   0.0800 
 18 H       -1.8340     1.3300     0.5810 H     1 <1>   0.0800 
 19 H       -3.3270     1.8780     1.2420 H     1 <1>   0.0800 
 20 H       -5.5940    -1.2250    -0.1940 H     1 <1>   0.0800 
 21 H       -4.6490    -1.4110    -1.6420 H     1 <1>   0.0800 
 22 H       -2.3540    -0.5580     1.7840 H     1 <1>   0.0800 
 23 H       -4.0460    -0.1530     1.8330 H     1 <1>   0.0800 
@<TRIPOS>BOND
  1   1   2  2   
  2   2   3  am  
  3   2   4  1   
  4   3   5  1   
  5   3  11  1   
  6   4   6  1   
  7   4  12  1   
  8   4  13  1   
  9   5   7  1   
 10   5   8  1   
 11   5  14  1   
 12   6   9  1   
 13   6  10  1   
 14   6  15  1   
 15   7   9  1   
 16   7  16  1   
 17   7  17  1   
 18   8  10  1   
 19   8  18  1   
 20   8  19  1   
 21   9  20  1   
 22   9  21  1   
 23  10  22  1   
 24  10  23  1   
@<TRIPOS>SUBSTRUCTURE
  1 ****   3 GROUP 4 **** **** 0

# MOE 2024.06 (io_trps.svl 2023.06)
