@<TRIPOS>MOLECULE
Piperidine-1,3-dicarboxylic acid 3-(2-chloro-benzylamide) 1-phenylamide
48 50 1 0 0 
SMALL
USER_CHARGES


@<TRIPOS>ATOM
  1 CL      -1.8320    -1.8250    -2.6580 Cl    1 <1>  -0.1770 
  2 C       -0.9750    -2.4970    -1.2910 C.ar  1 <1>   0.1770 
  3 C       -1.4580    -2.3120    -0.0030 C.ar  1 <1>  -0.1440 
  4 C        0.1800    -3.2180    -1.5330 C.ar  1 <1>  -0.1500 
  5 C       -0.7600    -2.8790     1.0540 C.ar  1 <1>  -0.1500 
  6 C       -2.7220    -1.5140     0.2620 C.3   1 <1>   0.2840 
  7 C        0.8700    -3.7740    -0.4700 C.ar  1 <1>  -0.1500 
  8 C        0.3980    -3.6040     0.8210 C.ar  1 <1>  -0.1500 
  9 N       -3.8870    -2.3780    -0.0060 N.am  1 <1>  -0.7300 
 10 C       -4.8370    -2.7060     0.9020 C.2   1 <1>   0.5690 
 11 O       -4.8350    -2.2430     2.0180 O.2   1 <1>  -0.5700 
 12 C       -5.9210    -3.6920     0.4880 C.3   1 <1>  -0.0190 
 13 C       -7.1810    -3.5230     1.3520 C.3   1 <1>   0.1400 
 14 C       -5.4050    -5.1440     0.5480 C.3   1 <1>  -0.1600 
 15 N       -8.2190    -4.5160     0.9420 N.am  1 <1>  -0.6600 
 16 C       -6.5170    -6.1350     0.1730 C.3   1 <1>  -0.1600 
 17 C       -9.4110    -4.1860     0.3470 C.2   1 <1>   0.6900 
 18 C       -7.7700    -5.9330     1.0320 C.3   1 <1>   0.1400 
 19 O      -10.0000    -5.0010    -0.3390 O.2   1 <1>  -0.5700 
 20 N       -9.9290    -2.9400     0.5630 N.am  1 <1>  -0.5470 
 21 C      -11.0350    -2.2800     0.0090 C.ar  1 <1>   0.1170 
 22 C      -11.5720    -2.6120    -1.2320 C.ar  1 <1>  -0.1500 
 23 C      -11.6140    -1.2330     0.7180 C.ar  1 <1>  -0.1500 
 24 C      -12.6560    -1.9220    -1.7450 C.ar  1 <1>  -0.1500 
 25 C      -12.6970    -0.5400     0.2090 C.ar  1 <1>  -0.1500 
 26 C      -13.2210    -0.8840    -1.0250 C.ar  1 <1>  -0.1500 
 27 H        0.5310    -3.3420    -2.5410 H     1 <1>   0.1500 
 28 H       -1.1170    -2.7590     2.0640 H     1 <1>   0.1500 
 29 H       -2.7620    -0.6480    -0.3760 H     1 <1>   0.0800 
 30 H       -2.7380    -1.1730     1.2840 H     1 <1>   0.0800 
 31 H        1.7710    -4.3370    -0.6450 H     1 <1>   0.1500 
 32 H        0.9330    -4.0380     1.6490 H     1 <1>   0.1500 
 33 H       -3.8850    -2.8110    -0.9310 H     1 <1>   0.3700 
 34 H       -6.1960    -3.4640    -0.5260 H     1 <1>   0.0800 
 35 H       -7.5420    -2.5150     1.2470 H     1 <1>   0.0800 
 36 H       -6.9360    -3.6830     2.3890 H     1 <1>   0.0800 
 37 H       -5.0600    -5.3550     1.5460 H     1 <1>   0.0800 
 38 H       -4.5720    -5.2660    -0.1220 H     1 <1>   0.0800 
 39 H       -6.1620    -7.1430     0.2980 H     1 <1>   0.0800 
 40 H       -6.7880    -6.0110    -0.8610 H     1 <1>   0.0800 
 41 H       -8.5490    -6.6020     0.7030 H     1 <1>   0.0800 
 42 H       -7.5510    -6.1650     2.0600 H     1 <1>   0.0800 
 43 H       -9.4940    -2.4750     1.3500 H     1 <1>   0.3700 
 44 H      -11.1410    -3.4130    -1.8040 H     1 <1>   0.1500 
 45 H      -11.2180    -0.9590     1.6780 H     1 <1>   0.1500 
 46 H      -13.0590    -2.1960    -2.7040 H     1 <1>   0.1500 
 47 H      -13.1350     0.2670     0.7710 H     1 <1>   0.1500 
 48 H      -14.0640    -0.3480    -1.4240 H     1 <1>   0.1500 
@<TRIPOS>BOND
  1   1   2  1   
  2   2   3  ar  
  3   2   4  ar  
  4   3   5  ar  
  5   3   6  1   
  6   4   7  ar  
  7   4  27  1   
  8   5   8  ar  
  9   5  28  1   
 10   6   9  1   
 11   6  29  1   
 12   6  30  1   
 13   7   8  ar  
 14   7  31  1   
 15   8  32  1   
 16   9  10  am  
 17   9  33  1   
 18  10  11  2   
 19  10  12  1   
 20  12  13  1   
 21  12  14  1   
 22  12  34  1   
 23  13  15  1   
 24  13  35  1   
 25  13  36  1   
 26  14  16  1   
 27  14  37  1   
 28  14  38  1   
 29  15  17  am  
 30  15  18  1   
 31  16  18  1   
 32  16  39  1   
 33  16  40  1   
 34  17  19  2   
 35  17  20  am  
 36  18  41  1   
 37  18  42  1   
 38  20  21  1   
 39  20  43  1   
 40  21  22  ar  
 41  21  23  ar  
 42  22  24  ar  
 43  22  44  1   
 44  23  25  ar  
 45  23  45  1   
 46  24  26  ar  
 47  24  46  1   
 48  25  26  ar  
 49  25  47  1   
 50  26  48  1   
@<TRIPOS>SUBSTRUCTURE
  1 ****  12 GROUP 4 **** **** 0

# MOE 2024.06 (io_trps.svl 2023.06)
