@<TRIPOS>MOLECULE
112
48 49 1 0 0 
SMALL
USER_CHARGES


@<TRIPOS>ATOM
  1 S       -0.7330     0.5370     0.6640 S.3   1 <1>  -0.0800 
  2 C       -2.2330    -0.0880     1.3210 C.2   1 <1>   0.1040 
  3 C       -0.4500    -0.8970    -0.2980 C.2   1 <1>  -0.1400 
  4 N       -2.7860     0.7750     2.2580 N.am  1 <1>  -0.4940 
  5 C       -2.5050    -1.3150     0.7670 C.2   1 <1>  -0.0860 
  6 C       -1.4530    -1.7750    -0.1190 C.2   1 <1>  -0.1810 
  7 C        0.8360    -0.8970    -1.1030 C.3   1 <1>  -0.0600 
  8 C       -3.9320     0.9400     2.9860 C.2   1 <1>   0.5690 
  9 C       -3.6550    -2.1370     1.0090 C.2   1 <1>   0.8060 
 10 C       -1.5000    -3.1700    -0.7360 C.3   1 <1>  -0.0590 
 11 O       -3.9380     1.7970     3.8330 O.2   1 <1>  -0.5700 
 12 C       -5.2070     0.1370     2.7830 C.3   1 <1>   0.1810 
 13 O       -3.8670    -2.6690     2.0790 O.2   1 <1>  -0.5700 
 14 O       -4.5290    -2.3850     0.0280 O.3   1 <1>  -0.4300 
 15 O       -5.6480     0.2400     1.4400 O.3   1 <1>  -0.3630 
 16 C       -4.6630    -1.5460    -1.1000 C.3   1 <1>   0.1200 
 17 C       -6.8710    -0.2360     1.1020 C.ar  1 <1>   0.0830 
 18 C       -5.8430    -2.0520    -1.9230 C.3   1 <1>  -0.2400 
 19 C       -7.6550     0.4910     0.2050 C.ar  1 <1>  -0.1430 
 20 C       -7.3300    -1.4430     1.6150 C.ar  1 <1>  -0.1500 
 21 C       -8.9030    -0.0040    -0.1660 C.ar  1 <1>  -0.1430 
 22 C       -7.1480     1.8150    -0.3700 C.3   1 <1>  -0.0970 
 23 C       -8.5720    -1.9220     1.2500 C.ar  1 <1>  -0.1500 
 24 C       -9.3530    -1.2040     0.3650 C.ar  1 <1>  -0.1500 
 25 C       -9.8020     0.7330    -1.1490 C.3   1 <1>  -0.0970 
 26 H       -2.1430     1.5270     2.5130 H     1 <1>   0.3700 
 27 H        0.8480    -0.0530    -1.7690 H     1 <1>   0.0800 
 28 H        0.9330    -1.7920    -1.6860 H     1 <1>   0.0800 
 29 H        1.6800    -0.8250    -0.4400 H     1 <1>   0.0800 
 30 H       -0.5900    -3.3950    -1.2590 H     1 <1>   0.0800 
 31 H       -2.3130    -3.2590    -1.4320 H     1 <1>   0.0800 
 32 H       -1.6260    -3.9070     0.0370 H     1 <1>   0.0800 
 33 H       -5.9810     0.5400     3.4110 H     1 <1>   0.0800 
 34 H       -5.0480    -0.8860     3.0460 H     1 <1>   0.0800 
 35 H       -3.7580    -1.5780    -1.6790 H     1 <1>   0.0800 
 36 H       -4.8370    -0.5370    -0.7680 H     1 <1>   0.0800 
 37 H       -5.6650    -3.0600    -2.2500 H     1 <1>   0.0800 
 38 H       -5.9790    -1.4270    -2.7860 H     1 <1>   0.0800 
 39 H       -6.7430    -2.0190    -1.3340 H     1 <1>   0.0800 
 40 H       -6.7240    -2.0280     2.2820 H     1 <1>   0.1500 
 41 H       -6.8230     1.6670    -1.3830 H     1 <1>   0.0800 
 42 H       -6.3260     2.2110     0.1960 H     1 <1>   0.0800 
 43 H       -7.9280     2.5540    -0.3550 H     1 <1>   0.0800 
 44 H       -8.9270    -2.8560     1.6490 H     1 <1>   0.1500 
 45 H      -10.3170    -1.5920     0.0890 H     1 <1>   0.1500 
 46 H      -10.1650     1.6410    -0.7030 H     1 <1>   0.0800 
 47 H      -10.6470     0.1310    -1.4260 H     1 <1>   0.0800 
 48 H       -9.2560     0.9730    -2.0440 H     1 <1>   0.0800 
@<TRIPOS>BOND
  1   1   2  1   
  2   1   3  1   
  3   2   4  1   
  4   2   5  2   
  5   3   6  2   
  6   3   7  1   
  7   4   8  am  
  8   4  26  1   
  9   5   6  1   
 10   5   9  1   
 11   6  10  1   
 12   7  27  1   
 13   7  28  1   
 14   7  29  1   
 15   8  11  2   
 16   8  12  1   
 17   9  13  2   
 18   9  14  1   
 19  10  30  1   
 20  10  31  1   
 21  10  32  1   
 22  12  15  1   
 23  12  33  1   
 24  12  34  1   
 25  14  16  1   
 26  15  17  1   
 27  16  18  1   
 28  16  35  1   
 29  16  36  1   
 30  17  19  ar  
 31  17  20  ar  
 32  18  37  1   
 33  18  38  1   
 34  18  39  1   
 35  19  21  ar  
 36  19  22  1   
 37  20  23  ar  
 38  20  40  1   
 39  21  24  ar  
 40  21  25  1   
 41  22  41  1   
 42  22  42  1   
 43  22  43  1   
 44  23  24  ar  
 45  23  44  1   
 46  24  45  1   
 47  25  46  1   
 48  25  47  1   
 49  25  48  1   
@<TRIPOS>SUBSTRUCTURE
  1 ****  15 GROUP 4 **** **** 0

# MOE 2024.06 (io_trps.svl 2023.06)
