@<TRIPOS>MOLECULE
4-(4-Methyl-benzoylamino)-piperidine-1-carboxylic acid (3-acetyl-phenyl)-amide
53 55 1 0 0 
SMALL
USER_CHARGES


@<TRIPOS>ATOM
  1 O        0.4330    -0.2190     0.7750 O.2   1 <1>  -0.5700 
  2 C        0.4470    -1.1820     0.0330 C.2   1 <1>   0.6900 
  3 N        1.4260    -1.3110    -0.9210 N.am  1 <1>  -0.6600 
  4 N       -0.5240    -2.1400     0.1110 N.am  1 <1>  -0.5470 
  5 C        2.2930    -0.1530    -1.2810 C.3   1 <1>   0.1400 
  6 C        1.9050    -2.6200    -1.4470 C.3   1 <1>   0.1400 
  7 C       -1.5400    -2.3380     1.0570 C.ar  1 <1>   0.1170 
  8 C        3.7100    -0.3960    -0.7600 C.3   1 <1>  -0.1600 
  9 C        3.3220    -2.8840    -0.9330 C.3   1 <1>  -0.1600 
 10 C       -2.7150    -2.9670     0.6680 C.ar  1 <1>  -0.1500 
 11 C       -1.4050    -1.9440     2.3820 C.ar  1 <1>  -0.1500 
 12 C        4.2540    -1.7240    -1.2850 C.3   1 <1>   0.2200 
 13 C       -3.7650    -3.2130     1.5570 C.ar  1 <1>   0.0860 
 14 C       -2.4210    -2.1730     3.2890 C.ar  1 <1>  -0.1500 
 15 N        5.5740    -1.9740    -0.6850 N.am  1 <1>  -0.7300 
 16 C       -5.0020    -3.8630     1.1660 C.2   1 <1>   0.4230 
 17 C       -3.5820    -2.8000     2.8790 C.ar  1 <1>  -0.1500 
 18 C        6.6900    -2.3740    -1.3650 C.2   1 <1>   0.5440 
 19 O       -5.8600    -4.1750     1.9500 O.2   1 <1>  -0.5700 
 20 C       -5.2740    -4.1810    -0.2920 C.3   1 <1>  -0.1790 
 21 O        6.6070    -2.5440    -2.5660 O.2   1 <1>  -0.5700 
 22 C        7.9490    -2.5800    -0.6670 C.ar  1 <1>   0.0860 
 23 C        7.9990    -2.9440     0.6800 C.ar  1 <1>  -0.1500 
 24 C        9.1670    -2.4190    -1.3270 C.ar  1 <1>  -0.1500 
 25 C        9.2030    -3.1220     1.3370 C.ar  1 <1>  -0.1500 
 26 C       10.3740    -2.5970    -0.6760 C.ar  1 <1>  -0.1500 
 27 C       10.4000    -2.9500     0.6620 C.ar  1 <1>  -0.1430 
 28 C       11.7230    -3.1440     1.3800 C.3   1 <1>  -0.0970 
 29 H       -0.5670    -2.7130    -0.7230 H     1 <1>   0.3700 
 30 H        1.9020     0.7600    -0.8630 H     1 <1>   0.0800 
 31 H        2.3080    -0.0450    -2.3520 H     1 <1>   0.0800 
 32 H        1.9070    -2.5870    -2.5240 H     1 <1>   0.0800 
 33 H        1.2630    -3.4240    -1.1350 H     1 <1>   0.0800 
 34 H        3.6820    -0.3990     0.3150 H     1 <1>   0.0800 
 35 H        4.3460     0.4080    -1.0850 H     1 <1>   0.0800 
 36 H        3.6970    -3.7870    -1.3780 H     1 <1>   0.0800 
 37 H        3.2850    -3.0170     0.1340 H     1 <1>   0.0800 
 38 H       -2.8050    -3.2670    -0.3580 H     1 <1>   0.1500 
 39 H       -0.5030    -1.4570     2.7090 H     1 <1>   0.1500 
 40 H        4.3490    -1.6630    -2.3580 H     1 <1>   0.0800 
 41 H       -2.3070    -1.8630     4.3130 H     1 <1>   0.1500 
 42 H        5.6450    -1.7620     0.3090 H     1 <1>   0.3700 
 43 H       -4.3670    -2.9730     3.5950 H     1 <1>   0.1500 
 44 H       -4.5850    -4.9270    -0.6400 H     1 <1>   0.0800 
 45 H       -5.1840    -3.2920    -0.8880 H     1 <1>   0.0800 
 46 H       -6.2740    -4.5630    -0.4000 H     1 <1>   0.0800 
 47 H        7.0850    -3.0980     1.2240 H     1 <1>   0.1500 
 48 H        9.1610    -2.1490    -2.3690 H     1 <1>   0.1500 
 49 H        9.2080    -3.4000     2.3770 H     1 <1>   0.1500 
 50 H       11.2940    -2.4610    -1.2170 H     1 <1>   0.1500 
 51 H       11.6210    -3.8610     2.1740 H     1 <1>   0.0800 
 52 H       12.0520    -2.2080     1.7960 H     1 <1>   0.0800 
 53 H       12.4720    -3.5020     0.6960 H     1 <1>   0.0800 
@<TRIPOS>BOND
  1   1   2  2   
  2   2   3  am  
  3   2   4  am  
  4   3   5  1   
  5   3   6  1   
  6   4   7  1   
  7   4  29  1   
  8   5   8  1   
  9   5  30  1   
 10   5  31  1   
 11   6   9  1   
 12   6  32  1   
 13   6  33  1   
 14   7  10  ar  
 15   7  11  ar  
 16   8  12  1   
 17   8  34  1   
 18   8  35  1   
 19   9  12  1   
 20   9  36  1   
 21   9  37  1   
 22  10  13  ar  
 23  10  38  1   
 24  11  14  ar  
 25  11  39  1   
 26  12  15  1   
 27  12  40  1   
 28  13  16  1   
 29  13  17  ar  
 30  14  17  ar  
 31  14  41  1   
 32  15  18  am  
 33  15  42  1   
 34  16  19  2   
 35  16  20  1   
 36  17  43  1   
 37  18  21  2   
 38  18  22  1   
 39  20  44  1   
 40  20  45  1   
 41  20  46  1   
 42  22  23  ar  
 43  22  24  ar  
 44  23  25  ar  
 45  23  47  1   
 46  24  26  ar  
 47  24  48  1   
 48  25  27  ar  
 49  25  49  1   
 50  26  27  ar  
 51  26  50  1   
 52  27  28  1   
 53  28  51  1   
 54  28  52  1   
 55  28  53  1   
@<TRIPOS>SUBSTRUCTURE
  1 ****   9 GROUP 4 **** **** 0

# MOE 2024.06 (io_trps.svl 2023.06)
