@<TRIPOS>MOLECULE
2-[2-(1-Benzyl-3-cyclohexyl-ureido)-acetylamino]-4,5-dimethyl-thiophene-3-carboxylic acid amide
61 63 1 0 0 
SMALL
USER_CHARGES


@<TRIPOS>ATOM
  1 S        0.5510     0.3340     0.8780 S.3   1 <1>  -0.0800 
  2 C       -1.0470     0.1770     0.1800 C.2   1 <1>   0.1040 
  3 C        0.2710     2.0010     1.3340 C.2   1 <1>  -0.1400 
  4 N       -1.2990    -1.0790    -0.3490 N.am  1 <1>  -0.4940 
  5 C       -1.7290     1.3640     0.2680 C.2   1 <1>  -0.0860 
  6 C       -0.9610     2.3860     0.9490 C.2   1 <1>  -0.1810 
  7 C        1.4220     2.6820     2.0490 C.3   1 <1>  -0.0600 
  8 C       -2.3610    -1.9320    -0.2180 C.2   1 <1>   0.5690 
  9 C       -3.0310     1.6450    -0.2790 C.2   1 <1>   0.7160 
 10 C       -1.5500     3.7710     1.1870 C.3   1 <1>  -0.0590 
 11 O       -3.3290    -1.6910     0.4650 O.2   1 <1>  -0.5700 
 12 C       -2.2790    -3.2790    -0.9310 C.3   1 <1>   0.2010 
 13 O       -3.2310     2.5670    -1.0460 O.2   1 <1>  -0.5700 
 14 N       -4.1110     0.9130     0.0460 N.am  1 <1>  -0.8000 
 15 N       -1.2350    -4.1770    -0.3350 N.am  1 <1>  -0.6600 
 16 C        0.0660    -4.0720    -0.7260 C.2   1 <1>   0.6900 
 17 C       -1.6560    -4.8960     0.8960 C.3   1 <1>   0.2840 
 18 O        0.4280    -3.0940    -1.3550 O.2   1 <1>  -0.5700 
 19 N        0.9410    -5.0530    -0.4130 N.am  1 <1>  -0.7300 
 20 C       -2.6810    -5.9670     0.5510 C.ar  1 <1>  -0.1430 
 21 C        2.3640    -5.0770    -0.7820 C.3   1 <1>   0.2200 
 22 C       -3.9320    -5.9500     1.1500 C.ar  1 <1>  -0.1500 
 23 C       -2.3800    -6.9660    -0.3630 C.ar  1 <1>  -0.1500 
 24 C        2.5750    -6.1330    -1.8720 C.3   1 <1>  -0.1600 
 25 C        3.1930    -5.3920     0.4670 C.3   1 <1>  -0.1600 
 26 C       -4.8680    -6.9230     0.8440 C.ar  1 <1>  -0.1500 
 27 C       -3.3150    -7.9400    -0.6700 C.ar  1 <1>  -0.1500 
 28 C        4.0640    -6.2790    -2.2210 C.3   1 <1>  -0.1600 
 29 C        4.6830    -5.5370     0.1220 C.3   1 <1>  -0.1600 
 30 C       -4.5590    -7.9190    -0.0650 C.ar  1 <1>  -0.1500 
 31 C        4.8990    -6.5910    -0.9720 C.3   1 <1>  -0.1600 
 32 H       -0.4670    -1.5540    -0.7350 H     1 <1>   0.3700 
 33 H        1.6360     2.1650     2.9660 H     1 <1>   0.0800 
 34 H        1.1880     3.7050     2.2770 H     1 <1>   0.0800 
 35 H        2.2980     2.6620     1.4260 H     1 <1>   0.0800 
 36 H       -0.9090     4.3710     1.8030 H     1 <1>   0.0800 
 37 H       -2.5030     3.6870     1.6770 H     1 <1>   0.0800 
 38 H       -1.6870     4.2770     0.2480 H     1 <1>   0.0800 
 39 H       -2.0510    -3.1070    -1.9680 H     1 <1>   0.0800 
 40 H       -3.2390    -3.7600    -0.8870 H     1 <1>   0.0800 
 41 H       -4.9810     1.0750    -0.4540 H     1 <1>   0.3700 
 42 H       -3.9910    -0.0190     0.4650 H     1 <1>   0.3700 
 43 H       -2.0810    -4.1880     1.5870 H     1 <1>   0.0800 
 44 H       -0.8130    -5.3520     1.3830 H     1 <1>   0.0800 
 45 H        0.5710    -5.9240    -0.0450 H     1 <1>   0.3700 
 46 H        2.6590    -4.1130    -1.1640 H     1 <1>   0.0800 
 47 H       -4.1880    -5.1800     1.8580 H     1 <1>   0.1500 
 48 H       -1.4200    -6.9880    -0.8470 H     1 <1>   0.1500 
 49 H        2.0310    -5.8460    -2.7540 H     1 <1>   0.0800 
 50 H        2.2020    -7.0830    -1.5320 H     1 <1>   0.0800 
 51 H        2.8470    -6.3100     0.9090 H     1 <1>   0.0800 
 52 H        3.0700    -4.6000     1.1840 H     1 <1>   0.0800 
 53 H       -5.8360    -6.9050     1.3130 H     1 <1>   0.1500 
 54 H       -3.0750    -8.7120    -1.3800 H     1 <1>   0.1500 
 55 H        4.4160    -5.3630    -2.6650 H     1 <1>   0.0800 
 56 H        4.1900    -7.0660    -2.9460 H     1 <1>   0.0800 
 57 H        5.2330    -5.8140     1.0050 H     1 <1>   0.0800 
 58 H        5.0620    -4.5880    -0.2180 H     1 <1>   0.0800 
 59 H       -5.2870    -8.6760    -0.3030 H     1 <1>   0.1500 
 60 H        5.9420    -6.6260    -1.2360 H     1 <1>   0.0800 
 61 H        4.6240    -7.5600    -0.5920 H     1 <1>   0.0800 
@<TRIPOS>BOND
  1   1   2  1   
  2   1   3  1   
  3   2   4  1   
  4   2   5  2   
  5   3   6  2   
  6   3   7  1   
  7   4   8  am  
  8   4  32  1   
  9   5   6  1   
 10   5   9  1   
 11   6  10  1   
 12   7  33  1   
 13   7  34  1   
 14   7  35  1   
 15   8  11  2   
 16   8  12  1   
 17   9  13  2   
 18   9  14  am  
 19  10  36  1   
 20  10  37  1   
 21  10  38  1   
 22  12  15  1   
 23  12  39  1   
 24  12  40  1   
 25  14  41  1   
 26  14  42  1   
 27  15  16  am  
 28  15  17  1   
 29  16  18  2   
 30  16  19  am  
 31  17  20  1   
 32  17  43  1   
 33  17  44  1   
 34  19  21  1   
 35  19  45  1   
 36  20  22  ar  
 37  20  23  ar  
 38  21  24  1   
 39  21  25  1   
 40  21  46  1   
 41  22  26  ar  
 42  22  47  1   
 43  23  27  ar  
 44  23  48  1   
 45  24  28  1   
 46  24  49  1   
 47  24  50  1   
 48  25  29  1   
 49  25  51  1   
 50  25  52  1   
 51  26  30  ar  
 52  26  53  1   
 53  27  30  ar  
 54  27  54  1   
 55  28  31  1   
 56  28  55  1   
 57  28  56  1   
 58  29  31  1   
 59  29  57  1   
 60  29  58  1   
 61  30  59  1   
 62  31  60  1   
 63  31  61  1   
@<TRIPOS>SUBSTRUCTURE
  1 ****  15 GROUP 4 **** **** 0

# MOE 2024.06 (io_trps.svl 2023.06)
