@<TRIPOS>MOLECULE
2-[1-(2,3-Dihydro-benzo[1,4]dioxin-2-ylmethyl)-piperidin-4-yl]-1H-benzoimidazole
50 54 1 0 0 
SMALL
USER_CHARGES


@<TRIPOS>ATOM
  1 O        0.2560     0.1180     0.0080 O.3   1 <1>  -0.3630 
  2 C       -0.6900    -0.8540     0.0540 C.ar  1 <1>   0.0830 
  3 C       -0.1340     1.4170     0.4270 C.3   1 <1>   0.2000 
  4 C       -2.0420    -0.5350     0.1980 C.ar  1 <1>   0.0820 
  5 C       -0.2970    -2.1780    -0.0400 C.ar  1 <1>  -0.1500 
  6 C       -1.5310     1.7500    -0.1220 C.3   1 <1>   0.1200 
  7 C        0.9270     2.4420    -0.0250 C.3   1 <1>   0.3430 
  8 O       -2.4530     0.7570     0.2730 O.3   1 <1>  -0.3630 
  9 C       -2.9870    -1.5430     0.2640 C.ar  1 <1>  -0.1500 
 10 C       -1.2480    -3.1840     0.0210 C.ar  1 <1>  -0.1500 
 11 N        2.3250     1.8900     0.0120 N.4   1 <1>  -0.9590 
 12 C       -2.5890    -2.8680     0.1750 C.ar  1 <1>  -0.1500 
 13 C        3.3310     2.8940     0.4540 C.3   1 <1>   0.3430 
 14 C        2.6990     1.2580    -1.2870 C.3   1 <1>   0.3430 
 15 C        4.6760     2.2020     0.6540 C.3   1 <1>  -0.1600 
 16 C        4.0270     0.5260    -1.1250 C.3   1 <1>  -0.1600 
 17 C        5.1390     1.4500    -0.6050 C.3   1 <1>   0.1000 
 18 C        6.3800     0.6290    -0.2860 C.2   1 <1>   0.0060 
 19 N        6.4020    -0.3000     0.6060 N.2   1 <1>  -0.5650 
 20 N        7.5710     0.8060    -0.9180 N.pl3 1 <1>   0.0330 
 21 C        7.6780    -0.7760     0.5740 C.ar  1 <1>   0.2270 
 22 C        8.4220    -0.0970    -0.3720 C.ar  1 <1>  -0.1520 
 23 C        8.2700    -1.7890     1.3270 C.ar  1 <1>  -0.1500 
 24 C        9.7660    -0.4020    -0.5960 C.ar  1 <1>  -0.1500 
 25 C        9.5960    -2.0980     1.1140 C.ar  1 <1>  -0.1500 
 26 C       10.3430    -1.4040     0.1530 C.ar  1 <1>  -0.1500 
 27 H       -0.1780     1.4050     1.5020 H     1 <1>   0.0800 
 28 H        0.7420    -2.4250    -0.1550 H     1 <1>   0.1500 
 29 H       -1.5240     1.7840    -1.1980 H     1 <1>   0.0800 
 30 H       -1.8860     2.6910     0.2590 H     1 <1>   0.0800 
 31 H        0.8540     3.3020     0.6200 H     1 <1>   0.0800 
 32 H        0.6970     2.7720    -1.0240 H     1 <1>   0.0800 
 33 H       -4.0260    -1.2910     0.3810 H     1 <1>   0.1500 
 34 H       -0.9460    -4.2150    -0.0500 H     1 <1>   0.1500 
 35 H        2.3240     1.1180     0.7000 H     1 <1>   0.4500 
 36 H       -3.3250    -3.6530     0.2240 H     1 <1>   0.1500 
 37 H        3.0230     3.3450     1.3830 H     1 <1>   0.0800 
 38 H        3.4270     3.6700    -0.2880 H     1 <1>   0.0800 
 39 H        2.7870     2.0120    -2.0520 H     1 <1>   0.0800 
 40 H        1.9410     0.5530    -1.5890 H     1 <1>   0.0800 
 41 H        4.5950     1.5160     1.4800 H     1 <1>   0.0800 
 42 H        5.4180     2.9340     0.9240 H     1 <1>   0.0800 
 43 H        4.3220     0.1100    -2.0720 H     1 <1>   0.0800 
 44 H        3.8870    -0.2990    -0.4470 H     1 <1>   0.0800 
 45 H        5.3790     2.1690    -1.3700 H     1 <1>   0.0800 
 46 H        7.8060     1.4730    -1.6570 H     1 <1>   0.2700 
 47 H        7.6750    -2.3050     2.0570 H     1 <1>   0.1500 
 48 H       10.3330     0.1350    -1.3360 H     1 <1>   0.1500 
 49 H       10.0700    -2.8770     1.6860 H     1 <1>   0.1500 
 50 H       11.3760    -1.6650     0.0060 H     1 <1>   0.1500 
@<TRIPOS>BOND
  1   1   2  1   
  2   1   3  1   
  3   2   4  ar  
  4   2   5  ar  
  5   3   6  1   
  6   3   7  1   
  7   3  27  1   
  8   4   8  1   
  9   4   9  ar  
 10   5  10  ar  
 11   5  28  1   
 12   6   8  1   
 13   6  29  1   
 14   6  30  1   
 15   7  11  1   
 16   7  31  1   
 17   7  32  1   
 18   9  12  ar  
 19   9  33  1   
 20  10  12  ar  
 21  10  34  1   
 22  11  13  1   
 23  11  14  1   
 24  11  35  1   
 25  12  36  1   
 26  13  15  1   
 27  13  37  1   
 28  13  38  1   
 29  14  16  1   
 30  14  39  1   
 31  14  40  1   
 32  15  17  1   
 33  15  41  1   
 34  15  42  1   
 35  16  17  1   
 36  16  43  1   
 37  16  44  1   
 38  17  18  1   
 39  17  45  1   
 40  18  19  2   
 41  18  20  1   
 42  19  21  1   
 43  20  22  1   
 44  20  46  1   
 45  21  22  ar  
 46  21  23  ar  
 47  22  24  ar  
 48  23  25  ar  
 49  23  47  1   
 50  24  26  ar  
 51  24  48  1   
 52  25  26  ar  
 53  25  49  1   
 54  26  50  1   
@<TRIPOS>SUBSTRUCTURE
  1 ****  16 GROUP 4 **** **** 0

# MOE 2024.06 (io_trps.svl 2023.06)
