@<TRIPOS>MOLECULE
NONAME
20 20 1 0 0 
SMALL
USER_CHARGES


@<TRIPOS>ATOM
  1 O       -0.2410     0.6480     0.7880 O.co2 1 <1>  -0.9000 
  2 C       -0.0620     1.5350    -0.0610 C.2   1 <1>   0.9060 
  3 O        1.0250     1.7790    -0.5840 O.co2 1 <1>  -0.9000 
  4 C       -1.3210     2.3130    -0.4880 C.3   1 <1>   0.3170 
  5 N       -2.5650     1.5800    -0.0430 N.4   1 <1>  -0.9060 
  6 C       -1.3310     3.7320     0.1070 C.3   1 <1>  -0.1600 
  7 C       -3.8520     2.2560    -0.3080 C.3   1 <1>   0.3430 
  8 C       -2.6410     4.4800    -0.1760 C.3   1 <1>  -0.1600 
  9 C       -3.8410     3.6550     0.3090 C.3   1 <1>  -0.1600 
 10 H       -1.3050     2.3810    -1.5610 H     1 <1>   0.0800 
 11 H       -2.4990     0.6360    -0.4420 H     1 <1>   0.4500 
 12 H       -2.3840     1.4040     0.9580 H     1 <1>   0.4500 
 13 H       -1.1670     3.6660     1.1700 H     1 <1>   0.0800 
 14 H       -0.5020     4.2810    -0.3060 H     1 <1>   0.0800 
 15 H       -4.0000     2.3380    -1.3730 H     1 <1>   0.0800 
 16 H       -4.6630     1.6790     0.1060 H     1 <1>   0.0800 
 17 H       -2.6270     5.4340     0.3240 H     1 <1>   0.0800 
 18 H       -2.7280     4.6630    -1.2340 H     1 <1>   0.0800 
 19 H       -4.7530     4.1630     0.0460 H     1 <1>   0.0800 
 20 H       -3.8170     3.5700     1.3820 H     1 <1>   0.0800 
@<TRIPOS>BOND
  1   1   2  ar  
  2   2   3  ar  
  3   2   4  1   
  4   4   5  1   
  5   4   6  1   
  6   4  10  1   
  7   5   7  1   
  8   5  11  1   
  9   5  12  1   
 10   6   8  1   
 11   6  13  1   
 12   6  14  1   
 13   7   9  1   
 14   7  15  1   
 15   7  16  1   
 16   8   9  1   
 17   8  17  1   
 18   8  18  1   
 19   9  19  1   
 20   9  20  1   
@<TRIPOS>SUBSTRUCTURE
  1 ****   4 GROUP 4 **** **** 0

# MOE 2024.06 (io_trps.svl 2023.06)
