@<TRIPOS>MOLECULE
NONAME
29 30 1 0 0 
SMALL
USER_CHARGES


@<TRIPOS>ATOM
  1 O       -0.5360     0.0760    -1.4140 O.2   1 <1>  -0.5700 
  2 C       -1.5250    -0.3140    -0.8300 C.2   1 <1>   0.5690 
  3 N       -1.8320    -1.6340    -0.6200 N.am  1 <1>  -0.4770 
  4 C       -2.5060     0.7180    -0.2990 C.3   1 <1>   0.1810 
  5 C       -3.1440    -1.9890    -0.2050 C.ar  1 <1>   0.1170 
  6 C       -0.7370    -2.6710    -0.7440 C.3   1 <1>   0.0340 
  7 O       -3.8570     0.2980    -0.4460 O.3   1 <1>  -0.3620 
  8 C       -4.1430    -1.0030    -0.1510 C.ar  1 <1>   0.0820 
  9 C       -3.5000    -3.2910     0.1370 C.ar  1 <1>  -0.1500 
 10 C       -0.2350    -3.2500     0.5770 C.2   1 <1>   0.9060 
 11 C       -5.4490    -1.3200     0.2010 C.ar  1 <1>  -0.1430 
 12 C       -4.7950    -3.6130     0.5040 C.ar  1 <1>  -0.1430 
 13 O        0.2890    -2.5100     1.4190 O.co2 1 <1>  -0.9000 
 14 O       -0.3490    -4.4700     0.7580 O.co2 1 <1>  -0.9000 
 15 C       -5.7670    -2.6290     0.5280 C.ar  1 <1>  -0.1500 
 16 C       -6.5270    -0.2470     0.2380 C.3   1 <1>  -0.0970 
 17 C       -5.1360    -5.0440     0.8780 C.3   1 <1>  -0.0970 
 18 H       -2.3870     1.6450    -0.8270 H     1 <1>   0.0800 
 19 H       -2.3200     0.8720     0.7470 H     1 <1>   0.0800 
 20 H        0.1150    -2.2460    -1.2370 H     1 <1>   0.0800 
 21 H       -1.0890    -3.4810    -1.3510 H     1 <1>   0.0800 
 22 H       -2.7640    -4.0740     0.1260 H     1 <1>   0.1500 
 23 H       -6.7730    -2.8840     0.8070 H     1 <1>   0.1500 
 24 H       -6.2660     0.5030     0.9640 H     1 <1>   0.0800 
 25 H       -7.4820    -0.6630     0.5000 H     1 <1>   0.0800 
 26 H       -6.6070     0.2200    -0.7270 H     1 <1>   0.0800 
 27 H       -4.2800    -5.5260     1.3180 H     1 <1>   0.0800 
 28 H       -5.4260    -5.5900    -0.0010 H     1 <1>   0.0800 
 29 H       -5.9400    -5.0680     1.5890 H     1 <1>   0.0800 
@<TRIPOS>BOND
  1   1   2  2   
  2   2   3  am  
  3   2   4  1   
  4   3   5  1   
  5   3   6  1   
  6   4   7  1   
  7   4  18  1   
  8   4  19  1   
  9   5   8  ar  
 10   5   9  ar  
 11   6  10  1   
 12   6  20  1   
 13   6  21  1   
 14   7   8  1   
 15   8  11  ar  
 16   9  12  ar  
 17   9  22  1   
 18  10  13  ar  
 19  10  14  ar  
 20  11  15  ar  
 21  11  16  1   
 22  12  15  ar  
 23  12  17  1   
 24  15  23  1   
 25  16  24  1   
 26  16  25  1   
 27  16  26  1   
 28  17  27  1   
 29  17  28  1   
 30  17  29  1   
@<TRIPOS>SUBSTRUCTURE
  1 ****   5 GROUP 4 **** **** 0

# MOE 2024.06 (io_trps.svl 2023.06)
