@<TRIPOS>MOLECULE
NONAME
54 57 1 0 0 
SMALL
USER_CHARGES


@<TRIPOS>ATOM
  1 S       -3.2550    -0.0060    -4.7620 S.3   1 <1>   0.1810 
  2 N       -2.3680    -0.0850    -3.3220 N.2   1 <1>  -0.2210 
  3 C       -4.7570    -0.0200    -3.9290 C.2   1 <1>  -0.1100 
  4 N       -3.1350    -0.1140    -2.3250 N.2   1 <1>  -0.2270 
  5 C       -4.4980    -0.0710    -2.6110 C.2   1 <1>   0.1410 
  6 C       -5.4950    -0.1210    -1.5570 C.2   1 <1>   0.7160 
  7 O       -6.4520    -0.8590    -1.7090 O.2   1 <1>  -0.5700 
  8 N       -5.4030     0.6390    -0.4020 N.am  1 <1>  -0.4770 
  9 C       -4.4560     1.6500    -0.2150 C.ar  1 <1>   0.1170 
 10 C       -6.5210     0.6390     0.5990 C.3   1 <1>   0.4610 
 11 C       -4.6780     2.9230    -0.7260 C.ar  1 <1>  -0.1500 
 12 C       -3.2910     1.4050     0.4990 C.ar  1 <1>  -0.1500 
 13 C       -6.5610    -0.6730     1.3900 C.2   1 <1>  -0.0400 
 14 C       -7.8790     1.0280    -0.0260 C.2   1 <1>   0.5690 
 15 C       -3.7490     3.9280    -0.5310 C.ar  1 <1>  -0.1500 
 16 C       -2.3630     2.4110     0.6930 C.ar  1 <1>  -0.1500 
 17 O       -7.3870    -0.7570     2.4190 O.3   1 <1>  -0.2800 
 18 C       -5.8770    -1.8330     1.2530 C.2   1 <1>  -0.1500 
 19 O       -8.0170     2.1550    -0.4470 O.2   1 <1>  -0.5700 
 20 N       -8.8940     0.1200    -0.1090 N.am  1 <1>  -0.7300 
 21 C       -2.5870     3.6790     0.1800 C.ar  1 <1>  -0.1430 
 22 C       -7.2540    -1.9550     2.9500 C.2   1 <1>  -0.0100 
 23 C       -6.3340    -2.6740     2.2750 C.2   1 <1>  -0.1500 
 24 C      -10.1870     0.3260    -0.7700 C.3   1 <1>   0.2200 
 25 C       -1.5640     4.7810     0.3900 C.3   1 <1>  -0.0970 
 26 C      -11.3060    -0.0560     0.2040 C.3   1 <1>  -0.1600 
 27 C      -10.2300    -0.5360    -2.0350 C.3   1 <1>  -0.1600 
 28 C      -12.6820     0.0270    -0.4730 C.3   1 <1>  -0.1600 
 29 C      -11.6040    -0.4530    -2.7170 C.3   1 <1>  -0.1600 
 30 C      -12.7290    -0.8320    -1.7440 C.3   1 <1>  -0.1600 
 31 H       -5.6710     0.0080    -4.4910 H     1 <1>   0.1500 
 32 H       -6.3100     1.4090     1.3180 H     1 <1>   0.0800 
 33 H       -5.5820     3.1270    -1.2740 H     1 <1>   0.1500 
 34 H       -3.1100     0.4230     0.8970 H     1 <1>   0.1500 
 35 H       -3.9360     4.9080    -0.9360 H     1 <1>   0.1500 
 36 H       -1.4610     2.2020     1.2430 H     1 <1>   0.1500 
 37 H       -5.1310    -2.0990     0.5240 H     1 <1>   0.1500 
 38 H       -8.7180    -0.8340     0.2170 H     1 <1>   0.3700 
 39 H       -7.8520    -2.2130     3.8070 H     1 <1>   0.1500 
 40 H       -5.9970    -3.6790     2.4540 H     1 <1>   0.1500 
 41 H      -10.2950     1.3630    -1.0440 H     1 <1>   0.0800 
 42 H       -2.0460     5.7420     0.4080 H     1 <1>   0.0800 
 43 H       -0.8470     4.7670    -0.4100 H     1 <1>   0.0800 
 44 H       -1.0480     4.6420     1.3230 H     1 <1>   0.0800 
 45 H      -11.2830     0.6090     1.0490 H     1 <1>   0.0800 
 46 H      -11.1500    -1.0610     0.5550 H     1 <1>   0.0800 
 47 H      -10.0260    -1.5610    -1.7800 H     1 <1>   0.0800 
 48 H       -9.4700    -0.1980    -2.7180 H     1 <1>   0.0800 
 49 H      -12.8910     1.0530    -0.7290 H     1 <1>   0.0800 
 50 H      -13.4430    -0.3010     0.2140 H     1 <1>   0.0800 
 51 H      -11.6250    -1.1120    -3.5680 H     1 <1>   0.0800 
 52 H      -11.7640     0.5510    -3.0730 H     1 <1>   0.0800 
 53 H      -13.6820    -0.7070    -2.2290 H     1 <1>   0.0800 
 54 H      -12.6310    -1.8710    -1.4750 H     1 <1>   0.0800 
@<TRIPOS>BOND
  1   1   2  1   
  2   1   3  1   
  3   2   4  2   
  4   3   5  2   
  5   3  31  1   
  6   4   5  1   
  7   5   6  1   
  8   6   7  2   
  9   6   8  am  
 10   8   9  1   
 11   8  10  1   
 12   9  11  ar  
 13   9  12  ar  
 14  10  13  1   
 15  10  14  1   
 16  10  32  1   
 17  11  15  ar  
 18  11  33  1   
 19  12  16  ar  
 20  12  34  1   
 21  13  17  1   
 22  13  18  2   
 23  14  19  2   
 24  14  20  am  
 25  15  21  ar  
 26  15  35  1   
 27  16  21  ar  
 28  16  36  1   
 29  17  22  1   
 30  18  23  1   
 31  18  37  1   
 32  20  24  1   
 33  20  38  1   
 34  21  25  1   
 35  22  23  2   
 36  22  39  1   
 37  23  40  1   
 38  24  26  1   
 39  24  27  1   
 40  24  41  1   
 41  25  42  1   
 42  25  43  1   
 43  25  44  1   
 44  26  28  1   
 45  26  45  1   
 46  26  46  1   
 47  27  29  1   
 48  27  47  1   
 49  27  48  1   
 50  28  30  1   
 51  28  49  1   
 52  28  50  1   
 53  29  30  1   
 54  29  51  1   
 55  29  52  1   
 56  30  53  1   
 57  30  54  1   
@<TRIPOS>SUBSTRUCTURE
  1 ****   8 GROUP 4 **** **** 0

# MOE 2024.06 (io_trps.svl 2023.06)
