@<TRIPOS>MOLECULE
1-[2-(4-Benzyl-piperidin-1-yl)-2-oxo-ethyl]-3-ethyl-1H-thieno[3,2-d]pyrimidine-2
54 57 1 0 0 
SMALL
USER_CHARGES


@<TRIPOS>ATOM
  1 S        6.2900    -3.8500     0.7740 S.3   1 <1>  -0.0800 
  2 C        4.6180    -3.8590     0.1980 C.2   1 <1>  -0.0450 
  3 C        5.7740    -3.3790     2.3840 C.2   1 <1>  -0.1100 
  4 C        4.1970    -4.1650    -1.1210 C.2   1 <1>   0.7150 
  5 C        3.7720    -3.5360     1.2030 C.2   1 <1>   0.0630 
  6 C        4.4340    -3.2530     2.4420 C.2   1 <1>  -0.1500 
  7 O        4.9760    -4.5010    -1.9990 O.2   1 <1>  -0.5700 
  8 N        2.8390    -4.0810    -1.3770 N.am  1 <1>  -0.4200 
  9 N        2.4010    -3.5230     0.9330 N.am  1 <1>  -0.4230 
 10 C        1.9490    -3.7310    -0.3670 C.2   1 <1>   0.6900 
 11 C        2.3240    -4.4310    -2.7300 C.3   1 <1>   0.1400 
 12 C        1.4120    -3.4560     2.0670 C.3   1 <1>   0.2010 
 13 O        0.7610    -3.6320    -0.6170 O.2   1 <1>  -0.5700 
 14 C        2.3020    -3.1850    -3.6160 C.3   1 <1>  -0.2400 
 15 C        1.5760    -4.5850     3.0900 C.2   1 <1>   0.5690 
 16 O        1.8700    -4.2560     4.2170 O.2   1 <1>  -0.5700 
 17 N        1.4200    -5.9110     2.7530 N.am  1 <1>  -0.6600 
 18 C        0.9240    -6.4160     1.4500 C.3   1 <1>   0.1400 
 19 C        1.9490    -6.9960     3.6180 C.3   1 <1>   0.1400 
 20 C        2.0990    -7.0260     0.6840 C.3   1 <1>  -0.1600 
 21 C        3.1510    -7.6350     2.9130 C.3   1 <1>  -0.1600 
 22 C        2.8170    -8.1280     1.4890 C.3   1 <1>  -0.0800 
 23 C        4.1020    -8.5990     0.7780 C.3   1 <1>  -0.0170 
 24 C        3.8830    -8.9000    -0.6990 C.ar  1 <1>  -0.1430 
 25 C        3.1700   -10.0230    -1.0890 C.ar  1 <1>  -0.1500 
 26 C        4.3860    -8.0440    -1.6680 C.ar  1 <1>  -0.1500 
 27 C        2.9550   -10.2840    -2.4320 C.ar  1 <1>  -0.1500 
 28 C        4.1720    -8.3030    -3.0100 C.ar  1 <1>  -0.1500 
 29 C        3.4550    -9.4230    -3.3930 C.ar  1 <1>  -0.1500 
 30 H        6.5380    -3.2410     3.1290 H     1 <1>   0.1500 
 31 H        3.8900    -2.9680     3.3240 H     1 <1>   0.1500 
 32 H        1.3310    -4.8410    -2.6520 H     1 <1>   0.0800 
 33 H        2.9490    -5.1870    -3.1760 H     1 <1>   0.0800 
 34 H        0.4020    -3.4790     1.7040 H     1 <1>   0.0800 
 35 H        1.5430    -2.5180     2.5740 H     1 <1>   0.0800 
 36 H        1.6580    -2.4360    -3.1910 H     1 <1>   0.0800 
 37 H        1.9270    -3.4420    -4.5900 H     1 <1>   0.0800 
 38 H        3.2950    -2.7870    -3.7280 H     1 <1>   0.0800 
 39 H        0.4590    -5.6350     0.8790 H     1 <1>   0.0800 
 40 H        0.1780    -7.1710     1.6290 H     1 <1>   0.0800 
 41 H        1.1780    -7.7290     3.7820 H     1 <1>   0.0800 
 42 H        2.2520    -6.6080     4.5760 H     1 <1>   0.0800 
 43 H        2.8050    -6.2560     0.4470 H     1 <1>   0.0800 
 44 H        1.7280    -7.4260    -0.2430 H     1 <1>   0.0800 
 45 H        3.5090    -8.4580     3.5070 H     1 <1>   0.0800 
 46 H        3.9360    -6.9000     2.8710 H     1 <1>   0.0800 
 47 H        2.1460    -8.9660     1.5690 H     1 <1>   0.0800 
 48 H        4.4800    -9.4810     1.2640 H     1 <1>   0.0800 
 49 H        4.8590    -7.8380     0.8680 H     1 <1>   0.0800 
 50 H        2.7770   -10.6970    -0.3490 H     1 <1>   0.1500 
 51 H        4.9480    -7.1710    -1.3870 H     1 <1>   0.1500 
 52 H        2.4010   -11.1560    -2.7290 H     1 <1>   0.1500 
 53 H        4.5680    -7.6320    -3.7530 H     1 <1>   0.1500 
 54 H        3.2900    -9.6250    -4.4370 H     1 <1>   0.1500 
@<TRIPOS>BOND
  1   1   2  1   
  2   1   3  1   
  3   2   4  1   
  4   2   5  2   
  5   3   6  2   
  6   3  30  1   
  7   4   7  2   
  8   4   8  am  
  9   5   6  1   
 10   5   9  1   
 11   6  31  1   
 12   8  10  am  
 13   8  11  1   
 14   9  10  am  
 15   9  12  1   
 16  10  13  2   
 17  11  14  1   
 18  11  32  1   
 19  11  33  1   
 20  12  15  1   
 21  12  34  1   
 22  12  35  1   
 23  14  36  1   
 24  14  37  1   
 25  14  38  1   
 26  15  16  2   
 27  15  17  am  
 28  17  18  1   
 29  17  19  1   
 30  18  20  1   
 31  18  39  1   
 32  18  40  1   
 33  19  21  1   
 34  19  41  1   
 35  19  42  1   
 36  20  22  1   
 37  20  43  1   
 38  20  44  1   
 39  21  22  1   
 40  21  45  1   
 41  21  46  1   
 42  22  23  1   
 43  22  47  1   
 44  23  24  1   
 45  23  48  1   
 46  23  49  1   
 47  24  25  ar  
 48  24  26  ar  
 49  25  27  ar  
 50  25  50  1   
 51  26  28  ar  
 52  26  51  1   
 53  27  29  ar  
 54  27  52  1   
 55  28  29  ar  
 56  28  53  1   
 57  29  54  1   
@<TRIPOS>SUBSTRUCTURE
  1 ****  20 GROUP 4 **** **** 0

# MOE 2024.06 (io_trps.svl 2023.06)
