@<TRIPOS>MOLECULE
NONAME
52 55 1 0 0 
SMALL
USER_CHARGES


@<TRIPOS>ATOM
  1 O       -0.7220     0.3110    -1.7710 O.2   1 <1>  -0.5700 
  2 C       -0.0340     1.0150    -1.0730 C.2   1 <1>   0.5690 
  3 N       -0.5280     1.6470     0.0240 N.am  1 <1>  -0.7300 
  4 C        1.4340     1.2070    -1.4390 C.3   1 <1>  -0.0190 
  5 C       -1.9280     1.5580     0.4980 C.3   1 <1>   0.1400 
  6 C        2.3620     0.6200    -0.3570 C.3   1 <1>  -0.1600 
  7 C        1.7620     2.6900    -1.7020 C.3   1 <1>  -0.1600 
  8 C       -2.7000     2.8050     0.0710 C.3   1 <1>  -0.0170 
  9 C        3.8360     0.8570    -0.6910 C.3   1 <1>   0.2090 
 10 C        3.2520     2.9130    -1.9740 C.3   1 <1>   0.2090 
 11 C       -4.1220     2.7510     0.6040 C.ar  1 <1>  -0.1440 
 12 N        4.0650     2.3160    -0.8780 N.pl3 1 <1>  -0.8220 
 13 C       -4.4610     3.4100     1.7770 C.ar  1 <1>  -0.1500 
 14 C       -5.0930     2.0350    -0.0790 C.ar  1 <1>  -0.1500 
 15 C        4.3530     3.1030     0.2570 C.2   1 <1>   0.2700 
 16 C       -5.7570     3.3530     2.2610 C.ar  1 <1>  -0.1500 
 17 C       -6.3890     1.9780     0.4040 C.ar  1 <1>  -0.1500 
 18 N        3.6480     4.1170     0.6210 N.2   1 <1>  -0.3380 
 19 N        5.3620     2.9280     1.1370 N.pl3 1 <1>   0.5930 
 20 C       -6.7220     2.6370     1.5740 C.ar  1 <1>  -0.1500 
 21 N        4.1970     4.5660     1.7440 N.2   1 <1>   0.0000 
 22 N        5.2160     3.8670     2.0720 N.2   1 <1>  -0.4180 
 23 C        6.4190     1.9710     1.1420 C.ar  1 <1>  -0.0230 
 24 C        7.1000     1.6500    -0.0300 C.ar  1 <1>  -0.1500 
 25 C        6.7910     1.3330     2.3230 C.ar  1 <1>  -0.1500 
 26 C        8.1170     0.7130    -0.0240 C.ar  1 <1>  -0.1500 
 27 C        7.8070     0.3940     2.3300 C.ar  1 <1>  -0.1500 
 28 C        8.4700     0.0820     1.1560 C.ar  1 <1>  -0.1500 
 29 H        0.0920     2.2530     0.5650 H     1 <1>   0.3700 
 30 H        1.6100     0.6650    -2.3520 H     1 <1>   0.0800 
 31 H       -1.9390     1.4670     1.5700 H     1 <1>   0.0800 
 32 H       -2.4000     0.6830     0.0820 H     1 <1>   0.0800 
 33 H        2.1850    -0.4370    -0.2700 H     1 <1>   0.0800 
 34 H        2.1510     1.0670     0.5980 H     1 <1>   0.0800 
 35 H        1.4800     3.2900    -0.8550 H     1 <1>   0.0800 
 36 H        1.1940     3.0390    -2.5460 H     1 <1>   0.0800 
 37 H       -2.7230     2.8590    -1.0040 H     1 <1>   0.0800 
 38 H       -2.2070     3.6850     0.4440 H     1 <1>   0.0800 
 39 H        4.1000     0.3370    -1.5960 H     1 <1>   0.0800 
 40 H        4.4520     0.4740     0.1040 H     1 <1>   0.0800 
 41 H        3.4580     3.9680    -2.0490 H     1 <1>   0.0800 
 42 H        3.5280     2.4530    -2.9070 H     1 <1>   0.0800 
 43 H       -3.7190     3.9690     2.3190 H     1 <1>   0.1500 
 44 H       -4.8430     1.5180    -0.9900 H     1 <1>   0.1500 
 45 H       -6.0150     3.8660     3.1700 H     1 <1>   0.1500 
 46 H       -7.1370     1.4200    -0.1310 H     1 <1>   0.1500 
 47 H       -7.7290     2.5920     1.9500 H     1 <1>   0.1500 
 48 H        6.8340     2.1360    -0.9540 H     1 <1>   0.1500 
 49 H        6.2850     1.5720     3.2440 H     1 <1>   0.1500 
 50 H        8.6370     0.4730    -0.9360 H     1 <1>   0.1500 
 51 H        8.0860    -0.0930     3.2490 H     1 <1>   0.1500 
 52 H        9.2620    -0.6480     1.1620 H     1 <1>   0.1500 
@<TRIPOS>BOND
  1   1   2  2   
  2   2   3  am  
  3   2   4  1   
  4   3   5  1   
  5   3  29  1   
  6   4   6  1   
  7   4   7  1   
  8   4  30  1   
  9   5   8  1   
 10   5  31  1   
 11   5  32  1   
 12   6   9  1   
 13   6  33  1   
 14   6  34  1   
 15   7  10  1   
 16   7  35  1   
 17   7  36  1   
 18   8  11  1   
 19   8  37  1   
 20   8  38  1   
 21   9  12  1   
 22   9  39  1   
 23   9  40  1   
 24  10  12  1   
 25  10  41  1   
 26  10  42  1   
 27  11  13  ar  
 28  11  14  ar  
 29  12  15  1   
 30  13  16  ar  
 31  13  43  1   
 32  14  17  ar  
 33  14  44  1   
 34  15  18  2   
 35  15  19  1   
 36  16  20  ar  
 37  16  45  1   
 38  17  20  ar  
 39  17  46  1   
 40  18  21  1   
 41  19  22  1   
 42  19  23  1   
 43  20  47  1   
 44  21  22  2   
 45  23  24  ar  
 46  23  25  ar  
 47  24  26  ar  
 48  24  48  1   
 49  25  27  ar  
 50  25  49  1   
 51  26  28  ar  
 52  26  50  1   
 53  27  28  ar  
 54  27  51  1   
 55  28  52  1   
@<TRIPOS>SUBSTRUCTURE
  1 ****   6 GROUP 4 **** **** 0

# MOE 2024.06 (io_trps.svl 2023.06)
