@<TRIPOS>MOLECULE
1-(5-Methyl-[1,2,4]triazolo[1,5-a]pyrimidin-7-yl)-piperidine-4-carboxylic acid (3-fluoro-4-methyl-phenyl)-am
49 52 1 0 0 
SMALL
USER_CHARGES


@<TRIPOS>ATOM
  1 F       -1.9410    -4.2650    -1.6760 F     1 <1>  -0.1900 
  2 C       -2.4590    -3.6420    -0.6480 C.ar  1 <1>   0.1900 
  3 C       -2.0930    -4.0300     0.6330 C.ar  1 <1>  -0.1440 
  4 C       -3.3580    -2.6230    -0.8920 C.ar  1 <1>  -0.1500 
  5 C       -2.6680    -3.3530     1.6990 C.ar  1 <1>  -0.1500 
  6 C       -1.0890    -5.1480     0.8740 C.3   1 <1>  -0.0960 
  7 C       -3.9450    -1.9690     0.1810 C.ar  1 <1>   0.1170 
  8 C       -3.5790    -2.3350     1.4720 C.ar  1 <1>  -0.1500 
  9 N       -4.8770    -0.9480    -0.0190 N.am  1 <1>  -0.5470 
 10 C       -6.2280    -0.9650    -0.2100 C.2   1 <1>   0.5690 
 11 O       -6.8060     0.0890    -0.2870 O.2   1 <1>  -0.5700 
 12 C       -7.0630    -2.2470    -0.3370 C.3   1 <1>  -0.0190 
 13 C       -6.9460    -3.1910     0.8790 C.3   1 <1>  -0.1600 
 14 C       -6.7950    -2.9910    -1.6600 C.3   1 <1>  -0.1600 
 15 C       -7.7910    -4.4510     0.6990 C.3   1 <1>   0.2090 
 16 C       -7.5980    -4.2890    -1.7730 C.3   1 <1>   0.2090 
 17 N       -7.3640    -5.1220    -0.5590 N.pl3 1 <1>  -0.8380 
 18 C       -6.7090    -6.3260    -0.5590 C.2   1 <1>   0.4790 
 19 N       -5.6040    -6.5490    -1.3410 N.pl3 1 <1>  -0.3220 
 20 C       -7.0970    -7.3790     0.2360 C.2   1 <1>  -0.1360 
 21 N       -4.9070    -5.7310    -2.2030 N.2   1 <1>  -0.2600 
 22 C       -4.9700    -7.7300    -1.2560 C.cat 1 <1>   0.9620 
 23 C       -6.3780    -8.5680     0.2260 C.2   1 <1>   0.3750 
 24 C       -3.9130    -6.4400    -2.5940 C.2   1 <1>   0.5030 
 25 N       -5.3120    -8.7660    -0.5070 N.2   1 <1>  -0.6120 
 26 N       -3.9150    -7.6800    -2.0440 N.pl3 1 <1>  -0.7000 
 27 C       -6.8180    -9.7230     1.1000 C.3   1 <1>  -0.1790 
 28 H       -3.5970    -2.3410    -1.9000 H     1 <1>   0.1500 
 29 H       -2.4060    -3.6130     2.7110 H     1 <1>   0.1500 
 30 H       -0.1660    -4.9260     0.3680 H     1 <1>   0.0800 
 31 H       -1.4750    -6.0790     0.5010 H     1 <1>   0.0800 
 32 H       -0.8800    -5.2590     1.9230 H     1 <1>   0.0800 
 33 H       -4.0160    -1.8160     2.3070 H     1 <1>   0.1500 
 34 H       -4.5170     0.0050     0.0560 H     1 <1>   0.3700 
 35 H       -8.0900    -1.9270    -0.3720 H     1 <1>   0.0800 
 36 H       -7.2600    -2.6720     1.7670 H     1 <1>   0.0800 
 37 H       -5.9300    -3.5020     1.0200 H     1 <1>   0.0800 
 38 H       -5.7570    -3.2320    -1.7400 H     1 <1>   0.0800 
 39 H       -7.0430    -2.3490    -2.4870 H     1 <1>   0.0800 
 40 H       -8.8360    -4.1940     0.6360 H     1 <1>   0.0800 
 41 H       -7.6500    -5.0970     1.5480 H     1 <1>   0.0800 
 42 H       -7.3200    -4.8260    -2.6640 H     1 <1>   0.0800 
 43 H       -8.6480    -4.0590    -1.8440 H     1 <1>   0.0800 
 44 H       -7.9650    -7.2820     0.8590 H     1 <1>   0.1500 
 45 H       -3.1510    -6.1020    -3.2810 H     1 <1>   0.1500 
 46 H       -3.2620    -8.4510    -2.1580 H     1 <1>   0.4500 
 47 H       -7.7010    -9.4780     1.6630 H     1 <1>   0.0800 
 48 H       -6.0330    -9.9800     1.7880 H     1 <1>   0.0800 
 49 H       -7.0310   -10.5820     0.4880 H     1 <1>   0.0800 
@<TRIPOS>BOND
  1   1   2  1   
  2   2   3  ar  
  3   2   4  ar  
  4   3   5  ar  
  5   3   6  1   
  6   4   7  ar  
  7   4  28  1   
  8   5   8  ar  
  9   5  29  1   
 10   6  30  1   
 11   6  31  1   
 12   6  32  1   
 13   7   8  ar  
 14   7   9  1   
 15   8  33  1   
 16   9  10  am  
 17   9  34  1   
 18  10  11  2   
 19  10  12  1   
 20  12  13  1   
 21  12  14  1   
 22  12  35  1   
 23  13  15  1   
 24  13  36  1   
 25  13  37  1   
 26  14  16  1   
 27  14  38  1   
 28  14  39  1   
 29  15  17  1   
 30  15  40  1   
 31  15  41  1   
 32  16  17  1   
 33  16  42  1   
 34  16  43  1   
 35  17  18  1   
 36  18  19  1   
 37  18  20  2   
 38  19  21  1   
 39  19  22  ar  
 40  20  23  1   
 41  20  44  1   
 42  21  24  2   
 43  22  25  1   
 44  22  26  ar  
 45  23  25  2   
 46  23  27  1   
 47  24  26  1   
 48  24  45  1   
 49  26  46  1   
 50  27  47  1   
 51  27  48  1   
 52  27  49  1   
@<TRIPOS>SUBSTRUCTURE
  1 ****  21 GROUP 4 **** **** 0

# MOE 2024.06 (io_trps.svl 2023.06)
