@<TRIPOS>MOLECULE
2-[3-(4-Methoxy-phenyl)-6-oxo-6H-pyridazin-1-yl]-N-(tetrahydro-furan-2-ylmethyl)-acetamide
46 48 1 0 0 
SMALL
USER_CHARGES


@<TRIPOS>ATOM
  1 O       -1.4120    -1.4850    -0.2180 O.2   1 <1>  -0.5700 
  2 C       -0.3940    -2.1610    -0.2970 C.2   1 <1>   0.6160 
  3 N       -0.0040    -3.0180     0.7260 N.am  1 <1>  -0.2980 
  4 C        0.4420    -2.1160    -1.4340 C.2   1 <1>  -0.1360 
  5 N        1.0960    -3.8370     0.6720 N.2   1 <1>  -0.5120 
  6 C       -0.8460    -3.0970     1.9590 C.3   1 <1>   0.2010 
  7 C        1.5430    -2.9090    -1.4790 C.2   1 <1>  -0.1360 
  8 C        1.8520    -3.7860    -0.3970 C.2   1 <1>   0.3490 
  9 C       -2.0320    -4.0380     1.7870 C.2   1 <1>   0.5690 
 10 C        3.0270    -4.6250    -0.4850 C.ar  1 <1>   0.0860 
 11 O       -3.0520    -3.8230     2.3990 O.2   1 <1>  -0.5700 
 12 N       -1.9110    -5.1010     0.9490 N.am  1 <1>  -0.7300 
 13 C        3.3560    -5.3130    -1.6560 C.ar  1 <1>  -0.1500 
 14 C        3.8820    -4.7780     0.6080 C.ar  1 <1>  -0.1500 
 15 C       -3.0210    -6.0000     0.5350 C.3   1 <1>   0.1400 
 16 C        4.4920    -6.0980    -1.7330 C.ar  1 <1>  -0.1500 
 17 C        5.0190    -5.5620     0.5390 C.ar  1 <1>  -0.1500 
 18 C       -4.0540    -5.2580    -0.3270 C.3   1 <1>   0.2000 
 19 C        5.3340    -6.2280    -0.6420 C.ar  1 <1>   0.0830 
 20 O       -4.9140    -6.1800    -0.9140 O.3   1 <1>  -0.5600 
 21 C       -3.4810    -4.4870    -1.5110 C.3   1 <1>  -0.1600 
 22 O        6.4270    -7.0110    -0.8010 O.3   1 <1>  -0.3630 
 23 C       -5.5650    -5.5880    -1.9900 C.3   1 <1>   0.1200 
 24 C       -4.6020    -4.5360    -2.5380 C.3   1 <1>  -0.1600 
 25 C        7.3420    -7.2210     0.2510 C.3   1 <1>   0.0400 
 26 H        0.1640    -1.4410    -2.2210 H     1 <1>   0.1500 
 27 H       -1.2110    -2.1180     2.2100 H     1 <1>   0.0800 
 28 H       -0.2450    -3.4500     2.7750 H     1 <1>   0.0800 
 29 H        2.2070    -2.8880    -2.3230 H     1 <1>   0.1500 
 30 H       -1.0170    -5.2120     0.4610 H     1 <1>   0.3700 
 31 H        2.7160    -5.2420    -2.5160 H     1 <1>   0.1500 
 32 H        3.6460    -4.2680     1.5270 H     1 <1>   0.1500 
 33 H       -3.5100    -6.3830     1.4140 H     1 <1>   0.0800 
 34 H       -2.6140    -6.8230    -0.0250 H     1 <1>   0.0800 
 35 H        4.7370    -6.6200    -2.6410 H     1 <1>   0.1500 
 36 H        5.6450    -5.6440     1.4070 H     1 <1>   0.1500 
 37 H       -4.6500    -4.6070     0.2920 H     1 <1>   0.0800 
 38 H       -2.6080    -4.9900    -1.8880 H     1 <1>   0.0800 
 39 H       -3.2200    -3.4810    -1.2310 H     1 <1>   0.0800 
 40 H       -6.4700    -5.1340    -1.6230 H     1 <1>   0.0800 
 41 H       -5.7980    -6.3490    -2.7140 H     1 <1>   0.0800 
 42 H       -4.2330    -4.8210    -3.5070 H     1 <1>   0.0800 
 43 H       -5.1030    -3.5880    -2.6160 H     1 <1>   0.0800 
 44 H        8.1170    -7.8750    -0.1060 H     1 <1>   0.0800 
 45 H        6.8260    -7.6810     1.0760 H     1 <1>   0.0800 
 46 H        7.7650    -6.2750     0.5400 H     1 <1>   0.0800 
@<TRIPOS>BOND
  1   1   2  2   
  2   2   3  am  
  3   2   4  1   
  4   3   5  1   
  5   3   6  1   
  6   4   7  2   
  7   4  26  1   
  8   5   8  2   
  9   6   9  1   
 10   6  27  1   
 11   6  28  1   
 12   7   8  1   
 13   7  29  1   
 14   8  10  1   
 15   9  11  2   
 16   9  12  am  
 17  10  13  ar  
 18  10  14  ar  
 19  12  15  1   
 20  12  30  1   
 21  13  16  ar  
 22  13  31  1   
 23  14  17  ar  
 24  14  32  1   
 25  15  18  1   
 26  15  33  1   
 27  15  34  1   
 28  16  19  ar  
 29  16  35  1   
 30  17  19  ar  
 31  17  36  1   
 32  18  20  1   
 33  18  21  1   
 34  18  37  1   
 35  19  22  1   
 36  20  23  1   
 37  21  24  1   
 38  21  38  1   
 39  21  39  1   
 40  22  25  1   
 41  23  24  1   
 42  23  40  1   
 43  23  41  1   
 44  24  42  1   
 45  24  43  1   
 46  25  44  1   
 47  25  45  1   
 48  25  46  1   
@<TRIPOS>SUBSTRUCTURE
  1 ****   5 GROUP 4 **** **** 0

# MOE 2024.06 (io_trps.svl 2023.06)
