@<TRIPOS>MOLECULE
NONAME
25 25 1 0 0 
SMALL
USER_CHARGES


@<TRIPOS>ATOM
  1 O        2.3520    -0.7280    -1.6430 O.2   1 <1>  -0.5700 
  2 C        1.9960    -1.2970    -0.6410 C.2   1 <1>   0.6590 
  3 O        1.6660    -0.6340     0.4640 O.3   1 <1>  -0.4300 
  4 C        1.9400    -2.8150    -0.5650 C.3   1 <1>   0.1810 
  5 C        1.6750     0.7770     0.5140 C.3   1 <1>   0.0400 
  6 O        0.6100    -3.2680    -0.3710 O.3   1 <1>  -0.3630 
  7 C        0.3290    -4.5890    -0.2510 C.ar  1 <1>   0.0830 
  8 C       -0.9940    -4.9240    -0.0110 C.ar  1 <1>  -0.1500 
  9 C        1.2830    -5.5980    -0.3550 C.ar  1 <1>  -0.1500 
 10 C       -1.3770    -6.2480     0.1290 C.ar  1 <1>  -0.1440 
 11 C        0.9030    -6.9220    -0.2170 C.ar  1 <1>  -0.1500 
 12 C       -0.4210    -7.2450     0.0240 C.ar  1 <1>  -0.1500 
 13 C       -2.8290    -6.6070     0.3900 C.3   1 <1>  -0.0970 
 14 H        2.5370    -3.1520     0.2610 H     1 <1>   0.0800 
 15 H        2.3070    -3.2300    -1.4850 H     1 <1>   0.0800 
 16 H        1.3690     1.0840     1.4980 H     1 <1>   0.0800 
 17 H        0.9880     1.1550    -0.2230 H     1 <1>   0.0800 
 18 H        2.6710     1.1270     0.3070 H     1 <1>   0.0800 
 19 H       -1.7200    -4.1350     0.0640 H     1 <1>   0.1500 
 20 H        2.3160    -5.3800    -0.5420 H     1 <1>   0.1500 
 21 H        1.6370    -7.7040    -0.2970 H     1 <1>   0.1500 
 22 H       -0.7060    -8.2770     0.1280 H     1 <1>   0.1500 
 23 H       -3.3580    -5.7670     0.8030 H     1 <1>   0.0800 
 24 H       -2.8900    -7.4220     1.0880 H     1 <1>   0.0800 
 25 H       -3.3020    -6.8980    -0.5300 H     1 <1>   0.0800 
@<TRIPOS>BOND
  1   1   2  2   
  2   2   3  1   
  3   2   4  1   
  4   3   5  1   
  5   4   6  1   
  6   4  14  1   
  7   4  15  1   
  8   5  16  1   
  9   5  17  1   
 10   5  18  1   
 11   6   7  1   
 12   7   8  ar  
 13   7   9  ar  
 14   8  10  ar  
 15   8  19  1   
 16   9  11  ar  
 17   9  20  1   
 18  10  12  ar  
 19  10  13  1   
 20  11  12  ar  
 21  11  21  1   
 22  12  22  1   
 23  13  23  1   
 24  13  24  1   
 25  13  25  1   
@<TRIPOS>SUBSTRUCTURE
  1 ****   6 GROUP 4 **** **** 0

# MOE 2024.06 (io_trps.svl 2023.06)
