@<TRIPOS>MOLECULE
NONAME
53 56 1 0 0 
SMALL
USER_CHARGES


@<TRIPOS>ATOM
  1 S        0.3930     1.1100     0.3270 S.3   1 <1>   0.1810 
  2 N        1.5240     0.9540     1.5800 N.2   1 <1>  -0.2210 
  3 C        1.6070     1.0230    -0.8860 C.2   1 <1>  -0.1100 
  4 N        2.6890     0.8440     1.1190 N.2   1 <1>  -0.2270 
  5 C        2.7930     0.8750    -0.2710 C.2   1 <1>   0.1410 
  6 C        4.0890     0.7830    -0.9150 C.2   1 <1>   0.7160 
  7 O        4.2180     1.1550    -2.0680 O.2   1 <1>  -0.5700 
  8 N        5.1810     0.2990    -0.2260 N.am  1 <1>  -0.2860 
  9 C        5.1840    -0.9950     0.3130 C.ar  1 <1>   0.1170 
 10 C        6.3940     1.0530    -0.1950 C.2   1 <1>   0.1230 
 11 C        5.1270    -2.1040    -0.5230 C.ar  1 <1>  -0.1500 
 12 C        5.2560    -1.1930     1.6880 C.ar  1 <1>  -0.1500 
 13 C        6.4190     2.2350     0.5250 C.2   1 <1>   0.1000 
 14 C        7.5080     0.4900    -0.8930 C.2   1 <1>   0.6160 
 15 C        5.1270    -3.3830     0.0020 C.ar  1 <1>  -0.1500 
 16 C        5.2560    -2.4710     2.2150 C.ar  1 <1>  -0.1500 
 17 N        5.3890     2.5530     1.4240 N.pl3 1 <1>  -0.6000 
 18 C        7.4530     3.2250     0.4380 C.2   1 <1>  -0.1500 
 19 O        7.3650    -0.1440    -1.9320 O.2   1 <1>  -0.5700 
 20 N        8.7810     0.5760    -0.3800 N.am  1 <1>  -0.7300 
 21 C        5.1900    -3.5680     1.3730 C.ar  1 <1>  -0.1500 
 22 C        5.3880     3.6910     2.2020 C.2   1 <1>  -0.0500 
 23 C        7.4580     4.3520     1.1980 C.2   1 <1>  -0.1500 
 24 C        9.9410    -0.1680    -0.8930 C.3   1 <1>   0.2200 
 25 C        6.4000     4.5870     2.1100 C.2   1 <1>  -0.1500 
 26 C       10.0710    -1.4800    -0.1130 C.3   1 <1>  -0.1600 
 27 C       11.1920     0.7020    -0.7350 C.3   1 <1>  -0.1600 
 28 C       11.3330    -2.2500    -0.5280 C.3   1 <1>  -0.1600 
 29 C       12.4560    -0.0650    -1.1530 C.3   1 <1>  -0.1600 
 30 C       12.5890    -1.3810    -0.3740 C.3   1 <1>  -0.1600 
 31 H        1.3270     1.0950    -1.9200 H     1 <1>   0.1500 
 32 H        5.0960    -1.9600    -1.5900 H     1 <1>   0.1500 
 33 H        5.3070    -0.3450     2.3470 H     1 <1>   0.1500 
 34 H        5.0830    -4.2340    -0.6550 H     1 <1>   0.1500 
 35 H        5.3060    -2.6150     3.2810 H     1 <1>   0.1500 
 36 H        4.6030     1.8940     1.5240 H     1 <1>   0.4000 
 37 H        8.2430     3.0710    -0.2730 H     1 <1>   0.1500 
 38 H        8.8810     0.9220     0.5750 H     1 <1>   0.3700 
 39 H        5.1890    -4.5640     1.7830 H     1 <1>   0.1500 
 40 H        4.5570     3.8320     2.8760 H     1 <1>   0.1500 
 41 H        8.2410     5.0860     1.1230 H     1 <1>   0.1500 
 42 H        9.7990    -0.3910    -1.9390 H     1 <1>   0.0800 
 43 H        6.4230     5.4810     2.7070 H     1 <1>   0.1500 
 44 H        9.2050    -2.0910    -0.3010 H     1 <1>   0.0800 
 45 H       10.1190    -1.2710     0.9420 H     1 <1>   0.0800 
 46 H       11.2930     1.0070     0.2910 H     1 <1>   0.0800 
 47 H       11.0930     1.5810    -1.3470 H     1 <1>   0.0800 
 48 H       11.2380    -2.5600    -1.5550 H     1 <1>   0.0800 
 49 H       11.4300    -3.1370     0.0760 H     1 <1>   0.0800 
 50 H       13.3240     0.5470    -0.9790 H     1 <1>   0.0800 
 51 H       12.4100    -0.2800    -2.2070 H     1 <1>   0.0800 
 52 H       13.4480    -1.9250    -0.7290 H     1 <1>   0.0800 
 53 H       12.7470    -1.1640     0.6690 H     1 <1>   0.0800 
@<TRIPOS>BOND
  1   1   2  1   
  2   1   3  1   
  3   2   4  2   
  4   3   5  2   
  5   3  31  1   
  6   4   5  1   
  7   5   6  1   
  8   6   7  2   
  9   6   8  am  
 10   8   9  1   
 11   8  10  1   
 12   9  11  ar  
 13   9  12  ar  
 14  10  13  2   
 15  10  14  1   
 16  11  15  ar  
 17  11  32  1   
 18  12  16  ar  
 19  12  33  1   
 20  13  17  1   
 21  13  18  1   
 22  14  19  2   
 23  14  20  am  
 24  15  21  ar  
 25  15  34  1   
 26  16  21  ar  
 27  16  35  1   
 28  17  22  1   
 29  17  36  1   
 30  18  23  2   
 31  18  37  1   
 32  20  24  1   
 33  20  38  1   
 34  21  39  1   
 35  22  25  2   
 36  22  40  1   
 37  23  25  1   
 38  23  41  1   
 39  24  26  1   
 40  24  27  1   
 41  24  42  1   
 42  25  43  1   
 43  26  28  1   
 44  26  44  1   
 45  26  45  1   
 46  27  29  1   
 47  27  46  1   
 48  27  47  1   
 49  28  30  1   
 50  28  48  1   
 51  28  49  1   
 52  29  30  1   
 53  29  50  1   
 54  29  51  1   
 55  30  52  1   
 56  30  53  1   
@<TRIPOS>SUBSTRUCTURE
  1 ****  10 GROUP 4 **** **** 0

# MOE 2024.06 (io_trps.svl 2023.06)
