@<TRIPOS>MOLECULE
NONAME
42 44 1 0 0 
SMALL
USER_CHARGES


@<TRIPOS>ATOM
  1 CL      -0.1850    -0.0930    -0.4770 Cl    1 <1>  -0.1770 
  2 C       -1.9030     0.0850    -0.2210 C.ar  1 <1>   0.1770 
  3 C       -2.7870    -0.4350    -1.1470 C.ar  1 <1>  -0.1500 
  4 C       -2.3570     0.7440     0.9060 C.ar  1 <1>  -0.1500 
  5 C       -4.1480    -0.2920    -0.9390 C.ar  1 <1>  -0.1500 
  6 C       -3.7200     0.8840     1.1050 C.ar  1 <1>  -0.1500 
  7 C       -4.6340     0.3710     0.1870 C.ar  1 <1>   0.1170 
  8 N       -6.0040     0.5310     0.4460 N.am  1 <1>  -0.5470 
  9 C       -7.0820     0.5200    -0.4000 C.2   1 <1>   0.5690 
 10 O       -6.9840     0.3910    -1.5950 O.2   1 <1>  -0.5700 
 11 C       -8.4680     0.6880     0.2210 C.3   1 <1>  -0.0190 
 12 C       -9.3020    -0.5980     0.0840 C.3   1 <1>  -0.1600 
 13 C       -9.2360     1.8670    -0.4020 C.3   1 <1>  -0.1600 
 14 C      -10.6920    -0.4460     0.7050 C.3   1 <1>   0.2090 
 15 C      -10.6190     2.0310     0.2310 C.3   1 <1>   0.2090 
 16 N      -11.3730     0.7500     0.1350 N.pl3 1 <1>  -0.8380 
 17 C      -12.6820     0.7030    -0.3040 C.ar  1 <1>   0.7200 
 18 N      -13.4260    -0.3240     0.1100 N.ar  1 <1>  -0.6200 
 19 N      -13.0950     1.6900    -1.0980 N.ar  1 <1>  -0.6200 
 20 C      -14.6650    -0.3640    -0.3100 C.ar  1 <1>   0.1670 
 21 C      -14.3370     1.6260    -1.5070 C.ar  1 <1>   0.1600 
 22 C      -15.1770     0.6060    -1.1380 C.ar  1 <1>  -0.1500 
 23 C      -15.5110    -1.5290     0.1560 C.3   1 <1>  -0.0970 
 24 H       -2.4130    -0.9450    -2.0170 H     1 <1>   0.1500 
 25 H       -1.6490     1.1410     1.6110 H     1 <1>   0.1500 
 26 H       -4.8310    -0.7050    -1.6590 H     1 <1>   0.1500 
 27 H       -4.0720     1.3990     1.9800 H     1 <1>   0.1500 
 28 H       -6.2270     0.7200     1.4190 H     1 <1>   0.3700 
 29 H       -8.3480     0.8930     1.2690 H     1 <1>   0.0800 
 30 H       -8.7920    -1.4180     0.5570 H     1 <1>   0.0800 
 31 H       -9.4180    -0.8440    -0.9580 H     1 <1>   0.0800 
 32 H       -9.3620     1.7060    -1.4590 H     1 <1>   0.0800 
 33 H       -8.6780     2.7770    -0.2740 H     1 <1>   0.0800 
 34 H      -10.6150    -0.3270     1.7720 H     1 <1>   0.0800 
 35 H      -11.2550    -1.3420     0.5080 H     1 <1>   0.0800 
 36 H      -11.1400     2.8340    -0.2610 H     1 <1>   0.0800 
 37 H      -10.5190     2.2950     1.2690 H     1 <1>   0.0800 
 38 H      -14.6940     2.4090    -2.1540 H     1 <1>   0.1500 
 39 H      -16.1920     0.5740    -1.4840 H     1 <1>   0.1500 
 40 H      -15.0600    -2.4500    -0.1650 H     1 <1>   0.0800 
 41 H      -16.5060    -1.4700    -0.2440 H     1 <1>   0.0800 
 42 H      -15.5640    -1.5260     1.2290 H     1 <1>   0.0800 
@<TRIPOS>BOND
  1   1   2  1   
  2   2   3  ar  
  3   2   4  ar  
  4   3   5  ar  
  5   3  24  1   
  6   4   6  ar  
  7   4  25  1   
  8   5   7  ar  
  9   5  26  1   
 10   6   7  ar  
 11   6  27  1   
 12   7   8  1   
 13   8   9  am  
 14   8  28  1   
 15   9  10  2   
 16   9  11  1   
 17  11  12  1   
 18  11  13  1   
 19  11  29  1   
 20  12  14  1   
 21  12  30  1   
 22  12  31  1   
 23  13  15  1   
 24  13  32  1   
 25  13  33  1   
 26  14  16  1   
 27  14  34  1   
 28  14  35  1   
 29  15  16  1   
 30  15  36  1   
 31  15  37  1   
 32  16  17  1   
 33  17  18  ar  
 34  17  19  ar  
 35  18  20  ar  
 36  19  21  ar  
 37  20  22  ar  
 38  20  23  1   
 39  21  22  ar  
 40  21  38  1   
 41  22  39  1   
 42  23  40  1   
 43  23  41  1   
 44  23  42  1   
@<TRIPOS>SUBSTRUCTURE
  1 ****  11 GROUP 4 **** **** 0

# MOE 2024.06 (io_trps.svl 2023.06)
