@<TRIPOS>MOLECULE
NONAME
50 52 1 0 0 
SMALL
USER_CHARGES


@<TRIPOS>ATOM
  1 S       -1.0420     0.0690    -2.1500 S.o2  1 <1>   1.4470 
  2 O       -1.8640     1.2510    -2.3110 O.2   1 <1>  -0.6500 
  3 O       -0.8380    -0.8110    -3.2790 O.2   1 <1>  -0.6500 
  4 N       -1.7790    -0.8580    -0.9390 N.am  1 <1>  -0.8490 
  5 C        0.5650     0.5010    -1.4270 C.ar  1 <1>  -0.0090 
  6 C       -2.1350    -0.0470     0.2460 C.3   1 <1>   0.1960 
  7 C       -2.9780    -1.5400    -1.4660 C.3   1 <1>   0.1960 
  8 C        0.8500     1.7970    -1.0120 C.ar  1 <1>  -0.1500 
  9 C        1.5500    -0.4630    -1.2460 C.ar  1 <1>  -0.1500 
 10 C       -2.8200    -0.8700     1.3540 C.3   1 <1>   0.2090 
 11 C       -3.7110    -2.3920    -0.4110 C.3   1 <1>   0.2090 
 12 C        2.0680     2.1160    -0.4390 C.ar  1 <1>  -0.1500 
 13 C        2.7700    -0.1470    -0.6750 C.ar  1 <1>  -0.1500 
 14 N       -3.9960    -1.6330     0.8440 N.pl3 1 <1>  -0.8380 
 15 C        3.0480     1.1480    -0.2570 C.ar  1 <1>   0.1170 
 16 C       -5.2570    -1.0630     0.9970 C.ar  1 <1>   0.1000 
 17 N        4.2980     1.4290     0.3120 N.am  1 <1>  -0.5470 
 18 C       -5.6760     0.0130     0.2220 C.ar  1 <1>  -0.1500 
 19 C       -6.1220    -1.5770     1.9530 C.ar  1 <1>  -0.1500 
 20 C        4.6650     2.4030     1.1960 C.2   1 <1>   0.5690 
 21 C       -6.9390     0.5650     0.3990 C.ar  1 <1>   0.0830 
 22 C       -7.3800    -1.0340     2.1370 C.ar  1 <1>  -0.1500 
 23 O        3.9010     3.2000     1.6770 O.2   1 <1>  -0.5700 
 24 C        6.1170     2.4640     1.5970 C.3   1 <1>  -0.1790 
 25 O       -7.4110     1.6150    -0.3220 O.3   1 <1>  -0.3630 
 26 C       -7.7870     0.0370     1.3600 C.ar  1 <1>  -0.1500 
 27 C       -6.6290     2.2200    -1.3280 C.3   1 <1>   0.0400 
 28 H       -2.7950     0.7550    -0.0380 H     1 <1>   0.0800 
 29 H       -1.2440     0.3960     0.6580 H     1 <1>   0.0800 
 30 H       -2.6920    -2.1880    -2.2770 H     1 <1>   0.0800 
 31 H       -3.6650    -0.8120    -1.8640 H     1 <1>   0.0800 
 32 H        0.1110     2.5700    -1.1400 H     1 <1>   0.1500 
 33 H        1.3540    -1.4750    -1.5600 H     1 <1>   0.1500 
 34 H       -3.1380    -0.2110     2.1430 H     1 <1>   0.0800 
 35 H       -2.1090    -1.5620     1.7710 H     1 <1>   0.0800 
 36 H       -3.1030    -3.2460    -0.1670 H     1 <1>   0.0800 
 37 H       -4.6350    -2.7560    -0.8250 H     1 <1>   0.0800 
 38 H        2.2550     3.1310    -0.1350 H     1 <1>   0.1500 
 39 H        3.5090    -0.9180    -0.5500 H     1 <1>   0.1500 
 40 H        5.0410     0.7830     0.0540 H     1 <1>   0.3700 
 41 H       -5.0040     0.4040    -0.5110 H     1 <1>   0.1500 
 42 H       -5.7940    -2.4090     2.5490 H     1 <1>   0.1500 
 43 H       -8.0410    -1.4420     2.8810 H     1 <1>   0.1500 
 44 H        6.3910     1.5630     2.1130 H     1 <1>   0.0800 
 45 H        6.2760     3.3000     2.2530 H     1 <1>   0.0800 
 46 H        6.7340     2.5860     0.7260 H     1 <1>   0.0800 
 47 H       -8.7630     0.4680     1.4930 H     1 <1>   0.1500 
 48 H       -7.2020     3.0200    -1.7610 H     1 <1>   0.0800 
 49 H       -6.3990     1.4870    -2.0800 H     1 <1>   0.0800 
 50 H       -5.7310     2.6130    -0.8850 H     1 <1>   0.0800 
@<TRIPOS>BOND
  1   1   2  2   
  2   1   3  2   
  3   1   4  am  
  4   1   5  1   
  5   4   6  1   
  6   4   7  1   
  7   5   8  ar  
  8   5   9  ar  
  9   6  10  1   
 10   6  28  1   
 11   6  29  1   
 12   7  11  1   
 13   7  30  1   
 14   7  31  1   
 15   8  12  ar  
 16   8  32  1   
 17   9  13  ar  
 18   9  33  1   
 19  10  14  1   
 20  10  34  1   
 21  10  35  1   
 22  11  14  1   
 23  11  36  1   
 24  11  37  1   
 25  12  15  ar  
 26  12  38  1   
 27  13  15  ar  
 28  13  39  1   
 29  14  16  1   
 30  15  17  1   
 31  16  18  ar  
 32  16  19  ar  
 33  17  20  am  
 34  17  40  1   
 35  18  21  ar  
 36  18  41  1   
 37  19  22  ar  
 38  19  42  1   
 39  20  23  2   
 40  20  24  1   
 41  21  25  1   
 42  21  26  ar  
 43  22  26  ar  
 44  22  43  1   
 45  24  44  1   
 46  24  45  1   
 47  24  46  1   
 48  25  27  1   
 49  26  47  1   
 50  27  48  1   
 51  27  49  1   
 52  27  50  1   
@<TRIPOS>SUBSTRUCTURE
  1 ****   6 GROUP 4 **** **** 0

# MOE 2024.06 (io_trps.svl 2023.06)
