@<TRIPOS>MOLECULE
8114
39 39 1 0 0 
SMALL
USER_CHARGES


@<TRIPOS>ATOM
  1 O       -0.0850    -0.3710    -0.8730 O.2   1 <1>  -0.5700 
  2 C       -0.0910    -1.5070    -0.4490 C.2   1 <1>   0.6160 
  3 N        1.1270    -2.0690    -0.2440 N.am  1 <1>  -0.7300 
  4 C       -1.3280    -2.1940    -0.1960 C.2   1 <1>  -0.1360 
  5 C        1.4970    -3.2840     0.4970 C.3   1 <1>   0.2200 
  6 C       -2.5750    -1.6690    -0.2550 C.2   1 <1>  -0.1780 
  7 C        1.9940    -4.3600    -0.4800 C.3   1 <1>  -0.1600 
  8 C        2.5880    -2.9010     1.4910 C.3   1 <1>  -0.2400 
  9 C       -3.8420    -2.3120    -0.0170 C.ar  1 <1>   0.0280 
 10 C        0.9160    -4.8320    -1.4670 C.3   1 <1>  -0.2400 
 11 C       -5.0100    -1.5500     0.0200 C.ar  1 <1>  -0.1500 
 12 C       -3.9710    -3.6870     0.1820 C.ar  1 <1>  -0.1500 
 13 C       -6.2470    -2.1240     0.2470 C.ar  1 <1>  -0.1500 
 14 C       -5.2040    -4.2680     0.4100 C.ar  1 <1>  -0.1500 
 15 C       -6.3540    -3.4970     0.4460 C.ar  1 <1>   0.0830 
 16 O       -7.5190    -4.1480     0.6770 O.3   1 <1>  -0.3630 
 17 C       -8.7780    -3.5100     0.6970 C.3   1 <1>   0.1200 
 18 C       -9.2690    -3.3090    -0.7370 C.3   1 <1>  -0.2400 
 19 H        1.9100    -1.4770    -0.5220 H     1 <1>   0.3700 
 20 H       -1.2030    -3.2240     0.0570 H     1 <1>   0.1500 
 21 H        0.6500    -3.6590     1.0460 H     1 <1>   0.0800 
 22 H       -2.6590    -0.6260    -0.5110 H     1 <1>   0.1500 
 23 H        2.8410    -3.9830    -1.0270 H     1 <1>   0.0800 
 24 H        2.3290    -5.2110     0.0870 H     1 <1>   0.0800 
 25 H        3.4600    -2.5340     0.9790 H     1 <1>   0.0800 
 26 H        2.8710    -3.7590     2.0740 H     1 <1>   0.0800 
 27 H        2.2250    -2.1430     2.1630 H     1 <1>   0.0800 
 28 H        0.5900    -4.0190    -2.0930 H     1 <1>   0.0800 
 29 H        0.0660    -5.2270    -0.9400 H     1 <1>   0.0800 
 30 H        1.3140    -5.6050    -2.1010 H     1 <1>   0.0800 
 31 H       -4.9470    -0.4870    -0.1310 H     1 <1>   0.1500 
 32 H       -3.1050    -4.3190     0.1560 H     1 <1>   0.1500 
 33 H       -7.1120    -1.4900     0.2650 H     1 <1>   0.1500 
 34 H       -5.2880    -5.3290     0.5610 H     1 <1>   0.1500 
 35 H       -9.4530    -4.1600     1.2260 H     1 <1>   0.0800 
 36 H       -8.7010    -2.5850     1.2410 H     1 <1>   0.0800 
 37 H       -9.3400    -4.2590    -1.2360 H     1 <1>   0.0800 
 38 H       -8.6010    -2.6700    -1.2850 H     1 <1>   0.0800 
 39 H      -10.2430    -2.8540    -0.7260 H     1 <1>   0.0800 
@<TRIPOS>BOND
  1   1   2  2   
  2   2   3  am  
  3   2   4  1   
  4   3   5  1   
  5   3  19  1   
  6   4   6  2   
  7   4  20  1   
  8   5   7  1   
  9   5   8  1   
 10   5  21  1   
 11   6   9  1   
 12   6  22  1   
 13   7  10  1   
 14   7  23  1   
 15   7  24  1   
 16   8  25  1   
 17   8  26  1   
 18   8  27  1   
 19   9  11  ar  
 20   9  12  ar  
 21  10  28  1   
 22  10  29  1   
 23  10  30  1   
 24  11  13  ar  
 25  11  31  1   
 26  12  14  ar  
 27  12  32  1   
 28  13  15  ar  
 29  13  33  1   
 30  14  15  ar  
 31  14  34  1   
 32  15  16  1   
 33  16  17  1   
 34  17  18  1   
 35  17  35  1   
 36  17  36  1   
 37  18  37  1   
 38  18  38  1   
 39  18  39  1   
@<TRIPOS>SUBSTRUCTURE
  1 ****   9 GROUP 4 **** **** 0

# MOE 2024.06 (io_trps.svl 2023.06)
