@<TRIPOS>MOLECULE
NONAME
44 47 1 0 0 
SMALL
USER_CHARGES


@<TRIPOS>ATOM
  1 N       -0.5090     1.5070     0.8900 N.2   1 <1>  -0.5650 
  2 C       -0.2110     2.0320    -0.3280 C.ar  1 <1>   0.2270 
  3 C        0.6020     1.5510     1.5320 C.2   1 <1>   0.0360 
  4 C        1.1240     2.3940    -0.3930 C.ar  1 <1>  -0.1520 
  5 C       -1.0500     2.2250    -1.4230 C.ar  1 <1>  -0.1500 
  6 N        1.6420     2.0740     0.8300 N.pl3 1 <1>   0.0480 
  7 C        1.6460     2.9570    -1.5640 C.ar  1 <1>  -0.1500 
  8 C       -0.5380     2.7790    -2.5750 C.ar  1 <1>  -0.1500 
  9 C        3.0210     2.2430     1.3460 C.3   1 <1>   0.1760 
 10 C        0.8110     3.1440    -2.6430 C.ar  1 <1>  -0.1500 
 11 C        3.4130     3.7280     1.3810 C.3   1 <1>  -0.1600 
 12 C        4.0190     1.4140     0.5250 C.3   1 <1>  -0.1600 
 13 C        4.8570     3.9080     1.8410 C.3   1 <1>   0.3430 
 14 C        5.4510     1.6430     1.0000 C.3   1 <1>   0.3430 
 15 N        5.7630     3.1040     0.9740 N.4   1 <1>  -0.9590 
 16 C        7.1960     3.3590     1.3010 C.3   1 <1>   0.4860 
 17 C        8.0490     2.7300     0.2180 C.ar  1 <1>  -0.1430 
 18 C        8.1170     3.3060    -1.0430 C.ar  1 <1>  -0.1500 
 19 C        8.7620     1.5680     0.4780 C.ar  1 <1>  -0.1500 
 20 C        8.8780     2.7160    -2.0370 C.ar  1 <1>  -0.1500 
 21 C        9.5230     0.9800    -0.5180 C.ar  1 <1>  -0.1500 
 22 C        9.5780     1.5530    -1.7750 C.ar  1 <1>  -0.1500 
 23 H        0.7150     1.2060     2.5450 H     1 <1>   0.1500 
 24 H       -2.0800     1.9330    -1.3390 H     1 <1>   0.1500 
 25 H        2.6780     3.2420    -1.6330 H     1 <1>   0.1500 
 26 H       -1.1720     2.9350    -3.4300 H     1 <1>   0.1500 
 27 H        3.0300     1.8710     2.3570 H     1 <1>   0.0800 
 28 H        1.1860     3.5750    -3.5560 H     1 <1>   0.1500 
 29 H        2.7630     4.2500     2.0620 H     1 <1>   0.0800 
 30 H        3.2970     4.1770     0.4110 H     1 <1>   0.0800 
 31 H        3.9570     1.6610    -0.5190 H     1 <1>   0.0800 
 32 H        3.7830     0.3690     0.6270 H     1 <1>   0.0800 
 33 H        4.9530     3.5880     2.8660 H     1 <1>   0.0800 
 34 H        5.1210     4.9530     1.7870 H     1 <1>   0.0800 
 35 H        6.1290     1.1070     0.3530 H     1 <1>   0.0800 
 36 H        5.5690     1.2610     2.0020 H     1 <1>   0.0800 
 37 H        5.6500     3.4120    -0.0010 H     1 <1>   0.4500 
 38 H        7.4450     2.9380     2.2610 H     1 <1>   0.0800 
 39 H        7.3900     4.4190     1.3300 H     1 <1>   0.0800 
 40 H        7.5900     4.2170    -1.2720 H     1 <1>   0.1500 
 41 H        8.7420     1.1060     1.4510 H     1 <1>   0.1500 
 42 H        8.9330     3.1610    -3.0170 H     1 <1>   0.1500 
 43 H       10.0770     0.0790    -0.3170 H     1 <1>   0.1500 
 44 H       10.1720     1.0950    -2.5490 H     1 <1>   0.1500 
@<TRIPOS>BOND
  1   1   2  1   
  2   1   3  2   
  3   2   4  ar  
  4   2   5  ar  
  5   3   6  1   
  6   3  23  1   
  7   4   6  1   
  8   4   7  ar  
  9   5   8  ar  
 10   5  24  1   
 11   6   9  1   
 12   7  10  ar  
 13   7  25  1   
 14   8  10  ar  
 15   8  26  1   
 16   9  11  1   
 17   9  12  1   
 18   9  27  1   
 19  10  28  1   
 20  11  13  1   
 21  11  29  1   
 22  11  30  1   
 23  12  14  1   
 24  12  31  1   
 25  12  32  1   
 26  13  15  1   
 27  13  33  1   
 28  13  34  1   
 29  14  15  1   
 30  14  35  1   
 31  14  36  1   
 32  15  16  1   
 33  15  37  1   
 34  16  17  1   
 35  16  38  1   
 36  16  39  1   
 37  17  18  ar  
 38  17  19  ar  
 39  18  20  ar  
 40  18  40  1   
 41  19  21  ar  
 42  19  41  1   
 43  20  22  ar  
 44  20  42  1   
 45  21  22  ar  
 46  21  43  1   
 47  22  44  1   
@<TRIPOS>SUBSTRUCTURE
  1 ****  12 GROUP 4 **** **** 0

# MOE 2024.06 (io_trps.svl 2023.06)
