@<TRIPOS>MOLECULE
4-(1-Ethyl-1H-benzoimidazol-2-yl)-piperazine-1-carboxylic acid (3-acetyl-phenyl)-amide
55 58 1 0 0 
SMALL
USER_CHARGES


@<TRIPOS>ATOM
  1 O       -2.3460    -3.3540    -0.0330 O.2   1 <1>  -0.5740 
  2 C       -1.9920    -2.9540    -1.1300 C.2   1 <1>   0.6870 
  3 N       -2.8530    -3.0470    -2.1840 N.am  1 <1>  -0.6640 
  4 N       -0.7790    -2.3740    -1.3440 N.am  1 <1>  -0.5510 
  5 C       -3.8330    -4.1720    -2.2250 C.3   1 <1>   0.1330 
  6 C       -3.3350    -1.8030    -2.8680 C.3   1 <1>   0.1330 
  7 C        0.2740    -2.0660    -0.4720 C.ar  1 <1>   0.1100 
  8 C       -5.1470    -3.7790    -1.5180 C.3   1 <1>   0.1610 
  9 C       -4.8580    -1.5930    -2.6760 C.3   1 <1>   0.1610 
 10 C        0.0870    -1.8280     0.8840 C.ar  1 <1>  -0.1570 
 11 C        1.5580    -1.9800    -0.9900 C.ar  1 <1>  -0.1570 
 12 N       -5.3330    -2.2880    -1.4390 N.pl3 1 <1>  -0.5960 
 13 C        1.1440    -1.5180     1.7440 C.ar  1 <1>   0.0790 
 14 C        2.6260    -1.6700    -0.1710 C.ar  1 <1>  -0.1570 
 15 C       -5.3370    -1.6480    -0.2570 C.cat 1 <1>   1.0690 
 16 C        0.9640    -1.2770     3.1640 C.2   1 <1>   0.4180 
 17 C        2.4180    -1.4440     1.1760 C.ar  1 <1>  -0.1570 
 18 N       -4.6300    -2.0440     0.7910 N.pl3 1 <1>  -0.7030 
 19 N       -6.0160    -0.5300     0.0480 N.pl3 1 <1>  -0.7670 
 20 O        1.8560    -0.9290     3.8940 O.2   1 <1>  -0.5740 
 21 C       -0.4000    -1.4570     3.8060 C.3   1 <1>  -0.1850 
 22 C       -4.8320    -1.1690     1.8310 C.ar  1 <1>   0.3030 
 23 C       -5.7200    -0.2130     1.3740 C.ar  1 <1>   0.3030 
 24 C       -7.0580     0.1450    -0.7560 C.3   1 <1>   0.3490 
 25 C       -4.3210    -1.1280     3.1210 C.ar  1 <1>  -0.1160 
 26 C       -6.1400     0.8100     2.2190 C.ar  1 <1>  -0.1160 
 27 C       -6.5560     1.5140    -1.2100 C.3   1 <1>  -0.2460 
 28 C       -4.7300    -0.1060     3.9550 C.ar  1 <1>  -0.1570 
 29 C       -5.6370     0.8560     3.5070 C.ar  1 <1>  -0.1570 
 30 H       -0.5500    -2.3140    -2.3330 H     1 <1>   0.3650 
 31 H       -3.4130    -5.0470    -1.7580 H     1 <1>   0.0730 
 32 H       -4.0350    -4.4210    -3.2530 H     1 <1>   0.0730 
 33 H       -3.1060    -1.8580    -3.9190 H     1 <1>   0.0730 
 34 H       -2.8140    -0.9500    -2.4670 H     1 <1>   0.0730 
 35 H       -5.1480    -4.2080    -0.5300 H     1 <1>   0.0730 
 36 H       -5.9750    -4.2150    -2.0490 H     1 <1>   0.0730 
 37 H       -5.3820    -1.9950    -3.5270 H     1 <1>   0.0730 
 38 H       -5.0670    -0.5400    -2.6370 H     1 <1>   0.0730 
 39 H       -0.9070    -1.8810     1.2760 H     1 <1>   0.1430 
 40 H        1.7310    -2.1580    -2.0360 H     1 <1>   0.1430 
 41 H        3.6200    -1.6060    -0.5780 H     1 <1>   0.1430 
 42 H        3.2580    -1.2060     1.8070 H     1 <1>   0.1430 
 43 H       -3.8750    -2.7430     0.7120 H     1 <1>   0.4450 
 44 H       -1.0850    -0.7280     3.4170 H     1 <1>   0.0730 
 45 H       -0.3220    -1.3230     4.8700 H     1 <1>   0.0730 
 46 H       -0.7680    -2.4480     3.6130 H     1 <1>   0.0730 
 47 H       -7.9490     0.2620    -0.1610 H     1 <1>   0.0730 
 48 H       -7.3120    -0.4540    -1.6140 H     1 <1>   0.0730 
 49 H       -3.6270    -1.8800     3.4540 H     1 <1>   0.1430 
 50 H       -6.8400     1.5500     1.8790 H     1 <1>   0.1430 
 51 H       -6.3750     2.1550    -0.3670 H     1 <1>   0.0730 
 52 H       -7.3020     1.9810    -1.8270 H     1 <1>   0.0730 
 53 H       -5.6520     1.4270    -1.7830 H     1 <1>   0.0730 
 54 H       -4.3520    -0.0450     4.9640 H     1 <1>   0.1430 
 55 H       -5.9450     1.6420     4.1780 H     1 <1>   0.1430 
@<TRIPOS>BOND
  1   1   2  2   
  2   2   3  am  
  3   2   4  am  
  4   3   5  1   
  5   3   6  1   
  6   4   7  1   
  7   4  30  1   
  8   5   8  1   
  9   5  31  1   
 10   5  32  1   
 11   6   9  1   
 12   6  33  1   
 13   6  34  1   
 14   7  10  ar  
 15   7  11  ar  
 16   8  12  1   
 17   8  35  1   
 18   8  36  1   
 19   9  12  1   
 20   9  37  1   
 21   9  38  1   
 22  10  13  ar  
 23  10  39  1   
 24  11  14  ar  
 25  11  40  1   
 26  12  15  ar  
 27  13  16  1   
 28  13  17  ar  
 29  14  17  ar  
 30  14  41  1   
 31  15  18  ar  
 32  15  19  ar  
 33  16  20  2   
 34  16  21  1   
 35  17  42  1   
 36  18  22  1   
 37  18  43  1   
 38  19  23  1   
 39  19  24  1   
 40  21  44  1   
 41  21  45  1   
 42  21  46  1   
 43  22  23  ar  
 44  22  25  ar  
 45  23  26  ar  
 46  24  27  1   
 47  24  47  1   
 48  24  48  1   
 49  25  28  ar  
 50  25  49  1   
 51  26  29  ar  
 52  26  50  1   
 53  27  51  1   
 54  27  52  1   
 55  27  53  1   
 56  28  29  ar  
 57  28  54  1   
 58  29  55  1   
@<TRIPOS>SUBSTRUCTURE
  1 ****  18 GROUP 4 **** **** 0

# MOE 2024.06 (io_trps.svl 2023.06)
