@<TRIPOS>MOLECULE
NONAME
38 40 1 0 0 
SMALL
USER_CHARGES


@<TRIPOS>ATOM
  1 O        0.4920     2.9400    -1.2420 O.2   1 <1>  -0.5700 
  2 C       -0.1510     2.4550    -0.3440 C.2   1 <1>   0.5690 
  3 N        0.3350     1.5040     0.5120 N.am  1 <1>  -0.5470 
  4 C       -1.5930     2.8860    -0.1390 C.3   1 <1>  -0.0190 
  5 C        1.5890     0.8640     0.5790 C.ar  1 <1>   0.1170 
  6 C       -2.4980     1.9750    -0.9690 C.3   1 <1>   0.2090 
  7 C       -1.8730     4.3650    -0.4830 C.3   1 <1>  -0.1600 
  8 C        1.9670     0.1970     1.7460 C.ar  1 <1>   0.1600 
  9 C        2.4840     0.8420    -0.4790 C.ar  1 <1>  -0.1500 
 10 N       -3.9110     2.3140    -0.6600 N.pl3 1 <1>  -0.8380 
 11 C       -3.3670     4.6900    -0.2920 C.3   1 <1>  -0.1600 
 12 N        3.1030    -0.4550     1.9380 N.ar  1 <1>  -0.6200 
 13 C        3.6750     0.1720    -0.3010 C.ar  1 <1>  -0.1500 
 14 C       -4.6620     1.5730     0.2270 C.ar  1 <1>   0.7200 
 15 C       -4.2830     3.7060    -1.0340 C.3   1 <1>   0.2090 
 16 C        3.9330    -0.4510     0.9080 C.ar  1 <1>   0.1600 
 17 N       -4.0070     0.7130     1.0110 N.ar  1 <1>  -0.6200 
 18 N       -5.9760     1.7860     0.2300 N.ar  1 <1>  -0.6200 
 19 C       -4.7400     0.0120     1.8410 C.ar  1 <1>   0.1600 
 20 C       -6.6820     1.0720     1.0710 C.ar  1 <1>   0.1600 
 21 C       -6.1040     0.1540     1.9120 C.ar  1 <1>  -0.1500 
 22 H       -0.3310     1.2120     1.2280 H     1 <1>   0.3700 
 23 H       -1.8370     2.7340     0.8970 H     1 <1>   0.0800 
 24 H       -2.2970     0.9390    -0.7540 H     1 <1>   0.0800 
 25 H       -2.3140     2.1310    -2.0180 H     1 <1>   0.0800 
 26 H       -1.5980     4.5530    -1.5080 H     1 <1>   0.0800 
 27 H       -1.2750     5.0050     0.1420 H     1 <1>   0.0800 
 28 H        1.2830     0.2070     2.5750 H     1 <1>   0.1500 
 29 H        2.2670     1.3250    -1.4140 H     1 <1>   0.1500 
 30 H       -3.5680     5.6890    -0.6380 H     1 <1>   0.0800 
 31 H       -3.6120     4.6530     0.7550 H     1 <1>   0.0800 
 32 H        4.3990     0.1320    -1.0940 H     1 <1>   0.1500 
 33 H       -5.3110     3.9160    -0.7920 H     1 <1>   0.0800 
 34 H       -4.1650     3.8240    -2.0980 H     1 <1>   0.0800 
 35 H        4.8680    -0.9710     1.0340 H     1 <1>   0.1500 
 36 H       -4.2420    -0.6950     2.4820 H     1 <1>   0.1500 
 37 H       -7.7480     1.2220     1.0880 H     1 <1>   0.1500 
 38 H       -6.6940    -0.4260     2.5960 H     1 <1>   0.1500 
@<TRIPOS>BOND
  1   1   2  2   
  2   2   3  am  
  3   2   4  1   
  4   3   5  1   
  5   3  22  1   
  6   4   6  1   
  7   4   7  1   
  8   4  23  1   
  9   5   8  ar  
 10   5   9  ar  
 11   6  10  1   
 12   6  24  1   
 13   6  25  1   
 14   7  11  1   
 15   7  26  1   
 16   7  27  1   
 17   8  12  ar  
 18   8  28  1   
 19   9  13  ar  
 20   9  29  1   
 21  10  14  1   
 22  10  15  1   
 23  11  15  1   
 24  11  30  1   
 25  11  31  1   
 26  12  16  ar  
 27  13  16  ar  
 28  13  32  1   
 29  14  17  ar  
 30  14  18  ar  
 31  15  33  1   
 32  15  34  1   
 33  16  35  1   
 34  17  19  ar  
 35  18  20  ar  
 36  19  21  ar  
 37  19  36  1   
 38  20  21  ar  
 39  20  37  1   
 40  21  38  1   
@<TRIPOS>SUBSTRUCTURE
  1 ****   4 GROUP 4 **** **** 0

# MOE 2024.06 (io_trps.svl 2023.06)
