@<TRIPOS>MOLECULE
NONAME
30 30 1 0 0 
SMALL
USER_CHARGES


@<TRIPOS>ATOM
  1 O       -1.4780    -1.1980    -0.8250 O.co2 1 <1>  -0.9000 
  2 C       -2.2440    -0.9030     0.0960 C.2   1 <1>   0.9060 
  3 O       -2.3170    -1.5490     1.1450 O.co2 1 <1>  -0.9000 
  4 C       -3.1420     0.3000    -0.0700 C.3   1 <1>  -0.2660 
  5 C       -2.3750     1.6340     0.0630 C.3   1 <1>  -0.1600 
  6 C       -3.2660     2.8810    -0.0550 C.3   1 <1>   0.1200 
  7 O       -3.9980     4.0930    -0.1510 O.3   1 <1>  -0.3630 
  8 C       -5.3510     4.2180    -0.0360 C.ar  1 <1>   0.0830 
  9 C       -6.3080     3.2080    -0.2330 C.ar  1 <1>   0.0830 
 10 C       -5.7820     5.4850     0.3190 C.ar  1 <1>  -0.1500 
 11 O       -5.9210     1.9630    -0.6250 O.3   1 <1>  -0.3630 
 12 C       -7.6540     3.5020    -0.0470 C.ar  1 <1>  -0.1500 
 13 C       -7.1240     5.7610     0.4980 C.ar  1 <1>  -0.1500 
 14 C       -6.7030     0.8210    -0.3470 C.3   1 <1>   0.0400 
 15 C       -8.0910     4.7730     0.3240 C.ar  1 <1>   0.0860 
 16 C       -9.4890     5.0610     0.5170 C.2   1 <1>   0.4240 
 17 O      -10.3860     4.2650     0.4060 O.2   1 <1>  -0.5700 
 18 H       -3.9090     0.2360     0.6780 H     1 <1>   0.0800 
 19 H       -3.5980     0.2280    -1.0380 H     1 <1>   0.0800 
 20 H       -1.6140     1.6640    -0.6980 H     1 <1>   0.0800 
 21 H       -1.8730     1.6440     1.0150 H     1 <1>   0.0800 
 22 H       -3.8790     2.5140     0.7490 H     1 <1>   0.0800 
 23 H       -3.6240     2.5400    -1.0100 H     1 <1>   0.0800 
 24 H       -5.0460     6.2570     0.4580 H     1 <1>   0.1500 
 25 H       -8.4040     2.7480    -0.1980 H     1 <1>   0.1500 
 26 H       -7.4210     6.7570     0.7770 H     1 <1>   0.1500 
 27 H       -7.5750     0.8290    -0.9770 H     1 <1>   0.0800 
 28 H       -6.9750     0.8260     0.6940 H     1 <1>   0.0800 
 29 H       -6.1100    -0.0500    -0.5630 H     1 <1>   0.0800 
 30 H       -9.7460     6.0710     0.7830 H     1 <1>   0.0600 
@<TRIPOS>BOND
  1   1   2  ar  
  2   2   3  ar  
  3   2   4  1   
  4   4   5  1   
  5   4  18  1   
  6   4  19  1   
  7   5   6  1   
  8   5  20  1   
  9   5  21  1   
 10   6   7  1   
 11   6  22  1   
 12   6  23  1   
 13   7   8  1   
 14   8   9  ar  
 15   8  10  ar  
 16   9  11  1   
 17   9  12  ar  
 18  10  13  ar  
 19  10  24  1   
 20  11  14  1   
 21  12  15  ar  
 22  12  25  1   
 23  13  15  ar  
 24  13  26  1   
 25  14  27  1   
 26  14  28  1   
 27  14  29  1   
 28  15  16  1   
 29  16  17  2   
 30  16  30  1   
@<TRIPOS>SUBSTRUCTURE
  1 ****  11 GROUP 4 **** **** 0

# MOE 2024.06 (io_trps.svl 2023.06)
