@<TRIPOS>MOLECULE
1-(6,7-Dihydro-5H-cyclopenta[d][1,2,4]triazolo[1,5-a]pyrimidin-8-yl)-piperidine-4-carboxylic acid butylamid
52 55 1 0 0 
SMALL
USER_CHARGES


@<TRIPOS>ATOM
  1 O       -1.1790    -1.1030     1.2110 O.2   1 <1>  -0.5700 
  2 C       -1.0470    -1.7560     0.2030 C.2   1 <1>   0.5690 
  3 N        0.1680    -1.9530    -0.3740 N.am  1 <1>  -0.7300 
  4 C       -2.2780    -2.3860    -0.4430 C.3   1 <1>  -0.0190 
  5 C        1.4460    -1.4260     0.1480 C.3   1 <1>   0.1400 
  6 C       -3.3340    -1.3190    -0.7870 C.3   1 <1>  -0.1600 
  7 C       -2.8920    -3.4590     0.4750 C.3   1 <1>  -0.1600 
  8 C        2.4460    -2.5750     0.2690 C.3   1 <1>  -0.1600 
  9 C       -4.6120    -1.9360    -1.3620 C.3   1 <1>   0.2090 
 10 C       -4.1570    -4.0720    -0.1270 C.3   1 <1>   0.2090 
 11 C        3.7950    -2.0810     0.8080 C.3   1 <1>  -0.1600 
 12 N       -5.1290    -2.9910    -0.4440 N.pl3 1 <1>  -0.8380 
 13 C        4.7950    -3.2330     0.9310 C.3   1 <1>  -0.2400 
 14 C       -6.3670    -2.9330     0.1360 C.2   1 <1>   0.4790 
 15 N       -6.7870    -1.7990     0.7860 N.pl3 1 <1>  -0.3220 
 16 C       -7.2750    -3.9710     0.1310 C.2   1 <1>  -0.1240 
 17 N       -6.1490    -0.6030     1.0300 N.2   1 <1>  -0.2600 
 18 C       -7.9930    -1.7810     1.3830 C.cat 1 <1>   0.9620 
 19 C       -8.4940    -3.8190     0.7580 C.2   1 <1>   0.3750 
 20 C       -7.1650    -5.3380    -0.5140 C.3   1 <1>  -0.0220 
 21 C       -6.9780     0.0690     1.7380 C.2   1 <1>   0.5030 
 22 N       -8.8960    -2.7520     1.3980 N.2   1 <1>  -0.6120 
 23 N       -8.1290    -0.6120     1.9760 N.pl3 1 <1>  -0.7000 
 24 C       -9.3410    -5.0570     0.6090 C.3   1 <1>  -0.0990 
 25 C       -8.5990    -5.8890    -0.4530 C.3   1 <1>  -0.1600 
 26 H        0.2450    -2.5020    -1.2300 H     1 <1>   0.3700 
 27 H       -1.9740    -2.8620    -1.3580 H     1 <1>   0.0800 
 28 H        1.2910    -0.9710     1.1130 H     1 <1>   0.0800 
 29 H        1.8210    -0.6740    -0.5250 H     1 <1>   0.0800 
 30 H       -2.9250    -0.6230    -1.4980 H     1 <1>   0.0800 
 31 H       -3.5820    -0.7630     0.0990 H     1 <1>   0.0800 
 32 H       -3.1380    -3.0200     1.4270 H     1 <1>   0.0800 
 33 H       -2.1700    -4.2350     0.6540 H     1 <1>   0.0800 
 34 H        2.5950    -3.0240    -0.6970 H     1 <1>   0.0800 
 35 H        2.0470    -3.3160     0.9400 H     1 <1>   0.0800 
 36 H       -4.4000    -2.3790    -2.3200 H     1 <1>   0.0800 
 37 H       -5.3540    -1.1700    -1.5100 H     1 <1>   0.0800 
 38 H       -4.5810    -4.7620     0.5820 H     1 <1>   0.0800 
 39 H       -3.9140    -4.6110    -1.0270 H     1 <1>   0.0800 
 40 H        3.6540    -1.6310     1.7770 H     1 <1>   0.0800 
 41 H        4.1980    -1.3310     0.1490 H     1 <1>   0.0800 
 42 H        4.4240    -3.9850     1.6050 H     1 <1>   0.0800 
 43 H        5.7330    -2.8670     1.3110 H     1 <1>   0.0800 
 44 H        4.9700    -3.6850    -0.0300 H     1 <1>   0.0800 
 45 H       -6.5050    -5.9650     0.0600 H     1 <1>   0.0800 
 46 H       -6.8100    -5.2730    -1.5290 H     1 <1>   0.0800 
 47 H       -6.7970     1.0660     2.1130 H     1 <1>   0.1500 
 48 H       -8.9560    -0.3460     2.5040 H     1 <1>   0.4500 
 49 H      -10.3390    -4.8130     0.2900 H     1 <1>   0.0800 
 50 H       -9.3790    -5.5800     1.5480 H     1 <1>   0.0800 
 51 H       -8.6160    -6.9400    -0.2220 H     1 <1>   0.0800 
 52 H       -9.0730    -5.7400    -1.4100 H     1 <1>   0.0800 
@<TRIPOS>BOND
  1   1   2  2   
  2   2   3  am  
  3   2   4  1   
  4   3   5  1   
  5   3  26  1   
  6   4   6  1   
  7   4   7  1   
  8   4  27  1   
  9   5   8  1   
 10   5  28  1   
 11   5  29  1   
 12   6   9  1   
 13   6  30  1   
 14   6  31  1   
 15   7  10  1   
 16   7  32  1   
 17   7  33  1   
 18   8  11  1   
 19   8  34  1   
 20   8  35  1   
 21   9  12  1   
 22   9  36  1   
 23   9  37  1   
 24  10  12  1   
 25  10  38  1   
 26  10  39  1   
 27  11  13  1   
 28  11  40  1   
 29  11  41  1   
 30  12  14  1   
 31  13  42  1   
 32  13  43  1   
 33  13  44  1   
 34  14  15  1   
 35  14  16  2   
 36  15  17  1   
 37  15  18  ar  
 38  16  19  1   
 39  16  20  1   
 40  17  21  2   
 41  18  22  1   
 42  18  23  ar  
 43  19  22  2   
 44  19  24  1   
 45  20  25  1   
 46  20  45  1   
 47  20  46  1   
 48  21  23  1   
 49  21  47  1   
 50  23  48  1   
 51  24  25  1   
 52  24  49  1   
 53  24  50  1   
 54  25  51  1   
 55  25  52  1   
@<TRIPOS>SUBSTRUCTURE
  1 ****  12 GROUP 4 **** **** 0

# MOE 2024.06 (io_trps.svl 2023.06)
