@<TRIPOS>MOLECULE
N-Cyclohexyl-2-[4-(2-methoxy-ethyl)-5-phenyl-4H-[1,2,4]triazol-3-ylsulfanyl]-acetamide
52 54 1 0 0 
SMALL
USER_CHARGES


@<TRIPOS>ATOM
  1 S       -0.0660    -0.1760     0.1100 S.3   1 <1>  -0.2860 
  2 C       -1.7130    -0.6300     0.6590 C.2   1 <1>   0.2420 
  3 C        1.0310    -1.0630     1.3260 C.3   1 <1>   0.1310 
  4 N       -1.9340    -1.3670     1.6880 N.2   1 <1>  -0.3380 
  5 N       -2.8200    -0.2250     0.0450 N.pl3 1 <1>   0.0480 
  6 C        2.5060    -0.7980     1.0630 C.2   1 <1>   0.5690 
  7 N       -3.2580    -1.4630     1.7850 N.2   1 <1>  -0.3380 
  8 C       -3.7850    -0.7850     0.8030 C.2   1 <1>   0.1330 
  9 C       -2.9550     0.6830    -1.1140 C.3   1 <1>   0.0960 
 10 O        3.3120    -1.4890     1.6370 O.2   1 <1>  -0.5700 
 11 N        2.8680     0.1990     0.2060 N.am  1 <1>  -0.7300 
 12 C       -5.1990    -0.6220     0.5720 C.ar  1 <1>   0.0530 
 13 C       -3.4160     2.0630    -0.6520 C.3   1 <1>   0.1200 
 14 C        4.2240     0.6280    -0.1960 C.3   1 <1>   0.2200 
 15 C       -6.0090    -0.0470     1.5480 C.ar  1 <1>  -0.1500 
 16 C       -5.7990    -1.0180    -0.6230 C.ar  1 <1>  -0.1500 
 17 O       -3.4690     2.8850    -1.7710 O.3   1 <1>  -0.5600 
 18 C        4.9620    -0.5010    -0.9260 C.3   1 <1>  -0.1600 
 19 C        5.0200     1.1390     1.0110 C.3   1 <1>  -0.1600 
 20 C       -7.3610     0.1490     1.3330 C.ar  1 <1>  -0.1500 
 21 C       -7.1500    -0.8230    -0.8440 C.ar  1 <1>  -0.1500 
 22 C       -3.9300     4.1710    -1.5060 C.3   1 <1>   0.0400 
 23 C        6.3690    -0.0530    -1.3480 C.3   1 <1>  -0.1600 
 24 C        6.4280     1.5870     0.5900 C.3   1 <1>  -0.1600 
 25 C       -7.9330    -0.2350     0.1340 C.ar  1 <1>  -0.1500 
 26 C        7.1710     0.4610    -0.1430 C.3   1 <1>  -0.1600 
 27 H        0.8200    -2.1120     1.2370 H     1 <1>   0.0800 
 28 H        0.7620    -0.7220     2.3080 H     1 <1>   0.0800 
 29 H       -3.6700     0.2750    -1.8030 H     1 <1>   0.0800 
 30 H       -2.0070     0.7710    -1.6130 H     1 <1>   0.0800 
 31 H        2.1120     0.7070    -0.2580 H     1 <1>   0.3700 
 32 H       -2.7140     2.4840     0.0490 H     1 <1>   0.0800 
 33 H       -4.4000     2.0100    -0.2170 H     1 <1>   0.0800 
 34 H        4.1140     1.4480    -0.8860 H     1 <1>   0.0800 
 35 H       -5.5670     0.2440     2.4850 H     1 <1>   0.1500 
 36 H       -5.2030    -1.4910    -1.3820 H     1 <1>   0.1500 
 37 H        4.4020    -0.7950    -1.7950 H     1 <1>   0.0800 
 38 H        5.0520    -1.3530    -0.2750 H     1 <1>   0.0800 
 39 H        5.1140     0.3540     1.7410 H     1 <1>   0.0800 
 40 H        4.5000     1.9640     1.4640 H     1 <1>   0.0800 
 41 H       -7.9690     0.5970     2.1000 H     1 <1>   0.1500 
 42 H       -7.5960    -1.1320    -1.7740 H     1 <1>   0.1500 
 43 H       -3.9260     4.7240    -2.4290 H     1 <1>   0.0800 
 44 H       -3.2750     4.6470    -0.7970 H     1 <1>   0.0800 
 45 H       -4.9340     4.1180    -1.1210 H     1 <1>   0.0800 
 46 H        6.2920     0.7280    -2.0850 H     1 <1>   0.0800 
 47 H        6.8890    -0.8820    -1.7980 H     1 <1>   0.0800 
 48 H        6.9870     1.8790     1.4620 H     1 <1>   0.0800 
 49 H        6.3530     2.4450    -0.0570 H     1 <1>   0.0800 
 50 H       -8.9860    -0.0830    -0.0360 H     1 <1>   0.1500 
 51 H        8.1310     0.8170    -0.4740 H     1 <1>   0.0800 
 52 H        7.3400    -0.3540     0.5410 H     1 <1>   0.0800 
@<TRIPOS>BOND
  1   1   2  1   
  2   1   3  1   
  3   2   4  2   
  4   2   5  1   
  5   3   6  1   
  6   3  27  1   
  7   3  28  1   
  8   4   7  1   
  9   5   8  1   
 10   5   9  1   
 11   6  10  2   
 12   6  11  am  
 13   7   8  2   
 14   8  12  1   
 15   9  13  1   
 16   9  29  1   
 17   9  30  1   
 18  11  14  1   
 19  11  31  1   
 20  12  15  ar  
 21  12  16  ar  
 22  13  17  1   
 23  13  32  1   
 24  13  33  1   
 25  14  18  1   
 26  14  19  1   
 27  14  34  1   
 28  15  20  ar  
 29  15  35  1   
 30  16  21  ar  
 31  16  36  1   
 32  17  22  1   
 33  18  23  1   
 34  18  37  1   
 35  18  38  1   
 36  19  24  1   
 37  19  39  1   
 38  19  40  1   
 39  20  25  ar  
 40  20  41  1   
 41  21  25  ar  
 42  21  42  1   
 43  22  43  1   
 44  22  44  1   
 45  22  45  1   
 46  23  26  1   
 47  23  46  1   
 48  23  47  1   
 49  24  26  1   
 50  24  48  1   
 51  24  49  1   
 52  25  50  1   
 53  26  51  1   
 54  26  52  1   
@<TRIPOS>SUBSTRUCTURE
  1 ****   1 GROUP 4 **** **** 0

# MOE 2024.06 (io_trps.svl 2023.06)
