@<TRIPOS>MOLECULE
NONAME
46 49 1 0 0 
SMALL
USER_CHARGES


@<TRIPOS>ATOM
  1 BR      -0.2480     0.6120     2.1960 Br    1 <1>  -0.1110 
  2 C       -1.3930     1.8720     1.2940 C.ar  1 <1>   0.1110 
  3 C       -2.7210     1.9350     1.6460 C.ar  1 <1>  -0.1500 
  4 C       -0.8290     2.6810     0.3080 C.ar  1 <1>  -0.1500 
  5 C       -3.5290     2.8550     0.9770 C.ar  1 <1>   0.0000 
  6 C       -1.6280     3.5900    -0.3520 C.ar  1 <1>  -0.1500 
  7 C       -4.9060     3.1910     1.0710 C.ar  1 <1>   0.2560 
  8 C       -2.9820     3.6740    -0.0120 C.ar  1 <1>  -0.1520 
  9 N       -5.8740     2.7070     1.8580 N.ar  1 <1>  -0.2560 
 10 C       -5.1470     4.1910     0.1460 C.ar  1 <1>   0.1050 
 11 N       -3.9830     4.4880    -0.5140 N.pl3 1 <1>   0.0480 
 12 N       -7.0520     3.2370     1.7000 N.ar  1 <1>  -0.3100 
 13 N       -6.3510     4.7420    -0.0290 N.ar  1 <1>  -0.5670 
 14 C       -3.8190     5.5040    -1.5720 C.3   1 <1>   0.0160 
 15 C       -7.2330     4.2150     0.7790 C.ar  1 <1>   0.7220 
 16 S       -8.8930     4.8600     0.6450 S.3   1 <1>  -0.3320 
 17 C       -9.8570     3.9270     1.9330 C.3   1 <1>   0.1310 
 18 C      -11.3250     4.3240     1.9060 C.2   1 <1>   0.5690 
 19 O      -11.7280     4.9760     2.8430 O.2   1 <1>  -0.5700 
 20 N      -12.1600     3.9380     0.8820 N.am  1 <1>  -0.6600 
 21 C      -11.7420     3.1610    -0.3200 C.3   1 <1>   0.1400 
 22 C      -13.6000     4.3200     0.8770 C.3   1 <1>   0.1400 
 23 C      -12.5920     1.8920    -0.4350 C.3   1 <1>  -0.1600 
 24 C      -14.4680     3.0620     0.7700 C.3   1 <1>  -0.1600 
 25 C      -14.0940     2.2170    -0.4580 C.3   1 <1>  -0.0800 
 26 C      -14.9260     0.9310    -0.5030 C.3   1 <1>  -0.2400 
 27 H       -3.1320     1.3000     2.4100 H     1 <1>   0.1500 
 28 H        0.2170     2.5840     0.0780 H     1 <1>   0.1500 
 29 H       -1.2170     4.2270    -1.1170 H     1 <1>   0.1500 
 30 H       -3.4760     5.0280    -2.4720 H     1 <1>   0.0800 
 31 H       -3.1000     6.2360    -1.2530 H     1 <1>   0.0800 
 32 H       -4.7600     5.9880    -1.7610 H     1 <1>   0.0800 
 33 H       -9.4250     4.1700     2.8870 H     1 <1>   0.0800 
 34 H       -9.7430     2.8770     1.7410 H     1 <1>   0.0800 
 35 H      -10.7040     2.8880    -0.2740 H     1 <1>   0.0800 
 36 H      -11.8830     3.7740    -1.1940 H     1 <1>   0.0800 
 37 H      -13.7860     4.9680     0.0380 H     1 <1>   0.0800 
 38 H      -13.8570     4.8570     1.7740 H     1 <1>   0.0800 
 39 H      -12.3680     1.2490     0.3980 H     1 <1>   0.0800 
 40 H      -12.3210     1.3690    -1.3350 H     1 <1>   0.0800 
 41 H      -15.5010     3.3540     0.7100 H     1 <1>   0.0800 
 42 H      -14.3420     2.4840     1.6690 H     1 <1>   0.0800 
 43 H      -14.3060     2.7920    -1.3450 H     1 <1>   0.0800 
 44 H      -14.7420     0.3290     0.3690 H     1 <1>   0.0800 
 45 H      -14.6770     0.3550    -1.3770 H     1 <1>   0.0800 
 46 H      -15.9750     1.1670    -0.5420 H     1 <1>   0.0800 
@<TRIPOS>BOND
  1   1   2  1   
  2   2   3  ar  
  3   2   4  ar  
  4   3   5  ar  
  5   3  27  1   
  6   4   6  ar  
  7   4  28  1   
  8   5   7  1   
  9   5   8  ar  
 10   6   8  ar  
 11   6  29  1   
 12   7   9  ar  
 13   7  10  ar  
 14   8  11  1   
 15   9  12  ar  
 16  10  11  1   
 17  10  13  ar  
 18  11  14  1   
 19  12  15  ar  
 20  13  15  ar  
 21  14  30  1   
 22  14  31  1   
 23  14  32  1   
 24  15  16  1   
 25  16  17  1   
 26  17  18  1   
 27  17  33  1   
 28  17  34  1   
 29  18  19  2   
 30  18  20  am  
 31  20  21  1   
 32  20  22  1   
 33  21  23  1   
 34  21  35  1   
 35  21  36  1   
 36  22  24  1   
 37  22  37  1   
 38  22  38  1   
 39  23  25  1   
 40  23  39  1   
 41  23  40  1   
 42  24  25  1   
 43  24  41  1   
 44  24  42  1   
 45  25  26  1   
 46  25  43  1   
 47  26  44  1   
 48  26  45  1   
 49  26  46  1   
@<TRIPOS>SUBSTRUCTURE
  1 ****  15 GROUP 4 **** **** 0

# MOE 2024.06 (io_trps.svl 2023.06)
