@<TRIPOS>MOLECULE
ka-06713
26 26 1 0 0 
SMALL
USER_CHARGES


@<TRIPOS>ATOM
  1 O       -0.1720    -0.7000    -1.3690 O.3   1 <1>  -0.5320 
  2 C       -0.1310    -1.8350    -0.6450 C.ar  1 <1>   0.0830 
  3 C       -1.2130    -2.2370     0.1400 C.ar  1 <1>  -0.1430 
  4 C        1.0310    -2.5930    -0.7090 C.ar  1 <1>  -0.1500 
  5 C       -1.0870    -3.4200     0.8550 C.ar  1 <1>  -0.1500 
  6 C       -2.5290    -1.4590     0.2660 C.3   1 <1>   0.0640 
  7 C        1.1460    -3.7720     0.0080 C.ar  1 <1>  -0.1430 
  8 C        0.0710    -4.1740     0.7900 C.ar  1 <1>   0.0830 
  9 C       -3.2710    -1.3630    -1.0720 C.3   1 <1>  -0.2400 
 10 C       -2.3230    -0.0760     0.8930 C.3   1 <1>  -0.2400 
 11 C        2.4290    -4.5880    -0.0760 C.3   1 <1>  -0.0970 
 12 O        0.1330    -5.3110     1.5050 O.3   1 <1>  -0.5320 
 13 H        0.6480    -0.5440    -1.8660 H     1 <1>   0.4500 
 14 H        1.8470    -2.2590    -1.3210 H     1 <1>   0.1500 
 15 H       -1.8890    -3.7760     1.4750 H     1 <1>   0.1500 
 16 H       -3.1740    -2.0050     0.9340 H     1 <1>   0.0800 
 17 H       -2.7250    -0.7570    -1.7710 H     1 <1>   0.0800 
 18 H       -4.2420    -0.9260    -0.9280 H     1 <1>   0.0800 
 19 H       -3.3920    -2.3450    -1.4920 H     1 <1>   0.0800 
 20 H       -1.7550     0.5610     0.2400 H     1 <1>   0.0800 
 21 H       -1.7930    -0.1730     1.8230 H     1 <1>   0.0800 
 22 H       -3.2720     0.3910     1.0830 H     1 <1>   0.0800 
 23 H        3.1420    -4.1170    -0.7280 H     1 <1>   0.0800 
 24 H        2.2170    -5.5690    -0.4620 H     1 <1>   0.0800 
 25 H        2.8740    -4.6770     0.8990 H     1 <1>   0.0800 
 26 H        0.9850    -5.7630     1.3900 H     1 <1>   0.4500 
@<TRIPOS>BOND
  1   1   2  1   
  2   1  13  1   
  3   2   3  ar  
  4   2   4  ar  
  5   3   5  ar  
  6   3   6  1   
  7   4   7  ar  
  8   4  14  1   
  9   5   8  ar  
 10   5  15  1   
 11   6   9  1   
 12   6  10  1   
 13   6  16  1   
 14   7   8  ar  
 15   7  11  1   
 16   8  12  1   
 17   9  17  1   
 18   9  18  1   
 19   9  19  1   
 20  10  20  1   
 21  10  21  1   
 22  10  22  1   
 23  11  23  1   
 24  11  24  1   
 25  11  25  1   
 26  12  26  1   
@<TRIPOS>SUBSTRUCTURE
  1 ****   3 GROUP 4 **** **** 0

# MOE 2024.06 (io_trps.svl 2023.06)
