@<TRIPOS>MOLECULE
NONAME
32 33 1 0 0 
SMALL
USER_CHARGES


@<TRIPOS>ATOM
  1 CL       0.3180    -1.6860    -1.1550 Cl    1 <1>  -0.2900 
  2 C        1.0010    -1.4360     0.4550 C.3   1 <1>   0.2710 
  3 C        2.5310    -1.3450     0.3800 C.2   1 <1>   0.5690 
  4 C        0.5110    -2.5890     1.3370 C.3   1 <1>  -0.2400 
  5 O        3.1280    -0.8700     1.3180 O.2   1 <1>  -0.5700 
  6 N        3.1890    -1.8090    -0.7190 N.am  1 <1>  -0.7300 
  7 C        4.6580    -1.7660    -0.9120 C.3   1 <1>   0.1400 
  8 C        5.2830    -3.0970    -0.4960 C.3   1 <1>   0.0210 
  9 C        6.7910    -3.0390    -0.6430 C.2   1 <1>  -0.1810 
 10 C        7.6440    -2.2830     0.1940 C.ar  1 <1>   0.0000 
 11 C        7.5650    -3.6670    -1.5600 C.2   1 <1>  -0.3020 
 12 C        8.9380    -2.4920    -0.2740 C.ar  1 <1>  -0.1520 
 13 C        7.4360    -1.4500     1.2990 C.ar  1 <1>  -0.1500 
 14 N        8.8750    -3.3440    -1.3470 N.pl3 1 <1>   0.0330 
 15 C       10.0320    -1.8780     0.3410 C.ar  1 <1>  -0.1500 
 16 C        8.5140    -0.8450     1.9030 C.ar  1 <1>  -0.1500 
 17 C        9.8120    -1.0580     1.4230 C.ar  1 <1>  -0.1500 
 18 H        0.6150    -0.5000     0.8150 H     1 <1>   0.0800 
 19 H        0.8740    -3.5280     0.9590 H     1 <1>   0.0800 
 20 H       -0.5640    -2.6030     1.3670 H     1 <1>   0.0800 
 21 H        0.8810    -2.4580     2.3390 H     1 <1>   0.0800 
 22 H        2.6360    -2.1770    -1.4990 H     1 <1>   0.3700 
 23 H        5.0760    -0.9700    -0.3170 H     1 <1>   0.0800 
 24 H        4.8820    -1.5620    -1.9440 H     1 <1>   0.0800 
 25 H        4.8960    -3.8870    -1.1130 H     1 <1>   0.0800 
 26 H        5.0410    -3.3070     0.5310 H     1 <1>   0.0800 
 27 H        7.2660    -4.3270    -2.3540 H     1 <1>   0.1500 
 28 H        6.4360    -1.2940     1.6610 H     1 <1>   0.1500 
 29 H        9.6820    -3.6740    -1.8840 H     1 <1>   0.2700 
 30 H       11.0260    -2.0480    -0.0330 H     1 <1>   0.1500 
 31 H        8.3670    -0.2010     2.7520 H     1 <1>   0.1500 
 32 H       10.6370    -0.5730     1.9140 H     1 <1>   0.1500 
@<TRIPOS>BOND
  1   1   2  1   
  2   2   3  1   
  3   2   4  1   
  4   2  18  1   
  5   3   5  2   
  6   3   6  am  
  7   4  19  1   
  8   4  20  1   
  9   4  21  1   
 10   6   7  1   
 11   6  22  1   
 12   7   8  1   
 13   7  23  1   
 14   7  24  1   
 15   8   9  1   
 16   8  25  1   
 17   8  26  1   
 18   9  10  1   
 19   9  11  2   
 20  10  12  ar  
 21  10  13  ar  
 22  11  14  1   
 23  11  27  1   
 24  12  14  1   
 25  12  15  ar  
 26  13  16  ar  
 27  13  28  1   
 28  14  29  1   
 29  15  17  ar  
 30  15  30  1   
 31  16  17  ar  
 32  16  31  1   
 33  17  32  1   
@<TRIPOS>SUBSTRUCTURE
  1 ****   8 GROUP 4 **** **** 0

# MOE 2024.06 (io_trps.svl 2023.06)
