@<TRIPOS>MOLECULE
4-(4-Methyl-benzoylamino)-piperidine-1-carboxylic acid (4-fluoro-phenyl)-amide
48 50 1 0 0 
SMALL
USER_CHARGES


@<TRIPOS>ATOM
  1 F        1.3350    -2.3740     1.5280 F     1 <1>  -0.1900 
  2 C        2.5200    -1.9260     1.2030 C.ar  1 <1>   0.1900 
  3 C        2.6660    -0.5890     0.8900 C.ar  1 <1>  -0.1500 
  4 C        3.5830    -2.8070     1.1840 C.ar  1 <1>  -0.1500 
  5 C        3.9240    -0.1240     0.5460 C.ar  1 <1>  -0.1500 
  6 C        4.8350    -2.3260     0.8390 C.ar  1 <1>  -0.1500 
  7 C        5.0230    -0.9830     0.5190 C.ar  1 <1>   0.1170 
  8 N        6.3070    -0.5490     0.1610 N.am  1 <1>  -0.5470 
  9 C        6.8970     0.6800     0.2410 C.2   1 <1>   0.6900 
 10 O        6.3490     1.5990     0.8190 O.2   1 <1>  -0.5700 
 11 N        8.1420     0.8550    -0.3140 N.am  1 <1>  -0.6600 
 12 C        8.9550     2.0630     0.0010 C.3   1 <1>   0.1400 
 13 C        8.7160    -0.0020    -1.3880 C.3   1 <1>   0.1400 
 14 C       10.3640     1.6330     0.4160 C.3   1 <1>  -0.1600 
 15 C       10.1130    -0.4630    -0.9710 C.3   1 <1>  -0.1600 
 16 C       10.9980     0.7430    -0.6540 C.3   1 <1>   0.2200 
 17 N       12.3050     0.2660    -0.1750 N.am  1 <1>  -0.7300 
 18 C       13.4270     0.1450    -0.9460 C.2   1 <1>   0.5440 
 19 O       13.3510     0.4320    -2.1250 O.2   1 <1>  -0.5700 
 20 C       14.6810    -0.3070    -0.3660 C.ar  1 <1>   0.0860 
 21 C       14.7240    -1.1460     0.7500 C.ar  1 <1>  -0.1500 
 22 C       15.9030     0.0890    -0.9100 C.ar  1 <1>  -0.1500 
 23 C       15.9250    -1.5560     1.3000 C.ar  1 <1>  -0.1500 
 24 C       17.1060    -0.3190    -0.3640 C.ar  1 <1>  -0.1500 
 25 C       17.1250    -1.1440     0.7470 C.ar  1 <1>  -0.1430 
 26 C       18.4450    -1.5910     1.3500 C.3   1 <1>  -0.0970 
 27 H        1.8170     0.0700     0.9150 H     1 <1>   0.1500 
 28 H        3.4290    -3.8410     1.4350 H     1 <1>   0.1500 
 29 H        4.0500     0.9150     0.2960 H     1 <1>   0.1500 
 30 H        5.6720    -3.0000     0.8230 H     1 <1>   0.1500 
 31 H        6.9640    -1.2780    -0.0880 H     1 <1>   0.3700 
 32 H        8.5050     2.6300     0.7990 H     1 <1>   0.0800 
 33 H        9.0000     2.6940    -0.8710 H     1 <1>   0.0800 
 34 H        8.7820     0.5760    -2.2950 H     1 <1>   0.0800 
 35 H        8.0910    -0.8540    -1.5900 H     1 <1>   0.0800 
 36 H       10.2970     1.1050     1.3500 H     1 <1>   0.0800 
 37 H       10.9690     2.5100     0.5590 H     1 <1>   0.0800 
 38 H       10.5550    -1.0230    -1.7760 H     1 <1>   0.0800 
 39 H       10.0320    -1.1030    -0.1110 H     1 <1>   0.0800 
 40 H       11.1360     1.3230    -1.5530 H     1 <1>   0.0800 
 41 H       12.3660     0.0900     0.8270 H     1 <1>   0.3700 
 42 H       13.8070    -1.4910     1.1910 H     1 <1>   0.1500 
 43 H       15.9030     0.7280    -1.7770 H     1 <1>   0.1500 
 44 H       15.9230    -2.2000     2.1620 H     1 <1>   0.1500 
 45 H       18.0290     0.0090    -0.8090 H     1 <1>   0.1500 
 46 H       18.3390    -2.5530     1.8180 H     1 <1>   0.0800 
 47 H       18.7680    -0.8790     2.0870 H     1 <1>   0.0800 
 48 H       19.1990    -1.6680     0.5870 H     1 <1>   0.0800 
@<TRIPOS>BOND
  1   1   2  1   
  2   2   3  ar  
  3   2   4  ar  
  4   3   5  ar  
  5   3  27  1   
  6   4   6  ar  
  7   4  28  1   
  8   5   7  ar  
  9   5  29  1   
 10   6   7  ar  
 11   6  30  1   
 12   7   8  1   
 13   8   9  am  
 14   8  31  1   
 15   9  10  2   
 16   9  11  am  
 17  11  12  1   
 18  11  13  1   
 19  12  14  1   
 20  12  32  1   
 21  12  33  1   
 22  13  15  1   
 23  13  34  1   
 24  13  35  1   
 25  14  16  1   
 26  14  36  1   
 27  14  37  1   
 28  15  16  1   
 29  15  38  1   
 30  15  39  1   
 31  16  17  1   
 32  16  40  1   
 33  17  18  am  
 34  17  41  1   
 35  18  19  2   
 36  18  20  1   
 37  20  21  ar  
 38  20  22  ar  
 39  21  23  ar  
 40  21  42  1   
 41  22  24  ar  
 42  22  43  1   
 43  23  25  ar  
 44  23  44  1   
 45  24  25  ar  
 46  24  45  1   
 47  25  26  1   
 48  26  46  1   
 49  26  47  1   
 50  26  48  1   
@<TRIPOS>SUBSTRUCTURE
  1 ****  15 GROUP 4 **** **** 0

# MOE 2024.06 (io_trps.svl 2023.06)
