@<TRIPOS>MOLECULE
NONAME
39 41 1 0 0 
SMALL
USER_CHARGES


@<TRIPOS>ATOM
  1 CL       1.4930    -0.3050    -0.8520 Cl    1 <1>  -0.1770 
  2 C        1.2800     1.4250    -0.7230 C.ar  1 <1>   0.1770 
  3 C        1.9020     2.1460     0.2880 C.ar  1 <1>  -0.1440 
  4 C        0.4710     2.0440    -1.6580 C.ar  1 <1>  -0.1500 
  5 C        1.6930     3.5170     0.3450 C.ar  1 <1>  -0.1500 
  6 C        2.8010     1.4770     1.3240 C.3   1 <1>   0.2390 
  7 C        0.2710     3.4120    -1.5890 C.ar  1 <1>  -0.1500 
  8 C        0.8840     4.1450    -0.5870 C.ar  1 <1>  -0.1500 
  9 N        4.1880     1.9560     1.1960 N.pl3 1 <1>   0.3140 
 10 N        4.7140     2.9320     1.9670 N.2   1 <1>  -0.4180 
 11 C        5.1140     1.5150     0.3280 C.ar  1 <1>   0.1050 
 12 N        5.9300     3.1250     1.6080 N.2   1 <1>  -0.2270 
 13 N        5.0660     0.5610    -0.6160 N.ar  1 <1>  -0.5670 
 14 C        6.2120     2.2650     0.5930 C.ar  1 <1>   0.2270 
 15 C        6.1890     0.4220    -1.2800 C.ar  1 <1>   0.4700 
 16 C        7.3560     2.0180    -0.1850 C.ar  1 <1>   0.4100 
 17 N        7.3400     1.0950    -1.1230 N.ar  1 <1>  -0.6200 
 18 N        8.5140     2.7320     0.0110 N.pl3 1 <1>  -0.8690 
 19 C        9.7610     2.5960    -0.7740 C.3   1 <1>   0.2090 
 20 C       10.9750     2.9980     0.0800 C.3   1 <1>  -0.0800 
 21 C       10.9120     4.4650     0.5360 C.3   1 <1>  -0.2400 
 22 C       12.2730     2.7630    -0.7050 C.3   1 <1>  -0.2400 
 23 H        0.0040     1.4600    -2.4300 H     1 <1>   0.1500 
 24 H        2.1640     4.1090     1.1140 H     1 <1>   0.1500 
 25 H        2.8050     0.4090     1.2230 H     1 <1>   0.0800 
 26 H        2.4500     1.7170     2.3100 H     1 <1>   0.0800 
 27 H       -0.3560     3.9040    -2.3130 H     1 <1>   0.1500 
 28 H        0.7320     5.2100    -0.5330 H     1 <1>   0.1500 
 29 H        6.2010    -0.3290    -2.0530 H     1 <1>   0.1500 
 30 H        8.4960     3.4980     0.6890 H     1 <1>   0.4000 
 31 H        9.6980     3.2240    -1.6470 H     1 <1>   0.0800 
 32 H        9.8710     1.5750    -1.0990 H     1 <1>   0.0800 
 33 H       10.9950     2.3620     0.9500 H     1 <1>   0.0800 
 34 H       10.8440     5.1230    -0.3130 H     1 <1>   0.0800 
 35 H       11.7940     4.7190     1.0980 H     1 <1>   0.0800 
 36 H       10.0590     4.6330     1.1700 H     1 <1>   0.0800 
 37 H       12.3000     3.3790    -1.5870 H     1 <1>   0.0800 
 38 H       12.3470     1.7320    -1.0030 H     1 <1>   0.0800 
 39 H       13.1270     2.9990    -0.0950 H     1 <1>   0.0800 
@<TRIPOS>BOND
  1   1   2  1   
  2   2   3  ar  
  3   2   4  ar  
  4   3   5  ar  
  5   3   6  1   
  6   4   7  ar  
  7   4  23  1   
  8   5   8  ar  
  9   5  24  1   
 10   6   9  1   
 11   6  25  1   
 12   6  26  1   
 13   7   8  ar  
 14   7  27  1   
 15   8  28  1   
 16   9  10  1   
 17   9  11  1   
 18  10  12  2   
 19  11  13  ar  
 20  11  14  ar  
 21  12  14  1   
 22  13  15  ar  
 23  14  16  ar  
 24  15  17  ar  
 25  15  29  1   
 26  16  17  ar  
 27  16  18  1   
 28  18  19  1   
 29  18  30  1   
 30  19  20  1   
 31  19  31  1   
 32  19  32  1   
 33  20  21  1   
 34  20  22  1   
 35  20  33  1   
 36  21  34  1   
 37  21  35  1   
 38  21  36  1   
 39  22  37  1   
 40  22  38  1   
 41  22  39  1   
@<TRIPOS>SUBSTRUCTURE
  1 ****  11 GROUP 4 **** **** 0

# MOE 2024.06 (io_trps.svl 2023.06)
