@<TRIPOS>MOLECULE
NONAME
30 32 1 0 0 
SMALL
USER_CHARGES


@<TRIPOS>ATOM
  1 O       -2.9190     3.8470     1.6920 O.3   1 <1>  -0.6800 
  2 C       -1.9330     4.2720     0.8460 C.3   1 <1>   0.2800 
  3 C       -0.5900     3.8590     1.4570 C.3   1 <1>  -0.1600 
  4 C       -2.1190     3.6080    -0.5260 C.3   1 <1>  -0.1600 
  5 C       -2.0060     5.7990     0.7070 C.3   1 <1>  -0.1600 
  6 C        0.5320     4.3250     0.5240 C.3   1 <1>   0.5030 
  7 C       -0.9890     4.0690    -1.4670 C.3   1 <1>  -0.0800 
  8 C       -0.8740     6.2750    -0.2270 C.3   1 <1>  -0.0800 
  9 N        1.8160     3.9380     1.0940 N.4   1 <1>  -0.8530 
 10 C        0.3690     3.6660    -0.8580 C.3   1 <1>  -0.1600 
 11 C        0.4830     5.8570     0.3740 C.3   1 <1>  -0.1600 
 12 C       -1.0430     5.6040    -1.6050 C.3   1 <1>  -0.1600 
 13 H       -3.7960     4.0920     1.3380 H     1 <1>   0.4000 
 14 H       -0.5720     2.7890     1.5670 H     1 <1>   0.0800 
 15 H       -0.4930     4.3160     2.4260 H     1 <1>   0.0800 
 16 H       -3.0700     3.8870    -0.9460 H     1 <1>   0.0800 
 17 H       -2.1000     2.5360    -0.4250 H     1 <1>   0.0800 
 18 H       -1.9070     6.2650     1.6720 H     1 <1>   0.0800 
 19 H       -2.9560     6.0880     0.2920 H     1 <1>   0.0800 
 20 H       -1.1110     3.6110    -2.4360 H     1 <1>   0.0800 
 21 H       -0.9180     7.3470    -0.3350 H     1 <1>   0.0800 
 22 H        1.8560     2.9210     1.2000 H     1 <1>   0.4500 
 23 H        1.9310     4.3700     2.0150 H     1 <1>   0.4500 
 24 H        2.5790     4.2420     0.4840 H     1 <1>   0.4500 
 25 H        0.4080     2.5940    -0.7720 H     1 <1>   0.0800 
 26 H        1.1550     3.9820    -1.5220 H     1 <1>   0.0800 
 27 H        1.2700     6.1980    -0.2750 H     1 <1>   0.0800 
 28 H        0.6010     6.3340     1.3320 H     1 <1>   0.0800 
 29 H       -0.2720     5.9420    -2.2770 H     1 <1>   0.0800 
 30 H       -1.9870     5.8960    -2.0360 H     1 <1>   0.0800 
@<TRIPOS>BOND
  1   1   2  1   
  2   1  13  1   
  3   2   3  1   
  4   2   4  1   
  5   2   5  1   
  6   3   6  1   
  7   3  14  1   
  8   3  15  1   
  9   4   7  1   
 10   4  16  1   
 11   4  17  1   
 12   5   8  1   
 13   5  18  1   
 14   5  19  1   
 15   6   9  1   
 16   6  10  1   
 17   6  11  1   
 18   7  10  1   
 19   7  12  1   
 20   7  20  1   
 21   8  11  1   
 22   8  12  1   
 23   8  21  1   
 24   9  22  1   
 25   9  23  1   
 26   9  24  1   
 27  10  25  1   
 28  10  26  1   
 29  11  27  1   
 30  11  28  1   
 31  12  29  1   
 32  12  30  1   
@<TRIPOS>SUBSTRUCTURE
  1 ****   6 GROUP 4 **** **** 0

# MOE 2024.06 (io_trps.svl 2023.06)
