@<TRIPOS>MOLECULE
4-(4-Methyl-piperidin-1-yl)-butylamine
36 36 1 0 0 
SMALL
USER_CHARGES


@<TRIPOS>ATOM
  1 N        0.0620    -0.1610     0.0450 N.4   1 <1>  -0.9590 
  2 C       -0.1130    -1.3910    -0.7900 C.3   1 <1>   0.3430 
  3 C       -1.1460     0.7140    -0.0510 C.3   1 <1>   0.3430 
  4 C        1.2880     0.6100    -0.3050 C.3   1 <1>   0.3430 
  5 C       -1.3140    -2.1910    -0.2860 C.3   1 <1>  -0.1600 
  6 C       -2.3720    -0.0370     0.4690 C.3   1 <1>  -0.1600 
  7 C        2.5550    -0.1240     0.1650 C.3   1 <1>  -0.1600 
  8 C       -2.5980    -1.3490    -0.2950 C.3   1 <1>  -0.0800 
  9 C        3.8280     0.7130    -0.0800 C.3   1 <1>  -0.1600 
 10 C       -3.7640    -2.1350     0.3120 C.3   1 <1>  -0.2400 
 11 C        5.0920    -0.0160     0.4000 C.3   1 <1>   0.3430 
 12 N        6.2870     0.8250     0.1480 N.4   1 <1>  -0.8530 
 13 H        0.1200    -0.4650     1.0260 H     1 <1>   0.4500 
 14 H        0.7680    -2.0100    -0.7360 H     1 <1>   0.0800 
 15 H       -0.2720    -1.1150    -1.8200 H     1 <1>   0.0800 
 16 H       -1.3110     1.0010    -1.0780 H     1 <1>   0.0800 
 17 H       -1.0050     1.6090     0.5330 H     1 <1>   0.0800 
 18 H        1.2480     1.5740     0.1770 H     1 <1>   0.0800 
 19 H        1.3260     0.7720    -1.3710 H     1 <1>   0.0800 
 20 H       -1.1120    -2.5530     0.7060 H     1 <1>   0.0800 
 21 H       -1.4490    -3.0500    -0.9210 H     1 <1>   0.0800 
 22 H       -3.2380     0.5930     0.3580 H     1 <1>   0.0800 
 23 H       -2.2510    -0.2320     1.5210 H     1 <1>   0.0800 
 24 H        2.6470    -1.0580    -0.3620 H     1 <1>   0.0800 
 25 H        2.4680    -0.3300     1.2190 H     1 <1>   0.0800 
 26 H       -2.8500    -1.1140    -1.3180 H     1 <1>   0.0800 
 27 H        3.7370     1.6490     0.4460 H     1 <1>   0.0800 
 28 H        3.9140     0.9180    -1.1340 H     1 <1>   0.0800 
 29 H       -3.5640    -2.3960     1.3370 H     1 <1>   0.0800 
 30 H       -3.9350    -3.0420    -0.2420 H     1 <1>   0.0800 
 31 H       -4.6680    -1.5510     0.2800 H     1 <1>   0.0800 
 32 H        5.1910    -0.9550    -0.1220 H     1 <1>   0.0800 
 33 H        5.0110    -0.2260     1.4560 H     1 <1>   0.0800 
 34 H        6.4040     1.0290    -0.8520 H     1 <1>   0.4500 
 35 H        7.1430     0.3510     0.4640 H     1 <1>   0.4500 
 36 H        6.2340     1.7200     0.6490 H     1 <1>   0.4500 
@<TRIPOS>BOND
  1   1   2  1   
  2   1   3  1   
  3   1   4  1   
  4   1  13  1   
  5   2   5  1   
  6   2  14  1   
  7   2  15  1   
  8   3   6  1   
  9   3  16  1   
 10   3  17  1   
 11   4   7  1   
 12   4  18  1   
 13   4  19  1   
 14   5   8  1   
 15   5  20  1   
 16   5  21  1   
 17   6   8  1   
 18   6  22  1   
 19   6  23  1   
 20   7   9  1   
 21   7  24  1   
 22   7  25  1   
 23   8  10  1   
 24   8  26  1   
 25   9  11  1   
 26   9  27  1   
 27   9  28  1   
 28  10  29  1   
 29  10  30  1   
 30  10  31  1   
 31  11  12  1   
 32  11  32  1   
 33  11  33  1   
 34  12  34  1   
 35  12  35  1   
 36  12  36  1   
@<TRIPOS>SUBSTRUCTURE
  1 ****   1 GROUP 4 **** **** 0

# MOE 2024.06 (io_trps.svl 2023.06)
