@<TRIPOS>MOLECULE
2-[4-(3-Acetyl-benzenesulfonyl)-piperazin-1-yl]-6,7-dimethyl-quinoline-3-carbonitrile
56 59 1 0 0 
SMALL
USER_CHARGES


@<TRIPOS>ATOM
  1 S       -0.0830     0.0790    -1.4980 S.o2  1 <1>   1.4470 
  2 O       -0.5950     1.1540    -0.6770 O.2   1 <1>  -0.6500 
  3 O        0.0700     0.2670    -2.9240 O.2   1 <1>  -0.6500 
  4 N        1.4450    -0.3180    -0.8820 N.am  1 <1>  -0.8490 
  5 C       -1.0440    -1.4220    -1.1570 C.ar  1 <1>  -0.0090 
  6 C        2.2870     0.8850    -0.7220 C.3   1 <1>   0.1960 
  7 C        2.1550    -1.3020    -1.7280 C.3   1 <1>   0.1960 
  8 C       -1.1440    -1.9170     0.1360 C.ar  1 <1>  -0.1500 
  9 C       -1.6940    -2.1090    -2.1740 C.ar  1 <1>  -0.1500 
 10 C        3.6600     0.5530    -0.1040 C.3   1 <1>   0.2090 
 11 C        3.5200    -1.6970    -1.1340 C.3   1 <1>   0.2090 
 12 C       -1.8630    -3.0730     0.4540 C.ar  1 <1>   0.0860 
 13 C       -2.4150    -3.2570    -1.9010 C.ar  1 <1>  -0.1500 
 14 N        4.3730    -0.4930    -0.9000 N.pl3 1 <1>  -0.8380 
 15 C       -1.9680    -3.5970     1.8030 C.2   1 <1>   0.4230 
 16 C       -2.4940    -3.7280    -0.6050 C.ar  1 <1>  -0.1500 
 17 C        5.7310    -0.6640    -0.7100 C.ar  1 <1>   0.4100 
 18 O       -2.5410    -4.6220     2.0660 O.2   1 <1>  -0.5700 
 19 C       -1.3430    -2.8540     2.9680 C.3   1 <1>  -0.1790 
 20 N        6.0850    -1.7160    -0.0210 N.ar  1 <1>  -0.6200 
 21 C        6.6620     0.2650    -1.2490 C.ar  1 <1>   0.0730 
 22 C        7.4050    -1.9210     0.1970 C.ar  1 <1>   0.3100 
 23 C        6.1980     1.3860    -2.0080 C.1   1 <1>   0.4840 
 24 C        7.9940     0.0630    -1.0320 C.ar  1 <1>  -0.1500 
 25 C        8.4040    -1.0550    -0.2900 C.ar  1 <1>   0.0000 
 26 C        7.8060    -3.0410     0.9390 C.ar  1 <1>  -0.1500 
 27 N        5.8520     2.3070    -2.5860 N.1   1 <1>  -0.5570 
 28 C        9.7520    -1.3440    -0.0150 C.ar  1 <1>  -0.1500 
 29 C        9.1260    -3.3140     1.2010 C.ar  1 <1>  -0.1430 
 30 C       10.1180    -2.4470     0.7130 C.ar  1 <1>  -0.1430 
 31 C        9.4910    -4.5490     2.0130 C.3   1 <1>  -0.0970 
 32 C       11.5920    -2.7170     0.9840 C.3   1 <1>  -0.0970 
 33 H        1.7900     1.5920    -0.0810 H     1 <1>   0.0800 
 34 H        2.4390     1.3580    -1.6790 H     1 <1>   0.0800 
 35 H        2.3170    -0.8950    -2.7130 H     1 <1>   0.0800 
 36 H        1.5560    -2.1910    -1.8300 H     1 <1>   0.0800 
 37 H       -0.6360    -1.3710     0.9110 H     1 <1>   0.1500 
 38 H       -1.6370    -1.7450    -3.1870 H     1 <1>   0.1500 
 39 H        3.5160     0.1950     0.9010 H     1 <1>   0.0800 
 40 H        4.2520     1.4500    -0.0540 H     1 <1>   0.0800 
 41 H        4.0260    -2.3660    -1.8090 H     1 <1>   0.0800 
 42 H        3.3690    -2.2150    -0.2030 H     1 <1>   0.0800 
 43 H       -2.9160    -3.7820    -2.6970 H     1 <1>   0.1500 
 44 H       -3.0590    -4.6230    -0.4030 H     1 <1>   0.1500 
 45 H       -0.2760    -2.8140     2.8500 H     1 <1>   0.0800 
 46 H       -1.5650    -3.3650     3.8880 H     1 <1>   0.0800 
 47 H       -1.7410    -1.8580     3.0280 H     1 <1>   0.0800 
 48 H        8.7380     0.7380    -1.4190 H     1 <1>   0.1500 
 49 H        7.0270    -3.6860     1.2990 H     1 <1>   0.1500 
 50 H       10.5000    -0.6710    -0.3950 H     1 <1>   0.1500 
 51 H        8.6110    -5.0930     2.3040 H     1 <1>   0.0800 
 52 H       10.0180    -4.2620     2.9060 H     1 <1>   0.0800 
 53 H       10.1140    -5.2040     1.4320 H     1 <1>   0.0800 
 54 H       12.2120    -1.9590     0.5400 H     1 <1>   0.0800 
 55 H       11.8750    -3.6670     0.5690 H     1 <1>   0.0800 
 56 H       11.7780    -2.7260     2.0430 H     1 <1>   0.0800 
@<TRIPOS>BOND
  1   1   2  2   
  2   1   3  2   
  3   1   4  am  
  4   1   5  1   
  5   4   6  1   
  6   4   7  1   
  7   5   8  ar  
  8   5   9  ar  
  9   6  10  1   
 10   6  33  1   
 11   6  34  1   
 12   7  11  1   
 13   7  35  1   
 14   7  36  1   
 15   8  12  ar  
 16   8  37  1   
 17   9  13  ar  
 18   9  38  1   
 19  10  14  1   
 20  10  39  1   
 21  10  40  1   
 22  11  14  1   
 23  11  41  1   
 24  11  42  1   
 25  12  15  1   
 26  12  16  ar  
 27  13  16  ar  
 28  13  43  1   
 29  14  17  1   
 30  15  18  2   
 31  15  19  1   
 32  16  44  1   
 33  17  20  ar  
 34  17  21  ar  
 35  19  45  1   
 36  19  46  1   
 37  19  47  1   
 38  20  22  ar  
 39  21  23  1   
 40  21  24  ar  
 41  22  25  ar  
 42  22  26  ar  
 43  23  27  3   
 44  24  25  ar  
 45  24  48  1   
 46  25  28  ar  
 47  26  29  ar  
 48  26  49  1   
 49  28  30  ar  
 50  28  50  1   
 51  29  30  ar  
 52  29  31  1   
 53  30  32  1   
 54  31  51  1   
 55  31  52  1   
 56  31  53  1   
 57  32  54  1   
 58  32  55  1   
 59  32  56  1   
@<TRIPOS>SUBSTRUCTURE
  1 ****  11 GROUP 4 **** **** 0

# MOE 2024.06 (io_trps.svl 2023.06)
