@<TRIPOS>MOLECULE
NONAME
42 43 1 0 0 
SMALL
USER_CHARGES


@<TRIPOS>ATOM
  1 O       -1.1280     0.4360    -0.2450 O.2   1 <1>  -0.5700 
  2 C       -0.5860     0.9600    -1.1980 C.2   1 <1>   0.6900 
  3 N        0.7070     1.3780    -1.1620 N.am  1 <1>  -0.5470 
  4 N       -1.3090     1.1880    -2.3240 N.am  1 <1>  -0.7300 
  5 C        1.6660     1.2550    -0.1440 C.ar  1 <1>   0.1170 
  6 C       -2.6400     0.5800    -2.6390 C.3   1 <1>   0.1400 
  7 C        2.6470     2.2330    -0.0230 C.ar  1 <1>  -0.1500 
  8 C        1.6890     0.1820     0.7420 C.ar  1 <1>  -0.1500 
  9 C       -3.8140     1.3270    -1.9670 C.3   1 <1>   0.3430 
 10 C        3.6170     2.1460     0.9590 C.ar  1 <1>  -0.1500 
 11 C        2.6560     0.0910     1.7270 C.ar  1 <1>  -0.1500 
 12 N       -3.7160     1.2800    -0.4800 N.4   1 <1>  -0.9590 
 13 C        3.6300     1.0790     1.8410 C.ar  1 <1>   0.0830 
 14 C       -4.2190    -0.0040     0.1130 C.3   1 <1>   0.3430 
 15 C       -4.3170     2.4710     0.2050 C.3   1 <1>   0.3430 
 16 O        4.6160     1.0700     2.7770 O.3   1 <1>  -0.3620 
 17 C       -4.0880     0.0080     1.6470 C.3   1 <1>   0.1200 
 18 C       -4.1890     2.3550     1.7360 C.3   1 <1>   0.1200 
 19 C        4.7040     0.0310     3.7260 C.3   1 <1>   0.0400 
 20 O       -4.7200     1.1380     2.1780 O.3   1 <1>  -0.5600 
 21 H        1.0100     1.9330    -1.9560 H     1 <1>   0.3700 
 22 H       -0.7890     1.5160    -3.1420 H     1 <1>   0.3700 
 23 H       -2.6430    -0.4520    -2.3340 H     1 <1>   0.0800 
 24 H       -2.7820     0.6010    -3.7060 H     1 <1>   0.0800 
 25 H        2.6570     3.0710    -0.6950 H     1 <1>   0.1500 
 26 H        0.9500    -0.5940     0.6620 H     1 <1>   0.1500 
 27 H       -4.7490     0.8950    -2.2830 H     1 <1>   0.0800 
 28 H       -3.7940     2.3510    -2.3010 H     1 <1>   0.0800 
 29 H        4.3720     2.9050     1.0500 H     1 <1>   0.1500 
 30 H        2.6370    -0.7530     2.3910 H     1 <1>   0.1500 
 31 H       -2.6950     1.2740    -0.2640 H     1 <1>   0.4500 
 32 H       -3.6550    -0.8340    -0.2790 H     1 <1>   0.0800 
 33 H       -5.2560    -0.1470    -0.1430 H     1 <1>   0.0800 
 34 H       -3.8270     3.3720    -0.1250 H     1 <1>   0.0800 
 35 H       -5.3630     2.5470    -0.0450 H     1 <1>   0.0800 
 36 H       -4.5620    -0.8620     2.0680 H     1 <1>   0.0800 
 37 H       -3.0530     0.0130     1.9440 H     1 <1>   0.0800 
 38 H       -4.7390     3.1460     2.2170 H     1 <1>   0.0800 
 39 H       -3.1590     2.4160     2.0440 H     1 <1>   0.0800 
 40 H        5.5450     0.2340     4.3650 H     1 <1>   0.0800 
 41 H        4.8520    -0.9010     3.2110 H     1 <1>   0.0800 
 42 H        3.7990     0.0120     4.3080 H     1 <1>   0.0800 
@<TRIPOS>BOND
  1   1   2  2   
  2   2   3  am  
  3   2   4  am  
  4   3   5  1   
  5   3  21  1   
  6   4   6  1   
  7   4  22  1   
  8   5   7  ar  
  9   5   8  ar  
 10   6   9  1   
 11   6  23  1   
 12   6  24  1   
 13   7  10  ar  
 14   7  25  1   
 15   8  11  ar  
 16   8  26  1   
 17   9  12  1   
 18   9  27  1   
 19   9  28  1   
 20  10  13  ar  
 21  10  29  1   
 22  11  13  ar  
 23  11  30  1   
 24  12  14  1   
 25  12  15  1   
 26  12  31  1   
 27  13  16  1   
 28  14  17  1   
 29  14  32  1   
 30  14  33  1   
 31  15  18  1   
 32  15  34  1   
 33  15  35  1   
 34  16  19  1   
 35  17  20  1   
 36  17  36  1   
 37  17  37  1   
 38  18  20  1   
 39  18  38  1   
 40  18  39  1   
 41  19  40  1   
 42  19  41  1   
 43  19  42  1   
@<TRIPOS>SUBSTRUCTURE
  1 ****   1 GROUP 4 **** **** 0

# MOE 2024.06 (io_trps.svl 2023.06)
