@<TRIPOS>MOLECULE
NONAME
54 56 1 0 0 
SMALL
USER_CHARGES


@<TRIPOS>ATOM
  1 O       -0.8870    -0.1610     0.9040 O.2   1 <1>  -0.5700 
  2 C       -1.4170    -1.0710     0.2930 C.2   1 <1>   0.6900 
  3 N       -2.4560    -0.8350    -0.5690 N.am  1 <1>  -0.6600 
  4 N       -0.9640    -2.3320     0.4640 N.am  1 <1>  -0.7300 
  5 C       -3.3780    -1.8890    -1.0850 C.3   1 <1>   0.1400 
  6 C       -2.8510     0.5510    -0.9430 C.3   1 <1>   0.1400 
  7 C        0.2410    -2.6700     1.2290 C.3   1 <1>   0.2840 
  8 C       -4.7960    -1.6390    -0.5500 C.3   1 <1>  -0.0190 
  9 C       -4.2670     0.8380    -0.4330 C.3   1 <1>  -0.1600 
 10 C        0.6760    -4.0630     0.8110 C.ar  1 <1>  -0.1440 
 11 C       -5.7660    -2.6970    -1.0620 C.2   1 <1>   0.5690 
 12 C       -5.2740    -0.2190    -0.9150 C.3   1 <1>  -0.1600 
 13 C        1.5340    -4.2330    -0.2650 C.ar  1 <1>  -0.1500 
 14 C        0.2110    -5.1770     1.4930 C.ar  1 <1>  -0.1500 
 15 O       -5.5650    -3.2080    -2.1360 O.2   1 <1>  -0.5700 
 16 N       -6.8380    -2.9970    -0.2670 N.am  1 <1>  -0.5470 
 17 C        1.9250    -5.5020    -0.6540 C.ar  1 <1>  -0.1500 
 18 C        0.6020    -6.4470     1.1060 C.ar  1 <1>  -0.1500 
 19 C       -7.8940    -3.9100    -0.4350 C.ar  1 <1>   0.1170 
 20 C        1.4590    -6.6100     0.0320 C.ar  1 <1>  -0.1500 
 21 C       -9.1290    -3.6730     0.1830 C.ar  1 <1>  -0.1440 
 22 C       -7.7230    -5.0680    -1.1840 C.ar  1 <1>  -0.1500 
 23 C      -10.1580    -4.6060     0.0550 C.ar  1 <1>  -0.1440 
 24 C       -9.3280    -2.3880     0.9920 C.3   1 <1>  -0.0970 
 25 C       -8.7460    -5.9820    -1.3210 C.ar  1 <1>  -0.1500 
 26 C       -9.9580    -5.7510    -0.7010 C.ar  1 <1>  -0.1500 
 27 C      -11.5190    -4.4280     0.7170 C.3   1 <1>  -0.0970 
 28 H       -1.2280    -3.0310    -0.2250 H     1 <1>   0.3700 
 29 H       -3.0570    -2.8710    -0.7870 H     1 <1>   0.0800 
 30 H       -3.3790    -1.8540    -2.1620 H     1 <1>   0.0800 
 31 H       -2.8220     0.6430    -2.0160 H     1 <1>   0.0800 
 32 H       -2.1620     1.2690    -0.5310 H     1 <1>   0.0800 
 33 H        0.0190    -2.6390     2.2810 H     1 <1>   0.0800 
 34 H        1.0190    -1.9540     1.0220 H     1 <1>   0.0800 
 35 H       -4.7500    -1.7260     0.5200 H     1 <1>   0.0800 
 36 H       -4.5730     1.8120    -0.7710 H     1 <1>   0.0800 
 37 H       -4.2440     0.8590     0.6430 H     1 <1>   0.0800 
 38 H       -6.2370    -0.0270    -0.4740 H     1 <1>   0.0800 
 39 H       -5.3800    -0.1460    -1.9850 H     1 <1>   0.0800 
 40 H        1.8980    -3.3760    -0.8060 H     1 <1>   0.1500 
 41 H       -0.4590    -5.0590     2.3270 H     1 <1>   0.1500 
 42 H       -6.9270    -2.4280     0.5710 H     1 <1>   0.3700 
 43 H        2.5920    -5.6280    -1.4890 H     1 <1>   0.1500 
 44 H        0.2390    -7.3080     1.6390 H     1 <1>   0.1500 
 45 H        1.7640    -7.5970    -0.2700 H     1 <1>   0.1500 
 46 H       -6.7820    -5.2660    -1.6630 H     1 <1>   0.1500 
 47 H       -8.9110    -1.5460     0.4680 H     1 <1>   0.0800 
 48 H       -8.8470    -2.4820     1.9490 H     1 <1>   0.0800 
 49 H      -10.3640    -2.1630     1.1550 H     1 <1>   0.0800 
 50 H       -8.5990    -6.8720    -1.9070 H     1 <1>   0.1500 
 51 H      -10.7460    -6.4750    -0.8140 H     1 <1>   0.1500 
 52 H      -12.0420    -3.6040     0.2650 H     1 <1>   0.0800 
 53 H      -11.3990    -4.2400     1.7680 H     1 <1>   0.0800 
 54 H      -12.1230    -5.3100     0.6060 H     1 <1>   0.0800 
@<TRIPOS>BOND
  1   1   2  2   
  2   2   3  am  
  3   2   4  am  
  4   3   5  1   
  5   3   6  1   
  6   4   7  1   
  7   4  28  1   
  8   5   8  1   
  9   5  29  1   
 10   5  30  1   
 11   6   9  1   
 12   6  31  1   
 13   6  32  1   
 14   7  10  1   
 15   7  33  1   
 16   7  34  1   
 17   8  11  1   
 18   8  12  1   
 19   8  35  1   
 20   9  12  1   
 21   9  36  1   
 22   9  37  1   
 23  10  13  ar  
 24  10  14  ar  
 25  11  15  2   
 26  11  16  am  
 27  12  38  1   
 28  12  39  1   
 29  13  17  ar  
 30  13  40  1   
 31  14  18  ar  
 32  14  41  1   
 33  16  19  1   
 34  16  42  1   
 35  17  20  ar  
 36  17  43  1   
 37  18  20  ar  
 38  18  44  1   
 39  19  21  ar  
 40  19  22  ar  
 41  20  45  1   
 42  21  23  ar  
 43  21  24  1   
 44  22  25  ar  
 45  22  46  1   
 46  23  26  ar  
 47  23  27  1   
 48  24  47  1   
 49  24  48  1   
 50  24  49  1   
 51  25  26  ar  
 52  25  50  1   
 53  26  51  1   
 54  27  52  1   
 55  27  53  1   
 56  27  54  1   
@<TRIPOS>SUBSTRUCTURE
  1 ****   8 GROUP 4 **** **** 0

# MOE 2024.06 (io_trps.svl 2023.06)
