@<TRIPOS>MOLECULE
NONAME
54 57 1 0 0 
SMALL
USER_CHARGES


@<TRIPOS>ATOM
  1 O        1.6090    -3.0140    -1.9770 O.2   1 <1>  -0.5700 
  2 C        0.4770    -2.9100    -1.5550 C.2   1 <1>   0.5690 
  3 N       -0.0060    -3.6880    -0.5320 N.am  1 <1>  -0.4770 
  4 C       -0.4440    -1.8550    -2.1630 C.3   1 <1>   0.1810 
  5 C       -1.3240    -3.4700    -0.0610 C.ar  1 <1>   0.1170 
  6 C        0.7740    -4.8860    -0.0690 C.3   1 <1>   0.2010 
  7 O       -1.8180    -2.1970    -2.0370 O.3   1 <1>  -0.3630 
  8 C       -2.2170    -2.7420    -0.8580 C.ar  1 <1>   0.0830 
  9 C       -1.7820    -3.9460     1.1640 C.ar  1 <1>  -0.1500 
 10 C        1.8230    -4.5540     0.9990 C.2   1 <1>   0.5690 
 11 C       -3.5280    -2.5490    -0.4640 C.ar  1 <1>  -0.1500 
 12 C       -3.0920    -3.7430     1.5700 C.ar  1 <1>  -0.1440 
 13 O        1.4190    -4.3720     2.1230 O.2   1 <1>  -0.5700 
 14 N        3.1750    -4.4630     0.7330 N.am  1 <1>  -0.6600 
 15 C       -3.9660    -3.0510     0.7480 C.ar  1 <1>  -0.1500 
 16 C       -3.5680    -4.2780     2.9090 C.3   1 <1>  -0.0970 
 17 C        3.8250    -4.5450    -0.6090 C.3   1 <1>   0.1400 
 18 C        4.1310    -4.0270     1.7950 C.3   1 <1>   0.1400 
 19 C        4.4470    -3.1840    -0.9820 C.3   1 <1>   0.3430 
 20 C        4.7430    -2.6630     1.4250 C.3   1 <1>   0.3430 
 21 N        5.4100    -2.6700     0.0660 N.4   1 <1>  -0.9590 
 22 C        5.9740    -1.3340    -0.2980 C.3   1 <1>   0.4230 
 23 C        6.7950    -1.4320    -1.5870 C.3   1 <1>  -0.1600 
 24 C        7.0590    -0.9170     0.6990 C.3   1 <1>  -0.1600 
 25 C        8.1430    -2.0390    -1.1800 C.3   1 <1>  -0.1600 
 26 C        8.3120    -1.7080     0.3070 C.3   1 <1>  -0.1600 
 27 H       -0.2310    -1.7400    -3.2100 H     1 <1>   0.0800 
 28 H       -0.2940    -0.9170    -1.6640 H     1 <1>   0.0800 
 29 H        1.2280    -5.3590    -0.9160 H     1 <1>   0.0800 
 30 H        0.0970    -5.6090     0.3450 H     1 <1>   0.0800 
 31 H       -1.1180    -4.4740     1.8220 H     1 <1>   0.1500 
 32 H       -4.1980    -2.0030    -1.1020 H     1 <1>   0.1500 
 33 H       -4.9880    -2.8970     1.0500 H     1 <1>   0.1500 
 34 H       -2.7470    -4.3550     3.5990 H     1 <1>   0.0800 
 35 H       -4.0040    -5.2520     2.7780 H     1 <1>   0.0800 
 36 H       -4.3060    -3.6220     3.3340 H     1 <1>   0.0800 
 37 H        3.1280    -4.8340    -1.3720 H     1 <1>   0.0800 
 38 H        4.5940    -5.2970    -0.5850 H     1 <1>   0.0800 
 39 H        4.9080    -4.7630     1.9040 H     1 <1>   0.0800 
 40 H        3.6380    -3.9400     2.7490 H     1 <1>   0.0800 
 41 H        3.6500    -2.4720    -1.1150 H     1 <1>   0.0800 
 42 H        4.9460    -3.2940    -1.9290 H     1 <1>   0.0800 
 43 H        5.4530    -2.3990     2.1880 H     1 <1>   0.0800 
 44 H        3.9550    -1.9270     1.4380 H     1 <1>   0.0800 
 45 H        6.2130    -3.3090     0.1060 H     1 <1>   0.4500 
 46 H        5.1910    -0.5960    -0.3750 H     1 <1>   0.0800 
 47 H        6.9740    -0.4290    -1.9380 H     1 <1>   0.0800 
 48 H        6.3270    -1.9650    -2.3930 H     1 <1>   0.0800 
 49 H        6.8030    -1.0320     1.7350 H     1 <1>   0.0800 
 50 H        7.2630     0.1290     0.5410 H     1 <1>   0.0800 
 51 H        8.9440    -1.6210    -1.7670 H     1 <1>   0.0800 
 52 H        8.1370    -3.1070    -1.3230 H     1 <1>   0.0800 
 53 H        8.3830    -2.6160     0.8820 H     1 <1>   0.0800 
 54 H        9.2020    -1.1250     0.4790 H     1 <1>   0.0800 
@<TRIPOS>BOND
  1   1   2  2   
  2   2   3  am  
  3   2   4  1   
  4   3   5  1   
  5   3   6  1   
  6   4   7  1   
  7   4  27  1   
  8   4  28  1   
  9   5   8  ar  
 10   5   9  ar  
 11   6  10  1   
 12   6  29  1   
 13   6  30  1   
 14   7   8  1   
 15   8  11  ar  
 16   9  12  ar  
 17   9  31  1   
 18  10  13  2   
 19  10  14  am  
 20  11  15  ar  
 21  11  32  1   
 22  12  15  ar  
 23  12  16  1   
 24  14  17  1   
 25  14  18  1   
 26  15  33  1   
 27  16  34  1   
 28  16  35  1   
 29  16  36  1   
 30  17  19  1   
 31  17  37  1   
 32  17  38  1   
 33  18  20  1   
 34  18  39  1   
 35  18  40  1   
 36  19  21  1   
 37  19  41  1   
 38  19  42  1   
 39  20  21  1   
 40  20  43  1   
 41  20  44  1   
 42  21  22  1   
 43  21  45  1   
 44  22  23  1   
 45  22  24  1   
 46  22  46  1   
 47  23  25  1   
 48  23  47  1   
 49  23  48  1   
 50  24  26  1   
 51  24  49  1   
 52  24  50  1   
 53  25  26  1   
 54  25  51  1   
 55  25  52  1   
 56  26  53  1   
 57  26  54  1   
@<TRIPOS>SUBSTRUCTURE
  1 ****  10 GROUP 4 **** **** 0

# MOE 2024.06 (io_trps.svl 2023.06)
