@<TRIPOS>MOLECULE
NONAME
29 29 1 0 0 
SMALL
USER_CHARGES


@<TRIPOS>ATOM
  1 F        1.0200    -0.5610     1.3910 F     1 <1>  -0.1900 
  2 C        0.6060    -1.7080     0.9120 C.ar  1 <1>   0.1900 
  3 C        1.4690    -2.4510     0.1080 C.ar  1 <1>   0.1170 
  4 C       -0.6770    -2.1160     1.2340 C.ar  1 <1>  -0.1500 
  5 N        2.7750    -1.9940    -0.1720 N.am  1 <1>  -0.5470 
  6 C        0.9390    -3.6440    -0.3880 C.ar  1 <1>   0.1900 
  7 C       -1.1520    -3.3190     0.7340 C.ar  1 <1>  -0.1500 
  8 C        3.9490    -2.6530     0.0000 C.2   1 <1>   0.7800 
  9 F        1.6510    -4.3830    -1.2020 F     1 <1>  -0.1900 
 10 C       -0.3380    -4.0870    -0.0860 C.ar  1 <1>  -0.1500 
 11 O        4.0200    -3.7750     0.4530 O.2   1 <1>  -0.5700 
 12 O        5.0320    -1.9550    -0.3370 O.3   1 <1>  -0.4300 
 13 C        6.3760    -2.3810    -0.2580 C.3   1 <1>   0.2800 
 14 C        6.7590    -2.6590     1.2000 C.3   1 <1>  -0.2400 
 15 C        7.2000    -1.2030    -0.7790 C.3   1 <1>  -0.2400 
 16 C        6.6020    -3.5960    -1.1650 C.3   1 <1>  -0.2400 
 17 H       -1.2920    -1.5000     1.8660 H     1 <1>   0.1500 
 18 H        2.8950    -0.9940    -0.3180 H     1 <1>   0.3700 
 19 H       -2.1460    -3.6530     0.9770 H     1 <1>   0.1500 
 20 H       -0.6880    -5.0190    -0.4920 H     1 <1>   0.1500 
 21 H        6.2490    -3.5270     1.5770 H     1 <1>   0.0800 
 22 H        7.8150    -2.8490     1.2720 H     1 <1>   0.0800 
 23 H        6.5230    -1.8130     1.8190 H     1 <1>   0.0800 
 24 H        6.9270    -0.9770    -1.7940 H     1 <1>   0.0800 
 25 H        8.2490    -1.4410    -0.7560 H     1 <1>   0.0800 
 26 H        7.0360    -0.3330    -0.1690 H     1 <1>   0.0800 
 27 H        7.6500    -3.8320    -1.2080 H     1 <1>   0.0800 
 28 H        6.0920    -4.4630    -0.7880 H     1 <1>   0.0800 
 29 H        6.2570    -3.3900    -2.1620 H     1 <1>   0.0800 
@<TRIPOS>BOND
  1   1   2  1   
  2   2   3  ar  
  3   2   4  ar  
  4   3   5  1   
  5   3   6  ar  
  6   4   7  ar  
  7   4  17  1   
  8   5   8  am  
  9   5  18  1   
 10   6   9  1   
 11   6  10  ar  
 12   7  10  ar  
 13   7  19  1   
 14   8  11  2   
 15   8  12  1   
 16  10  20  1   
 17  12  13  1   
 18  13  14  1   
 19  13  15  1   
 20  13  16  1   
 21  14  21  1   
 22  14  22  1   
 23  14  23  1   
 24  15  24  1   
 25  15  25  1   
 26  15  26  1   
 27  16  27  1   
 28  16  28  1   
 29  16  29  1   
@<TRIPOS>SUBSTRUCTURE
  1 ****   5 GROUP 4 **** **** 0

# MOE 2024.06 (io_trps.svl 2023.06)
