@<TRIPOS>MOLECULE
7724
32 32 1 0 0 
SMALL
USER_CHARGES


@<TRIPOS>ATOM
  1 I        0.6600     1.2330    -0.7670 I     1 <1>  -0.0810 
  2 C       -1.4070     1.5930    -0.3940 C.ar  1 <1>   0.0810 
  3 C       -1.7930     2.8400     0.0590 C.ar  1 <1>  -0.1500 
  4 C       -2.3080     0.5700    -0.6140 C.ar  1 <1>  -0.1500 
  5 C       -3.1360     3.0810     0.3060 C.ar  1 <1>  -0.1440 
  6 C       -3.6460     0.8190    -0.3700 C.ar  1 <1>  -0.1500 
  7 C       -4.0740     2.0640     0.0830 C.ar  1 <1>   0.1170 
  8 C       -3.5430     4.4560     0.8200 C.3   1 <1>  -0.0960 
  9 N       -5.4440     2.2390     0.3180 N.am  1 <1>  -0.5470 
 10 C       -6.3150     3.0810    -0.2940 C.2   1 <1>   0.7800 
 11 O       -6.0040     3.8820    -1.1520 O.2   1 <1>  -0.5700 
 12 O       -7.5790     2.9740     0.1040 O.3   1 <1>  -0.4300 
 13 C       -8.5820     3.7890    -0.4620 C.3   1 <1>   0.1200 
 14 C       -9.9160     3.4370     0.1960 C.3   1 <1>  -0.1600 
 15 C      -11.0560     4.2910    -0.3740 C.3   1 <1>  -0.1600 
 16 C      -12.3910     3.9370     0.2860 C.3   1 <1>  -0.2400 
 17 H       -1.0540     3.6060     0.2160 H     1 <1>   0.1500 
 18 H       -1.9750    -0.3890    -0.9670 H     1 <1>   0.1500 
 19 H       -4.3680     0.0410    -0.5400 H     1 <1>   0.1500 
 20 H       -2.7000     4.9730     1.2420 H     1 <1>   0.0800 
 21 H       -4.2960     4.3680     1.5820 H     1 <1>   0.0800 
 22 H       -3.9330     5.0460     0.0100 H     1 <1>   0.0800 
 23 H       -5.8970     1.5620     0.9250 H     1 <1>   0.3700 
 24 H       -8.6130     3.6030    -1.5230 H     1 <1>   0.0800 
 25 H       -8.3230     4.8190    -0.2840 H     1 <1>   0.0800 
 26 H       -9.8400     3.6050     1.2560 H     1 <1>   0.0800 
 27 H      -10.1290     2.3960     0.0240 H     1 <1>   0.0800 
 28 H      -11.1330     4.1300    -1.4370 H     1 <1>   0.0800 
 29 H      -10.8450     5.3340    -0.2090 H     1 <1>   0.0800 
 30 H      -12.6350     2.9030     0.1140 H     1 <1>   0.0800 
 31 H      -13.1780     4.5450    -0.1260 H     1 <1>   0.0800 
 32 H      -12.3460     4.1110     1.3460 H     1 <1>   0.0800 
@<TRIPOS>BOND
  1   1   2  1   
  2   2   3  ar  
  3   2   4  ar  
  4   3   5  ar  
  5   3  17  1   
  6   4   6  ar  
  7   4  18  1   
  8   5   7  ar  
  9   5   8  1   
 10   6   7  ar  
 11   6  19  1   
 12   7   9  1   
 13   8  20  1   
 14   8  21  1   
 15   8  22  1   
 16   9  10  am  
 17   9  23  1   
 18  10  11  2   
 19  10  12  1   
 20  12  13  1   
 21  13  14  1   
 22  13  24  1   
 23  13  25  1   
 24  14  15  1   
 25  14  26  1   
 26  14  27  1   
 27  15  16  1   
 28  15  28  1   
 29  15  29  1   
 30  16  30  1   
 31  16  31  1   
 32  16  32  1   
@<TRIPOS>SUBSTRUCTURE
  1 ****   9 GROUP 4 **** **** 0

# MOE 2024.06 (io_trps.svl 2023.06)
