@<TRIPOS>MOLECULE
4-[(4-Benzoylamino-piperidine-1-carbonyl)-amino]-benzoic acid ethyl ester
54 56 1 0 0 
SMALL
USER_CHARGES


@<TRIPOS>ATOM
  1 O        0.3320    -0.3870    -0.3470 O.2   1 <1>  -0.5700 
  2 C        0.7500     0.7200    -0.6270 C.2   1 <1>   0.6900 
  3 N        2.0470     0.8850    -1.0500 N.am  1 <1>  -0.6600 
  4 N       -0.0450     1.8240    -0.4920 N.am  1 <1>  -0.5470 
  5 C        2.5460     2.0640    -1.8090 C.3   1 <1>   0.1400 
  6 C        3.0400    -0.2180    -0.9190 C.3   1 <1>   0.1400 
  7 C       -1.4130     1.9600    -0.2460 C.ar  1 <1>   0.1170 
  8 C        3.7850     2.6240    -1.1100 C.3   1 <1>  -0.1600 
  9 C        4.2980     0.3120    -0.2270 C.3   1 <1>  -0.1600 
 10 C       -2.3390     0.9550    -0.5070 C.ar  1 <1>  -0.1500 
 11 C       -1.8910     3.1610     0.2670 C.ar  1 <1>  -0.1500 
 12 C        4.8500     1.5350    -0.9620 C.3   1 <1>   0.2200 
 13 C       -3.6850     1.1440    -0.2580 C.ar  1 <1>  -0.1500 
 14 C       -3.2370     3.3480     0.5140 C.ar  1 <1>  -0.1500 
 15 N        5.9910     2.0770    -0.2090 N.am  1 <1>  -0.7300 
 16 C       -4.1780     2.3440     0.2600 C.ar  1 <1>   0.0860 
 17 C        7.1220     2.6000    -0.7700 C.2   1 <1>   0.5440 
 18 C       -5.5930     2.5280     0.5150 C.2   1 <1>   0.6340 
 19 O        7.1880     2.6650    -1.9820 O.2   1 <1>  -0.5700 
 20 C        8.2070     3.0890     0.0650 C.ar  1 <1>   0.0860 
 21 O       -6.4300     1.6760     0.2910 O.2   1 <1>  -0.5700 
 22 O       -5.9940     3.6990     1.0210 O.3   1 <1>  -0.4300 
 23 C        8.4440     2.5790     1.3450 C.ar  1 <1>  -0.1500 
 24 C        9.0590     4.0980    -0.3860 C.ar  1 <1>  -0.1500 
 25 C       -7.3520     3.9590     1.2980 C.3   1 <1>   0.1200 
 26 C        9.4690     3.0620     2.1370 C.ar  1 <1>  -0.1500 
 27 C       10.0870     4.5850     0.4000 C.ar  1 <1>  -0.1500 
 28 C       -7.4590     5.3720     1.8610 C.3   1 <1>  -0.2400 
 29 C       10.2920     4.0690     1.6660 C.ar  1 <1>  -0.1500 
 30 H        0.4940     2.6810    -0.4760 H     1 <1>   0.3700 
 31 H        1.7930     2.8280    -1.8930 H     1 <1>   0.0800 
 32 H        2.8050     1.7500    -2.8070 H     1 <1>   0.0800 
 33 H        3.2830    -0.5900    -1.9000 H     1 <1>   0.0800 
 34 H        2.6340    -1.0340    -0.3450 H     1 <1>   0.0800 
 35 H        3.5050     3.0050    -0.1450 H     1 <1>   0.0800 
 36 H        4.1870     3.4310    -1.6960 H     1 <1>   0.0800 
 37 H        5.0420    -0.4640    -0.2110 H     1 <1>   0.0800 
 38 H        4.0470     0.5680     0.7870 H     1 <1>   0.0800 
 39 H       -2.0070     0.0150    -0.9090 H     1 <1>   0.1500 
 40 H       -1.2010     3.9570     0.4780 H     1 <1>   0.1500 
 41 H        5.1800     1.2320    -1.9430 H     1 <1>   0.0800 
 42 H       -4.3750     0.3440    -0.4680 H     1 <1>   0.1500 
 43 H       -3.5690     4.2900     0.9140 H     1 <1>   0.1500 
 44 H        5.8540     2.1540     0.7980 H     1 <1>   0.3700 
 45 H        7.8240     1.7860     1.7240 H     1 <1>   0.1500 
 46 H        8.9080     4.5020    -1.3730 H     1 <1>   0.1500 
 47 H       -7.7000     3.2300     2.0110 H     1 <1>   0.0800 
 48 H       -7.9110     3.8630     0.3820 H     1 <1>   0.0800 
 49 H        9.6320     2.6550     3.1200 H     1 <1>   0.1500 
 50 H       10.7270     5.3650     0.0260 H     1 <1>   0.1500 
 51 H       -6.8880     5.4540     2.7680 H     1 <1>   0.0800 
 52 H       -8.4870     5.5970     2.0810 H     1 <1>   0.0800 
 53 H       -7.0990     6.0860     1.1410 H     1 <1>   0.0800 
 54 H       11.0910     4.4470     2.2810 H     1 <1>   0.1500 
@<TRIPOS>BOND
  1   1   2  2   
  2   2   3  am  
  3   2   4  am  
  4   3   5  1   
  5   3   6  1   
  6   4   7  1   
  7   4  30  1   
  8   5   8  1   
  9   5  31  1   
 10   5  32  1   
 11   6   9  1   
 12   6  33  1   
 13   6  34  1   
 14   7  10  ar  
 15   7  11  ar  
 16   8  12  1   
 17   8  35  1   
 18   8  36  1   
 19   9  12  1   
 20   9  37  1   
 21   9  38  1   
 22  10  13  ar  
 23  10  39  1   
 24  11  14  ar  
 25  11  40  1   
 26  12  15  1   
 27  12  41  1   
 28  13  16  ar  
 29  13  42  1   
 30  14  16  ar  
 31  14  43  1   
 32  15  17  am  
 33  15  44  1   
 34  16  18  1   
 35  17  19  2   
 36  17  20  1   
 37  18  21  2   
 38  18  22  1   
 39  20  23  ar  
 40  20  24  ar  
 41  22  25  1   
 42  23  26  ar  
 43  23  45  1   
 44  24  27  ar  
 45  24  46  1   
 46  25  28  1   
 47  25  47  1   
 48  25  48  1   
 49  26  29  ar  
 50  26  49  1   
 51  27  29  ar  
 52  27  50  1   
 53  28  51  1   
 54  28  52  1   
 55  28  53  1   
 56  29  54  1   
@<TRIPOS>SUBSTRUCTURE
  1 ****   4 GROUP 4 **** **** 0

# MOE 2024.06 (io_trps.svl 2023.06)
