@<TRIPOS>MOLECULE
NONAME
37 39 1 0 0 
SMALL
USER_CHARGES


@<TRIPOS>ATOM
  1 S       -0.2460    -0.1700    -1.1170 S.o2  1 <1>   1.3330 
  2 O       -0.5810     0.2440    -2.4600 O.2   1 <1>  -0.6500 
  3 O        0.4870    -1.3940    -0.8960 O.2   1 <1>  -0.6500 
  4 N       -1.6830    -0.2520    -0.2260 N.am  1 <1>  -0.8490 
  5 C        0.6370     1.1450    -0.3050 C.3   1 <1>  -0.1350 
  6 C       -2.2530    -1.6150    -0.2400 C.3   1 <1>   0.1960 
  7 C       -2.7010     0.7140    -0.6930 C.3   1 <1>   0.1960 
  8 C       -3.5340    -1.7250     0.6100 C.3   1 <1>   0.2090 
  9 C       -3.9870     0.6660     0.1530 C.3   1 <1>   0.2090 
 10 N       -4.5590    -0.7160     0.1910 N.pl3 1 <1>  -0.8220 
 11 C       -5.8710    -0.8630     0.6810 C.2   1 <1>   0.2700 
 12 N       -6.4740     0.0340     1.3810 N.2   1 <1>  -0.3380 
 13 N       -6.6930    -1.9210     0.5150 N.pl3 1 <1>   0.5930 
 14 N       -7.6690    -0.4690     1.6740 N.2   1 <1>   0.0000 
 15 N       -7.8170    -1.6360     1.1710 N.2   1 <1>  -0.4180 
 16 C       -6.4870    -3.1300    -0.2130 C.ar  1 <1>  -0.0230 
 17 C       -6.8730    -4.3560     0.3250 C.ar  1 <1>  -0.1500 
 18 C       -5.8920    -3.1160    -1.4720 C.ar  1 <1>  -0.1500 
 19 C       -6.6590    -5.5320    -0.3700 C.ar  1 <1>  -0.1500 
 20 C       -5.6770    -4.2920    -2.1680 C.ar  1 <1>  -0.1500 
 21 C       -6.0590    -5.5010    -1.6160 C.ar  1 <1>  -0.1500 
 22 H        0.7870     0.9020     0.7280 H     1 <1>   0.0800 
 23 H        0.0880     2.0620    -0.3710 H     1 <1>   0.0800 
 24 H        1.5940     1.2820    -0.7690 H     1 <1>   0.0800 
 25 H       -1.5310    -2.3110     0.1540 H     1 <1>   0.0800 
 26 H       -2.4740    -1.9080    -1.2530 H     1 <1>   0.0800 
 27 H       -2.9620     0.5060    -1.7180 H     1 <1>   0.0800 
 28 H       -2.2980     1.7100    -0.6530 H     1 <1>   0.0800 
 29 H       -3.2810    -1.5650     1.6440 H     1 <1>   0.0800 
 30 H       -3.9280    -2.7210     0.5170 H     1 <1>   0.0800 
 31 H       -4.7120     1.3420    -0.2660 H     1 <1>   0.0800 
 32 H       -3.7680     0.9910     1.1560 H     1 <1>   0.0800 
 33 H       -7.3450    -4.3910     1.2930 H     1 <1>   0.1500 
 34 H       -5.5930    -2.1790    -1.9140 H     1 <1>   0.1500 
 35 H       -6.9610    -6.4730     0.0580 H     1 <1>   0.1500 
 36 H       -5.2140    -4.2670    -3.1400 H     1 <1>   0.1500 
 37 H       -5.8930    -6.4170    -2.1570 H     1 <1>   0.1500 
@<TRIPOS>BOND
  1   1   2  2   
  2   1   3  2   
  3   1   4  am  
  4   1   5  1   
  5   4   6  1   
  6   4   7  1   
  7   5  22  1   
  8   5  23  1   
  9   5  24  1   
 10   6   8  1   
 11   6  25  1   
 12   6  26  1   
 13   7   9  1   
 14   7  27  1   
 15   7  28  1   
 16   8  10  1   
 17   8  29  1   
 18   8  30  1   
 19   9  10  1   
 20   9  31  1   
 21   9  32  1   
 22  10  11  1   
 23  11  12  2   
 24  11  13  1   
 25  12  14  1   
 26  13  15  1   
 27  13  16  1   
 28  14  15  2   
 29  16  17  ar  
 30  16  18  ar  
 31  17  19  ar  
 32  17  33  1   
 33  18  20  ar  
 34  18  34  1   
 35  19  21  ar  
 36  19  35  1   
 37  20  21  ar  
 38  20  36  1   
 39  21  37  1   
@<TRIPOS>SUBSTRUCTURE
  1 ****  10 GROUP 4 **** **** 0

# MOE 2024.06 (io_trps.svl 2023.06)
