@<TRIPOS>MOLECULE
4-(2,3-Dihydro-benzo[1,4]dioxine-6-carbonyl)-piperidine-1-carboxylic acid (2-fluoro-phenyl)-amide
49 52 1 0 0 
SMALL
USER_CHARGES


@<TRIPOS>ATOM
  1 F       -0.4230     2.3470     2.2640 F     1 <1>  -0.1900 
  2 C        0.2300     1.9720     1.1890 C.ar  1 <1>   0.1900 
  3 C       -0.4930     1.6710     0.0340 C.ar  1 <1>   0.1170 
  4 C        1.6070     1.9020     1.2610 C.ar  1 <1>  -0.1500 
  5 N       -1.8970     1.7720     0.0380 N.am  1 <1>  -0.5470 
  6 C        0.2470     1.2940    -1.0840 C.ar  1 <1>  -0.1500 
  7 C        2.3140     1.5180     0.1340 C.ar  1 <1>  -0.1500 
  8 C       -2.8620     1.2840    -0.7950 C.2   1 <1>   0.6900 
  9 C        1.6300     1.2160    -1.0340 C.ar  1 <1>  -0.1500 
 10 O       -2.5840     0.5130    -1.6940 O.2   1 <1>  -0.5700 
 11 N       -4.1650     1.6590    -0.5820 N.am  1 <1>  -0.6600 
 12 C       -5.2860     0.8760    -1.1670 C.3   1 <1>   0.1400 
 13 C       -4.5720     2.9250     0.0860 C.3   1 <1>   0.1400 
 14 C       -6.3160     0.5640    -0.0770 C.3   1 <1>  -0.1600 
 15 C       -5.5850     2.6150     1.1900 C.3   1 <1>  -0.1600 
 16 C       -6.7990     1.8400     0.6380 C.3   1 <1>  -0.0190 
 17 C       -7.8240     1.5030     1.7300 C.2   1 <1>   0.4230 
 18 O       -7.4010     1.2200     2.8230 O.2   1 <1>  -0.5700 
 19 C       -9.2450     1.5380     1.4400 C.ar  1 <1>   0.0860 
 20 C       -9.7680     1.5070     0.1410 C.ar  1 <1>  -0.1500 
 21 C      -10.1680     1.5980     2.4900 C.ar  1 <1>  -0.1500 
 22 C      -11.1280     1.5500    -0.0910 C.ar  1 <1>   0.0830 
 23 C      -11.5330     1.6450     2.2690 C.ar  1 <1>  -0.1500 
 24 O      -11.5720     1.5030    -1.3730 O.3   1 <1>  -0.3620 
 25 C      -12.0220     1.6310     0.9760 C.ar  1 <1>   0.0830 
 26 C      -12.9440     1.2090    -1.5650 C.3   1 <1>   0.1200 
 27 O      -13.3560     1.7000     0.7720 O.3   1 <1>  -0.3630 
 28 C      -13.8020     1.9710    -0.5440 C.3   1 <1>   0.1200 
 29 H        2.1140     2.1430     2.1780 H     1 <1>   0.1500 
 30 H       -2.2850     2.1470     0.8990 H     1 <1>   0.3700 
 31 H       -0.2540     1.0590    -2.0050 H     1 <1>   0.1500 
 32 H        3.3880     1.4530     0.1640 H     1 <1>   0.1500 
 33 H        2.1770     0.9180    -1.9120 H     1 <1>   0.1500 
 34 H       -4.9230    -0.0470    -1.5880 H     1 <1>   0.0800 
 35 H       -5.7390     1.4490    -1.9580 H     1 <1>   0.0800 
 36 H       -5.0200     3.5730    -0.6480 H     1 <1>   0.0800 
 37 H       -3.7230     3.4400     0.5010 H     1 <1>   0.0800 
 38 H       -5.8680    -0.1030     0.6400 H     1 <1>   0.0800 
 39 H       -7.1480     0.0470    -0.5210 H     1 <1>   0.0800 
 40 H       -5.9170     3.5350     1.6380 H     1 <1>   0.0800 
 41 H       -5.0960     2.0370     1.9560 H     1 <1>   0.0800 
 42 H       -7.2690     2.4820    -0.0850 H     1 <1>   0.0800 
 43 H       -9.1260     1.4380    -0.7150 H     1 <1>   0.1500 
 44 H       -9.8030     1.6080     3.5040 H     1 <1>   0.1500 
 45 H      -12.2230     1.6950     3.0930 H     1 <1>   0.1500 
 46 H      -13.0790     0.1490    -1.4470 H     1 <1>   0.0800 
 47 H      -13.2070     1.4890    -2.5690 H     1 <1>   0.0800 
 48 H      -14.8330     1.6750    -0.6130 H     1 <1>   0.0800 
 49 H      -13.7270     3.0310    -0.7100 H     1 <1>   0.0800 
@<TRIPOS>BOND
  1   1   2  1   
  2   2   3  ar  
  3   2   4  ar  
  4   3   5  1   
  5   3   6  ar  
  6   4   7  ar  
  7   4  29  1   
  8   5   8  am  
  9   5  30  1   
 10   6   9  ar  
 11   6  31  1   
 12   7   9  ar  
 13   7  32  1   
 14   8  10  2   
 15   8  11  am  
 16   9  33  1   
 17  11  12  1   
 18  11  13  1   
 19  12  14  1   
 20  12  34  1   
 21  12  35  1   
 22  13  15  1   
 23  13  36  1   
 24  13  37  1   
 25  14  16  1   
 26  14  38  1   
 27  14  39  1   
 28  15  16  1   
 29  15  40  1   
 30  15  41  1   
 31  16  17  1   
 32  16  42  1   
 33  17  18  2   
 34  17  19  1   
 35  19  20  ar  
 36  19  21  ar  
 37  20  22  ar  
 38  20  43  1   
 39  21  23  ar  
 40  21  44  1   
 41  22  24  1   
 42  22  25  ar  
 43  23  25  ar  
 44  23  45  1   
 45  24  26  1   
 46  25  27  1   
 47  26  28  1   
 48  26  46  1   
 49  26  47  1   
 50  27  28  1   
 51  28  48  1   
 52  28  49  1   
@<TRIPOS>SUBSTRUCTURE
  1 ****  16 GROUP 4 **** **** 0

# MOE 2024.06 (io_trps.svl 2023.06)
