@<TRIPOS>MOLECULE
ka-00582
27 28 1 0 0 
SMALL
USER_CHARGES


@<TRIPOS>ATOM
  1 O       -0.5500    -0.9540    -1.4180 O.2   1 <1>  -0.5700 
  2 C       -0.1040    -1.8640    -0.7650 C.2   1 <1>   0.5690 
  3 N       -0.8240    -2.7100     0.0030 N.am  1 <1>  -0.6600 
  4 C        1.3620    -2.1960    -0.7120 C.3   1 <1>  -0.0990 
  5 C        0.0160    -3.6660     0.7030 C.3   1 <1>   0.5000 
  6 C       -2.2610    -2.5450     0.3420 C.3   1 <1>   0.1400 
  7 C        1.4470    -3.1730     0.4720 C.3   1 <1>  -0.1600 
  8 O       -0.1760    -4.8350     0.0340 O.3   1 <1>  -0.6800 
  9 C       -3.1320    -3.4850    -0.4960 C.3   1 <1>   0.0200 
 10 C       -4.6110    -3.3460    -0.1600 C.2   1 <1>  -0.3320 
 11 N       -5.5600    -4.1080    -0.7370 N.pl3 1 <1>   0.0330 
 12 C       -5.2640    -2.5240     0.6950 C.2   1 <1>   0.0770 
 13 C       -6.7250    -3.7010    -0.1920 C.2   1 <1>   0.0360 
 14 N       -6.5900    -2.7520     0.6750 N.2   1 <1>  -0.5650 
 15 H        1.9500    -1.3110    -0.5510 H     1 <1>   0.0800 
 16 H        1.6480    -2.6700    -1.6330 H     1 <1>   0.0800 
 17 H       -0.2420    -3.7880     1.7430 H     1 <1>   0.0800 
 18 H       -2.5540    -1.5270     0.1470 H     1 <1>   0.0800 
 19 H       -2.4090    -2.7440     1.3890 H     1 <1>   0.0800 
 20 H        1.7560    -2.6340     1.3500 H     1 <1>   0.0800 
 21 H        2.1370    -3.9810     0.3060 H     1 <1>   0.0800 
 22 H       -0.2440    -4.6090    -0.9100 H     1 <1>   0.4000 
 23 H       -2.8320    -4.5010    -0.3130 H     1 <1>   0.0800 
 24 H       -2.9840    -3.2590    -1.5370 H     1 <1>   0.0800 
 25 H       -5.4340    -4.8410    -1.4410 H     1 <1>   0.2700 
 26 H       -4.8490    -1.7660     1.3390 H     1 <1>   0.1500 
 27 H       -7.6690    -4.1390    -0.4660 H     1 <1>   0.1500 
@<TRIPOS>BOND
  1   1   2  2   
  2   2   3  am  
  3   2   4  1   
  4   3   5  1   
  5   3   6  1   
  6   4   7  1   
  7   4  15  1   
  8   4  16  1   
  9   5   7  1   
 10   5   8  1   
 11   5  17  1   
 12   6   9  1   
 13   6  18  1   
 14   6  19  1   
 15   7  20  1   
 16   7  21  1   
 17   8  22  1   
 18   9  10  1   
 19   9  23  1   
 20   9  24  1   
 21  10  11  1   
 22  10  12  2   
 23  11  13  1   
 24  11  25  1   
 25  12  14  1   
 26  12  26  1   
 27  13  14  2   
 28  13  27  1   
@<TRIPOS>SUBSTRUCTURE
  1 ****   6 GROUP 4 **** **** 0

# MOE 2024.06 (io_trps.svl 2023.06)
