@<TRIPOS>MOLECULE
3-(2-Methyl-benzoylamino)-9-aza-bicyclo[3.3.1]nonane-9-carboxylic acid phenylamide
55 58 1 0 0 
SMALL
USER_CHARGES


@<TRIPOS>ATOM
  1 O       -0.1590    -1.4430    -2.2050 O.2   1 <1>  -0.5700 
  2 C        0.4310    -2.0250    -1.3150 C.2   1 <1>   0.6900 
  3 N        1.5570    -1.4850    -0.7480 N.am  1 <1>  -0.6600 
  4 N       -0.0810    -3.2160    -0.9130 N.am  1 <1>  -0.5470 
  5 C        2.2100    -0.2970    -1.2460 C.3   1 <1>   0.2200 
  6 C        2.0150    -1.6240     0.6550 C.3   1 <1>   0.2200 
  7 C        0.6140    -4.4040    -0.6850 C.ar  1 <1>   0.1170 
  8 C        3.7440    -0.6480    -1.1690 C.3   1 <1>  -0.1600 
  9 C        1.6580     0.8630    -0.3290 C.3   1 <1>  -0.1600 
 10 C        3.2060    -2.5640     0.6080 C.3   1 <1>  -0.1600 
 11 C        0.9230    -0.9750     1.4880 C.3   1 <1>  -0.1600 
 12 C        1.6780    -4.7800    -1.4970 C.ar  1 <1>  -0.1500 
 13 C        0.2450    -5.2350     0.3640 C.ar  1 <1>  -0.1500 
 14 C        4.0600    -2.1000    -0.6250 C.3   1 <1>   0.2200 
 15 C        0.6420     0.4240     0.8130 C.3   1 <1>  -0.1600 
 16 C        2.3750    -5.9490    -1.2520 C.ar  1 <1>  -0.1500 
 17 C        0.9340    -6.4100     0.6080 C.ar  1 <1>  -0.1500 
 18 N        5.4930    -2.2010    -0.2970 N.am  1 <1>  -0.7300 
 19 C        2.0020    -6.7660    -0.1980 C.ar  1 <1>  -0.1500 
 20 C        6.3340    -3.1860    -0.7320 C.2   1 <1>   0.5440 
 21 O        5.9110    -4.0380    -1.4880 O.2   1 <1>  -0.5700 
 22 C        7.7120    -3.1940    -0.2780 C.ar  1 <1>   0.0860 
 23 C        8.2760    -4.2690     0.4210 C.ar  1 <1>  -0.1440 
 24 C        8.5200    -2.0840    -0.5300 C.ar  1 <1>  -0.1500 
 25 C        9.5940    -4.2150     0.8450 C.ar  1 <1>  -0.1500 
 26 C        7.4530    -5.5150     0.7290 C.3   1 <1>  -0.0970 
 27 C        9.8330    -2.0320    -0.1040 C.ar  1 <1>  -0.1500 
 28 C       10.3720    -3.1010     0.5860 C.ar  1 <1>  -0.1500 
 29 H       -1.0240    -3.3350    -1.2750 H     1 <1>   0.3700 
 30 H        1.9260    -0.1250    -2.2710 H     1 <1>   0.0800 
 31 H        2.6800    -0.8230     0.9250 H     1 <1>   0.0800 
 32 H        4.2390     0.0800    -0.5530 H     1 <1>   0.0800 
 33 H        4.1590    -0.5590    -2.1560 H     1 <1>   0.0800 
 34 H        1.1710     1.5850    -0.9600 H     1 <1>   0.0800 
 35 H        2.4880     1.3750     0.1230 H     1 <1>   0.0800 
 36 H        2.8980    -3.5860     0.5110 H     1 <1>   0.0800 
 37 H        3.7670    -2.4720     1.5210 H     1 <1>   0.0800 
 38 H        1.2700    -0.8410     2.4980 H     1 <1>   0.0800 
 39 H        0.0410    -1.5900     1.5110 H     1 <1>   0.0800 
 40 H        1.9690    -4.1490    -2.3190 H     1 <1>   0.1500 
 41 H       -0.5810    -4.9550     0.9920 H     1 <1>   0.1500 
 42 H        3.8370    -2.7830    -1.4300 H     1 <1>   0.0800 
 43 H       -0.3330     0.3640     0.3600 H     1 <1>   0.0800 
 44 H        0.5860     1.1910     1.5660 H     1 <1>   0.0800 
 45 H        3.2090    -6.2170    -1.8780 H     1 <1>   0.1500 
 46 H        0.6430    -7.0470     1.4250 H     1 <1>   0.1500 
 47 H        5.8360    -1.5390     0.3980 H     1 <1>   0.3700 
 48 H        2.5440    -7.6760    -0.0080 H     1 <1>   0.1500 
 49 H        8.1070    -1.2530    -1.0740 H     1 <1>   0.1500 
 50 H       10.0280    -5.0420     1.3800 H     1 <1>   0.1500 
 51 H        6.5240    -5.2420     1.1970 H     1 <1>   0.0800 
 52 H        7.9820    -6.1790     1.3880 H     1 <1>   0.0800 
 53 H        7.2350    -6.0410    -0.1840 H     1 <1>   0.0800 
 54 H       10.4380    -1.1660    -0.3110 H     1 <1>   0.1500 
 55 H       11.3960    -3.0690     0.9190 H     1 <1>   0.1500 
@<TRIPOS>BOND
  1   1   2  2   
  2   2   3  am  
  3   2   4  am  
  4   3   5  1   
  5   3   6  1   
  6   4   7  1   
  7   4  29  1   
  8   5   8  1   
  9   5   9  1   
 10   5  30  1   
 11   6  10  1   
 12   6  11  1   
 13   6  31  1   
 14   7  12  ar  
 15   7  13  ar  
 16   8  14  1   
 17   8  32  1   
 18   8  33  1   
 19   9  15  1   
 20   9  34  1   
 21   9  35  1   
 22  10  14  1   
 23  10  36  1   
 24  10  37  1   
 25  11  15  1   
 26  11  38  1   
 27  11  39  1   
 28  12  16  ar  
 29  12  40  1   
 30  13  17  ar  
 31  13  41  1   
 32  14  18  1   
 33  14  42  1   
 34  15  43  1   
 35  15  44  1   
 36  16  19  ar  
 37  16  45  1   
 38  17  19  ar  
 39  17  46  1   
 40  18  20  am  
 41  18  47  1   
 42  19  48  1   
 43  20  21  2   
 44  20  22  1   
 45  22  23  ar  
 46  22  24  ar  
 47  23  25  ar  
 48  23  26  1   
 49  24  27  ar  
 50  24  49  1   
 51  25  28  ar  
 52  25  50  1   
 53  26  51  1   
 54  26  52  1   
 55  26  53  1   
 56  27  28  ar  
 57  27  54  1   
 58  28  55  1   
@<TRIPOS>SUBSTRUCTURE
  1 ****  14 GROUP 4 **** **** 0

# MOE 2024.06 (io_trps.svl 2023.06)
