@<TRIPOS>MOLECULE
NONAME
39 41 1 0 0 
SMALL
USER_CHARGES


@<TRIPOS>ATOM
  1 CL       0.7170     3.4200     2.8100 Cl    1 <1>  -0.1770 
  2 C        1.4900     3.1880     1.2590 C.ar  1 <1>   0.1770 
  3 C        0.7260     3.1060     0.1040 C.ar  1 <1>  -0.1440 
  4 C        2.8670     3.0920     1.2260 C.ar  1 <1>  -0.1500 
  5 C        1.3830     2.9240    -1.1020 C.ar  1 <1>  -0.1500 
  6 C       -0.7910     3.2120     0.1490 C.3   1 <1>  -0.0960 
  7 C        3.5280     2.9060     0.0190 C.ar  1 <1>   0.1170 
  8 C        2.7640     2.8270    -1.1420 C.ar  1 <1>  -0.1500 
  9 N        4.9290     2.8220     0.0320 N.am  1 <1>  -0.5470 
 10 C        5.8260     2.3570    -0.8940 C.2   1 <1>   0.5690 
 11 O        5.5070     1.8930    -1.9600 O.2   1 <1>  -0.5700 
 12 C        7.3150     2.4120    -0.5830 C.3   1 <1>   0.1310 
 13 S        7.6400     2.9480     1.1700 S.3   1 <1>  -0.2860 
 14 C        9.4230     2.9380     1.3680 C.2   1 <1>   0.4340 
 15 S       10.4040     2.4730     0.0240 S.3   1 <1>  -0.0800 
 16 N       10.0760     3.2420     2.4120 N.2   1 <1>  -0.3380 
 17 C       11.7730     2.7450     1.0600 C.2   1 <1>   0.4420 
 18 N       11.4300     3.1310     2.2360 N.2   1 <1>  -0.3380 
 19 N       13.0180     2.5190     0.5070 N.am  1 <1>  -0.4940 
 20 C       14.2530     2.6480     1.0720 C.2   1 <1>   0.6300 
 21 O       14.4350     3.0020     2.2070 O.2   1 <1>  -0.5700 
 22 C       15.4680     2.3240     0.2080 C.3   1 <1>  -0.1000 
 23 C       15.5170     2.6420    -1.2610 C.3   1 <1>  -0.2000 
 24 C       15.4580     1.2150    -0.8080 C.3   1 <1>  -0.2000 
 25 H        3.4160     3.1590     2.1460 H     1 <1>   0.1500 
 26 H        0.8250     2.8560    -2.0200 H     1 <1>   0.1500 
 27 H       -1.0810     4.1620     0.5630 H     1 <1>   0.0800 
 28 H       -1.1960     2.4280     0.7640 H     1 <1>   0.0800 
 29 H       -1.2140     3.1250    -0.8360 H     1 <1>   0.0800 
 30 H        3.2420     2.6920    -2.0950 H     1 <1>   0.1500 
 31 H        5.3600     3.1240     0.9080 H     1 <1>   0.3700 
 32 H        7.7960     3.1190    -1.2330 H     1 <1>   0.0800 
 33 H        7.7470     1.4370    -0.7090 H     1 <1>   0.0800 
 34 H       13.0260     2.2120    -0.4590 H     1 <1>   0.3700 
 35 H       16.3780     2.4630     0.7640 H     1 <1>   0.1000 
 36 H       16.4410     3.0170    -1.6680 H     1 <1>   0.1000 
 37 H       14.6590     3.0760    -1.7430 H     1 <1>   0.1000 
 38 H       14.5580     0.6480    -0.9720 H     1 <1>   0.1000 
 39 H       16.3420     0.6060    -0.9020 H     1 <1>   0.1000 
@<TRIPOS>BOND
  1   1   2  1   
  2   2   3  ar  
  3   2   4  ar  
  4   3   5  ar  
  5   3   6  1   
  6   4   7  ar  
  7   4  25  1   
  8   5   8  ar  
  9   5  26  1   
 10   6  27  1   
 11   6  28  1   
 12   6  29  1   
 13   7   8  ar  
 14   7   9  1   
 15   8  30  1   
 16   9  10  am  
 17   9  31  1   
 18  10  11  2   
 19  10  12  1   
 20  12  13  1   
 21  12  32  1   
 22  12  33  1   
 23  13  14  1   
 24  14  15  1   
 25  14  16  2   
 26  15  17  1   
 27  16  18  1   
 28  17  18  2   
 29  17  19  1   
 30  19  20  am  
 31  19  34  1   
 32  20  21  2   
 33  20  22  1   
 34  22  23  1   
 35  22  24  1   
 36  22  35  1   
 37  23  24  1   
 38  23  36  1   
 39  23  37  1   
 40  24  38  1   
 41  24  39  1   
@<TRIPOS>SUBSTRUCTURE
  1 ****  13 GROUP 4 **** **** 0

# MOE 2024.06 (io_trps.svl 2023.06)
