@<TRIPOS>MOLECULE
3-Cyclopentyl-4-oxo-10-oxa-3-aza-tricyclo[5.2.1.0*1,5*]dec-8-ene-2,6-dicarboxylic acid 2-tert-butylamide 6-
62 66 1 0 0 
SMALL
USER_CHARGES


@<TRIPOS>ATOM
  1 O       -1.0100     1.1360    -2.2080 O.2   1 <1>  -0.5700 
  2 C       -2.0040     1.7060    -1.8390 C.2   1 <1>   0.5690 
  3 N       -3.2810     1.2260    -1.7400 N.am  1 <1>  -0.6600 
  4 C       -1.9670     3.0980    -1.3100 C.3   1 <1>  -0.0190 
  5 C       -4.2320     2.3310    -1.3170 C.3   1 <1>   0.2810 
  6 C       -3.8060    -0.1200    -2.0710 C.3   1 <1>   0.2200 
  7 C       -3.3680     3.5550    -1.6480 C.3   1 <1>   0.4180 
  8 C       -1.1190     4.3110    -1.7210 C.3   1 <1>  -0.0190 
  9 C       -4.6150     2.2720     0.1640 C.2   1 <1>   0.5690 
 10 C       -3.0140    -1.2290    -1.3680 C.3   1 <1>  -0.1600 
 11 C       -3.7030    -0.3920    -3.5760 C.3   1 <1>  -0.1600 
 12 O       -3.2870     4.7880    -1.0280 O.3   1 <1>  -0.5600 
 13 C       -3.4970     4.0210    -3.0950 C.2   1 <1>  -0.2880 
 14 C       -0.0360     4.6080    -0.7070 C.2   1 <1>   0.5690 
 15 C       -2.2520     5.3690    -1.7970 C.3   1 <1>   0.3380 
 16 O       -5.5950     2.8740     0.5300 O.2   1 <1>  -0.5700 
 17 N       -3.8540     1.5100     1.0040 N.am  1 <1>  -0.7300 
 18 C       -2.2830    -1.9940    -2.4710 C.3   1 <1>  -0.1600 
 19 C       -3.1600    -1.8140    -3.7040 C.3   1 <1>  -0.1600 
 20 C       -2.8460     5.1720    -3.1690 C.2   1 <1>  -0.2880 
 21 O        0.0580     5.7190    -0.2470 O.2   1 <1>  -0.5700 
 22 N        0.8010     3.5860    -0.3730 N.am  1 <1>  -0.4930 
 23 C       -3.9340     1.3630     2.4560 C.3   1 <1>   0.3000 
 24 C        1.8180     3.5430     0.5800 C.2   1 <1>   0.3520 
 25 C       -3.7780     2.7300     3.1210 C.3   1 <1>  -0.2400 
 26 C       -5.2590     0.7020     2.8320 C.3   1 <1>  -0.2400 
 27 C       -2.7710     0.4590     2.8610 C.3   1 <1>  -0.2400 
 28 N        2.4570     2.4530     0.8240 N.2   1 <1>  -0.4100 
 29 C        2.2900     4.5810     1.3840 C.2   1 <1>  -0.1500 
 30 O        3.3280     2.7460     1.7570 O.3   1 <1>  -0.0190 
 31 C        3.2540     4.0020     2.1120 C.2   1 <1>  -0.0400 
 32 C        4.1790     4.5410     3.1810 C.3   1 <1>  -0.0600 
 33 H       -1.9050     2.9980    -0.2390 H     1 <1>   0.0800 
 34 H       -5.1170     2.3220    -1.9250 H     1 <1>   0.0800 
 35 H       -4.8370    -0.1870    -1.7620 H     1 <1>   0.0800 
 36 H       -0.6590     4.1710    -2.6830 H     1 <1>   0.0800 
 37 H       -3.7080    -1.8960    -0.8880 H     1 <1>   0.0800 
 38 H       -2.3260    -0.8560    -0.6300 H     1 <1>   0.0800 
 39 H       -3.0030     0.2850    -4.0350 H     1 <1>   0.0800 
 40 H       -4.6580    -0.2960    -4.0600 H     1 <1>   0.0800 
 41 H       -4.0430     3.4520    -3.8280 H     1 <1>   0.1500 
 42 H       -2.0460     6.3840    -1.4970 H     1 <1>   0.0800 
 43 H       -3.1340     0.9240     0.5780 H     1 <1>   0.3700 
 44 H       -2.1370    -3.0310    -2.2220 H     1 <1>   0.0800 
 45 H       -1.3240    -1.5360    -2.6480 H     1 <1>   0.0800 
 46 H       -2.6060    -1.9540    -4.6160 H     1 <1>   0.0800 
 47 H       -3.9740    -2.5190    -3.6720 H     1 <1>   0.0800 
 48 H       -2.6720     5.8710    -3.9680 H     1 <1>   0.1500 
 49 H        0.6830     2.6930    -0.8560 H     1 <1>   0.3700 
 50 H       -2.8640     3.2020     2.8070 H     1 <1>   0.0800 
 51 H       -3.7570     2.6230     4.1900 H     1 <1>   0.0800 
 52 H       -4.6040     3.3710     2.8700 H     1 <1>   0.0800 
 53 H       -6.0850     1.3390     2.5730 H     1 <1>   0.0800 
 54 H       -5.2970     0.5270     3.8910 H     1 <1>   0.0800 
 55 H       -5.3700    -0.2390     2.3250 H     1 <1>   0.0800 
 56 H       -1.8310     0.9050     2.5880 H     1 <1>   0.0800 
 57 H       -2.8570    -0.5050     2.3920 H     1 <1>   0.0800 
 58 H       -2.7730     0.3120     3.9260 H     1 <1>   0.0800 
 59 H        1.9370     5.5950     1.3890 H     1 <1>   0.1500 
 60 H        3.9840     5.5850     3.3480 H     1 <1>   0.0800 
 61 H        5.2020     4.4210     2.8720 H     1 <1>   0.0800 
 62 H        4.0270     4.0050     4.1000 H     1 <1>   0.0800 
@<TRIPOS>BOND
  1   1   2  2   
  2   2   3  am  
  3   2   4  1   
  4   3   5  1   
  5   3   6  1   
  6   4   7  1   
  7   4   8  1   
  8   4  33  1   
  9   5   7  1   
 10   5   9  1   
 11   5  34  1   
 12   6  10  1   
 13   6  11  1   
 14   6  35  1   
 15   7  12  1   
 16   7  13  1   
 17   8  14  1   
 18   8  15  1   
 19   8  36  1   
 20   9  16  2   
 21   9  17  am  
 22  10  18  1   
 23  10  37  1   
 24  10  38  1   
 25  11  19  1   
 26  11  39  1   
 27  11  40  1   
 28  12  15  1   
 29  13  20  2   
 30  13  41  1   
 31  14  21  2   
 32  14  22  am  
 33  15  20  1   
 34  15  42  1   
 35  17  23  1   
 36  17  43  1   
 37  18  19  1   
 38  18  44  1   
 39  18  45  1   
 40  19  46  1   
 41  19  47  1   
 42  20  48  1   
 43  22  24  1   
 44  22  49  1   
 45  23  25  1   
 46  23  26  1   
 47  23  27  1   
 48  24  28  2   
 49  24  29  1   
 50  25  50  1   
 51  25  51  1   
 52  25  52  1   
 53  26  53  1   
 54  26  54  1   
 55  26  55  1   
 56  27  56  1   
 57  27  57  1   
 58  27  58  1   
 59  28  30  1   
 60  29  31  2   
 61  29  59  1   
 62  30  31  1   
 63  31  32  1   
 64  32  60  1   
 65  32  61  1   
 66  32  62  1   
@<TRIPOS>SUBSTRUCTURE
  1 ****   4 GROUP 4 **** **** 0

# MOE 2024.06 (io_trps.svl 2023.06)
