@<TRIPOS>MOLECULE
NONAME
54 57 1 0 0 
SMALL
USER_CHARGES


@<TRIPOS>ATOM
  1 S        0.0980    -0.5090     0.3270 S.3   1 <1>  -0.2860 
  2 C        1.3680     0.6900    -0.1010 C.2   1 <1>   0.2420 
  3 C       -1.4090     0.5430     0.4650 C.3   1 <1>   0.0700 
  4 N        1.1000     1.9330    -0.2750 N.2   1 <1>  -0.3380 
  5 N        2.6600     0.3790    -0.2550 N.pl3 1 <1>   0.3260 
  6 C       -2.5950    -0.3740     0.7700 C.3   1 <1>   0.3430 
  7 N        2.2640     2.5140    -0.5500 N.2   1 <1>  -0.3380 
  8 C        3.2940    -0.8780    -0.0750 C.ar  1 <1>  -0.0230 
  9 C        3.1930     1.5960    -0.5340 C.2   1 <1>   0.1330 
 10 N       -3.8660     0.3930     0.9770 N.4   1 <1>  -0.9590 
 11 C        3.2270    -1.8760    -1.0490 C.ar  1 <1>  -0.1430 
 12 C        4.0090    -1.1130     1.0950 C.ar  1 <1>  -0.1500 
 13 C        4.5980     1.8610    -0.7540 C.ar  1 <1>   0.0530 
 14 C       -4.9610    -0.5220     1.4590 C.3   1 <1>   0.3430 
 15 C       -4.3140     1.1240    -0.2660 C.3   1 <1>   0.3430 
 16 C        3.8680    -3.0840    -0.8280 C.ar  1 <1>  -0.1500 
 17 C        2.4710    -1.6710    -2.3570 C.3   1 <1>  -0.0970 
 18 C        4.6520    -2.3190     1.3070 C.ar  1 <1>  -0.1430 
 19 C        5.1550     3.0680    -0.3230 C.ar  1 <1>   0.1600 
 20 C        5.4590     0.9720    -1.3880 C.ar  1 <1>  -0.1500 
 21 C       -6.3080     0.2170     1.5780 C.3   1 <1>   0.1200 
 22 C       -5.6910     1.7870    -0.0700 C.3   1 <1>   0.1200 
 23 C        4.5750    -3.3050     0.3390 C.ar  1 <1>  -0.1500 
 24 C        5.4300    -2.5630     2.5870 C.3   1 <1>  -0.0970 
 25 N        6.4220     3.4300    -0.4420 N.ar  1 <1>  -0.6200 
 26 C        6.7820     1.3300    -1.5260 C.ar  1 <1>  -0.1500 
 27 O       -6.6240     0.8430     0.3680 O.3   1 <1>  -0.5600 
 28 C        7.2090     2.5530    -1.0410 C.ar  1 <1>   0.1600 
 29 H       -1.5150     1.0510    -0.4770 H     1 <1>   0.0800 
 30 H       -1.2240     1.2450     1.2590 H     1 <1>   0.0800 
 31 H       -2.3670    -0.9380     1.6610 H     1 <1>   0.0800 
 32 H       -2.7180    -1.0720    -0.0430 H     1 <1>   0.0800 
 33 H       -3.7130     1.0960     1.7130 H     1 <1>   0.4500 
 34 H        4.0650    -0.3450     1.8470 H     1 <1>   0.1500 
 35 H       -4.7000    -0.9390     2.4170 H     1 <1>   0.0800 
 36 H       -5.0860    -1.3380     0.7650 H     1 <1>   0.0800 
 37 H       -4.3880     0.4310    -1.0890 H     1 <1>   0.0800 
 38 H       -3.5940     1.8800    -0.5330 H     1 <1>   0.0800 
 39 H        3.8230    -3.8670    -1.5650 H     1 <1>   0.1500 
 40 H        2.7430    -0.7350    -2.8110 H     1 <1>   0.0800 
 41 H        1.4110    -1.6770    -2.1750 H     1 <1>   0.0800 
 42 H        2.6960    -2.4560    -3.0560 H     1 <1>   0.0800 
 43 H        4.5010     3.7760     0.1570 H     1 <1>   0.1500 
 44 H        5.1190     0.0270    -1.7710 H     1 <1>   0.1500 
 45 H       -6.2820     0.9590     2.3570 H     1 <1>   0.0800 
 46 H       -7.0970    -0.4820     1.7980 H     1 <1>   0.0800 
 47 H       -6.0460     2.1870    -1.0040 H     1 <1>   0.0800 
 48 H       -5.6420     2.5870     0.6480 H     1 <1>   0.0800 
 49 H        5.0660    -4.2510     0.4920 H     1 <1>   0.1500 
 50 H        5.7770    -1.6350     3.0040 H     1 <1>   0.0800 
 51 H        6.2850    -3.1860     2.3920 H     1 <1>   0.0800 
 52 H        4.8010    -3.0540     3.3070 H     1 <1>   0.0800 
 53 H        7.4800     0.6690    -2.0060 H     1 <1>   0.1500 
 54 H        8.2460     2.8230    -1.1520 H     1 <1>   0.1500 
@<TRIPOS>BOND
  1   1   2  1   
  2   1   3  1   
  3   2   4  2   
  4   2   5  1   
  5   3   6  1   
  6   3  29  1   
  7   3  30  1   
  8   4   7  1   
  9   5   8  1   
 10   5   9  1   
 11   6  10  1   
 12   6  31  1   
 13   6  32  1   
 14   7   9  2   
 15   8  11  ar  
 16   8  12  ar  
 17   9  13  1   
 18  10  14  1   
 19  10  15  1   
 20  10  33  1   
 21  11  16  ar  
 22  11  17  1   
 23  12  18  ar  
 24  12  34  1   
 25  13  19  ar  
 26  13  20  ar  
 27  14  21  1   
 28  14  35  1   
 29  14  36  1   
 30  15  22  1   
 31  15  37  1   
 32  15  38  1   
 33  16  23  ar  
 34  16  39  1   
 35  17  40  1   
 36  17  41  1   
 37  17  42  1   
 38  18  23  ar  
 39  18  24  1   
 40  19  25  ar  
 41  19  43  1   
 42  20  26  ar  
 43  20  44  1   
 44  21  27  1   
 45  21  45  1   
 46  21  46  1   
 47  22  27  1   
 48  22  47  1   
 49  22  48  1   
 50  23  49  1   
 51  24  50  1   
 52  24  51  1   
 53  24  52  1   
 54  25  28  ar  
 55  26  28  ar  
 56  26  53  1   
 57  28  54  1   
@<TRIPOS>SUBSTRUCTURE
  1 ****   2 GROUP 4 **** **** 0

# MOE 2024.06 (io_trps.svl 2023.06)
