@<TRIPOS>MOLECULE
4-(7-Cyano-[1,3]dioxolo[4,5-g]quinolin-6-yl)-[1,4]diazepane-1-carboxylic acid (4-methoxy-phenyl)-amide
56 60 1 0 0 
SMALL
USER_CHARGES


@<TRIPOS>ATOM
  1 O        1.1160    -2.3030    -2.5120 O.2   1 <1>  -0.5700 
  2 C        1.4320    -2.8290    -1.4600 C.2   1 <1>   0.6900 
  3 N        2.4370    -3.7580    -1.4380 N.am  1 <1>  -0.6600 
  4 N        0.8300    -2.4820    -0.2870 N.am  1 <1>  -0.5470 
  5 C        3.5220    -3.7210    -2.4600 C.3   1 <1>   0.1400 
  6 C        2.5040    -4.8850    -0.4710 C.3   1 <1>   0.1400 
  7 C       -0.3820    -1.8160    -0.0520 C.ar  1 <1>   0.1170 
  8 C        4.7020    -2.8540    -1.9920 C.3   1 <1>   0.2090 
  9 C        3.6150    -4.7110     0.5750 C.3   1 <1>  -0.1600 
 10 C       -1.4280    -1.8270    -0.9690 C.ar  1 <1>  -0.1500 
 11 C       -0.5610    -1.1360     1.1460 C.ar  1 <1>  -0.1500 
 12 N        5.0160    -3.0020    -0.5360 N.pl3 1 <1>  -0.8380 
 13 C        5.0070    -4.3790     0.0180 C.3   1 <1>   0.2090 
 14 C       -2.6170    -1.1740    -0.6940 C.ar  1 <1>  -0.1500 
 15 C       -1.7470    -0.4810     1.4280 C.ar  1 <1>  -0.1500 
 16 C        5.8570    -2.0690     0.0240 C.ar  1 <1>   0.4100 
 17 C       -2.7870    -0.4980     0.5020 C.ar  1 <1>   0.0820 
 18 N        7.0900    -2.0850    -0.4050 N.ar  1 <1>  -0.6200 
 19 C        5.3680    -1.1620     0.9970 C.ar  1 <1>   0.0730 
 20 O       -3.9840     0.1180     0.6950 O.3   1 <1>  -0.3630 
 21 C        7.9500    -1.1770     0.1090 C.ar  1 <1>   0.3100 
 22 C        3.9990    -1.2360     1.4090 C.1   1 <1>   0.4840 
 23 C        6.2280    -0.2390     1.5220 C.ar  1 <1>  -0.1500 
 24 C       -4.2310     0.8690     1.8620 C.3   1 <1>   0.0400 
 25 C        7.5610    -0.2210     1.0860 C.ar  1 <1>   0.0000 
 26 C        9.2800    -1.1860    -0.3470 C.ar  1 <1>  -0.1500 
 27 N        2.9190    -1.3010     1.7780 N.1   1 <1>  -0.5570 
 28 C        8.5090     0.7010     1.5810 C.ar  1 <1>  -0.1500 
 29 C       10.1670    -0.2770     0.1570 C.ar  1 <1>   0.0820 
 30 C        9.7880     0.6490     1.1030 C.ar  1 <1>   0.0820 
 31 O       11.4590    -0.1170    -0.1380 O.3   1 <1>  -0.3630 
 32 O       10.8330     1.4160     1.4290 O.3   1 <1>  -0.3620 
 33 C       11.9420     0.9630     0.6550 C.3   1 <1>   0.4000 
 34 H        1.4840    -2.4890     0.4960 H     1 <1>   0.3700 
 35 H        3.1450    -3.3290    -3.3880 H     1 <1>   0.0800 
 36 H        3.8670    -4.7200    -2.6560 H     1 <1>   0.0800 
 37 H        2.6710    -5.7950    -1.0210 H     1 <1>   0.0800 
 38 H        1.5560    -4.9870     0.0290 H     1 <1>   0.0800 
 39 H        4.4590    -1.8230    -2.1860 H     1 <1>   0.0800 
 40 H        5.5760    -3.0950    -2.5720 H     1 <1>   0.0800 
 41 H        3.6900    -5.6320     1.1220 H     1 <1>   0.0800 
 42 H        3.3230    -3.9600     1.2830 H     1 <1>   0.0800 
 43 H       -1.3130    -2.3480    -1.9020 H     1 <1>   0.1500 
 44 H        0.2370    -1.1170     1.8660 H     1 <1>   0.1500 
 45 H        5.2930    -5.0860    -0.7410 H     1 <1>   0.0800 
 46 H        5.7300    -4.4420     0.8130 H     1 <1>   0.0800 
 47 H       -3.4180    -1.1860    -1.4090 H     1 <1>   0.1500 
 48 H       -1.8410     0.0320     2.3650 H     1 <1>   0.1500 
 49 H        5.9060     0.4720     2.2620 H     1 <1>   0.1500 
 50 H       -5.2230     1.2770     1.7930 H     1 <1>   0.0800 
 51 H       -3.5110     1.6650     1.9230 H     1 <1>   0.0800 
 52 H       -4.1620     0.2180     2.7160 H     1 <1>   0.0800 
 53 H        9.5770    -1.9070    -1.0850 H     1 <1>   0.1500 
 54 H        8.2310     1.4300     2.3200 H     1 <1>   0.1500 
 55 H       12.2850     1.7560     0.0150 H     1 <1>   0.0800 
 56 H       12.7200     0.6120     1.3090 H     1 <1>   0.0800 
@<TRIPOS>BOND
  1   1   2  2   
  2   2   3  am  
  3   2   4  am  
  4   3   5  1   
  5   3   6  1   
  6   4   7  1   
  7   4  34  1   
  8   5   8  1   
  9   5  35  1   
 10   5  36  1   
 11   6   9  1   
 12   6  37  1   
 13   6  38  1   
 14   7  10  ar  
 15   7  11  ar  
 16   8  12  1   
 17   8  39  1   
 18   8  40  1   
 19   9  13  1   
 20   9  41  1   
 21   9  42  1   
 22  10  14  ar  
 23  10  43  1   
 24  11  15  ar  
 25  11  44  1   
 26  12  13  1   
 27  12  16  1   
 28  13  45  1   
 29  13  46  1   
 30  14  17  ar  
 31  14  47  1   
 32  15  17  ar  
 33  15  48  1   
 34  16  18  ar  
 35  16  19  ar  
 36  17  20  1   
 37  18  21  ar  
 38  19  22  1   
 39  19  23  ar  
 40  20  24  1   
 41  21  25  ar  
 42  21  26  ar  
 43  22  27  3   
 44  23  25  ar  
 45  23  49  1   
 46  24  50  1   
 47  24  51  1   
 48  24  52  1   
 49  25  28  ar  
 50  26  29  ar  
 51  26  53  1   
 52  28  30  ar  
 53  28  54  1   
 54  29  30  ar  
 55  29  31  1   
 56  30  32  1   
 57  31  33  1   
 58  32  33  1   
 59  33  55  1   
 60  33  56  1   
@<TRIPOS>SUBSTRUCTURE
  1 ****  22 GROUP 4 **** **** 0

# MOE 2024.06 (io_trps.svl 2023.06)
