@<TRIPOS>MOLECULE
NONAME
48 50 1 0 0 
SMALL
USER_CHARGES


@<TRIPOS>ATOM
  1 O       -0.9310    -0.0950    -0.6490 O.2   1 <1>  -0.5700 
  2 C       -0.6940    -1.1970    -0.1970 C.2   1 <1>   0.6900 
  3 N       -1.7400    -2.0310     0.1250 N.am  1 <1>  -0.6600 
  4 N        0.5900    -1.6270    -0.0230 N.am  1 <1>  -0.5470 
  5 C       -3.1320    -1.6100    -0.2380 C.3   1 <1>   0.1400 
  6 C       -1.6500    -3.0730     1.1940 C.3   1 <1>   0.1400 
  7 C        1.7990    -0.9150    -0.0730 C.ar  1 <1>   0.1170 
  8 C       -4.0590    -2.8140    -0.4710 C.3   1 <1>   0.3430 
  9 C       -2.6180    -4.2470     0.9370 C.3   1 <1>   0.3430 
 10 C        1.8840     0.4420     0.2200 C.ar  1 <1>  -0.1500 
 11 C        2.9680    -1.5930    -0.4050 C.ar  1 <1>  -0.1500 
 12 N       -4.0260    -3.7870     0.6800 N.4   1 <1>  -0.9590 
 13 C        3.1000     1.1010     0.1800 C.ar  1 <1>  -0.1500 
 14 C        4.1870    -0.9390    -0.4460 C.ar  1 <1>  -0.1500 
 15 C       -4.9590    -4.9510     0.5510 C.3   1 <1>   0.4230 
 16 C        4.2590     0.4190    -0.1510 C.ar  1 <1>   0.0830 
 17 C       -4.8160    -5.6980    -0.7780 C.3   1 <1>  -0.1600 
 18 C       -6.4150    -4.4900     0.5700 C.3   1 <1>  -0.1600 
 19 O        5.4110     1.1400    -0.1660 O.3   1 <1>  -0.3630 
 20 C       -5.8550    -5.1160    -1.7440 C.3   1 <1>  -0.1600 
 21 C       -6.8790    -4.3650    -0.8870 C.3   1 <1>  -0.1600 
 22 C        6.6360     0.5430    -0.5300 C.3   1 <1>   0.0400 
 23 H        0.6920    -2.6340    -0.0170 H     1 <1>   0.3700 
 24 H       -3.5280    -0.9870     0.5450 H     1 <1>   0.0800 
 25 H       -3.1110    -1.0190    -1.1390 H     1 <1>   0.0800 
 26 H       -1.8820    -2.6190     2.1420 H     1 <1>   0.0800 
 27 H       -0.6480    -3.4590     1.2600 H     1 <1>   0.0800 
 28 H       -3.7500    -3.3100    -1.3760 H     1 <1>   0.0800 
 29 H       -5.0620    -2.4530    -0.6190 H     1 <1>   0.0800 
 30 H       -2.2600    -4.8020     0.0850 H     1 <1>   0.0800 
 31 H       -2.5990    -4.9070     1.7890 H     1 <1>   0.0800 
 32 H        0.9990     0.9930     0.4820 H     1 <1>   0.1500 
 33 H        2.9290    -2.6400    -0.6380 H     1 <1>   0.1500 
 34 H       -4.3300    -3.2640     1.5110 H     1 <1>   0.4500 
 35 H        3.1560     2.1500     0.4060 H     1 <1>   0.1500 
 36 H        5.0650    -1.4980    -0.7080 H     1 <1>   0.1500 
 37 H       -4.7880    -5.6290     1.3730 H     1 <1>   0.0800 
 38 H       -5.0740    -6.7280    -0.6010 H     1 <1>   0.0800 
 39 H       -3.8210    -5.6730    -1.1850 H     1 <1>   0.0800 
 40 H       -6.9970    -5.2660     1.0350 H     1 <1>   0.0800 
 41 H       -6.5670    -3.5830     1.1280 H     1 <1>   0.0800 
 42 H       -6.3290    -5.9020    -2.3080 H     1 <1>   0.0800 
 43 H       -5.3910    -4.4400    -2.4430 H     1 <1>   0.0800 
 44 H       -6.9300    -3.3320    -1.1870 H     1 <1>   0.0800 
 45 H       -7.8620    -4.7930    -1.0060 H     1 <1>   0.0800 
 46 H        7.4000     1.2970    -0.4860 H     1 <1>   0.0800 
 47 H        6.5540     0.1620    -1.5320 H     1 <1>   0.0800 
 48 H        6.8600    -0.2450     0.1670 H     1 <1>   0.0800 
@<TRIPOS>BOND
  1   1   2  2   
  2   2   3  am  
  3   2   4  am  
  4   3   5  1   
  5   3   6  1   
  6   4   7  1   
  7   4  23  1   
  8   5   8  1   
  9   5  24  1   
 10   5  25  1   
 11   6   9  1   
 12   6  26  1   
 13   6  27  1   
 14   7  10  ar  
 15   7  11  ar  
 16   8  12  1   
 17   8  28  1   
 18   8  29  1   
 19   9  12  1   
 20   9  30  1   
 21   9  31  1   
 22  10  13  ar  
 23  10  32  1   
 24  11  14  ar  
 25  11  33  1   
 26  12  15  1   
 27  12  34  1   
 28  13  16  ar  
 29  13  35  1   
 30  14  16  ar  
 31  14  36  1   
 32  15  17  1   
 33  15  18  1   
 34  15  37  1   
 35  16  19  1   
 36  17  20  1   
 37  17  38  1   
 38  17  39  1   
 39  18  21  1   
 40  18  40  1   
 41  18  41  1   
 42  19  22  1   
 43  20  21  1   
 44  20  42  1   
 45  20  43  1   
 46  21  44  1   
 47  21  45  1   
 48  22  46  1   
 49  22  47  1   
 50  22  48  1   
@<TRIPOS>SUBSTRUCTURE
  1 ****   2 GROUP 4 **** **** 0

# MOE 2024.06 (io_trps.svl 2023.06)
