@<TRIPOS>MOLECULE
1123
27 27 1 0 0 
SMALL
USER_CHARGES


@<TRIPOS>ATOM
  1 O       -0.0920     0.4440     0.3980 O.co2 1 <1>  -0.9000 
  2 C       -0.8510     1.1220    -0.3070 C.2   1 <1>   0.9060 
  3 O       -0.4430     1.7380    -1.3010 O.co2 1 <1>  -0.9000 
  4 C       -2.3030     1.2920     0.1230 C.3   1 <1>   0.0140 
  5 O       -3.1880     0.3210    -0.4390 O.3   1 <1>  -0.3630 
  6 C       -4.5160     0.3410    -0.1660 C.ar  1 <1>   0.0820 
  7 C       -5.2940    -0.6320    -0.7720 C.ar  1 <1>  -0.1500 
  8 C       -5.1220     1.2700     0.6750 C.ar  1 <1>  -0.1500 
  9 C       -6.6580    -0.6820    -0.5480 C.ar  1 <1>  -0.1500 
 10 C       -6.4880     1.2170     0.8980 C.ar  1 <1>  -0.1500 
 11 C       -7.2640     0.2420     0.2890 C.ar  1 <1>  -0.1440 
 12 C       -8.7630     0.1900     0.5340 C.3   1 <1>  -0.0160 
 13 C       -9.5050     1.0520    -0.4940 C.3   1 <1>  -0.1600 
 14 C      -11.0200     1.0210    -0.2690 C.3   1 <1>  -0.2400 
 15 H       -2.6300     2.2640    -0.1880 H     1 <1>   0.0800 
 16 H       -2.3460     1.2070     1.1910 H     1 <1>   0.0800 
 17 H       -4.8150    -1.3440    -1.4200 H     1 <1>   0.1500 
 18 H       -4.5450     2.0340     1.1580 H     1 <1>   0.1500 
 19 H       -7.2450    -1.4430    -1.0300 H     1 <1>   0.1500 
 20 H       -6.9440     1.9420     1.5470 H     1 <1>   0.1500 
 21 H       -8.9770     0.5430     1.5280 H     1 <1>   0.0800 
 22 H       -9.1040    -0.8290     0.4690 H     1 <1>   0.0800 
 23 H       -9.2830     0.6930    -1.4840 H     1 <1>   0.0800 
 24 H       -9.1540     2.0680    -0.4260 H     1 <1>   0.0800 
 25 H      -11.3930     0.0150    -0.3560 H     1 <1>   0.0800 
 26 H      -11.5120     1.6330    -1.0030 H     1 <1>   0.0800 
 27 H      -11.2630     1.3980     0.7090 H     1 <1>   0.0800 
@<TRIPOS>BOND
  1   1   2  ar  
  2   2   3  ar  
  3   2   4  1   
  4   4   5  1   
  5   4  15  1   
  6   4  16  1   
  7   5   6  1   
  8   6   7  ar  
  9   6   8  ar  
 10   7   9  ar  
 11   7  17  1   
 12   8  10  ar  
 13   8  18  1   
 14   9  11  ar  
 15   9  19  1   
 16  10  11  ar  
 17  10  20  1   
 18  11  12  1   
 19  12  13  1   
 20  12  21  1   
 21  12  22  1   
 22  13  14  1   
 23  13  23  1   
 24  13  24  1   
 25  14  25  1   
 26  14  26  1   
 27  14  27  1   
@<TRIPOS>SUBSTRUCTURE
  1 ****   6 GROUP 4 **** **** 0

# MOE 2024.06 (io_trps.svl 2023.06)
