@<TRIPOS>MOLECULE
NONAME
29 29 1 0 0 
SMALL
USER_CHARGES


@<TRIPOS>ATOM
  1 O        0.7320    -0.3500     0.7590 O.co2 1 <1>  -0.9000 
  2 C        1.3850    -0.7860    -0.1980 C.2   1 <1>   0.9060 
  3 O        1.8990    -0.0380    -1.0380 O.co2 1 <1>  -0.9000 
  4 C        1.5680    -2.2950    -0.3570 C.3   1 <1>  -0.1860 
  5 C        0.2220    -3.0170    -0.5630 C.3   1 <1>  -0.1600 
  6 C        2.3320    -2.9080     0.8330 C.3   1 <1>  -0.1600 
  7 C        0.4060    -4.5330    -0.7180 C.3   1 <1>  -0.1600 
  8 C        2.5120    -4.4230     0.6680 C.3   1 <1>  -0.1600 
  9 C        1.1560    -5.1340     0.4900 C.3   1 <1>  -0.0800 
 10 C        1.3170    -6.6760     0.4380 C.3   1 <1>  -0.0800 
 11 C        2.0450    -7.1940    -0.8130 C.3   1 <1>  -0.2400 
 12 C       -0.0360    -7.3910     0.5670 C.3   1 <1>  -0.2400 
 13 H        2.1610    -2.4360    -1.2420 H     1 <1>   0.0800 
 14 H       -0.2620    -2.6150    -1.4360 H     1 <1>   0.0800 
 15 H       -0.4140    -2.8130     0.2830 H     1 <1>   0.0800 
 16 H        1.7860    -2.7020     1.7390 H     1 <1>   0.0800 
 17 H        3.2930    -2.4310     0.9160 H     1 <1>   0.0800 
 18 H        0.9590    -4.7170    -1.6220 H     1 <1>   0.0800 
 19 H       -0.5630    -4.9850    -0.8200 H     1 <1>   0.0800 
 20 H        3.0160    -4.8110     1.5360 H     1 <1>   0.0800 
 21 H        3.1370    -4.5980    -0.1880 H     1 <1>   0.0800 
 22 H        0.5740    -4.9070     1.3680 H     1 <1>   0.0800 
 23 H        1.9030    -6.9630     1.2960 H     1 <1>   0.0800 
 24 H        1.4830    -6.9780    -1.7030 H     1 <1>   0.0800 
 25 H        2.1760    -8.2590    -0.7480 H     1 <1>   0.0800 
 26 H        3.0180    -6.7480    -0.9030 H     1 <1>   0.0800 
 27 H       -0.6480    -7.2190    -0.3000 H     1 <1>   0.0800 
 28 H       -0.5630    -7.0410     1.4370 H     1 <1>   0.0800 
 29 H        0.1140    -8.4510     0.6690 H     1 <1>   0.0800 
@<TRIPOS>BOND
  1   1   2  ar  
  2   2   3  ar  
  3   2   4  1   
  4   4   5  1   
  5   4   6  1   
  6   4  13  1   
  7   5   7  1   
  8   5  14  1   
  9   5  15  1   
 10   6   8  1   
 11   6  16  1   
 12   6  17  1   
 13   7   9  1   
 14   7  18  1   
 15   7  19  1   
 16   8   9  1   
 17   8  20  1   
 18   8  21  1   
 19   9  10  1   
 20   9  22  1   
 21  10  11  1   
 22  10  12  1   
 23  10  23  1   
 24  11  24  1   
 25  11  25  1   
 26  11  26  1   
 27  12  27  1   
 28  12  28  1   
 29  12  29  1   
@<TRIPOS>SUBSTRUCTURE
  1 ****   7 GROUP 4 **** **** 0

# MOE 2024.06 (io_trps.svl 2023.06)
