@<TRIPOS>MOLECULE
4-(4-Methoxy-benzoylamino)-piperidine-1-carboxylic acid (4-methoxy-phenyl)-amide
53 55 1 0 0 
SMALL
USER_CHARGES


@<TRIPOS>ATOM
  1 O        0.3190    -0.0860    -0.4530 O.2   1 <1>  -0.5700 
  2 C        0.8800     0.9820    -0.6150 C.2   1 <1>   0.6900 
  3 N        2.1540     1.0220    -1.1290 N.am  1 <1>  -0.6600 
  4 N        0.2760     2.1540    -0.2630 N.am  1 <1>  -0.5470 
  5 C        2.7660     2.2160    -1.7750 C.3   1 <1>   0.1400 
  6 C        2.9760    -0.2160    -1.2340 C.3   1 <1>   0.1400 
  7 C       -1.0300     2.4360     0.1640 C.ar  1 <1>   0.1170 
  8 C        4.1240     2.4940    -1.1290 C.3   1 <1>  -0.1600 
  9 C        4.3470     0.0320    -0.6000 C.3   1 <1>  -0.1600 
 10 C       -2.1180     1.6260    -0.1510 C.ar  1 <1>  -0.1500 
 11 C       -1.2570     3.5820     0.9170 C.ar  1 <1>  -0.1500 
 12 C        5.0210     1.2570    -1.2210 C.3   1 <1>   0.2200 
 13 C       -3.3940     1.9460     0.2770 C.ar  1 <1>  -0.1500 
 14 C       -2.5310     3.9090     1.3460 C.ar  1 <1>  -0.1500 
 15 N        6.2820     1.5250    -0.5130 N.am  1 <1>  -0.7300 
 16 C       -3.6080     3.0960     1.0310 C.ar  1 <1>   0.0820 
 17 C        7.4360     1.9610    -1.1050 C.2   1 <1>   0.5440 
 18 O       -4.8260     3.4870     1.4920 O.3   1 <1>  -0.3630 
 19 O        7.4190     2.1900    -2.2990 O.2   1 <1>  -0.5700 
 20 C        8.6410     2.1690    -0.3220 C.ar  1 <1>   0.0860 
 21 C       -5.9720     2.7020     1.2550 C.3   1 <1>   0.0400 
 22 C        8.8790     1.4800     0.8710 C.ar  1 <1>  -0.1500 
 23 C        9.6180     3.0760    -0.7370 C.ar  1 <1>  -0.1500 
 24 C       10.0240     1.7000     1.6140 C.ar  1 <1>  -0.1500 
 25 C       10.7660     3.3010    -0.0010 C.ar  1 <1>  -0.1500 
 26 C       10.9760     2.6120     1.1890 C.ar  1 <1>   0.0820 
 27 O       12.0660     2.7710     1.9730 O.3   1 <1>  -0.3620 
 28 C       13.1040     3.6620     1.6270 C.3   1 <1>   0.0400 
 29 H        0.9310     2.9230    -0.1950 H     1 <1>   0.3700 
 30 H        2.1330     3.0800    -1.6880 H     1 <1>   0.0800 
 31 H        2.9000     2.0120    -2.8240 H     1 <1>   0.0800 
 32 H        3.0870    -0.4780    -2.2720 H     1 <1>   0.0800 
 33 H        2.4940    -1.0380    -0.7320 H     1 <1>   0.0800 
 34 H        3.9760     2.7710    -0.1010 H     1 <1>   0.0800 
 35 H        4.5980     3.3120    -1.6420 H     1 <1>   0.0800 
 36 H        4.9650    -0.8340    -0.7540 H     1 <1>   0.0800 
 37 H        4.2130     0.1760     0.4570 H     1 <1>   0.0800 
 38 H       -1.9680     0.7380    -0.7370 H     1 <1>   0.1500 
 39 H       -0.4360     4.2240     1.1740 H     1 <1>   0.1500 
 40 H        5.2300     1.0520    -2.2590 H     1 <1>   0.0800 
 41 H       -4.2010     1.2910     0.0120 H     1 <1>   0.1500 
 42 H       -2.7010     4.7950     1.9290 H     1 <1>   0.1500 
 43 H        6.2330     1.4740     0.5030 H     1 <1>   0.3700 
 44 H       -6.8120     3.1880     1.7190 H     1 <1>   0.0800 
 45 H       -5.8250     1.7300     1.6920 H     1 <1>   0.0800 
 46 H       -6.1320     2.6280     0.1940 H     1 <1>   0.0800 
 47 H        8.1660     0.7560     1.2210 H     1 <1>   0.1500 
 48 H        9.4660     3.6120    -1.6590 H     1 <1>   0.1500 
 49 H       10.1930     1.1640     2.5310 H     1 <1>   0.1500 
 50 H       11.4840     4.0110    -0.3660 H     1 <1>   0.1500 
 51 H       13.8550     3.6120     2.3940 H     1 <1>   0.0800 
 52 H       12.7040     4.6590     1.5710 H     1 <1>   0.0800 
 53 H       13.5230     3.3600     0.6840 H     1 <1>   0.0800 
@<TRIPOS>BOND
  1   1   2  2   
  2   2   3  am  
  3   2   4  am  
  4   3   5  1   
  5   3   6  1   
  6   4   7  1   
  7   4  29  1   
  8   5   8  1   
  9   5  30  1   
 10   5  31  1   
 11   6   9  1   
 12   6  32  1   
 13   6  33  1   
 14   7  10  ar  
 15   7  11  ar  
 16   8  12  1   
 17   8  34  1   
 18   8  35  1   
 19   9  12  1   
 20   9  36  1   
 21   9  37  1   
 22  10  13  ar  
 23  10  38  1   
 24  11  14  ar  
 25  11  39  1   
 26  12  15  1   
 27  12  40  1   
 28  13  16  ar  
 29  13  41  1   
 30  14  16  ar  
 31  14  42  1   
 32  15  17  am  
 33  15  43  1   
 34  16  18  1   
 35  17  19  2   
 36  17  20  1   
 37  18  21  1   
 38  20  22  ar  
 39  20  23  ar  
 40  21  44  1   
 41  21  45  1   
 42  21  46  1   
 43  22  24  ar  
 44  22  47  1   
 45  23  25  ar  
 46  23  48  1   
 47  24  26  ar  
 48  24  49  1   
 49  25  26  ar  
 50  25  50  1   
 51  26  27  1   
 52  27  28  1   
 53  28  51  1   
 54  28  52  1   
 55  28  53  1   
@<TRIPOS>SUBSTRUCTURE
  1 ****   8 GROUP 4 **** **** 0

# MOE 2024.06 (io_trps.svl 2023.06)
