@<TRIPOS>MOLECULE
2-(3-Cyano-6-isopropyl-quinolin-2-ylsulfanyl)-N-cyclopentyl-acetamide
48 50 1 0 0 
SMALL
USER_CHARGES


@<TRIPOS>ATOM
  1 S        0.4930    -0.8300     0.0630 S.3   1 <1>  -0.3320 
  2 C       -1.2960    -0.7610    -0.0190 C.ar  1 <1>   0.4120 
  3 C        0.8490    -1.9590     1.5040 C.3   1 <1>   0.1310 
  4 N       -1.9230    -1.4610     0.8770 N.ar  1 <1>  -0.6200 
  5 C       -1.8940     0.0270    -1.0240 C.ar  1 <1>   0.0730 
  6 C        2.3420    -2.1420     1.7320 C.2   1 <1>   0.5690 
  7 C       -3.2780    -1.4270     0.8390 C.ar  1 <1>   0.3100 
  8 C       -1.0970     0.7580    -1.9600 C.1   1 <1>   0.4840 
  9 C       -3.2610     0.0610    -1.0640 C.ar  1 <1>  -0.1500 
 10 O        2.7000    -2.8540     2.6400 O.2   1 <1>  -0.5700 
 11 N        3.2310    -1.5120     0.9220 N.am  1 <1>  -0.7300 
 12 C       -3.9940    -0.6760    -0.1180 C.ar  1 <1>   0.0000 
 13 C       -4.0050    -2.1650     1.7840 C.ar  1 <1>  -0.1500 
 14 N       -0.4910     1.3520    -2.7220 N.1   1 <1>  -0.5570 
 15 C        4.6960    -1.5860     1.0110 C.3   1 <1>   0.2200 
 16 C       -5.4020    -0.6960    -0.0880 C.ar  1 <1>  -0.1500 
 17 C       -5.3740    -2.1690     1.7930 C.ar  1 <1>  -0.1500 
 18 C        5.2480    -0.1730     1.1400 C.3   1 <1>  -0.1600 
 19 C        5.2420    -2.0530    -0.3330 C.3   1 <1>  -0.1600 
 20 C       -6.0930    -1.4260     0.8460 C.ar  1 <1>  -0.1430 
 21 C        5.2680     0.3990    -0.2830 C.3   1 <1>  -0.1600 
 22 C        5.2630    -0.8090    -1.2290 C.3   1 <1>  -0.1600 
 23 C       -7.6200    -1.4520     0.8850 C.3   1 <1>   0.0630 
 24 C       -8.1890    -2.0370    -0.4120 C.3   1 <1>  -0.2400 
 25 C       -8.1840    -0.0510     1.1420 C.3   1 <1>  -0.2400 
 26 H        0.3890    -2.9060     1.2900 H     1 <1>   0.0800 
 27 H        0.3940    -1.5220     2.3730 H     1 <1>   0.0800 
 28 H       -3.7880     0.6410    -1.8020 H     1 <1>   0.1500 
 29 H        2.8780    -0.9200     0.1670 H     1 <1>   0.3700 
 30 H       -3.4490    -2.7330     2.5080 H     1 <1>   0.1500 
 31 H        4.9990    -2.2250     1.8250 H     1 <1>   0.0800 
 32 H       -5.9320    -0.1190    -0.8240 H     1 <1>   0.1500 
 33 H       -5.9050    -2.7450     2.5310 H     1 <1>   0.1500 
 34 H        6.2580    -0.2350     1.5050 H     1 <1>   0.0800 
 35 H        4.6730     0.4280     1.8230 H     1 <1>   0.0800 
 36 H        4.6610    -2.8580    -0.7490 H     1 <1>   0.0800 
 37 H        6.2510    -2.3980    -0.1880 H     1 <1>   0.0800 
 38 H        6.1360     1.0170    -0.4360 H     1 <1>   0.0800 
 39 H        4.3850     0.9930    -0.4510 H     1 <1>   0.0800 
 40 H        4.3790    -0.7850    -1.8420 H     1 <1>   0.0800 
 41 H        6.1290    -0.8120    -1.8690 H     1 <1>   0.0800 
 42 H       -7.9380    -2.0860     1.6950 H     1 <1>   0.0800 
 43 H       -7.9460    -1.4140    -1.2540 H     1 <1>   0.0800 
 44 H       -9.2590    -2.1210    -0.3450 H     1 <1>   0.0800 
 45 H       -7.7790    -3.0170    -0.5820 H     1 <1>   0.0800 
 46 H       -7.9410     0.6160     0.3340 H     1 <1>   0.0800 
 47 H       -7.7710     0.3480     2.0510 H     1 <1>   0.0800 
 48 H       -9.2530    -0.0930     1.2430 H     1 <1>   0.0800 
@<TRIPOS>BOND
  1   1   2  1   
  2   1   3  1   
  3   2   4  ar  
  4   2   5  ar  
  5   3   6  1   
  6   3  26  1   
  7   3  27  1   
  8   4   7  ar  
  9   5   8  1   
 10   5   9  ar  
 11   6  10  2   
 12   6  11  am  
 13   7  12  ar  
 14   7  13  ar  
 15   8  14  3   
 16   9  12  ar  
 17   9  28  1   
 18  11  15  1   
 19  11  29  1   
 20  12  16  ar  
 21  13  17  ar  
 22  13  30  1   
 23  15  18  1   
 24  15  19  1   
 25  15  31  1   
 26  16  20  ar  
 27  16  32  1   
 28  17  20  ar  
 29  17  33  1   
 30  18  21  1   
 31  18  34  1   
 32  18  35  1   
 33  19  22  1   
 34  19  36  1   
 35  19  37  1   
 36  20  23  1   
 37  21  22  1   
 38  21  38  1   
 39  21  39  1   
 40  22  40  1   
 41  22  41  1   
 42  23  24  1   
 43  23  25  1   
 44  23  42  1   
 45  24  43  1   
 46  24  44  1   
 47  24  45  1   
 48  25  46  1   
 49  25  47  1   
 50  25  48  1   
@<TRIPOS>SUBSTRUCTURE
  1 ****   2 GROUP 4 **** **** 0

# MOE 2024.06 (io_trps.svl 2023.06)
