@<TRIPOS>MOLECULE
1-Pyrimidin-2-yl-piperidine-3-carboxylic acid (3-acetylamino-phenyl)-amide
46 48 1 0 0 
SMALL
USER_CHARGES


@<TRIPOS>ATOM
  1 O       -0.0950     1.1450     2.3380 O.2   1 <1>  -0.5700 
  2 C       -0.0960     1.7120     1.2710 C.2   1 <1>   0.5690 
  3 N       -1.1770     1.7430     0.4330 N.am  1 <1>  -0.5470 
  4 C        1.1580     2.4530     0.8360 C.3   1 <1>  -0.0190 
  5 C       -2.4490     1.1620     0.5500 C.ar  1 <1>   0.1170 
  6 C        2.3820     1.5470     1.0040 C.3   1 <1>   0.2090 
  7 C        1.3420     3.7680     1.6210 C.3   1 <1>  -0.1600 
  8 C       -3.5030     1.7240    -0.1550 C.ar  1 <1>  -0.1500 
  9 C       -2.6970     0.0370     1.3300 C.ar  1 <1>  -0.1500 
 10 N        3.6010     2.2880     0.5690 N.pl3 1 <1>  -0.8380 
 11 C        2.6610     4.4620     1.2340 C.3   1 <1>  -0.1600 
 12 C       -4.7870     1.1930    -0.1000 C.ar  1 <1>   0.1170 
 13 C       -3.9670    -0.5030     1.4030 C.ar  1 <1>  -0.1500 
 14 C        4.2940     1.9750    -0.5810 C.ar  1 <1>   0.7200 
 15 C        3.8680     3.5230     1.3550 C.3   1 <1>   0.2090 
 16 N       -5.8790     1.7410    -0.7940 N.am  1 <1>  -0.5470 
 17 C       -5.0040     0.0730     0.6920 C.ar  1 <1>  -0.1500 
 18 N        3.6750     1.1960    -1.4690 N.ar  1 <1>  -0.6200 
 19 N        5.5190     2.4820    -0.7100 N.ar  1 <1>  -0.6200 
 20 C       -5.9400     2.6090    -1.8470 C.2   1 <1>   0.5690 
 21 C        4.3480     0.9020    -2.5550 C.ar  1 <1>   0.1600 
 22 C        6.1670     2.1720    -1.8050 C.ar  1 <1>   0.1600 
 23 O       -4.9780     3.0710    -2.4060 O.2   1 <1>  -0.5700 
 24 C       -7.3110     2.9990    -2.3400 C.3   1 <1>  -0.1790 
 25 C        5.6190     1.3710    -2.7760 C.ar  1 <1>  -0.1500 
 26 H       -1.0600     2.3180    -0.4010 H     1 <1>   0.3700 
 27 H        1.0760     2.6800    -0.2120 H     1 <1>   0.0800 
 28 H        2.2520     0.6390     0.4400 H     1 <1>   0.0800 
 29 H        2.4930     1.2700     2.0390 H     1 <1>   0.0800 
 30 H        1.3550     3.5500     2.6760 H     1 <1>   0.0800 
 31 H        0.5140     4.4280     1.4300 H     1 <1>   0.0800 
 32 H       -3.3160     2.5960    -0.7510 H     1 <1>   0.1500 
 33 H       -1.8970    -0.4230     1.8810 H     1 <1>   0.1500 
 34 H        2.8170     5.3200     1.8630 H     1 <1>   0.0800 
 35 H        2.6020     4.8080     0.2170 H     1 <1>   0.0800 
 36 H       -4.1430    -1.3720     2.0130 H     1 <1>   0.1500 
 37 H        4.7510     4.0290     1.0070 H     1 <1>   0.0800 
 38 H        4.0250     3.2530     2.3850 H     1 <1>   0.0800 
 39 H       -6.7850     1.4080    -0.4730 H     1 <1>   0.3700 
 40 H       -5.9870    -0.3580     0.7560 H     1 <1>   0.1500 
 41 H        3.8730     0.2710    -3.2870 H     1 <1>   0.1500 
 42 H        7.1610     2.5660    -1.9300 H     1 <1>   0.1500 
 43 H       -7.8300     2.1310    -2.7000 H     1 <1>   0.0800 
 44 H       -7.2190     3.7060    -3.1450 H     1 <1>   0.0800 
 45 H       -7.8700     3.4530    -1.5440 H     1 <1>   0.0800 
 46 H        6.1600     1.1240    -3.6690 H     1 <1>   0.1500 
@<TRIPOS>BOND
  1   1   2  2   
  2   2   3  am  
  3   2   4  1   
  4   3   5  1   
  5   3  26  1   
  6   4   6  1   
  7   4   7  1   
  8   4  27  1   
  9   5   8  ar  
 10   5   9  ar  
 11   6  10  1   
 12   6  28  1   
 13   6  29  1   
 14   7  11  1   
 15   7  30  1   
 16   7  31  1   
 17   8  12  ar  
 18   8  32  1   
 19   9  13  ar  
 20   9  33  1   
 21  10  14  1   
 22  10  15  1   
 23  11  15  1   
 24  11  34  1   
 25  11  35  1   
 26  12  16  1   
 27  12  17  ar  
 28  13  17  ar  
 29  13  36  1   
 30  14  18  ar  
 31  14  19  ar  
 32  15  37  1   
 33  15  38  1   
 34  16  20  am  
 35  16  39  1   
 36  17  40  1   
 37  18  21  ar  
 38  19  22  ar  
 39  20  23  2   
 40  20  24  1   
 41  21  25  ar  
 42  21  41  1   
 43  22  25  ar  
 44  22  42  1   
 45  24  43  1   
 46  24  44  1   
 47  24  45  1   
 48  25  46  1   
@<TRIPOS>SUBSTRUCTURE
  1 ****   3 GROUP 4 **** **** 0

# MOE 2024.06 (io_trps.svl 2023.06)
