@<TRIPOS>MOLECULE
3-(6,7-Dimethoxy-2-propionyl-1,2,3,4-tetrahydro-isoquinolin-1-yl)-6-ethyl-1H-quinolin-2-one
59 62 1 0 0 
SMALL
USER_CHARGES


@<TRIPOS>ATOM
  1 O        0.7780    -2.1760    -2.3620 O.2   1 <1>  -0.5700 
  2 C        1.7210    -1.9830    -1.6170 C.2   1 <1>   0.6160 
  3 N        2.7590    -1.2620    -2.1270 N.am  1 <1>  -0.5470 
  4 C        1.8300    -2.4530    -0.2660 C.2   1 <1>  -0.1240 
  5 C        3.9220    -0.9800    -1.4210 C.ar  1 <1>   0.1170 
  6 C        2.9560    -2.1960     0.4510 C.2   1 <1>  -0.1780 
  7 C        0.6840    -3.2410     0.3640 C.3   1 <1>   0.5020 
  8 C        4.0440    -1.4510    -0.1060 C.ar  1 <1>   0.0280 
  9 C        4.9590    -0.2480    -1.9920 C.ar  1 <1>  -0.1500 
 10 N        0.7250    -4.6660    -0.0880 N.am  1 <1>  -0.6600 
 11 C       -0.6900    -2.5770     0.2010 C.ar  1 <1>  -0.1430 
 12 C        5.2150    -1.1760     0.6000 C.ar  1 <1>  -0.1500 
 13 C        6.1070     0.0140    -1.2750 C.ar  1 <1>  -0.1500 
 14 C        1.5770    -5.5340     0.5410 C.2   1 <1>   0.5690 
 15 C       -0.1970    -5.0090    -1.2090 C.3   1 <1>   0.1400 
 16 C       -1.7790    -3.2530    -0.3420 C.ar  1 <1>  -0.1430 
 17 C       -0.8490    -1.2600     0.6130 C.ar  1 <1>  -0.1500 
 18 C        6.2420    -0.4510     0.0290 C.ar  1 <1>  -0.1440 
 19 O        2.2420    -5.1920     1.4910 O.2   1 <1>  -0.5700 
 20 C        1.7390    -6.9760     0.0760 C.3   1 <1>  -0.0990 
 21 C       -1.6370    -4.6910    -0.8100 C.3   1 <1>  -0.0170 
 22 C       -3.0060    -2.6170    -0.4530 C.ar  1 <1>  -0.1500 
 23 C       -2.0670    -0.6160     0.4850 C.ar  1 <1>   0.0830 
 24 C        7.5130    -0.1600     0.8110 C.3   1 <1>  -0.0170 
 25 C        2.5930    -7.0970    -1.1960 C.3   1 <1>  -0.2400 
 26 C       -3.1660    -1.3100    -0.0300 C.ar  1 <1>   0.0830 
 27 O       -2.1300     0.6840     0.8630 O.3   1 <1>  -0.3630 
 28 C        7.4350     1.2180     1.4720 C.3   1 <1>  -0.2400 
 29 O       -4.4030    -0.7640    -0.1370 O.3   1 <1>  -0.3620 
 30 C       -2.3070     1.6150    -0.1810 C.3   1 <1>   0.0400 
 31 C       -5.0350    -0.3950     1.0690 C.3   1 <1>   0.0400 
 32 H        2.6330    -0.9470    -3.0860 H     1 <1>   0.3700 
 33 H        3.0750    -2.5510     1.4610 H     1 <1>   0.1500 
 34 H        0.8570    -3.2450     1.4260 H     1 <1>   0.0800 
 35 H        4.8600     0.1130    -2.9990 H     1 <1>   0.1500 
 36 H        5.3080    -1.5400     1.6080 H     1 <1>   0.1500 
 37 H        6.9030     0.5820    -1.7250 H     1 <1>   0.1500 
 38 H       -0.1270    -6.0460    -1.4740 H     1 <1>   0.0800 
 39 H        0.0690    -4.4380    -2.0800 H     1 <1>   0.0800 
 40 H       -0.0240    -0.7120     1.0300 H     1 <1>   0.1500 
 41 H        0.7740    -7.4220    -0.0700 H     1 <1>   0.0800 
 42 H        2.2200    -7.5270     0.8640 H     1 <1>   0.0800 
 43 H       -1.9440    -5.3550    -0.0220 H     1 <1>   0.0800 
 44 H       -2.2750    -4.8610    -1.6590 H     1 <1>   0.0800 
 45 H       -3.8540    -3.1310    -0.8650 H     1 <1>   0.1500 
 46 H        8.3620    -0.1970     0.1490 H     1 <1>   0.0800 
 47 H        7.6570    -0.9130     1.5660 H     1 <1>   0.0800 
 48 H        2.1450    -6.5610    -2.0140 H     1 <1>   0.0800 
 49 H        2.6980    -8.1310    -1.4760 H     1 <1>   0.0800 
 50 H        3.5730    -6.6880    -1.0190 H     1 <1>   0.0800 
 51 H        7.3160     1.9830     0.7250 H     1 <1>   0.0800 
 52 H        8.3340     1.4140     2.0280 H     1 <1>   0.0800 
 53 H        6.5960     1.2590     2.1440 H     1 <1>   0.0800 
 54 H       -2.2530     2.6040     0.2360 H     1 <1>   0.0800 
 55 H       -3.2680     1.4590    -0.6370 H     1 <1>   0.0800 
 56 H       -1.5240     1.4750    -0.9060 H     1 <1>   0.0800 
 57 H       -6.0540    -0.1360     0.8490 H     1 <1>   0.0800 
 58 H       -4.5260     0.4510     1.4940 H     1 <1>   0.0800 
 59 H       -5.0040    -1.2290     1.7480 H     1 <1>   0.0800 
@<TRIPOS>BOND
  1   1   2  2   
  2   2   3  am  
  3   2   4  1   
  4   3   5  1   
  5   3  32  1   
  6   4   6  2   
  7   4   7  1   
  8   5   8  ar  
  9   5   9  ar  
 10   6   8  1   
 11   6  33  1   
 12   7  10  1   
 13   7  11  1   
 14   7  34  1   
 15   8  12  ar  
 16   9  13  ar  
 17   9  35  1   
 18  10  14  am  
 19  10  15  1   
 20  11  16  ar  
 21  11  17  ar  
 22  12  18  ar  
 23  12  36  1   
 24  13  18  ar  
 25  13  37  1   
 26  14  19  2   
 27  14  20  1   
 28  15  21  1   
 29  15  38  1   
 30  15  39  1   
 31  16  21  1   
 32  16  22  ar  
 33  17  23  ar  
 34  17  40  1   
 35  18  24  1   
 36  20  25  1   
 37  20  41  1   
 38  20  42  1   
 39  21  43  1   
 40  21  44  1   
 41  22  26  ar  
 42  22  45  1   
 43  23  26  ar  
 44  23  27  1   
 45  24  28  1   
 46  24  46  1   
 47  24  47  1   
 48  25  48  1   
 49  25  49  1   
 50  25  50  1   
 51  26  29  1   
 52  27  30  1   
 53  28  51  1   
 54  28  52  1   
 55  28  53  1   
 56  29  31  1   
 57  30  54  1   
 58  30  55  1   
 59  30  56  1   
 60  31  57  1   
 61  31  58  1   
 62  31  59  1   
@<TRIPOS>SUBSTRUCTURE
  1 ****   4 GROUP 4 **** **** 0

# MOE 2024.06 (io_trps.svl 2023.06)
