@<TRIPOS>MOLECULE
NONAME
62 64 1 0 0 
SMALL
USER_CHARGES


@<TRIPOS>ATOM
  1 N        0.1830     1.1890     1.6560 N.2   1 <1>   0.0000 
  2 N       -0.7690     1.5590     0.8800 N.2   1 <1>  -0.4180 
  3 N        1.1910     2.0450     1.5980 N.2   1 <1>  -0.3380 
  4 N       -0.3850     2.6780     0.3040 N.pl3 1 <1>   0.3140 
  5 C        0.8300     2.9470     0.7620 C.2   1 <1>   0.0060 
  6 C       -1.2400     3.4280    -0.6680 C.3   1 <1>   0.1760 
  7 C        1.6860     4.1430     0.3640 C.3   1 <1>   0.6030 
  8 C       -2.5010     3.9650     0.0240 C.3   1 <1>  -0.2400 
  9 C       -1.6120     2.5430    -1.8660 C.3   1 <1>  -0.2400 
 10 N        3.1210     3.7560     0.5480 N.4   1 <1>  -0.9590 
 11 C        1.2830     5.3570     1.2250 C.3   1 <1>  -0.1600 
 12 C        4.1380     4.8770     0.5430 C.3   1 <1>   0.3430 
 13 C        3.5190     2.6590    -0.4220 C.3   1 <1>   0.3430 
 14 C        1.4650     6.7340     0.5530 C.3   1 <1>  -0.0800 
 15 C        5.5800     4.3860     0.7910 C.3   1 <1>   0.2090 
 16 C        4.9440     2.1280    -0.1740 C.3   1 <1>   0.2090 
 17 C        1.0820     7.8370     1.5450 C.3   1 <1>  -0.2400 
 18 C        0.6050     6.8720    -0.7110 C.3   1 <1>  -0.2400 
 19 N        5.9020     3.2640    -0.1270 N.pl3 1 <1>  -0.8380 
 20 C        7.2050     3.0990    -0.5890 C.ar  1 <1>   0.1000 
 21 C        8.1700     2.3270     0.0730 C.ar  1 <1>  -0.1430 
 22 C        7.5420     3.7380    -1.7750 C.ar  1 <1>  -0.1500 
 23 C        9.4410     2.1940    -0.4830 C.ar  1 <1>  -0.1430 
 24 C        7.8450     1.6280     1.3930 C.3   1 <1>  -0.0970 
 25 C        8.8040     3.6150    -2.3150 C.ar  1 <1>  -0.1500 
 26 C        9.7490     2.8420    -1.6700 C.ar  1 <1>  -0.1500 
 27 C       10.5300     1.3490     0.1670 C.3   1 <1>  -0.0970 
 28 H       -0.6800     4.2660    -1.0370 H     1 <1>   0.0800 
 29 H        1.5070     4.3660    -0.6740 H     1 <1>   0.0800 
 30 H       -3.1070     3.1520     0.3890 H     1 <1>   0.0800 
 31 H       -2.2410     4.6030     0.8500 H     1 <1>   0.0800 
 32 H       -3.0910     4.5370    -0.6710 H     1 <1>   0.0800 
 33 H       -2.2070     1.7030    -1.5460 H     1 <1>   0.0800 
 34 H       -0.7290     2.1770    -2.3580 H     1 <1>   0.0800 
 35 H       -2.1880     3.1070    -2.5790 H     1 <1>   0.0800 
 36 H        3.1400     3.3110     1.4780 H     1 <1>   0.4500 
 37 H        1.8060     5.3190     2.1650 H     1 <1>   0.0800 
 38 H        0.2380     5.2680     1.4670 H     1 <1>   0.0800 
 39 H        3.8930     5.6020     1.3000 H     1 <1>   0.0800 
 40 H        4.1180     5.3750    -0.4120 H     1 <1>   0.0800 
 41 H        3.4770     3.0350    -1.4300 H     1 <1>   0.0800 
 42 H        2.8320     1.8310    -0.3480 H     1 <1>   0.0800 
 43 H        2.4910     6.8970     0.2760 H     1 <1>   0.0800 
 44 H        5.6860     4.0600     1.8100 H     1 <1>   0.0800 
 45 H        6.2730     5.1940     0.6260 H     1 <1>   0.0800 
 46 H        5.2260     1.4540    -0.9650 H     1 <1>   0.0800 
 47 H        4.9750     1.5850     0.7540 H     1 <1>   0.0800 
 48 H        0.0500     7.7520     1.8390 H     1 <1>   0.0800 
 49 H        1.2260     8.8080     1.1020 H     1 <1>   0.0800 
 50 H        1.6930     7.7850     2.4300 H     1 <1>   0.0800 
 51 H        0.9090     6.1860    -1.4790 H     1 <1>   0.0800 
 52 H       -0.4360     6.7160    -0.4860 H     1 <1>   0.0800 
 53 H        0.7060     7.8660    -1.1130 H     1 <1>   0.0800 
 54 H        6.8040     4.3320    -2.2780 H     1 <1>   0.1500 
 55 H        7.0320     2.1040     1.9040 H     1 <1>   0.0800 
 56 H        8.6870     1.6550     2.0590 H     1 <1>   0.0800 
 57 H        7.5830     0.6030     1.2040 H     1 <1>   0.0800 
 58 H        9.0540     4.1140    -3.2350 H     1 <1>   0.1500 
 59 H       10.7300     2.7490    -2.1020 H     1 <1>   0.1500 
 60 H       10.1490     0.3750     0.4150 H     1 <1>   0.0800 
 61 H       10.8820     1.8300     1.0620 H     1 <1>   0.0800 
 62 H       11.3650     1.2180    -0.4970 H     1 <1>   0.0800 
@<TRIPOS>BOND
  1   1   2  2   
  2   1   3  1   
  3   2   4  1   
  4   3   5  2   
  5   4   5  1   
  6   4   6  1   
  7   5   7  1   
  8   6   8  1   
  9   6   9  1   
 10   6  28  1   
 11   7  10  1   
 12   7  11  1   
 13   7  29  1   
 14   8  30  1   
 15   8  31  1   
 16   8  32  1   
 17   9  33  1   
 18   9  34  1   
 19   9  35  1   
 20  10  12  1   
 21  10  13  1   
 22  10  36  1   
 23  11  14  1   
 24  11  37  1   
 25  11  38  1   
 26  12  15  1   
 27  12  39  1   
 28  12  40  1   
 29  13  16  1   
 30  13  41  1   
 31  13  42  1   
 32  14  17  1   
 33  14  18  1   
 34  14  43  1   
 35  15  19  1   
 36  15  44  1   
 37  15  45  1   
 38  16  19  1   
 39  16  46  1   
 40  16  47  1   
 41  17  48  1   
 42  17  49  1   
 43  17  50  1   
 44  18  51  1   
 45  18  52  1   
 46  18  53  1   
 47  19  20  1   
 48  20  21  ar  
 49  20  22  ar  
 50  21  23  ar  
 51  21  24  1   
 52  22  25  ar  
 53  22  54  1   
 54  23  26  ar  
 55  23  27  1   
 56  24  55  1   
 57  24  56  1   
 58  24  57  1   
 59  25  26  ar  
 60  25  58  1   
 61  26  59  1   
 62  27  60  1   
 63  27  61  1   
 64  27  62  1   
@<TRIPOS>SUBSTRUCTURE
  1 ****  10 GROUP 4 **** **** 0

# MOE 2024.06 (io_trps.svl 2023.06)
