@<TRIPOS>MOLECULE
NONAME
26 26 1 0 0 
SMALL
USER_CHARGES


@<TRIPOS>ATOM
  1 CL       0.2410     0.0780     1.6830 Cl    1 <1>  -0.1770 
  2 C        1.6000     0.9710     1.0710 C.ar  1 <1>   0.4870 
  3 N        2.2500     0.4360     0.0520 N.ar  1 <1>  -0.6200 
  4 C        1.9200     2.1730     1.6760 C.ar  1 <1>  -0.1500 
  5 C        3.2790     1.1470    -0.3860 C.ar  1 <1>   0.1600 
  6 C        2.9950     2.8930     1.2020 C.ar  1 <1>  -0.1500 
  7 C        3.7140     2.3720     0.1280 C.ar  1 <1>   0.0860 
  8 C        4.8590     3.0410    -0.4510 C.2   1 <1>   0.6340 
  9 O        5.4760     2.5780    -1.3850 O.2   1 <1>  -0.5700 
 10 O        5.2210     4.2090     0.0890 O.3   1 <1>  -0.4300 
 11 C        6.2910     5.0510    -0.2880 C.3   1 <1>   0.2800 
 12 C        6.0910     5.5480    -1.7240 C.3   1 <1>  -0.2400 
 13 C        6.2240     6.2390     0.6720 C.3   1 <1>  -0.2400 
 14 C        7.6270     4.3230    -0.1020 C.3   1 <1>  -0.2400 
 15 H        1.3290     2.5260     2.5010 H     1 <1>   0.1500 
 16 H        3.8250     0.7300    -1.2170 H     1 <1>   0.1500 
 17 H        3.2710     3.8330     1.6500 H     1 <1>   0.1500 
 18 H        6.8320     6.2890    -1.9620 H     1 <1>   0.0800 
 19 H        5.1180     5.9910    -1.8360 H     1 <1>   0.0800 
 20 H        6.1990     4.7460    -2.4320 H     1 <1>   0.0800 
 21 H        5.2830     6.7480     0.5720 H     1 <1>   0.0800 
 22 H        7.0110     6.9390     0.4560 H     1 <1>   0.0800 
 23 H        6.3380     5.9050     1.6880 H     1 <1>   0.0800 
 24 H        7.7040     3.9280     0.8950 H     1 <1>   0.0800 
 25 H        8.4410     5.0050    -0.2620 H     1 <1>   0.0800 
 26 H        7.7340     3.5210    -0.8090 H     1 <1>   0.0800 
@<TRIPOS>BOND
  1   1   2  1   
  2   2   3  ar  
  3   2   4  ar  
  4   3   5  ar  
  5   4   6  ar  
  6   4  15  1   
  7   5   7  ar  
  8   5  16  1   
  9   6   7  ar  
 10   6  17  1   
 11   7   8  1   
 12   8   9  2   
 13   8  10  1   
 14  10  11  1   
 15  11  12  1   
 16  11  13  1   
 17  11  14  1   
 18  12  18  1   
 19  12  19  1   
 20  12  20  1   
 21  13  21  1   
 22  13  22  1   
 23  13  23  1   
 24  14  24  1   
 25  14  25  1   
 26  14  26  1   
@<TRIPOS>SUBSTRUCTURE
  1 ****   7 GROUP 4 **** **** 0

# MOE 2024.06 (io_trps.svl 2023.06)
