@<TRIPOS>MOLECULE
NONAME
60 62 1 0 0 
SMALL
USER_CHARGES


@<TRIPOS>ATOM
  1 S        0.7350     0.4700    -0.7600 S.o2  1 <1>   1.4470 
  2 O        0.3350     1.3470    -1.8340 O.2   1 <1>  -0.6500 
  3 O        2.0610    -0.1140    -0.8280 O.2   1 <1>  -0.6500 
  4 N        0.7480     1.4320     0.6460 N.am  1 <1>  -0.8490 
  5 C       -0.5380    -0.7870    -0.4380 C.ar  1 <1>  -0.0090 
  6 C        1.0690     2.8510     0.3800 C.3   1 <1>   0.1960 
  7 C        1.6080     0.9100     1.7380 C.3   1 <1>   0.1960 
  8 C       -1.7680    -0.4420     0.1060 C.ar  1 <1>  -0.1500 
  9 C       -0.3260    -2.1260    -0.7430 C.ar  1 <1>  -0.1500 
 10 C        2.5270     3.0560    -0.1080 C.3   1 <1>   0.3430 
 11 C        3.0840     1.4080     1.6890 C.3   1 <1>   0.3430 
 12 C       -2.7420    -1.3970     0.3440 C.ar  1 <1>  -0.1500 
 13 C       -1.3010    -3.0810    -0.5050 C.ar  1 <1>  -0.1500 
 14 N        3.4630     1.9550     0.3410 N.4   1 <1>  -0.9590 
 15 C       -2.5310    -2.7360     0.0420 C.ar  1 <1>  -0.0090 
 16 C        4.9220     2.2210     0.2070 C.3   1 <1>   0.4230 
 17 S       -3.8090    -3.9870     0.3690 S.o2  1 <1>   1.4470 
 18 C        5.3550     3.5080     0.9130 C.3   1 <1>  -0.1600 
 19 C        5.3010     2.4430    -1.2550 C.3   1 <1>  -0.1600 
 20 O       -3.5720    -5.1700    -0.4250 O.2   1 <1>  -0.6500 
 21 O       -4.0370    -4.0940     1.7910 O.2   1 <1>  -0.6500 
 22 N       -5.1910    -3.3230    -0.3090 N.am  1 <1>  -0.9140 
 23 C        5.3920     4.6250    -0.1390 C.3   1 <1>  -0.1600 
 24 C        5.2570     3.9530    -1.5100 C.3   1 <1>  -0.1600 
 25 C       -6.4110    -3.9030     0.2300 C.3   1 <1>   0.1960 
 26 C       -7.6290    -3.4220    -0.5750 C.3   1 <1>  -0.0800 
 27 C       -8.9190    -3.9710     0.0500 C.3   1 <1>  -0.2400 
 28 C       -7.5570    -3.8430    -2.0530 C.3   1 <1>  -0.2400 
 29 H        0.9290     3.4130     1.2880 H     1 <1>   0.0800 
 30 H        0.3840     3.2670    -0.3400 H     1 <1>   0.0800 
 31 H        1.1860     1.2110     2.6820 H     1 <1>   0.0800 
 32 H        1.5930    -0.1670     1.7300 H     1 <1>   0.0800 
 33 H       -1.9720     0.5880     0.3470 H     1 <1>   0.1500 
 34 H        0.6140    -2.4320    -1.1740 H     1 <1>   0.1500 
 35 H        2.5250     3.0970    -1.1850 H     1 <1>   0.0800 
 36 H        2.8740     4.0100     0.2500 H     1 <1>   0.0800 
 37 H        3.7360     0.5910     1.9530 H     1 <1>   0.0800 
 38 H        3.2130     2.1770     2.4330 H     1 <1>   0.0800 
 39 H       -3.6880    -1.1010     0.7710 H     1 <1>   0.1500 
 40 H       -1.1060    -4.1130    -0.7510 H     1 <1>   0.1500 
 41 H        3.2640     1.1650    -0.3070 H     1 <1>   0.4500 
 42 H        5.4710     1.3790     0.5970 H     1 <1>   0.0800 
 43 H        6.3580     3.3610     1.2740 H     1 <1>   0.0800 
 44 H        4.7350     3.7600     1.7540 H     1 <1>   0.0800 
 45 H        6.3180     2.1140    -1.3840 H     1 <1>   0.0800 
 46 H        4.6830     1.8880    -1.9410 H     1 <1>   0.0800 
 47 H       -5.1440    -3.6230    -1.2800 H     1 <1>   0.4200 
 48 H        6.3240     5.1630    -0.0760 H     1 <1>   0.0800 
 49 H        4.5910     5.3290     0.0130 H     1 <1>   0.0800 
 50 H        4.3220     4.2300    -1.9670 H     1 <1>   0.0800 
 51 H        6.0530     4.2540    -2.1710 H     1 <1>   0.0800 
 52 H       -6.5200    -3.6070     1.2620 H     1 <1>   0.0800 
 53 H       -6.3540    -4.9800     0.1930 H     1 <1>   0.0800 
 54 H       -7.6660    -2.3470    -0.5190 H     1 <1>   0.0800 
 55 H       -8.9320    -5.0460     0.0150 H     1 <1>   0.0800 
 56 H       -9.7780    -3.6010    -0.4810 H     1 <1>   0.0800 
 57 H       -9.0000    -3.6590     1.0770 H     1 <1>   0.0800 
 58 H       -7.4600    -4.9110    -2.1400 H     1 <1>   0.0800 
 59 H       -6.7230    -3.3770    -2.5450 H     1 <1>   0.0800 
 60 H       -8.4510    -3.5390    -2.5680 H     1 <1>   0.0800 
@<TRIPOS>BOND
  1   1   2  2   
  2   1   3  2   
  3   1   4  am  
  4   1   5  1   
  5   4   6  1   
  6   4   7  1   
  7   5   8  ar  
  8   5   9  ar  
  9   6  10  1   
 10   6  29  1   
 11   6  30  1   
 12   7  11  1   
 13   7  31  1   
 14   7  32  1   
 15   8  12  ar  
 16   8  33  1   
 17   9  13  ar  
 18   9  34  1   
 19  10  14  1   
 20  10  35  1   
 21  10  36  1   
 22  11  14  1   
 23  11  37  1   
 24  11  38  1   
 25  12  15  ar  
 26  12  39  1   
 27  13  15  ar  
 28  13  40  1   
 29  14  16  1   
 30  14  41  1   
 31  15  17  1   
 32  16  18  1   
 33  16  19  1   
 34  16  42  1   
 35  17  20  2   
 36  17  21  2   
 37  17  22  am  
 38  18  23  1   
 39  18  43  1   
 40  18  44  1   
 41  19  24  1   
 42  19  45  1   
 43  19  46  1   
 44  22  25  1   
 45  22  47  1   
 46  23  24  1   
 47  23  48  1   
 48  23  49  1   
 49  24  50  1   
 50  24  51  1   
 51  25  26  1   
 52  25  52  1   
 53  25  53  1   
 54  26  27  1   
 55  26  28  1   
 56  26  54  1   
 57  27  55  1   
 58  27  56  1   
 59  27  57  1   
 60  28  58  1   
 61  28  59  1   
 62  28  60  1   
@<TRIPOS>SUBSTRUCTURE
  1 ****   5 GROUP 4 **** **** 0

# MOE 2024.06 (io_trps.svl 2023.06)
