@<TRIPOS>MOLECULE
N-sec-Butyl-2-[3-(4-fluoro-benzyl)-2,4-dioxo-3,4-dihydro-2H-thieno[3,2-d]pyrimid
47 49 1 0 0 
SMALL
USER_CHARGES


@<TRIPOS>ATOM
  1 S        1.0040    -0.4870     3.4190 S.3   1 <1>  -0.0800 
  2 C        2.2410    -0.7470     2.1810 C.2   1 <1>  -0.0450 
  3 C        0.0350    -1.8070     2.7850 C.2   1 <1>  -0.1100 
  4 C        3.4550    -0.0250     2.0480 C.2   1 <1>   0.7150 
  5 C        1.8770    -1.7610     1.3630 C.2   1 <1>   0.0630 
  6 C        0.6300    -2.3710     1.7160 C.2   1 <1>  -0.1500 
  7 O        3.7630     0.8960     2.7870 O.2   1 <1>  -0.5700 
  8 N        4.3060    -0.4240     1.0330 N.am  1 <1>  -0.4200 
  9 N        2.7330    -2.0970     0.3140 N.am  1 <1>  -0.4230 
 10 C        3.9770    -1.4870     0.2080 C.2   1 <1>   0.6900 
 11 C        5.5400     0.3540     0.7660 C.3   1 <1>   0.2840 
 12 C        2.3390    -3.1410    -0.6840 C.3   1 <1>   0.2010 
 13 O        4.7880    -1.9110    -0.5990 O.2   1 <1>  -0.5700 
 14 C        5.2430     1.4390    -0.2600 C.ar  1 <1>  -0.1430 
 15 C        2.8230    -4.5270    -0.2810 C.2   1 <1>   0.5690 
 16 C        5.4320     1.1880    -1.6140 C.ar  1 <1>  -0.1500 
 17 C        4.7750     2.6810     0.1560 C.ar  1 <1>  -0.1500 
 18 O        1.9970    -5.3690    -0.0200 O.2   1 <1>  -0.5700 
 19 N        4.1660    -4.7510    -0.2380 N.am  1 <1>  -0.7300 
 20 C        5.1600     2.1700    -2.5520 C.ar  1 <1>  -0.1500 
 21 C        4.4990     3.6710    -0.7720 C.ar  1 <1>  -0.1500 
 22 C        4.8830    -5.9920     0.1140 C.3   1 <1>   0.2200 
 23 C        4.6980     3.3950    -2.1110 C.ar  1 <1>   0.1900 
 24 C        4.5320    -7.1360    -0.8500 C.3   1 <1>  -0.1600 
 25 C        4.5880    -6.3560     1.5670 C.3   1 <1>  -0.2400 
 26 F        4.4390     4.3240    -2.9910 F     1 <1>  -0.1900 
 27 C        4.8730    -6.8210    -2.3140 C.3   1 <1>  -0.2400 
 28 H       -0.8880    -2.0290     3.2910 H     1 <1>   0.1500 
 29 H        0.2320    -3.2080     1.1700 H     1 <1>   0.1500 
 30 H        6.3150    -0.2960     0.3990 H     1 <1>   0.0800 
 31 H        5.9060     0.8000     1.6750 H     1 <1>   0.0800 
 32 H        2.7550    -2.8990    -1.6450 H     1 <1>   0.0800 
 33 H        1.2710    -3.1580    -0.7950 H     1 <1>   0.0800 
 34 H        5.7890     0.2260    -1.9440 H     1 <1>   0.1500 
 35 H        4.6210     2.8800     1.2050 H     1 <1>   0.1500 
 36 H        4.7780    -3.9530    -0.4550 H     1 <1>   0.3700 
 37 H        5.3010     1.9940    -3.6020 H     1 <1>   0.1500 
 38 H        4.1370     4.6350    -0.4670 H     1 <1>   0.1500 
 39 H        5.9390    -5.7960     0.0280 H     1 <1>   0.0800 
 40 H        3.4860    -7.3750    -0.7650 H     1 <1>   0.0800 
 41 H        5.0820    -8.0130    -0.5540 H     1 <1>   0.0800 
 42 H        3.5490    -6.6060     1.6930 H     1 <1>   0.0800 
 43 H        4.8340    -5.5330     2.2130 H     1 <1>   0.0800 
 44 H        5.1770    -7.2060     1.8590 H     1 <1>   0.0800 
 45 H        4.2890    -5.9890    -2.6680 H     1 <1>   0.0800 
 46 H        4.6530    -7.6730    -2.9320 H     1 <1>   0.0800 
 47 H        5.9160    -6.5820    -2.4160 H     1 <1>   0.0800 
@<TRIPOS>BOND
  1   1   2  1   
  2   1   3  1   
  3   2   4  1   
  4   2   5  2   
  5   3   6  2   
  6   3  28  1   
  7   4   7  2   
  8   4   8  am  
  9   5   6  1   
 10   5   9  1   
 11   6  29  1   
 12   8  10  am  
 13   8  11  1   
 14   9  10  am  
 15   9  12  1   
 16  10  13  2   
 17  11  14  1   
 18  11  30  1   
 19  11  31  1   
 20  12  15  1   
 21  12  32  1   
 22  12  33  1   
 23  14  16  ar  
 24  14  17  ar  
 25  15  18  2   
 26  15  19  am  
 27  16  20  ar  
 28  16  34  1   
 29  17  21  ar  
 30  17  35  1   
 31  19  22  1   
 32  19  36  1   
 33  20  23  ar  
 34  20  37  1   
 35  21  23  ar  
 36  21  38  1   
 37  22  24  1   
 38  22  25  1   
 39  22  39  1   
 40  23  26  1   
 41  24  27  1   
 42  24  40  1   
 43  24  41  1   
 44  25  42  1   
 45  25  43  1   
 46  25  44  1   
 47  27  45  1   
 48  27  46  1   
 49  27  47  1   
@<TRIPOS>SUBSTRUCTURE
  1 ****  10 GROUP 4 **** **** 0

# MOE 2024.06 (io_trps.svl 2023.06)
