@<TRIPOS>MOLECULE
2-(4-Methoxy-phenyl)-5,6,7,8-tetrahydro-benzo[4,5]thieno[2,3-d]pyrimidine-4-thio
38 41 1 0 0 
SMALL
USER_CHARGES


@<TRIPOS>ATOM
  1 S        0.1540    -0.0570     0.6570 S.3   1 <1>  -0.0800 
  2 C        1.0630     1.3840     0.2410 C.2   1 <1>   0.1660 
  3 C       -1.3640     0.7760     0.3650 C.2   1 <1>  -0.1400 
  4 N        2.4080     1.3990     0.2650 N.2   1 <1>  -0.5760 
  5 C        0.2280     2.4220    -0.0980 C.2   1 <1>  -0.0860 
  6 C       -1.1660     2.0520    -0.0020 C.2   1 <1>  -0.1810 
  7 C       -2.6740     0.0410     0.5410 C.3   1 <1>   0.0200 
  8 C        2.9780     2.5260    -0.0720 C.2   1 <1>   0.4240 
  9 C        0.8780     3.6100    -0.4740 C.2   1 <1>   0.5260 
 10 C       -2.3450     2.9740    -0.2850 C.3   1 <1>   0.0210 
 11 C       -3.8020     0.8690    -0.1000 C.3   1 <1>  -0.1600 
 12 N        2.2300     3.6140    -0.4450 N.am  1 <1>  -0.4900 
 13 C        4.4180     2.6530    -0.0750 C.ar  1 <1>   0.0860 
 14 S        0.1550     4.9860    -0.9590 S.2   1 <1>  -0.3800 
 15 C       -3.6680     2.3690     0.2290 C.3   1 <1>  -0.1600 
 16 C        5.2310     1.6050    -0.5120 C.ar  1 <1>  -0.1500 
 17 C        5.0580     3.8220     0.3510 C.ar  1 <1>  -0.1500 
 18 C        6.6070     1.7220    -0.5400 C.ar  1 <1>  -0.1500 
 19 C        6.4350     3.9470     0.3250 C.ar  1 <1>  -0.1500 
 20 C        7.2230     2.8920    -0.1270 C.ar  1 <1>   0.0820 
 21 O        8.5720     2.9300    -0.1880 O.3   1 <1>  -0.3630 
 22 C        9.3080     4.0580     0.2330 C.3   1 <1>   0.0400 
 23 H       -2.8590    -0.0920     1.5920 H     1 <1>   0.0800 
 24 H       -2.6200    -0.9270     0.0760 H     1 <1>   0.0800 
 25 H       -2.4080     3.1390    -1.3460 H     1 <1>   0.0800 
 26 H       -2.1940     3.9230     0.1980 H     1 <1>   0.0800 
 27 H       -4.7540     0.5000     0.2390 H     1 <1>   0.0800 
 28 H       -3.7600     0.7450    -1.1680 H     1 <1>   0.0800 
 29 H        2.6980     4.4630    -0.7540 H     1 <1>   0.3700 
 30 H       -4.4950     2.9120    -0.1960 H     1 <1>   0.0800 
 31 H       -3.7110     2.4920     1.2980 H     1 <1>   0.0800 
 32 H        4.7700     0.6870    -0.8330 H     1 <1>   0.1500 
 33 H        4.4710     4.6440     0.7190 H     1 <1>   0.1500 
 34 H        7.2170     0.9050    -0.8820 H     1 <1>   0.1500 
 35 H        6.8810     4.8640     0.6610 H     1 <1>   0.1500 
 36 H       10.3520     3.8450     0.0940 H     1 <1>   0.0800 
 37 H        9.1070     4.2380     1.2740 H     1 <1>   0.0800 
 38 H        9.0250     4.9040    -0.3680 H     1 <1>   0.0800 
@<TRIPOS>BOND
  1   1   2  1   
  2   1   3  1   
  3   2   4  1   
  4   2   5  2   
  5   3   6  2   
  6   3   7  1   
  7   4   8  2   
  8   5   6  1   
  9   5   9  1   
 10   6  10  1   
 11   7  11  1   
 12   7  23  1   
 13   7  24  1   
 14   8  12  1   
 15   8  13  1   
 16   9  12  am  
 17   9  14  2   
 18  10  15  1   
 19  10  25  1   
 20  10  26  1   
 21  11  15  1   
 22  11  27  1   
 23  11  28  1   
 24  12  29  1   
 25  13  16  ar  
 26  13  17  ar  
 27  15  30  1   
 28  15  31  1   
 29  16  18  ar  
 30  16  32  1   
 31  17  19  ar  
 32  17  33  1   
 33  18  20  ar  
 34  18  34  1   
 35  19  20  ar  
 36  19  35  1   
 37  20  21  1   
 38  21  22  1   
 39  22  36  1   
 40  22  37  1   
 41  22  38  1   
@<TRIPOS>SUBSTRUCTURE
  1 ****   8 GROUP 4 **** **** 0

# MOE 2024.06 (io_trps.svl 2023.06)
