@<TRIPOS>MOLECULE
8256
47 50 1 0 0 
SMALL
USER_CHARGES


@<TRIPOS>ATOM
  1 S        0.9810     0.0850    -0.4880 S.3   1 <1>  -0.0800 
  2 C        1.9130     0.8910     0.7690 C.2   1 <1>   0.1040 
  3 C       -0.3480     1.2070    -0.2910 C.2   1 <1>  -0.1400 
  4 N        3.1560     0.3140     1.0180 N.am  1 <1>  -0.4940 
  5 C        1.2250     1.9630     1.2610 C.2   1 <1>   0.0190 
  6 C       -0.0740     2.1110     0.6590 C.2   1 <1>  -0.1810 
  7 C       -1.5990     1.0770    -1.1310 C.3   1 <1>   0.0200 
  8 C        3.9270     0.3100     2.1500 C.2   1 <1>   0.5690 
  9 C        1.6870     2.9170     2.2260 C.1   1 <1>   0.5380 
 10 C       -1.0830     3.1920     1.0270 C.3   1 <1>   0.0210 
 11 C       -2.4340     2.3680    -0.9970 C.3   1 <1>  -0.0800 
 12 O        3.5490     0.8130     3.1780 O.2   1 <1>  -0.5700 
 13 C        5.2930    -0.4000     2.1490 C.3   1 <1>   0.2810 
 14 N        1.9860     3.7500     2.9470 N.1   1 <1>  -0.5570 
 15 C       -2.4820     2.8590     0.4670 C.3   1 <1>  -0.1600 
 16 C       -3.8500     2.1600    -1.5480 C.3   1 <1>  -0.2400 
 17 N        6.1620    -0.0310     0.9900 N.am  1 <1>  -0.4200 
 18 C        5.1550    -1.9270     2.2300 C.3   1 <1>  -0.2400 
 19 C        7.3710     0.6040     1.1120 C.2   1 <1>   0.5440 
 20 C        5.9410    -0.2740    -0.3420 C.2   1 <1>   0.5440 
 21 O        7.8630     0.9280     2.1710 O.2   1 <1>  -0.5700 
 22 C        7.9360     0.7900    -0.1940 C.ar  1 <1>   0.0860 
 23 O        4.9510    -0.8280    -0.7740 O.2   1 <1>  -0.5700 
 24 C        7.0440     0.2400    -1.1010 C.ar  1 <1>   0.0860 
 25 C        9.1160     1.3750    -0.6360 C.ar  1 <1>  -0.1500 
 26 C        7.3210     0.2670    -2.4630 C.ar  1 <1>  -0.1500 
 27 C        9.3910     1.4030    -1.9930 C.ar  1 <1>  -0.1500 
 28 C        8.4970     0.8510    -2.9030 C.ar  1 <1>  -0.1500 
 29 H        3.5280    -0.2570     0.2440 H     1 <1>   0.3700 
 30 H       -2.1590     0.2270    -0.7830 H     1 <1>   0.0800 
 31 H       -1.3360     0.9170    -2.1610 H     1 <1>   0.0800 
 32 H       -0.7470     4.1320     0.6230 H     1 <1>   0.0800 
 33 H       -1.1490     3.2910     2.0960 H     1 <1>   0.0800 
 34 H       -1.9540     3.1340    -1.5850 H     1 <1>   0.0800 
 35 H        5.7930    -0.0810     3.0480 H     1 <1>   0.0800 
 36 H       -3.1050     3.7330     0.5430 H     1 <1>   0.0800 
 37 H       -2.9230     2.0890     1.0770 H     1 <1>   0.0800 
 38 H       -4.3740     1.4130    -0.9770 H     1 <1>   0.0800 
 39 H       -3.8080     1.8420    -2.5750 H     1 <1>   0.0800 
 40 H       -4.4070     3.0790    -1.5020 H     1 <1>   0.0800 
 41 H        4.6210    -2.3160     1.3810 H     1 <1>   0.0800 
 42 H        4.6070    -2.1890     3.1180 H     1 <1>   0.0800 
 43 H        6.1260    -2.3870     2.2850 H     1 <1>   0.0800 
 44 H        9.8000     1.7990     0.0800 H     1 <1>   0.1500 
 45 H        6.6210    -0.1630    -3.1590 H     1 <1>   0.1500 
 46 H       10.3040     1.8540    -2.3470 H     1 <1>   0.1500 
 47 H        8.7230     0.8780    -3.9560 H     1 <1>   0.1500 
@<TRIPOS>BOND
  1   1   2  1   
  2   1   3  1   
  3   2   4  1   
  4   2   5  2   
  5   3   6  2   
  6   3   7  1   
  7   4   8  am  
  8   4  29  1   
  9   5   6  1   
 10   5   9  1   
 11   6  10  1   
 12   7  11  1   
 13   7  30  1   
 14   7  31  1   
 15   8  12  2   
 16   8  13  1   
 17   9  14  3   
 18  10  15  1   
 19  10  32  1   
 20  10  33  1   
 21  11  15  1   
 22  11  16  1   
 23  11  34  1   
 24  13  17  1   
 25  13  18  1   
 26  13  35  1   
 27  15  36  1   
 28  15  37  1   
 29  16  38  1   
 30  16  39  1   
 31  16  40  1   
 32  17  19  am  
 33  17  20  am  
 34  18  41  1   
 35  18  42  1   
 36  18  43  1   
 37  19  21  2   
 38  19  22  1   
 39  20  23  2   
 40  20  24  1   
 41  22  24  ar  
 42  22  25  ar  
 43  24  26  ar  
 44  25  27  ar  
 45  25  44  1   
 46  26  28  ar  
 47  26  45  1   
 48  27  28  ar  
 49  27  46  1   
 50  28  47  1   
@<TRIPOS>SUBSTRUCTURE
  1 ****   4 GROUP 4 **** **** 0

# MOE 2024.06 (io_trps.svl 2023.06)
