@<TRIPOS>MOLECULE
NONAME
39 42 1 0 0 
SMALL
USER_CHARGES


@<TRIPOS>ATOM
  1 S        0.1650    -0.2690    -0.0940 S.3   1 <1>  -0.0800 
  2 C        1.6230     0.6910     0.0920 C.2   1 <1>   0.1660 
  3 C       -0.8190     1.1870    -0.0940 C.2   1 <1>  -0.1400 
  4 N        2.8580     0.1220     0.1610 N.2   1 <1>  -0.5760 
  5 C        1.3410     2.0150     0.1490 C.2   1 <1>  -0.0130 
  6 C       -0.0680     2.2910     0.0500 C.2   1 <1>  -0.1810 
  7 C       -2.3220     1.0960    -0.2420 C.3   1 <1>   0.0200 
  8 C        3.8720     0.9040     0.2960 C.2   1 <1>   0.8080 
  9 C        2.4690     2.8710     0.2900 C.2   1 <1>   0.6660 
 10 C       -0.6960     3.6760     0.0920 C.3   1 <1>   0.0210 
 11 C       -2.8840     2.4980    -0.5590 C.3   1 <1>  -0.0800 
 12 N        3.7230     2.2870     0.3670 N.pl3 1 <1>  -0.6690 
 13 C        5.2760     0.2590     0.3630 C.3   1 <1>  -0.0190 
 14 N        2.5090     4.1670     0.3580 N.2   1 <1>  -0.2600 
 15 C       -2.2200     3.5850     0.3150 C.3   1 <1>  -0.1600 
 16 C       -4.4080     2.5220    -0.3890 C.3   1 <1>  -0.2400 
 17 C        4.5390     3.3260     0.4910 C.cat 1 <1>   0.7360 
 18 C        5.9790     0.2960    -1.0080 C.3   1 <1>  -0.2400 
 19 C        5.2740    -1.1970     0.8760 C.3   1 <1>  -0.2400 
 20 N        3.8330     4.4310     0.4860 N.pl3 1 <1>  -0.3930 
 21 S        6.1500     3.3740     0.6370 S.3   1 <1>  -0.9360 
 22 H       -2.7360     0.7210     0.6780 H     1 <1>   0.0800 
 23 H       -2.5740     0.4130    -1.0340 H     1 <1>   0.0800 
 24 H       -0.4960     4.1760    -0.8390 H     1 <1>   0.0800 
 25 H       -0.2620     4.2570     0.8880 H     1 <1>   0.0800 
 26 H       -2.6590     2.7190    -1.5900 H     1 <1>   0.0800 
 27 H        5.8630     0.8100     1.0720 H     1 <1>   0.0800 
 28 H       -2.6610     4.5440     0.1070 H     1 <1>   0.0800 
 29 H       -2.4050     3.3570     1.3510 H     1 <1>   0.0800 
 30 H       -4.6800     2.3220     0.6330 H     1 <1>   0.0800 
 31 H       -4.8660     1.7790    -1.0190 H     1 <1>   0.0800 
 32 H       -4.7990     3.4850    -0.6650 H     1 <1>   0.0800 
 33 H        5.4350    -0.2880    -1.7290 H     1 <1>   0.0800 
 34 H        6.9780    -0.0940    -0.9250 H     1 <1>   0.0800 
 35 H        6.0480     1.3080    -1.3680 H     1 <1>   0.0800 
 36 H        4.7490    -1.8440     0.1950 H     1 <1>   0.0800 
 37 H        4.7950    -1.2520     1.8380 H     1 <1>   0.0800 
 38 H        6.2820    -1.5570     0.9800 H     1 <1>   0.0800 
 39 H        4.2950     5.3390     0.5730 H     1 <1>   0.4500 
@<TRIPOS>BOND
  1   1   2  1   
  2   1   3  1   
  3   2   4  1   
  4   2   5  2   
  5   3   6  2   
  6   3   7  1   
  7   4   8  2   
  8   5   6  1   
  9   5   9  1   
 10   6  10  1   
 11   7  11  1   
 12   7  22  1   
 13   7  23  1   
 14   8  12  1   
 15   8  13  1   
 16   9  12  1   
 17   9  14  2   
 18  10  15  1   
 19  10  24  1   
 20  10  25  1   
 21  11  15  1   
 22  11  16  1   
 23  11  26  1   
 24  12  17  ar  
 25  13  18  1   
 26  13  19  1   
 27  13  27  1   
 28  14  20  1   
 29  15  28  1   
 30  15  29  1   
 31  16  30  1   
 32  16  31  1   
 33  16  32  1   
 34  17  20  ar  
 35  17  21  1   
 36  18  33  1   
 37  18  34  1   
 38  18  35  1   
 39  19  36  1   
 40  19  37  1   
 41  19  38  1   
 42  20  39  1   
@<TRIPOS>SUBSTRUCTURE
  1 ****   5 GROUP 4 **** **** 0

# MOE 2024.06 (io_trps.svl 2023.06)
