@<TRIPOS>MOLECULE
3-(3-Fluoro-benzoylamino)-9-aza-bicyclo[3.3.1]nonane-9-carboxylic acid p-tolylamide
55 58 1 0 0 
SMALL
USER_CHARGES


@<TRIPOS>ATOM
  1 F       -2.5430     2.5480    -3.1760 F     1 <1>  -0.1900 
  2 C       -2.3030     2.2370    -1.9310 C.ar  1 <1>   0.1900 
  3 C       -2.1510     3.2530    -1.0100 C.ar  1 <1>  -0.1500 
  4 C       -2.2070     0.9030    -1.5890 C.ar  1 <1>  -0.1500 
  5 C       -1.8950     2.9440     0.3250 C.ar  1 <1>   0.0860 
  6 C       -1.9430     0.5820    -0.2690 C.ar  1 <1>  -0.1500 
  7 C       -1.7320     3.9770     1.3330 C.2   1 <1>   0.5440 
  8 C       -1.7870     1.5930     0.6680 C.ar  1 <1>  -0.1500 
  9 O       -0.8480     3.9030     2.1580 O.2   1 <1>  -0.5700 
 10 N       -2.5480     5.0590     1.4350 N.am  1 <1>  -0.7300 
 11 C       -3.9290     5.1990     0.9420 C.3   1 <1>   0.2200 
 12 C       -4.0070     6.4110    -0.0580 C.3   1 <1>  -0.1600 
 13 C       -4.9040     5.2580     2.1910 C.3   1 <1>  -0.1600 
 14 C       -5.2270     7.2030     0.3690 C.3   1 <1>   0.2200 
 15 C       -6.3350     5.8450     1.8950 C.3   1 <1>   0.2200 
 16 N       -6.2810     6.1750     0.4930 N.am  1 <1>  -0.6600 
 17 C       -6.0020     8.5080     0.3660 C.3   1 <1>  -0.1600 
 18 C       -6.7490     7.2000     2.5870 C.3   1 <1>  -0.1600 
 19 C       -7.0270     5.7020    -0.5550 C.2   1 <1>   0.6900 
 20 C       -6.9710     8.4350     1.6100 C.3   1 <1>  -0.1600 
 21 O       -6.7650     6.0530    -1.6890 O.2   1 <1>  -0.5700 
 22 N       -8.0410     4.8230    -0.2970 N.am  1 <1>  -0.5470 
 23 C       -8.9620     4.1760    -1.1340 C.ar  1 <1>   0.1170 
 24 C       -9.5750     3.0170    -0.6750 C.ar  1 <1>  -0.1500 
 25 C       -9.3080     4.6460    -2.3970 C.ar  1 <1>  -0.1500 
 26 C      -10.5020     2.3440    -1.4510 C.ar  1 <1>  -0.1500 
 27 C      -10.2330     3.9740    -3.1760 C.ar  1 <1>  -0.1500 
 28 C      -10.8380     2.8200    -2.7080 C.ar  1 <1>  -0.1430 
 29 C      -11.8510     2.0840    -3.5650 C.3   1 <1>  -0.0970 
 30 H       -2.2260     4.2760    -1.3290 H     1 <1>   0.1500 
 31 H       -2.3330     0.1410    -2.3370 H     1 <1>   0.1500 
 32 H       -1.8560    -0.4490     0.0290 H     1 <1>   0.1500 
 33 H       -1.5730     1.3390     1.6920 H     1 <1>   0.1500 
 34 H       -2.2680     5.7250     2.1560 H     1 <1>   0.3700 
 35 H       -4.2010     4.3180     0.3830 H     1 <1>   0.0800 
 36 H       -4.1220     6.0740    -1.0720 H     1 <1>   0.0800 
 37 H       -3.1320     7.0320     0.0050 H     1 <1>   0.0800 
 38 H       -4.4480     5.8420     2.9700 H     1 <1>   0.0800 
 39 H       -5.0190     4.2630     2.5800 H     1 <1>   0.0800 
 40 H       -4.7740     7.4460     1.3160 H     1 <1>   0.0800 
 41 H       -7.0830     5.0950     2.0830 H     1 <1>   0.0800 
 42 H       -6.5470     8.6210    -0.5560 H     1 <1>   0.0800 
 43 H       -5.3220     9.3350     0.4650 H     1 <1>   0.0800 
 44 H       -5.9980     7.4660     3.3090 H     1 <1>   0.0800 
 45 H       -7.6530     7.0370     3.1470 H     1 <1>   0.0800 
 46 H       -7.9730     8.3610     1.2220 H     1 <1>   0.0800 
 47 H       -6.9210     9.3550     2.1660 H     1 <1>   0.0800 
 48 H       -8.1130     4.5820     0.6810 H     1 <1>   0.3700 
 49 H       -9.3260     2.6310     0.2950 H     1 <1>   0.1500 
 50 H       -8.8580     5.5430    -2.7800 H     1 <1>   0.1500 
 51 H      -10.9610     1.4470    -1.0750 H     1 <1>   0.1500 
 52 H      -10.4800     4.3580    -4.1500 H     1 <1>   0.1500 
 53 H      -11.3450     1.3810    -4.2010 H     1 <1>   0.0800 
 54 H      -12.3970     2.7780    -4.1790 H     1 <1>   0.0800 
 55 H      -12.5530     1.5530    -2.9480 H     1 <1>   0.0800 
@<TRIPOS>BOND
  1   1   2  1   
  2   2   3  ar  
  3   2   4  ar  
  4   3   5  ar  
  5   3  30  1   
  6   4   6  ar  
  7   4  31  1   
  8   5   7  1   
  9   5   8  ar  
 10   6   8  ar  
 11   6  32  1   
 12   7   9  2   
 13   7  10  am  
 14   8  33  1   
 15  10  11  1   
 16  10  34  1   
 17  11  12  1   
 18  11  13  1   
 19  11  35  1   
 20  12  14  1   
 21  12  36  1   
 22  12  37  1   
 23  13  15  1   
 24  13  38  1   
 25  13  39  1   
 26  14  16  1   
 27  14  17  1   
 28  14  40  1   
 29  15  16  1   
 30  15  18  1   
 31  15  41  1   
 32  16  19  am  
 33  17  20  1   
 34  17  42  1   
 35  17  43  1   
 36  18  20  1   
 37  18  44  1   
 38  18  45  1   
 39  19  21  2   
 40  19  22  am  
 41  20  46  1   
 42  20  47  1   
 43  22  23  1   
 44  22  48  1   
 45  23  24  ar  
 46  23  25  ar  
 47  24  26  ar  
 48  24  49  1   
 49  25  27  ar  
 50  25  50  1   
 51  26  28  ar  
 52  26  51  1   
 53  27  28  ar  
 54  27  52  1   
 55  28  29  1   
 56  29  53  1   
 57  29  54  1   
 58  29  55  1   
@<TRIPOS>SUBSTRUCTURE
  1 ****  19 GROUP 4 **** **** 0

# MOE 2024.06 (io_trps.svl 2023.06)
