@<TRIPOS>MOLECULE
NONAME
38 39 1 0 0 
SMALL
USER_CHARGES


@<TRIPOS>ATOM
  1 O        0.1060     2.7470    -2.7010 O.2   1 <1>  -0.5700 
  2 C       -0.4110     2.4570    -1.6360 C.2   1 <1>   0.6160 
  3 N        0.4190     2.0550    -0.6280 N.am  1 <1>  -0.7300 
  4 C       -1.8460     2.5450    -1.4840 C.2   1 <1>   0.0290 
  5 C        1.8920     1.9560    -0.6690 C.3   1 <1>   0.1400 
  6 C       -2.5080     2.2070    -0.2520 C.2   1 <1>   0.4690 
  7 C       -2.6250     2.9630    -2.5330 C.2   1 <1>  -0.0500 
  8 C        2.4710     2.6810     0.5450 C.3   1 <1>  -0.1600 
  9 O       -1.8890     1.8220     0.7370 O.2   1 <1>  -0.5700 
 10 C       -3.9450     2.3190    -0.1680 C.ar  1 <1>   0.0860 
 11 N       -3.9810     3.0670    -2.4490 N.pl3 1 <1>  -0.6000 
 12 C        4.0040     2.6100     0.5550 C.3   1 <1>  -0.1600 
 13 C       -4.6690     2.7550    -1.2870 C.ar  1 <1>   0.1000 
 14 C       -4.6680     2.0100     0.9930 C.ar  1 <1>  -0.1500 
 15 C        4.5810     3.3380     1.7720 C.3   1 <1>  -0.2400 
 16 C       -6.0540     2.8710    -1.2300 C.ar  1 <1>  -0.1500 
 17 C       -6.0400     2.1270     1.0450 C.ar  1 <1>  -0.1500 
 18 C       -6.7460     2.5620    -0.0790 C.ar  1 <1>   0.0830 
 19 O       -8.0910     2.7030    -0.1100 O.3   1 <1>  -0.3620 
 20 C       -8.8980     2.4160     1.0110 C.3   1 <1>   0.0400 
 21 H       -0.0340     1.8020     0.2620 H     1 <1>   0.3700 
 22 H        2.2670     2.4000    -1.5760 H     1 <1>   0.0800 
 23 H        2.1760     0.9180    -0.6540 H     1 <1>   0.0800 
 24 H       -2.1710     3.2280    -3.4770 H     1 <1>   0.1500 
 25 H        2.0880     2.2310     1.4440 H     1 <1>   0.0800 
 26 H        2.1630     3.7120     0.5170 H     1 <1>   0.0800 
 27 H       -4.5280     3.3840    -3.2590 H     1 <1>   0.4000 
 28 H        4.3910     3.0610    -0.3430 H     1 <1>   0.0800 
 29 H        4.3190     1.5800     0.5760 H     1 <1>   0.0800 
 30 H       -4.1310     1.6740     1.8640 H     1 <1>   0.1500 
 31 H        4.2960     4.3750     1.7600 H     1 <1>   0.0800 
 32 H        5.6550     3.2790     1.7610 H     1 <1>   0.0800 
 33 H        4.2230     2.8900     2.6830 H     1 <1>   0.0800 
 34 H       -6.6020     3.2050    -2.0910 H     1 <1>   0.1500 
 35 H       -6.5500     1.8790     1.9570 H     1 <1>   0.1500 
 36 H       -9.9220     2.6030     0.7420 H     1 <1>   0.0800 
 37 H       -8.6110     3.0600     1.8230 H     1 <1>   0.0800 
 38 H       -8.7740     1.3800     1.2750 H     1 <1>   0.0800 
@<TRIPOS>BOND
  1   1   2  2   
  2   2   3  am  
  3   2   4  1   
  4   3   5  1   
  5   3  21  1   
  6   4   6  1   
  7   4   7  2   
  8   5   8  1   
  9   5  22  1   
 10   5  23  1   
 11   6   9  2   
 12   6  10  1   
 13   7  11  1   
 14   7  24  1   
 15   8  12  1   
 16   8  25  1   
 17   8  26  1   
 18  10  13  ar  
 19  10  14  ar  
 20  11  13  1   
 21  11  27  1   
 22  12  15  1   
 23  12  28  1   
 24  12  29  1   
 25  13  16  ar  
 26  14  17  ar  
 27  14  30  1   
 28  15  31  1   
 29  15  32  1   
 30  15  33  1   
 31  16  18  ar  
 32  16  34  1   
 33  17  18  ar  
 34  17  35  1   
 35  18  19  1   
 36  19  20  1   
 37  20  36  1   
 38  20  37  1   
 39  20  38  1   
@<TRIPOS>SUBSTRUCTURE
  1 ****   6 GROUP 4 **** **** 0

# MOE 2024.06 (io_trps.svl 2023.06)
