@<TRIPOS>MOLECULE
NONAME
60 64 1 0 0 
SMALL
USER_CHARGES


@<TRIPOS>ATOM
  1 O       -2.4970     2.9580     0.0810 O.2   1 <1>  -0.5700 
  2 C       -1.6590     2.0990    -0.0630 C.2   1 <1>   0.5690 
  3 N       -1.7680     0.8450     0.5220 N.am  1 <1>  -0.4770 
  4 C       -0.4980     2.4750    -0.9530 C.3   1 <1>   0.1570 
  5 C       -2.5770     0.5670     1.6560 C.ar  1 <1>   0.1170 
  6 C       -1.1110    -0.3470    -0.0870 C.3   1 <1>   0.1400 
  7 N        0.7560     2.2910    -0.2260 N.pl3 1 <1>   0.5800 
  8 C       -3.1320    -0.7040     1.8520 C.ar  1 <1>  -0.1440 
  9 C       -2.8250     1.5430     2.6210 C.ar  1 <1>  -0.1500 
 10 C       -2.1810    -1.3920    -0.3980 C.3   1 <1>  -0.1600 
 11 N        1.1530     3.0740     0.7580 N.2   1 <1>  -0.4180 
 12 N        1.6220     1.3440    -0.5250 N.2   1 <1>  -0.7070 
 13 C       -3.9270    -0.9580     2.9580 C.ar  1 <1>  -0.1500 
 14 C       -2.8650    -1.8550     0.8900 C.3   1 <1>  -0.0170 
 15 C       -3.6170     1.2840     3.7230 C.ar  1 <1>  -0.1500 
 16 N        2.2850     2.6270     1.1210 N.2   1 <1>  -0.2270 
 17 C        2.5590     1.5780     0.3370 C.2   1 <1>   0.4620 
 18 C       -4.1740     0.0310     3.8920 C.ar  1 <1>  -0.1500 
 19 C        3.7860     0.8080     0.4540 C.ar  1 <1>   0.0540 
 20 C        4.1090    -0.1860    -0.4710 C.ar  1 <1>  -0.1500 
 21 C        4.6960     1.0250     1.4900 C.ar  1 <1>  -0.1500 
 22 C        5.2790    -0.9160    -0.3780 C.ar  1 <1>  -0.1500 
 23 C        5.8690     0.3000     1.5920 C.ar  1 <1>  -0.1500 
 24 C        6.1750    -0.6710     0.6510 C.ar  1 <1>  -0.1430 
 25 C        7.4740    -1.4500     0.7420 C.3   1 <1>   0.4860 
 26 N        8.5900    -0.5590     0.3270 N.4   1 <1>  -0.9590 
 27 C        8.4670    -0.1470    -1.1040 C.3   1 <1>   0.3430 
 28 C        9.9170    -1.1680     0.6260 C.3   1 <1>   0.3430 
 29 C        9.5510     0.8790    -1.4380 C.3   1 <1>  -0.1600 
 30 C       11.0260    -0.1590     0.3240 C.3   1 <1>  -0.1600 
 31 C       10.9560     0.3490    -1.1220 C.3   1 <1>  -0.1600 
 32 H       -0.5770     3.5090    -1.2280 H     1 <1>   0.0800 
 33 H       -0.4930     1.8790    -1.8430 H     1 <1>   0.0800 
 34 H       -0.3900    -0.7440     0.6080 H     1 <1>   0.0800 
 35 H       -0.6010    -0.1000    -0.9980 H     1 <1>   0.0800 
 36 H       -2.3950     2.5220     2.5170 H     1 <1>   0.1500 
 37 H       -1.7370    -2.2360    -0.8940 H     1 <1>   0.0800 
 38 H       -2.9110    -0.9600    -1.0600 H     1 <1>   0.0800 
 39 H       -4.3560    -1.9340     3.1030 H     1 <1>   0.1500 
 40 H       -3.7890    -2.3510     0.6470 H     1 <1>   0.0800 
 41 H       -2.2280    -2.5640     1.3900 H     1 <1>   0.0800 
 42 H       -3.7990     2.0580     4.4480 H     1 <1>   0.1500 
 43 H       -4.7940    -0.1740     4.7470 H     1 <1>   0.1500 
 44 H        3.4250    -0.3870    -1.2790 H     1 <1>   0.1500 
 45 H        4.4790     1.7760     2.2330 H     1 <1>   0.1500 
 46 H        5.4780    -1.6740    -1.1180 H     1 <1>   0.1500 
 47 H        6.5330     0.5050     2.4150 H     1 <1>   0.1500 
 48 H        7.4310    -2.3180     0.1050 H     1 <1>   0.0800 
 49 H        7.6180    -1.7780     1.7590 H     1 <1>   0.0800 
 50 H        8.5010     0.3010     0.8810 H     1 <1>   0.4500 
 51 H        7.4980     0.2900    -1.2840 H     1 <1>   0.0800 
 52 H        8.5760    -1.0080    -1.7440 H     1 <1>   0.0800 
 53 H       10.0600    -2.0480     0.0200 H     1 <1>   0.0800 
 54 H        9.9690    -1.4570     1.6640 H     1 <1>   0.0800 
 55 H        9.3660     1.7850    -0.8860 H     1 <1>   0.0800 
 56 H        9.4900     1.1250    -2.4840 H     1 <1>   0.0800 
 57 H       11.9810    -0.6260     0.4900 H     1 <1>   0.0800 
 58 H       10.9530     0.6690     1.0080 H     1 <1>   0.0800 
 59 H       11.6840     1.1300    -1.2720 H     1 <1>   0.0800 
 60 H       11.1970    -0.4550    -1.7980 H     1 <1>   0.0800 
@<TRIPOS>BOND
  1   1   2  2   
  2   2   3  am  
  3   2   4  1   
  4   3   5  1   
  5   3   6  1   
  6   4   7  1   
  7   4  32  1   
  8   4  33  1   
  9   5   8  ar  
 10   5   9  ar  
 11   6  10  1   
 12   6  34  1   
 13   6  35  1   
 14   7  11  1   
 15   7  12  1   
 16   8  13  ar  
 17   8  14  1   
 18   9  15  ar  
 19   9  36  1   
 20  10  14  1   
 21  10  37  1   
 22  10  38  1   
 23  11  16  2   
 24  12  17  2   
 25  13  18  ar  
 26  13  39  1   
 27  14  40  1   
 28  14  41  1   
 29  15  18  ar  
 30  15  42  1   
 31  16  17  1   
 32  17  19  1   
 33  18  43  1   
 34  19  20  ar  
 35  19  21  ar  
 36  20  22  ar  
 37  20  44  1   
 38  21  23  ar  
 39  21  45  1   
 40  22  24  ar  
 41  22  46  1   
 42  23  24  ar  
 43  23  47  1   
 44  24  25  1   
 45  25  26  1   
 46  25  48  1   
 47  25  49  1   
 48  26  27  1   
 49  26  28  1   
 50  26  50  1   
 51  27  29  1   
 52  27  51  1   
 53  27  52  1   
 54  28  30  1   
 55  28  53  1   
 56  28  54  1   
 57  29  31  1   
 58  29  55  1   
 59  29  56  1   
 60  30  31  1   
 61  30  57  1   
 62  30  58  1   
 63  31  59  1   
 64  31  60  1   
@<TRIPOS>SUBSTRUCTURE
  1 ****  17 GROUP 4 **** **** 0

# MOE 2024.06 (io_trps.svl 2023.06)
