@<TRIPOS>MOLECULE
11073
40 41 1 0 0 
SMALL
USER_CHARGES


@<TRIPOS>ATOM
  1 BR       1.6260     1.3570     2.7260 Br    1 <1>  -0.1110 
  2 C        3.1660     1.4920     1.5780 C.ar  1 <1>   0.1110 
  3 C        3.8020     2.7130     1.4620 C.ar  1 <1>  -0.1500 
  4 C        3.5930     0.3640     0.9040 C.ar  1 <1>  -0.1500 
  5 C        4.9110     2.8180     0.6380 C.ar  1 <1>  -0.1440 
  6 C        4.6990     0.4590     0.0760 C.ar  1 <1>  -0.1440 
  7 C        5.3450     1.6880    -0.0600 C.ar  1 <1>   0.0830 
  8 C        5.6210     4.1610     0.5270 C.3   1 <1>  -0.0960 
  9 C        5.1910    -0.7730    -0.6700 C.3   1 <1>  -0.0960 
 10 O        6.4200     1.7670    -0.8760 O.3   1 <1>  -0.3630 
 11 C        6.2090     2.3260    -2.1680 C.3   1 <1>   0.1810 
 12 C        7.1350     3.5120    -2.4270 C.2   1 <1>   0.5690 
 13 O        6.6460     4.5530    -2.7890 O.2   1 <1>  -0.5700 
 14 N        8.4800     3.4320    -2.2620 N.am  1 <1>  -0.7300 
 15 C        9.2810     2.3170    -1.6920 C.3   1 <1>   0.1400 
 16 C        9.5940     2.5740    -0.2110 C.3   1 <1>   0.2000 
 17 O       10.2950     3.7670    -0.0640 O.3   1 <1>  -0.5600 
 18 C       10.4980     1.5310     0.4290 C.3   1 <1>  -0.1600 
 19 C       10.9620     3.7780     1.1560 C.3   1 <1>   0.1200 
 20 C       11.1860     2.3140     1.5360 C.3   1 <1>  -0.1600 
 21 H        3.4320     3.5590     2.0120 H     1 <1>   0.1500 
 22 H        3.0650    -0.5630     1.0330 H     1 <1>   0.1500 
 23 H        5.4050     4.7790     1.3800 H     1 <1>   0.0800 
 24 H        5.2960     4.6770    -0.3590 H     1 <1>   0.0800 
 25 H        6.6860     4.0250     0.4780 H     1 <1>   0.0800 
 26 H        4.6590    -1.6530    -0.3570 H     1 <1>   0.0800 
 27 H        6.2380    -0.9230    -0.4760 H     1 <1>   0.0800 
 28 H        5.0490    -0.6420    -1.7270 H     1 <1>   0.0800 
 29 H        5.1850     2.6460    -2.2510 H     1 <1>   0.0800 
 30 H        6.3950     1.5580    -2.8930 H     1 <1>   0.0800 
 31 H        8.9840     4.3230    -2.2980 H     1 <1>   0.3700 
 32 H       10.2030     2.2300    -2.2400 H     1 <1>   0.0800 
 33 H        8.7500     1.3880    -1.7900 H     1 <1>   0.0800 
 34 H        8.6790     2.6590     0.3520 H     1 <1>   0.0800 
 35 H       11.2250     1.1860    -0.2860 H     1 <1>   0.0800 
 36 H        9.9370     0.6930     0.8020 H     1 <1>   0.0800 
 37 H       10.3370     4.2780     1.8760 H     1 <1>   0.0800 
 38 H       11.8880     4.3140     1.0340 H     1 <1>   0.0800 
 39 H       12.2360     2.0840     1.5920 H     1 <1>   0.0800 
 40 H       10.7320     2.1170     2.4910 H     1 <1>   0.0800 
@<TRIPOS>BOND
  1   1   2  1   
  2   2   3  ar  
  3   2   4  ar  
  4   3   5  ar  
  5   3  21  1   
  6   4   6  ar  
  7   4  22  1   
  8   5   7  ar  
  9   5   8  1   
 10   6   7  ar  
 11   6   9  1   
 12   7  10  1   
 13   8  23  1   
 14   8  24  1   
 15   8  25  1   
 16   9  26  1   
 17   9  27  1   
 18   9  28  1   
 19  10  11  1   
 20  11  12  1   
 21  11  29  1   
 22  11  30  1   
 23  12  13  2   
 24  12  14  am  
 25  14  15  1   
 26  14  31  1   
 27  15  16  1   
 28  15  32  1   
 29  15  33  1   
 30  16  17  1   
 31  16  18  1   
 32  16  34  1   
 33  17  19  1   
 34  18  20  1   
 35  18  35  1   
 36  18  36  1   
 37  19  20  1   
 38  19  37  1   
 39  19  38  1   
 40  20  39  1   
 41  20  40  1   
@<TRIPOS>SUBSTRUCTURE
  1 ****  10 GROUP 4 **** **** 0

# MOE 2024.06 (io_trps.svl 2023.06)
