@<TRIPOS>MOLECULE
3-(2-Methanesulfonyl-6,7-dimethoxy-1,2,3,4-tetrahydro-isoquinolin-1-yl)-6-methyl-1H-quinolin-2-one
54 57 1 0 0 
SMALL
USER_CHARGES


@<TRIPOS>ATOM
  1 S       -0.1190    -0.2720    -0.3430 S.o2  1 <1>   1.3330 
  2 O       -0.0900    -1.4400     0.5040 O.2   1 <1>  -0.6500 
  3 O        1.0930     0.4460    -0.6580 O.2   1 <1>  -0.6500 
  4 N       -1.2510     0.8070     0.2940 N.am  1 <1>  -0.8490 
  5 C       -0.8190    -0.7830    -1.9040 C.3   1 <1>  -0.1350 
  6 C       -1.2320     2.1310    -0.3500 C.3   1 <1>   0.5570 
  7 C       -2.5570     0.1990     0.5780 C.3   1 <1>   0.1960 
  8 C       -0.2110     3.0580     0.3030 C.2   1 <1>  -0.1240 
  9 C       -2.6020     2.8140    -0.4570 C.ar  1 <1>  -0.1440 
 10 C       -3.5370     1.1930     1.1970 C.3   1 <1>  -0.0160 
 11 C       -0.4320     3.5160     1.6440 C.2   1 <1>   0.6160 
 12 C        0.8960     3.4660    -0.3750 C.2   1 <1>  -0.1780 
 13 C       -3.7000     2.3830     0.2720 C.ar  1 <1>  -0.1440 
 14 C       -2.7490     3.8990    -1.3080 C.ar  1 <1>  -0.1500 
 15 O       -1.3830     3.2290     2.3480 O.2   1 <1>  -0.5700 
 16 N        0.4860     4.3620     2.1890 N.am  1 <1>  -0.5470 
 17 C        1.8530     4.3520     0.2160 C.ar  1 <1>   0.0280 
 18 C       -4.9200     3.0290     0.1510 C.ar  1 <1>  -0.1500 
 19 C       -3.9600     4.5560    -1.4400 C.ar  1 <1>   0.0830 
 20 C        1.6240     4.8010     1.5240 C.ar  1 <1>   0.1170 
 21 C        2.9990     4.7880    -0.4510 C.ar  1 <1>  -0.1500 
 22 C       -5.0730     4.1150    -0.7070 C.ar  1 <1>   0.0830 
 23 O       -3.9570     5.6060    -2.3070 O.3   1 <1>  -0.3630 
 24 C        2.5290     5.6690     2.1270 C.ar  1 <1>  -0.1500 
 25 C        3.8940     5.6490     0.1520 C.ar  1 <1>  -0.1430 
 26 O       -6.2770     4.7410    -0.8630 O.3   1 <1>  -0.3630 
 27 C       -4.6720     6.7830    -1.9990 C.3   1 <1>   0.0400 
 28 C        3.6520     6.0900     1.4480 C.ar  1 <1>  -0.1500 
 29 C        5.1390     6.1210    -0.5770 C.3   1 <1>  -0.0970 
 30 C       -7.4230     4.3610    -0.1330 C.3   1 <1>   0.0400 
 31 H       -0.1340    -1.4390    -2.4040 H     1 <1>   0.0800 
 32 H       -1.0000     0.0620    -2.5370 H     1 <1>   0.0800 
 33 H       -1.7370    -1.3140    -1.7520 H     1 <1>   0.0800 
 34 H       -0.9170     1.9910    -1.3690 H     1 <1>   0.0800 
 35 H       -2.4230    -0.6270     1.2570 H     1 <1>   0.0800 
 36 H       -2.9920    -0.1770    -0.3310 H     1 <1>   0.0800 
 37 H       -3.1780     1.5080     2.1590 H     1 <1>   0.0800 
 38 H       -4.4830     0.7050     1.3430 H     1 <1>   0.0800 
 39 H        1.1050     3.1340    -1.3770 H     1 <1>   0.1500 
 40 H       -1.9150     4.2600    -1.8820 H     1 <1>   0.1500 
 41 H        0.2880     4.6500     3.1440 H     1 <1>   0.3700 
 42 H       -5.7430     2.6680     0.7360 H     1 <1>   0.1500 
 43 H        3.1770     4.4370    -1.4520 H     1 <1>   0.1500 
 44 H        2.3460     6.0100     3.1290 H     1 <1>   0.1500 
 45 H       -4.2330     7.5950    -2.5480 H     1 <1>   0.0800 
 46 H       -4.6050     6.9710    -0.9420 H     1 <1>   0.0800 
 47 H       -5.6970     6.6540    -2.2990 H     1 <1>   0.0800 
 48 H        4.3470     6.7620     1.9220 H     1 <1>   0.1500 
 49 H        5.2190     5.6560    -1.5440 H     1 <1>   0.0800 
 50 H        6.0150     5.8720    -0.0060 H     1 <1>   0.0800 
 51 H        5.1020     7.1870    -0.7120 H     1 <1>   0.0800 
 52 H       -8.2310     5.0080    -0.4210 H     1 <1>   0.0800 
 53 H       -7.2210     4.4750     0.9180 H     1 <1>   0.0800 
 54 H       -7.6680     3.3420    -0.3730 H     1 <1>   0.0800 
@<TRIPOS>BOND
  1   1   2  2   
  2   1   3  2   
  3   1   4  am  
  4   1   5  1   
  5   4   6  1   
  6   4   7  1   
  7   5  31  1   
  8   5  32  1   
  9   5  33  1   
 10   6   8  1   
 11   6   9  1   
 12   6  34  1   
 13   7  10  1   
 14   7  35  1   
 15   7  36  1   
 16   8  11  1   
 17   8  12  2   
 18   9  13  ar  
 19   9  14  ar  
 20  10  13  1   
 21  10  37  1   
 22  10  38  1   
 23  11  15  2   
 24  11  16  am  
 25  12  17  1   
 26  12  39  1   
 27  13  18  ar  
 28  14  19  ar  
 29  14  40  1   
 30  16  20  1   
 31  16  41  1   
 32  17  20  ar  
 33  17  21  ar  
 34  18  22  ar  
 35  18  42  1   
 36  19  22  ar  
 37  19  23  1   
 38  20  24  ar  
 39  21  25  ar  
 40  21  43  1   
 41  22  26  1   
 42  23  27  1   
 43  24  28  ar  
 44  24  44  1   
 45  25  28  ar  
 46  25  29  1   
 47  26  30  1   
 48  27  45  1   
 49  27  46  1   
 50  27  47  1   
 51  28  48  1   
 52  29  49  1   
 53  29  50  1   
 54  29  51  1   
 55  30  52  1   
 56  30  53  1   
 57  30  54  1   
@<TRIPOS>SUBSTRUCTURE
  1 ****   8 GROUP 4 **** **** 0

# MOE 2024.06 (io_trps.svl 2023.06)
