@<TRIPOS>MOLECULE
NONAME
53 56 1 0 0 
SMALL
USER_CHARGES


@<TRIPOS>ATOM
  1 O        1.5280     3.1130     2.8240 O.2   1 <1>  -0.5700 
  2 C        1.1120     3.2480     1.7020 C.2   1 <1>   0.4230 
  3 C       -0.2820     3.5040     1.4110 C.ar  1 <1>   0.0860 
  4 C        2.1460     3.1420     0.5730 C.3   1 <1>  -0.0190 
  5 C       -0.8850     3.1490     0.1980 C.ar  1 <1>  -0.1500 
  6 C       -1.0940     4.1240     2.3670 C.ar  1 <1>  -0.1500 
  7 C        2.5860     1.6770     0.3880 C.3   1 <1>  -0.1600 
  8 C        3.3740     4.0310     0.8560 C.3   1 <1>  -0.1600 
  9 C       -2.2140     3.4250    -0.0520 C.ar  1 <1>   0.0830 
 10 C       -2.4260     4.4070     2.1250 C.ar  1 <1>  -0.1500 
 11 C        3.7100     1.5330    -0.6370 C.3   1 <1>   0.3430 
 12 C        4.4750     3.8440    -0.1850 C.3   1 <1>   0.3430 
 13 O       -2.7420     3.0490    -1.2440 O.3   1 <1>  -0.3630 
 14 C       -2.9920     4.0700     0.9090 C.ar  1 <1>   0.0830 
 15 N        4.8530     2.4030    -0.2480 N.4   1 <1>  -0.9590 
 16 C       -4.1560     3.0350    -1.3410 C.3   1 <1>   0.1200 
 17 O       -4.2880     4.3730     0.6750 O.3   1 <1>  -0.3630 
 18 C        6.0370     2.1780    -1.1240 C.3   1 <1>   0.4860 
 19 C       -4.7510     4.2750    -0.6590 C.3   1 <1>   0.1200 
 20 C        7.2210     2.9280    -0.5460 C.ar  1 <1>  -0.1440 
 21 C        7.8260     2.4880     0.6230 C.ar  1 <1>  -0.1500 
 22 C        7.7050     4.0650    -1.1790 C.ar  1 <1>  -0.1500 
 23 C        8.8920     3.1880     1.1570 C.ar  1 <1>  -0.1500 
 24 C        8.7740     4.7640    -0.6440 C.ar  1 <1>  -0.1500 
 25 C        9.3720     4.3270     0.5340 C.ar  1 <1>   0.0830 
 26 O       10.4180     4.9510     1.1270 O.3   1 <1>  -0.3620 
 27 C       11.0300     6.0820     0.5470 C.3   1 <1>   0.0400 
 28 H        1.7080     3.4920    -0.3440 H     1 <1>   0.0800 
 29 H       -0.3360     2.6390    -0.5690 H     1 <1>   0.1500 
 30 H       -0.6670     4.3900     3.3200 H     1 <1>   0.1500 
 31 H        1.7440     1.0870     0.0700 H     1 <1>   0.0800 
 32 H        2.9160     1.2750     1.3310 H     1 <1>   0.0800 
 33 H        3.7800     3.8110     1.8290 H     1 <1>   0.0800 
 34 H        3.0710     5.0640     0.8670 H     1 <1>   0.0800 
 35 H       -3.0320     4.8900     2.8710 H     1 <1>   0.1500 
 36 H        3.3490     1.8170    -1.6120 H     1 <1>   0.0800 
 37 H        4.0250     0.5020    -0.6770 H     1 <1>   0.0800 
 38 H        5.3290     4.4420     0.0940 H     1 <1>   0.0800 
 39 H        4.1260     4.1780    -1.1490 H     1 <1>   0.0800 
 40 H        5.1450     2.1440     0.7040 H     1 <1>   0.4500 
 41 H       -4.5150     2.1390    -0.8650 H     1 <1>   0.0800 
 42 H       -4.4170     3.0090    -2.3830 H     1 <1>   0.0800 
 43 H        5.8330     2.5240    -2.1240 H     1 <1>   0.0800 
 44 H        6.2730     1.1270    -1.1670 H     1 <1>   0.0800 
 45 H       -5.8250     4.2190    -0.6340 H     1 <1>   0.0800 
 46 H       -4.4560     5.1670    -1.1820 H     1 <1>   0.0800 
 47 H        7.4860     1.6020     1.1310 H     1 <1>   0.1500 
 48 H        7.2630     4.4210    -2.0940 H     1 <1>   0.1500 
 49 H        9.3680     2.8560     2.0640 H     1 <1>   0.1500 
 50 H        9.1300     5.6400    -1.1530 H     1 <1>   0.1500 
 51 H       11.8450     6.3820     1.1810 H     1 <1>   0.0800 
 52 H       10.3080     6.8760     0.4800 H     1 <1>   0.0800 
 53 H       11.4050     5.8160    -0.4260 H     1 <1>   0.0800 
@<TRIPOS>BOND
  1   1   2  2   
  2   2   3  1   
  3   2   4  1   
  4   3   5  ar  
  5   3   6  ar  
  6   4   7  1   
  7   4   8  1   
  8   4  28  1   
  9   5   9  ar  
 10   5  29  1   
 11   6  10  ar  
 12   6  30  1   
 13   7  11  1   
 14   7  31  1   
 15   7  32  1   
 16   8  12  1   
 17   8  33  1   
 18   8  34  1   
 19   9  13  1   
 20   9  14  ar  
 21  10  14  ar  
 22  10  35  1   
 23  11  15  1   
 24  11  36  1   
 25  11  37  1   
 26  12  15  1   
 27  12  38  1   
 28  12  39  1   
 29  13  16  1   
 30  14  17  1   
 31  15  18  1   
 32  15  40  1   
 33  16  19  1   
 34  16  41  1   
 35  16  42  1   
 36  17  19  1   
 37  18  20  1   
 38  18  43  1   
 39  18  44  1   
 40  19  45  1   
 41  19  46  1   
 42  20  21  ar  
 43  20  22  ar  
 44  21  23  ar  
 45  21  47  1   
 46  22  24  ar  
 47  22  48  1   
 48  23  25  ar  
 49  23  49  1   
 50  24  25  ar  
 51  24  50  1   
 52  25  26  1   
 53  26  27  1   
 54  27  51  1   
 55  27  52  1   
 56  27  53  1   
@<TRIPOS>SUBSTRUCTURE
  1 ****   4 GROUP 4 **** **** 0

# MOE 2024.06 (io_trps.svl 2023.06)
