@<TRIPOS>MOLECULE
1-(3-p-Tolyl-ureido)-cyclohexanecarboxylic acid (benzo[1,3]dioxol-5-ylmethyl)-amide
57 60 1 0 0 
SMALL
USER_CHARGES


@<TRIPOS>ATOM
  1 O       -0.2370    -0.1650     2.9650 O.2   1 <1>  -0.5700 
  2 C       -0.8940    -0.2290     1.9500 C.2   1 <1>   0.6900 
  3 N       -0.4570    -0.8690     0.8260 N.am  1 <1>  -0.5470 
  4 N       -2.1050     0.3700     1.9760 N.am  1 <1>  -0.7300 
  5 C        0.7310    -1.5410     0.5120 C.ar  1 <1>   0.1170 
  6 C       -3.1080     0.5710     0.8990 C.3   1 <1>   0.3610 
  7 C        0.7530    -2.3200    -0.6380 C.ar  1 <1>  -0.1500 
  8 C        1.8920    -1.4650     1.2750 C.ar  1 <1>  -0.1500 
  9 C       -3.4170    -0.7700     0.1510 C.2   1 <1>   0.5690 
 10 C       -2.5580     1.6570    -0.0560 C.3   1 <1>  -0.1600 
 11 C       -4.3650     1.1480     1.5920 C.3   1 <1>  -0.1600 
 12 C        1.8920    -3.0090    -1.0140 C.ar  1 <1>  -0.1500 
 13 C        3.0330    -2.1530     0.9030 C.ar  1 <1>  -0.1500 
 14 O       -2.7750    -1.0680    -0.8340 O.2   1 <1>  -0.5700 
 15 N       -4.3650    -1.6250     0.6250 N.am  1 <1>  -0.7300 
 16 C       -3.6060     2.1230    -1.0830 C.3   1 <1>  -0.1600 
 17 C       -5.4420     1.5960     0.5880 C.3   1 <1>  -0.1600 
 18 C        3.0410    -2.9310    -0.2430 C.ar  1 <1>  -0.1430 
 19 C       -4.8510    -2.8280    -0.0710 C.3   1 <1>   0.2840 
 20 C       -4.8770     2.6320    -0.3920 C.3   1 <1>  -0.1600 
 21 C        4.2940    -3.6830    -0.6500 C.3   1 <1>  -0.0970 
 22 C       -6.3590    -2.7060    -0.1830 C.ar  1 <1>  -0.1430 
 23 C       -6.9030    -1.8200    -1.1080 C.ar  1 <1>  -0.1500 
 24 C       -7.1970    -3.4600     0.6400 C.ar  1 <1>  -0.1500 
 25 C       -8.2770    -1.7120    -1.1780 C.ar  1 <1>   0.0830 
 26 C       -8.5780    -3.3400     0.5510 C.ar  1 <1>  -0.1500 
 27 O       -9.0060    -0.9280    -1.9780 O.3   1 <1>  -0.3630 
 28 C       -9.0920    -2.4510    -0.3730 C.ar  1 <1>   0.0830 
 29 C      -10.3740    -1.1910    -1.6700 C.3   1 <1>   0.4000 
 30 O      -10.3730    -2.1690    -0.6310 O.3   1 <1>  -0.3620 
 31 H       -1.1680    -0.9300     0.0930 H     1 <1>   0.3700 
 32 H       -2.2860     0.8720     2.8430 H     1 <1>   0.3700 
 33 H       -0.1320    -2.3890    -1.2450 H     1 <1>   0.1500 
 34 H        1.9140    -0.8650     2.1660 H     1 <1>   0.1500 
 35 H       -1.6970     1.2850    -0.5820 H     1 <1>   0.0800 
 36 H       -2.2430     2.5100     0.5210 H     1 <1>   0.0800 
 37 H       -4.0810     2.0090     2.1730 H     1 <1>   0.0800 
 38 H       -4.7860     0.4280     2.2690 H     1 <1>   0.0800 
 39 H        1.8810    -3.6050    -1.9090 H     1 <1>   0.1500 
 40 H        3.9160    -2.0770     1.5120 H     1 <1>   0.1500 
 41 H       -4.9070    -1.3750     1.4520 H     1 <1>   0.3700 
 42 H       -3.8570     1.3080    -1.7400 H     1 <1>   0.0800 
 43 H       -3.1880     2.9090    -1.6890 H     1 <1>   0.0800 
 44 H       -6.2750     2.0250     1.1180 H     1 <1>   0.0800 
 45 H       -5.8130     0.7490     0.0360 H     1 <1>   0.0800 
 46 H       -4.5780    -3.7040     0.4920 H     1 <1>   0.0800 
 47 H       -4.4130    -2.9020    -1.0520 H     1 <1>   0.0800 
 48 H       -5.6200     2.8700    -1.1340 H     1 <1>   0.0800 
 49 H       -4.6490     3.5390     0.1430 H     1 <1>   0.0800 
 50 H        4.0390    -4.5630    -1.2130 H     1 <1>   0.0800 
 51 H        4.8470    -3.9870     0.2210 H     1 <1>   0.0800 
 52 H        4.9170    -3.0500    -1.2550 H     1 <1>   0.0800 
 53 H       -6.2820    -1.2260    -1.7540 H     1 <1>   0.1500 
 54 H       -6.7780    -4.1460     1.3560 H     1 <1>   0.1500 
 55 H       -9.2390    -3.9130     1.1750 H     1 <1>   0.1500 
 56 H      -10.8690    -1.5880    -2.5380 H     1 <1>   0.0800 
 57 H      -10.8440    -0.2910    -1.3180 H     1 <1>   0.0800 
@<TRIPOS>BOND
  1   1   2  2   
  2   2   3  am  
  3   2   4  am  
  4   3   5  1   
  5   3  31  1   
  6   4   6  1   
  7   4  32  1   
  8   5   7  ar  
  9   5   8  ar  
 10   6   9  1   
 11   6  10  1   
 12   6  11  1   
 13   7  12  ar  
 14   7  33  1   
 15   8  13  ar  
 16   8  34  1   
 17   9  14  2   
 18   9  15  am  
 19  10  16  1   
 20  10  35  1   
 21  10  36  1   
 22  11  17  1   
 23  11  37  1   
 24  11  38  1   
 25  12  18  ar  
 26  12  39  1   
 27  13  18  ar  
 28  13  40  1   
 29  15  19  1   
 30  15  41  1   
 31  16  20  1   
 32  16  42  1   
 33  16  43  1   
 34  17  20  1   
 35  17  44  1   
 36  17  45  1   
 37  18  21  1   
 38  19  22  1   
 39  19  46  1   
 40  19  47  1   
 41  20  48  1   
 42  20  49  1   
 43  21  50  1   
 44  21  51  1   
 45  21  52  1   
 46  22  23  ar  
 47  22  24  ar  
 48  23  25  ar  
 49  23  53  1   
 50  24  26  ar  
 51  24  54  1   
 52  25  27  1   
 53  25  28  ar  
 54  26  28  ar  
 55  26  55  1   
 56  27  29  1   
 57  28  30  1   
 58  29  30  1   
 59  29  56  1   
 60  29  57  1   
@<TRIPOS>SUBSTRUCTURE
  1 ****   9 GROUP 4 **** **** 0

# MOE 2024.06 (io_trps.svl 2023.06)
