@<TRIPOS>MOLECULE
3-(2-Methyl-benzoylamino)-9-aza-bicyclo[3.3.1]nonane-9-carboxylic acid (3-fluoro-phenyl)-amide
55 58 1 0 0 
SMALL
USER_CHARGES


@<TRIPOS>ATOM
  1 F        0.8780     0.8670     1.5650 F     1 <1>  -0.1900 
  2 C        1.4520     1.4580     0.5510 C.ar  1 <1>   0.1900 
  3 C        0.8520     2.5760     0.0080 C.ar  1 <1>  -0.1500 
  4 C        2.6370     0.9390     0.0640 C.ar  1 <1>  -0.1500 
  5 C        1.4620     3.2100    -1.0650 C.ar  1 <1>   0.1170 
  6 C        3.2420     1.5730    -1.0090 C.ar  1 <1>  -0.1500 
  7 N        0.8700     4.3290    -1.6450 N.am  1 <1>  -0.5470 
  8 C        2.6570     2.7000    -1.5640 C.ar  1 <1>  -0.1500 
  9 C        1.4090     5.5620    -1.8350 C.2   1 <1>   0.6900 
 10 O        1.1360     6.1080    -2.8880 O.2   1 <1>  -0.5700 
 11 N        2.1780     6.1950    -0.8910 N.am  1 <1>  -0.6600 
 12 C        2.2020     5.9310     0.5590 C.3   1 <1>   0.2200 
 13 C        2.7170     7.5220    -1.0780 C.3   1 <1>   0.2200 
 14 C        3.5390     5.2490     0.7930 C.3   1 <1>  -0.1600 
 15 C        0.8180     6.3330     1.0490 C.3   1 <1>  -0.1600 
 16 C        4.2320     7.3410    -0.7340 C.3   1 <1>  -0.1600 
 17 C        1.8050     8.4760    -0.2190 C.3   1 <1>  -0.1600 
 18 C        4.6040     6.3410     0.4260 C.3   1 <1>   0.2200 
 19 C        0.5500     7.7730     0.4570 C.3   1 <1>  -0.1600 
 20 N        5.9410     5.7410     0.2180 N.am  1 <1>  -0.7300 
 21 C        6.3350     4.8620    -0.7530 C.2   1 <1>   0.5440 
 22 O        5.5380     4.4700    -1.5810 O.2   1 <1>  -0.5700 
 23 C        7.7160     4.4160    -0.7710 C.ar  1 <1>   0.0860 
 24 C        8.0840     3.0700    -0.6550 C.ar  1 <1>  -0.1430 
 25 C        8.7340     5.3630    -0.8920 C.ar  1 <1>  -0.1500 
 26 C        9.4220     2.7070    -0.6580 C.ar  1 <1>  -0.1500 
 27 C        7.0260     1.9820    -0.5280 C.3   1 <1>  -0.0970 
 28 C       10.0670     4.9970    -0.8930 C.ar  1 <1>  -0.1500 
 29 C       10.4120     3.6650    -0.7740 C.ar  1 <1>  -0.1500 
 30 H       -0.0710     2.9490     0.4100 H     1 <1>   0.1500 
 31 H        3.0710     0.0650     0.5140 H     1 <1>   0.1500 
 32 H        4.1660     1.1990    -1.4130 H     1 <1>   0.1500 
 33 H        0.2290     4.1260    -2.4080 H     1 <1>   0.3700 
 34 H        3.1400     3.2020    -2.3860 H     1 <1>   0.1500 
 35 H        2.5720     6.7730     1.1110 H     1 <1>   0.0800 
 36 H        2.6350     7.8130    -2.1130 H     1 <1>   0.0800 
 37 H        3.6350     4.3840     0.1700 H     1 <1>   0.0800 
 38 H        3.6400     4.9560     1.8210 H     1 <1>   0.0800 
 39 H        0.8070     6.3630     2.1240 H     1 <1>   0.0800 
 40 H        0.0730     5.6280     0.7260 H     1 <1>   0.0800 
 41 H        4.6680     8.3030    -0.5390 H     1 <1>   0.0800 
 42 H        4.6860     6.9740    -1.6370 H     1 <1>   0.0800 
 43 H        1.4610     9.2780    -0.8480 H     1 <1>   0.0800 
 44 H        2.4090     8.9300     0.5460 H     1 <1>   0.0800 
 45 H        4.6900     6.9580     1.3050 H     1 <1>   0.0800 
 46 H        0.1380     8.4130     1.2180 H     1 <1>   0.0800 
 47 H       -0.2030     7.6690    -0.3060 H     1 <1>   0.0800 
 48 H        6.6310     5.9880     0.9270 H     1 <1>   0.3700 
 49 H        8.4720     6.4010    -0.9950 H     1 <1>   0.1500 
 50 H        9.7040     1.6720    -0.5710 H     1 <1>   0.1500 
 51 H        6.3080     2.2430     0.2290 H     1 <1>   0.0800 
 52 H        7.4670     1.0380    -0.2650 H     1 <1>   0.0800 
 53 H        6.5130     1.8720    -1.4660 H     1 <1>   0.0800 
 54 H       10.8350     5.7450    -0.9890 H     1 <1>   0.1500 
 55 H       11.4480     3.3720    -0.7750 H     1 <1>   0.1500 
@<TRIPOS>BOND
  1   1   2  1   
  2   2   3  ar  
  3   2   4  ar  
  4   3   5  ar  
  5   3  30  1   
  6   4   6  ar  
  7   4  31  1   
  8   5   7  1   
  9   5   8  ar  
 10   6   8  ar  
 11   6  32  1   
 12   7   9  am  
 13   7  33  1   
 14   8  34  1   
 15   9  10  2   
 16   9  11  am  
 17  11  12  1   
 18  11  13  1   
 19  12  14  1   
 20  12  15  1   
 21  12  35  1   
 22  13  16  1   
 23  13  17  1   
 24  13  36  1   
 25  14  18  1   
 26  14  37  1   
 27  14  38  1   
 28  15  19  1   
 29  15  39  1   
 30  15  40  1   
 31  16  18  1   
 32  16  41  1   
 33  16  42  1   
 34  17  19  1   
 35  17  43  1   
 36  17  44  1   
 37  18  20  1   
 38  18  45  1   
 39  19  46  1   
 40  19  47  1   
 41  20  21  am  
 42  20  48  1   
 43  21  22  2   
 44  21  23  1   
 45  23  24  ar  
 46  23  25  ar  
 47  24  26  ar  
 48  24  27  1   
 49  25  28  ar  
 50  25  49  1   
 51  26  29  ar  
 52  26  50  1   
 53  27  51  1   
 54  27  52  1   
 55  27  53  1   
 56  28  29  ar  
 57  28  54  1   
 58  29  55  1   
@<TRIPOS>SUBSTRUCTURE
  1 ****  14 GROUP 4 **** **** 0

# MOE 2024.06 (io_trps.svl 2023.06)
