@<TRIPOS>MOLECULE
NONAME
59 63 1 0 0 
SMALL
USER_CHARGES


@<TRIPOS>ATOM
  1 S        1.0650     2.3250     0.6380 S.3   1 <1>  -0.2860 
  2 C       -0.2630     1.1270     0.8110 C.2   1 <1>   0.2420 
  3 C        2.0490     2.1420     2.2090 C.3   1 <1>   0.1310 
  4 N       -0.2940     0.3020     1.7970 N.2   1 <1>  -0.3380 
  5 N       -1.2710     0.9660    -0.0510 N.pl3 1 <1>   0.0480 
  6 C        3.1340     1.0790     2.1030 C.2   1 <1>   0.5690 
  7 N       -1.3510    -0.4770     1.5920 N.2   1 <1>  -0.3380 
  8 C       -1.9180    -0.0890     0.4830 C.2   1 <1>   0.1330 
  9 C       -1.6530     1.5750    -1.3680 C.3   1 <1>   0.2560 
 10 O        4.1280     1.2390     2.7700 O.2   1 <1>  -0.5700 
 11 N        2.9470     0.0070     1.2780 N.am  1 <1>  -0.5470 
 12 C       -3.0460    -0.6980    -0.1750 C.ar  1 <1>   0.0530 
 13 C       -3.1720     1.3690    -1.5980 C.3   1 <1>  -0.0160 
 14 C       -1.3690     3.0880    -1.4190 C.3   1 <1>  -0.2400 
 15 C       -0.8520     0.8720    -2.4750 C.3   1 <1>  -0.2400 
 16 C        3.7100    -1.1360     0.9840 C.ar  1 <1>   0.1170 
 17 C       -3.6620    -0.0280    -1.2320 C.ar  1 <1>  -0.1430 
 18 C       -3.5310    -1.9530     0.1850 C.ar  1 <1>  -0.1500 
 19 C        3.3110    -1.9100    -0.1170 C.ar  1 <1>   0.1000 
 20 C        4.8110    -1.5340     1.7320 C.ar  1 <1>  -0.1500 
 21 C       -4.7150    -0.6090    -1.9170 C.ar  1 <1>  -0.1500 
 22 C       -4.5840    -2.5330    -0.4970 C.ar  1 <1>  -0.1500 
 23 N        2.2060    -1.5200    -0.8960 N.pl3 1 <1>  -0.8380 
 24 C        4.0200    -3.0640    -0.4260 C.ar  1 <1>  -0.1500 
 25 C        5.5120    -2.6820     1.4060 C.ar  1 <1>  -0.1500 
 26 C       -5.1750    -1.8620    -1.5530 C.ar  1 <1>  -0.1500 
 27 C        0.8780    -2.1040    -0.5330 C.3   1 <1>   0.2090 
 28 C        2.4130    -1.3050    -2.3620 C.3   1 <1>   0.2090 
 29 C        5.1150    -3.4490     0.3270 C.ar  1 <1>  -0.1500 
 30 C        0.4300    -3.2020    -1.5120 C.3   1 <1>   0.1200 
 31 C        1.8280    -2.4420    -3.2230 C.3   1 <1>   0.1200 
 32 O        0.5200    -2.7570    -2.8370 O.3   1 <1>  -0.5600 
 33 H        1.3660     1.9030     3.0020 H     1 <1>   0.0800 
 34 H        2.5000     3.0970     2.4020 H     1 <1>   0.0800 
 35 H        2.1020     0.0230     0.6990 H     1 <1>   0.3700 
 36 H       -3.4130     1.5840    -2.6240 H     1 <1>   0.0800 
 37 H       -3.7180     2.0720    -0.9920 H     1 <1>   0.0800 
 38 H       -1.7670     3.5800    -0.5490 H     1 <1>   0.0800 
 39 H       -1.8260     3.5210    -2.2910 H     1 <1>   0.0800 
 40 H       -0.3160     3.2880    -1.4880 H     1 <1>   0.0800 
 41 H       -1.0540    -0.1850    -2.4850 H     1 <1>   0.0800 
 42 H        0.2010     1.0230    -2.3230 H     1 <1>   0.0800 
 43 H       -1.1110     1.2710    -3.4400 H     1 <1>   0.0800 
 44 H       -3.0720    -2.4770     1.0050 H     1 <1>   0.1500 
 45 H        5.1260    -0.9520     2.5780 H     1 <1>   0.1500 
 46 H       -5.1890    -0.0920    -2.7330 H     1 <1>   0.1500 
 47 H       -4.9430    -3.5050    -0.2080 H     1 <1>   0.1500 
 48 H        3.7120    -3.6660    -1.2570 H     1 <1>   0.1500 
 49 H        6.3630    -2.9750     1.9960 H     1 <1>   0.1500 
 50 H       -5.9940    -2.3140    -2.0860 H     1 <1>   0.1500 
 51 H        0.9090    -2.4970     0.4690 H     1 <1>   0.0800 
 52 H        0.1460    -1.3240    -0.5540 H     1 <1>   0.0800 
 53 H        3.4650    -1.2090    -2.5660 H     1 <1>   0.0800 
 54 H        1.9470    -0.3800    -2.6450 H     1 <1>   0.0800 
 55 H        5.6570    -4.3440     0.0740 H     1 <1>   0.1500 
 56 H       -0.5950    -3.4650    -1.3210 H     1 <1>   0.0800 
 57 H        1.0410    -4.0800    -1.3960 H     1 <1>   0.0800 
 58 H        1.8020    -2.1440    -4.2550 H     1 <1>   0.0800 
 59 H        2.4310    -3.3280    -3.1400 H     1 <1>   0.0800 
@<TRIPOS>BOND
  1   1   2  1   
  2   1   3  1   
  3   2   4  2   
  4   2   5  1   
  5   3   6  1   
  6   3  33  1   
  7   3  34  1   
  8   4   7  1   
  9   5   8  1   
 10   5   9  1   
 11   6  10  2   
 12   6  11  am  
 13   7   8  2   
 14   8  12  1   
 15   9  13  1   
 16   9  14  1   
 17   9  15  1   
 18  11  16  1   
 19  11  35  1   
 20  12  17  ar  
 21  12  18  ar  
 22  13  17  1   
 23  13  36  1   
 24  13  37  1   
 25  14  38  1   
 26  14  39  1   
 27  14  40  1   
 28  15  41  1   
 29  15  42  1   
 30  15  43  1   
 31  16  19  ar  
 32  16  20  ar  
 33  17  21  ar  
 34  18  22  ar  
 35  18  44  1   
 36  19  23  1   
 37  19  24  ar  
 38  20  25  ar  
 39  20  45  1   
 40  21  26  ar  
 41  21  46  1   
 42  22  26  ar  
 43  22  47  1   
 44  23  27  1   
 45  23  28  1   
 46  24  29  ar  
 47  24  48  1   
 48  25  29  ar  
 49  25  49  1   
 50  26  50  1   
 51  27  30  1   
 52  27  51  1   
 53  27  52  1   
 54  28  31  1   
 55  28  53  1   
 56  28  54  1   
 57  29  55  1   
 58  30  32  1   
 59  30  56  1   
 60  30  57  1   
 61  31  32  1   
 62  31  58  1   
 63  31  59  1   
@<TRIPOS>SUBSTRUCTURE
  1 ****  27 GROUP 4 **** **** 0

# MOE 2024.06 (io_trps.svl 2023.06)
