@<TRIPOS>MOLECULE
7718
38 38 1 0 0 
SMALL
USER_CHARGES


@<TRIPOS>ATOM
  1 O        0.5420    -1.0420    -0.2680 O.2   1 <1>  -0.5700 
  2 C        0.0420    -2.1270    -0.0600 C.2   1 <1>   0.7800 
  3 O       -1.2790    -2.2500     0.0330 O.3   1 <1>  -0.4300 
  4 N        0.7340    -3.2900     0.0900 N.am  1 <1>  -0.5470 
  5 C       -2.1200    -1.1250    -0.1070 C.3   1 <1>   0.1200 
  6 C        2.1040    -3.5920     0.0690 C.ar  1 <1>   0.1170 
  7 C       -3.5690    -1.5860     0.0490 C.3   1 <1>  -0.1600 
  8 C        2.4850    -4.9260     0.0470 C.ar  1 <1>  -0.1500 
  9 C        3.1020    -2.6230     0.0770 C.ar  1 <1>  -0.1500 
 10 C       -4.5420    -0.4090    -0.0930 C.3   1 <1>  -0.1600 
 11 C        3.8210    -5.3290     0.0300 C.ar  1 <1>   0.0860 
 12 C        4.4350    -2.9860     0.0590 C.ar  1 <1>  -0.1500 
 13 C       -5.9930    -0.8730     0.0640 C.3   1 <1>  -0.2400 
 14 C        4.1740    -6.7380     0.0080 C.2   1 <1>   0.6340 
 15 C        4.7890    -4.3220     0.0360 C.ar  1 <1>  -0.1500 
 16 O        3.3490    -7.6280     0.0080 O.2   1 <1>  -0.5700 
 17 O        5.4700    -7.0620    -0.0140 O.3   1 <1>  -0.4300 
 18 C        5.8990    -8.4050    -0.0360 C.3   1 <1>   0.1200 
 19 C        7.4240    -8.4140    -0.0560 C.3   1 <1>  -0.2400 
 20 H        0.1080    -4.0800     0.2170 H     1 <1>   0.3700 
 21 H       -1.9540    -0.6950    -1.0810 H     1 <1>   0.0800 
 22 H       -1.8590    -0.4080     0.6530 H     1 <1>   0.0800 
 23 H       -3.6920    -2.0370     1.0180 H     1 <1>   0.0800 
 24 H       -3.7870    -2.3220    -0.7060 H     1 <1>   0.0800 
 25 H        1.7240    -5.6860     0.0420 H     1 <1>   0.1500 
 26 H        2.8500    -1.5790     0.1000 H     1 <1>   0.1500 
 27 H       -4.4200     0.0490    -1.0600 H     1 <1>   0.0800 
 28 H       -4.3260     0.3330     0.6570 H     1 <1>   0.0800 
 29 H        5.1960    -2.2250     0.0640 H     1 <1>   0.1500 
 30 H       -6.2400    -1.5990    -0.6910 H     1 <1>   0.0800 
 31 H       -6.6600    -0.0350    -0.0390 H     1 <1>   0.0800 
 32 H       -6.1460    -1.3140     1.0330 H     1 <1>   0.0800 
 33 H        5.8330    -4.5860     0.0220 H     1 <1>   0.1500 
 34 H        5.4970    -8.8770    -0.9170 H     1 <1>   0.0800 
 35 H        5.5200    -8.8990     0.8440 H     1 <1>   0.0800 
 36 H        7.7860    -7.9100    -0.9340 H     1 <1>   0.0800 
 37 H        7.7790    -9.4290    -0.0740 H     1 <1>   0.0800 
 38 H        7.8090    -7.9310     0.8230 H     1 <1>   0.0800 
@<TRIPOS>BOND
  1   1   2  2   
  2   2   3  1   
  3   2   4  am  
  4   3   5  1   
  5   4   6  1   
  6   4  20  1   
  7   5   7  1   
  8   5  21  1   
  9   5  22  1   
 10   6   8  ar  
 11   6   9  ar  
 12   7  10  1   
 13   7  23  1   
 14   7  24  1   
 15   8  11  ar  
 16   8  25  1   
 17   9  12  ar  
 18   9  26  1   
 19  10  13  1   
 20  10  27  1   
 21  10  28  1   
 22  11  14  1   
 23  11  15  ar  
 24  12  15  ar  
 25  12  29  1   
 26  13  30  1   
 27  13  31  1   
 28  13  32  1   
 29  14  16  2   
 30  14  17  1   
 31  15  33  1   
 32  17  18  1   
 33  18  19  1   
 34  18  34  1   
 35  18  35  1   
 36  19  36  1   
 37  19  37  1   
 38  19  38  1   
@<TRIPOS>SUBSTRUCTURE
  1 ****   6 GROUP 4 **** **** 0

# MOE 2024.06 (io_trps.svl 2023.06)
