@<TRIPOS>MOLECULE
N-Adamantan-1-yl-4-(4-oxo-3,4-dihydro-quinazolin-2-yl)-butyramide
54 58 1 0 0 
SMALL
USER_CHARGES


@<TRIPOS>ATOM
  1 O       -4.4600     0.5920    -2.5230 O.2   1 <1>  -0.5700 
  2 C       -4.1300    -0.0780    -1.5620 C.2   1 <1>   0.6950 
  3 N       -4.6740     0.2550    -0.3470 N.2   1 <1>  -0.6610 
  4 C       -3.2080    -1.1780    -1.6990 C.ar  1 <1>   0.0860 
  5 C       -4.3480    -0.4380     0.6760 C.2   1 <1>   0.4390 
  6 C       -2.8930    -1.8990    -0.5460 C.ar  1 <1>   0.1000 
  7 C       -2.6140    -1.5650    -2.9060 C.ar  1 <1>  -0.1500 
  8 N       -3.4930    -1.4950     0.6320 N.pl3 1 <1>  -0.5500 
  9 C       -4.9590    -0.0720     2.0130 C.3   1 <1>  -0.0990 
 10 C       -2.0110    -2.9750    -0.6020 C.ar  1 <1>  -0.1500 
 11 C       -1.7410    -2.6320    -2.9580 C.ar  1 <1>  -0.1500 
 12 C       -6.4400    -0.4980     2.0800 C.3   1 <1>  -0.1600 
 13 C       -1.4380    -3.3390    -1.8020 C.ar  1 <1>  -0.1500 
 14 C       -7.3160     0.5140     2.8430 C.3   1 <1>  -0.0990 
 15 C       -7.5430     1.8610     2.1670 C.2   1 <1>   0.5690 
 16 O       -8.1990     2.6700     2.7760 O.2   1 <1>  -0.5700 
 17 N       -7.0220     2.1110     0.9340 N.am  1 <1>  -0.7300 
 18 C       -7.1450     3.3270     0.1130 C.3   1 <1>   0.3000 
 19 C       -8.6210     3.6080    -0.2300 C.3   1 <1>  -0.1600 
 20 C       -6.3690     3.0890    -1.1950 C.3   1 <1>  -0.1600 
 21 C       -6.5340     4.5430     0.8350 C.3   1 <1>  -0.1600 
 22 C       -8.7250     4.8550    -1.1300 C.3   1 <1>  -0.0800 
 23 C       -6.4600     4.3250    -2.1090 C.3   1 <1>  -0.0800 
 24 C       -6.6320     5.7920    -0.0630 C.3   1 <1>  -0.0800 
 25 C       -7.9400     4.6050    -2.4320 C.3   1 <1>  -0.1600 
 26 C       -8.1130     6.0630    -0.3930 C.3   1 <1>  -0.1600 
 27 C       -5.8610     5.5370    -1.3730 C.3   1 <1>  -0.1600 
 28 H       -2.8510    -1.0150    -3.8010 H     1 <1>   0.1500 
 29 H       -3.2880    -2.0030     1.4940 H     1 <1>   0.4000 
 30 H       -4.8650     0.9940     2.1280 H     1 <1>   0.0800 
 31 H       -4.4100    -0.5210     2.8200 H     1 <1>   0.0800 
 32 H       -1.7750    -3.5240     0.2920 H     1 <1>   0.1500 
 33 H       -1.2920    -2.9190    -3.8940 H     1 <1>   0.1500 
 34 H       -6.5040    -1.4580     2.5620 H     1 <1>   0.0800 
 35 H       -6.8470    -0.6170     1.0890 H     1 <1>   0.0800 
 36 H       -0.7550    -4.1710    -1.8510 H     1 <1>   0.1500 
 37 H       -6.8930     0.6960     3.8140 H     1 <1>   0.0800 
 38 H       -8.2860     0.0780     2.9970 H     1 <1>   0.0800 
 39 H       -6.4230     1.4050     0.4900 H     1 <1>   0.3700 
 40 H       -9.1810     3.7790     0.6720 H     1 <1>   0.0800 
 41 H       -9.0450     2.7580    -0.7340 H     1 <1>   0.0800 
 42 H       -6.7680     2.2330    -1.7100 H     1 <1>   0.0800 
 43 H       -5.3350     2.8920    -0.9760 H     1 <1>   0.0800 
 44 H       -5.5050     4.3440     1.0720 H     1 <1>   0.0800 
 45 H       -7.0620     4.7290     1.7520 H     1 <1>   0.0800 
 46 H       -9.7580     5.0520    -1.3590 H     1 <1>   0.0800 
 47 H       -5.9140     4.1410    -3.0190 H     1 <1>   0.0800 
 48 H       -6.2110     6.6410     0.4490 H     1 <1>   0.0800 
 49 H       -8.0150     5.4650    -3.0740 H     1 <1>   0.0800 
 50 H       -8.3620     3.7670    -2.9580 H     1 <1>   0.0800 
 51 H       -8.6590     6.2460     0.5170 H     1 <1>   0.0800 
 52 H       -8.1950     6.9430    -1.0060 H     1 <1>   0.0800 
 53 H       -5.9140     6.4080    -2.0020 H     1 <1>   0.0800 
 54 H       -4.8230     5.3540    -1.1550 H     1 <1>   0.0800 
@<TRIPOS>BOND
  1   1   2  2   
  2   2   3  1   
  3   2   4  1   
  4   3   5  2   
  5   4   6  ar  
  6   4   7  ar  
  7   5   8  1   
  8   5   9  1   
  9   6   8  1   
 10   6  10  ar  
 11   7  11  ar  
 12   7  28  1   
 13   8  29  1   
 14   9  12  1   
 15   9  30  1   
 16   9  31  1   
 17  10  13  ar  
 18  10  32  1   
 19  11  13  ar  
 20  11  33  1   
 21  12  14  1   
 22  12  34  1   
 23  12  35  1   
 24  13  36  1   
 25  14  15  1   
 26  14  37  1   
 27  14  38  1   
 28  15  16  2   
 29  15  17  am  
 30  17  18  1   
 31  17  39  1   
 32  18  19  1   
 33  18  20  1   
 34  18  21  1   
 35  19  22  1   
 36  19  40  1   
 37  19  41  1   
 38  20  23  1   
 39  20  42  1   
 40  20  43  1   
 41  21  24  1   
 42  21  44  1   
 43  21  45  1   
 44  22  25  1   
 45  22  26  1   
 46  22  46  1   
 47  23  25  1   
 48  23  27  1   
 49  23  47  1   
 50  24  26  1   
 51  24  27  1   
 52  24  48  1   
 53  25  49  1   
 54  25  50  1   
 55  26  51  1   
 56  26  52  1   
 57  27  53  1   
 58  27  54  1   
@<TRIPOS>SUBSTRUCTURE
  1 ****   3 GROUP 4 **** **** 0

# MOE 2024.06 (io_trps.svl 2023.06)
