@<TRIPOS>MOLECULE
3-[2-(2,2-Dimethyl-propionyl)-6,7-dimethoxy-1,2,3,4-tetrahydro-isoquinolin-1-yl]-6-methyl-1H-quinolin-2-one
62 65 1 0 0 
SMALL
USER_CHARGES


@<TRIPOS>ATOM
  1 O        1.0450    -2.3170    -2.1210 O.2   1 <1>  -0.5700 
  2 C        1.9090    -1.9390    -1.3500 C.2   1 <1>   0.6160 
  3 N        2.9230    -1.2030    -1.8850 N.am  1 <1>  -0.5470 
  4 C        1.9560    -2.2180     0.0560 C.2   1 <1>  -0.1240 
  5 C        4.0080    -0.7370    -1.1530 C.ar  1 <1>   0.1170 
  6 C        3.0050    -1.7800     0.8030 C.2   1 <1>  -0.1780 
  7 C        0.8210    -3.0150     0.6910 C.3   1 <1>   0.5020 
  8 C        4.0710    -1.0250     0.2180 C.ar  1 <1>   0.0280 
  9 C        5.0250     0.0000    -1.7520 C.ar  1 <1>  -0.1500 
 10 N        0.8120    -4.4120     0.1630 N.am  1 <1>  -0.6600 
 11 C       -0.5130    -2.2680     0.5510 C.ar  1 <1>  -0.1430 
 12 C        5.1650    -0.5640     0.9520 C.ar  1 <1>  -0.1500 
 13 C        6.0950     0.4480    -1.0080 C.ar  1 <1>  -0.1500 
 14 C        1.9510    -5.1550     0.3160 C.2   1 <1>   0.5690 
 15 C       -0.5250    -5.0260    -0.0590 C.3   1 <1>   0.1400 
 16 C       -1.5680    -2.7700    -0.1980 C.ar  1 <1>  -0.1430 
 17 C       -0.6680    -1.0480     1.1920 C.ar  1 <1>  -0.1500 
 18 C        6.1710     0.1660     0.3510 C.ar  1 <1>  -0.1440 
 19 O        2.6360    -4.9900     1.3020 O.2   1 <1>  -0.5700 
 20 C        2.4220    -6.1930    -0.7460 C.3   1 <1>   0.0610 
 21 C       -1.4090    -4.1070    -0.8980 C.3   1 <1>  -0.0170 
 22 C       -2.7520    -2.0570    -0.3030 C.ar  1 <1>  -0.1500 
 23 C       -1.8430    -0.3240     1.0920 C.ar  1 <1>   0.0830 
 24 C        7.3600     0.6670     1.1520 C.3   1 <1>  -0.0970 
 25 C        1.9420    -5.8520    -2.1740 C.3   1 <1>  -0.2400 
 26 C        1.9530    -7.6110    -0.3720 C.3   1 <1>  -0.2400 
 27 C        3.9660    -6.2160    -0.8070 C.3   1 <1>  -0.2400 
 28 C       -2.9130    -0.8330     0.3430 C.ar  1 <1>   0.0830 
 29 O       -1.8560     0.8620     1.7610 O.3   1 <1>  -0.3630 
 30 O       -4.0840    -0.1340     0.2760 O.3   1 <1>  -0.3620 
 31 C       -2.4140     2.0040     1.1490 C.3   1 <1>   0.0400 
 32 C       -5.2120    -0.6250    -0.4130 C.3   1 <1>   0.0400 
 33 H        2.8410    -1.0220    -2.8830 H     1 <1>   0.3700 
 34 H        3.0770    -1.9920     1.8550 H     1 <1>   0.1500 
 35 H        1.0160    -3.0860     1.7470 H     1 <1>   0.0800 
 36 H        4.9710     0.2190    -2.8020 H     1 <1>   0.1500 
 37 H        5.2130    -0.7900     2.0010 H     1 <1>   0.1500 
 38 H        6.8770     1.0170    -1.4800 H     1 <1>   0.1500 
 39 H       -0.9910    -5.1870     0.8980 H     1 <1>   0.0800 
 40 H       -0.4350    -5.9780    -0.5450 H     1 <1>   0.0800 
 41 H        0.1330    -0.6350     1.7780 H     1 <1>   0.1500 
 42 H       -2.3700    -4.5700    -1.0300 H     1 <1>   0.0800 
 43 H       -0.9700    -3.9630    -1.8690 H     1 <1>   0.0800 
 44 H       -3.5420    -2.4750    -0.8950 H     1 <1>   0.1500 
 45 H        7.2880     0.3610     2.1800 H     1 <1>   0.0800 
 46 H        7.4000     1.7400     1.1150 H     1 <1>   0.0800 
 47 H        8.2710     0.2700     0.7400 H     1 <1>   0.0800 
 48 H        0.8760    -5.9210    -2.2660 H     1 <1>   0.0800 
 49 H        2.3750    -6.5250    -2.8920 H     1 <1>   0.0800 
 50 H        2.2340    -4.8490    -2.4310 H     1 <1>   0.0800 
 51 H        2.3120    -7.8690     0.6090 H     1 <1>   0.0800 
 52 H        2.3330    -8.3330    -1.0730 H     1 <1>   0.0800 
 53 H        0.8820    -7.6800    -0.3660 H     1 <1>   0.0800 
 54 H        4.3410    -5.2360    -1.0430 H     1 <1>   0.0800 
 55 H        4.3160    -6.9070    -1.5530 H     1 <1>   0.0800 
 56 H        4.3780    -6.5100     0.1430 H     1 <1>   0.0800 
 57 H       -1.9700     2.8750     1.5960 H     1 <1>   0.0800 
 58 H       -3.4750     2.0080     1.3230 H     1 <1>   0.0800 
 59 H       -2.2010     1.9790     0.0950 H     1 <1>   0.0800 
 60 H       -6.0080     0.0880    -0.3010 H     1 <1>   0.0800 
 61 H       -5.5030    -1.5670     0.0190 H     1 <1>   0.0800 
 62 H       -4.9650    -0.7350    -1.4540 H     1 <1>   0.0800 
@<TRIPOS>BOND
  1   1   2  2   
  2   2   3  am  
  3   2   4  1   
  4   3   5  1   
  5   3  33  1   
  6   4   6  2   
  7   4   7  1   
  8   5   8  ar  
  9   5   9  ar  
 10   6   8  1   
 11   6  34  1   
 12   7  10  1   
 13   7  11  1   
 14   7  35  1   
 15   8  12  ar  
 16   9  13  ar  
 17   9  36  1   
 18  10  14  am  
 19  10  15  1   
 20  11  16  ar  
 21  11  17  ar  
 22  12  18  ar  
 23  12  37  1   
 24  13  18  ar  
 25  13  38  1   
 26  14  19  2   
 27  14  20  1   
 28  15  21  1   
 29  15  39  1   
 30  15  40  1   
 31  16  21  1   
 32  16  22  ar  
 33  17  23  ar  
 34  17  41  1   
 35  18  24  1   
 36  20  25  1   
 37  20  26  1   
 38  20  27  1   
 39  21  42  1   
 40  21  43  1   
 41  22  28  ar  
 42  22  44  1   
 43  23  28  ar  
 44  23  29  1   
 45  24  45  1   
 46  24  46  1   
 47  24  47  1   
 48  25  48  1   
 49  25  49  1   
 50  25  50  1   
 51  26  51  1   
 52  26  52  1   
 53  26  53  1   
 54  27  54  1   
 55  27  55  1   
 56  27  56  1   
 57  28  30  1   
 58  29  31  1   
 59  30  32  1   
 60  31  57  1   
 61  31  58  1   
 62  31  59  1   
 63  32  60  1   
 64  32  61  1   
 65  32  62  1   
@<TRIPOS>SUBSTRUCTURE
  1 ****   4 GROUP 4 **** **** 0

# MOE 2024.06 (io_trps.svl 2023.06)
