@<TRIPOS>MOLECULE
NONAME
48 50 1 0 0 
SMALL
USER_CHARGES


@<TRIPOS>ATOM
  1 S       -0.6300     0.5250     0.0790 S.3   1 <1>  -0.2860 
  2 C        1.0870     0.4010     0.5660 C.2   1 <1>   0.2420 
  3 C       -1.2930     1.8150     1.2450 C.3   1 <1>   0.1310 
  4 N        1.6050     1.1730     1.4520 N.2   1 <1>  -0.5650 
  5 N        1.9190    -0.5130     0.0060 N.pl3 1 <1>   0.0480 
  6 C       -2.7410     2.1580     0.9330 C.2   1 <1>   0.5690 
  7 C        2.8990     0.7540     1.5000 C.ar  1 <1>   0.2270 
  8 C        3.1200    -0.2860     0.6090 C.ar  1 <1>  -0.1520 
  9 C        1.6060    -1.5230    -1.0230 C.3   1 <1>   0.2390 
 10 O       -3.4300     2.5820     1.8300 O.2   1 <1>  -0.5700 
 11 N       -3.1990     1.9910    -0.3400 N.am  1 <1>  -0.7300 
 12 C        3.9450     1.2290     2.2890 C.ar  1 <1>  -0.1500 
 13 C        4.3840    -0.8680     0.4830 C.ar  1 <1>  -0.1500 
 14 C        0.9900    -2.7640    -0.3900 C.ar  1 <1>  -0.1430 
 15 C       -4.5340     2.2390    -0.8880 C.3   1 <1>   0.3000 
 16 C        5.1930     0.6570     2.1700 C.ar  1 <1>  -0.1500 
 17 C        5.4110    -0.3900     1.2670 C.ar  1 <1>  -0.1500 
 18 C       -0.3650    -3.0300    -0.5540 C.ar  1 <1>  -0.1500 
 19 C        1.7790    -3.6330     0.3560 C.ar  1 <1>  -0.1500 
 20 C       -5.5560     1.3530    -0.1760 C.3   1 <1>  -0.2400 
 21 C       -4.4720     1.8640    -2.3670 C.3   1 <1>  -0.2400 
 22 C       -4.8830     3.7200    -0.7460 C.3   1 <1>  -0.2400 
 23 C       -0.9320    -4.1570     0.0180 C.ar  1 <1>  -0.1500 
 24 C        1.2240    -4.7640     0.9310 C.ar  1 <1>  -0.1500 
 25 C       -0.1240    -5.0040     0.7500 C.ar  1 <1>   0.1900 
 26 F       -0.6520    -6.0690     1.2890 F     1 <1>  -0.1900 
 27 H       -0.6740     2.6860     1.1460 H     1 <1>   0.0800 
 28 H       -1.2060     1.4170     2.2390 H     1 <1>   0.0800 
 29 H        2.5110    -1.7880    -1.5380 H     1 <1>   0.0800 
 30 H        0.9310    -1.0920    -1.7390 H     1 <1>   0.0800 
 31 H       -2.5520     1.5810    -1.0130 H     1 <1>   0.3700 
 32 H        3.7500     2.0330     2.9740 H     1 <1>   0.1500 
 33 H        4.5530    -1.6700    -0.2130 H     1 <1>   0.1500 
 34 H        6.0120     1.0120     2.7720 H     1 <1>   0.1500 
 35 H        6.3960    -0.8180     1.1920 H     1 <1>   0.1500 
 36 H       -0.9890    -2.3610    -1.1220 H     1 <1>   0.1500 
 37 H        2.8270    -3.4330     0.4980 H     1 <1>   0.1500 
 38 H       -5.2720     0.3190    -0.2440 H     1 <1>   0.0800 
 39 H       -6.5260     1.4730    -0.6230 H     1 <1>   0.0800 
 40 H       -5.6350     1.6250     0.8610 H     1 <1>   0.0800 
 41 H       -4.2170     0.8270    -2.4850 H     1 <1>   0.0800 
 42 H       -3.7460     2.4700    -2.8800 H     1 <1>   0.0800 
 43 H       -5.4290     2.0280    -2.8280 H     1 <1>   0.0800 
 44 H       -4.9600     3.9940     0.2910 H     1 <1>   0.0800 
 45 H       -5.8290     3.9250    -1.2130 H     1 <1>   0.0800 
 46 H       -4.1310     4.3310    -1.2120 H     1 <1>   0.0800 
 47 H       -1.9780    -4.3760    -0.0970 H     1 <1>   0.1500 
 48 H        1.8200    -5.4460     1.5110 H     1 <1>   0.1500 
@<TRIPOS>BOND
  1   1   2  1   
  2   1   3  1   
  3   2   4  2   
  4   2   5  1   
  5   3   6  1   
  6   3  27  1   
  7   3  28  1   
  8   4   7  1   
  9   5   8  1   
 10   5   9  1   
 11   6  10  2   
 12   6  11  am  
 13   7   8  ar  
 14   7  12  ar  
 15   8  13  ar  
 16   9  14  1   
 17   9  29  1   
 18   9  30  1   
 19  11  15  1   
 20  11  31  1   
 21  12  16  ar  
 22  12  32  1   
 23  13  17  ar  
 24  13  33  1   
 25  14  18  ar  
 26  14  19  ar  
 27  15  20  1   
 28  15  21  1   
 29  15  22  1   
 30  16  17  ar  
 31  16  34  1   
 32  17  35  1   
 33  18  23  ar  
 34  18  36  1   
 35  19  24  ar  
 36  19  37  1   
 37  20  38  1   
 38  20  39  1   
 39  20  40  1   
 40  21  41  1   
 41  21  42  1   
 42  21  43  1   
 43  22  44  1   
 44  22  45  1   
 45  22  46  1   
 46  23  25  ar  
 47  23  47  1   
 48  24  25  ar  
 49  24  48  1   
 50  25  26  1   
@<TRIPOS>SUBSTRUCTURE
  1 ****   1 GROUP 4 **** **** 0

# MOE 2024.06 (io_trps.svl 2023.06)
