@<TRIPOS>MOLECULE
NONAME
35 36 1 0 0 
SMALL
USER_CHARGES


@<TRIPOS>ATOM
  1 S       -0.7520    -0.4880    -1.5460 S.3   1 <1>  -0.9360 
  2 C       -2.2690     0.0400    -1.3160 C.cat 1 <1>   0.7360 
  3 N       -2.7840     1.1100    -1.8770 N.pl3 1 <1>  -0.3930 
  4 N       -3.1870    -0.5150    -0.5460 N.pl3 1 <1>  -0.7640 
  5 N       -4.0780     1.2850    -1.4800 N.2   1 <1>  -0.2600 
  6 C       -4.2920     0.2990    -0.6820 C.2   1 <1>   0.4850 
  7 C       -2.9620    -1.7450     0.2390 C.3   1 <1>   0.3540 
  8 C       -5.6050     0.0200     0.0430 C.3   1 <1>   0.1520 
  9 C       -3.6560    -2.9250    -0.4370 C.3   1 <1>  -0.1600 
 10 C       -6.5200     1.2360     0.1300 C.ar  1 <1>  -0.1440 
 11 C       -3.2940    -4.2350     0.2560 C.3   1 <1>   0.1200 
 12 C       -7.5960     1.3730    -0.7350 C.ar  1 <1>  -0.1500 
 13 C       -6.2820     2.2190     1.0800 C.ar  1 <1>  -0.1500 
 14 O       -4.1270    -5.2170    -0.2560 O.3   1 <1>  -0.5600 
 15 C       -8.4260     2.4770    -0.6480 C.ar  1 <1>  -0.1500 
 16 C       -7.1130     3.3220     1.1670 C.ar  1 <1>  -0.1500 
 17 C       -3.8420    -6.4990     0.2030 C.3   1 <1>   0.0400 
 18 C       -8.1860     3.4520     0.3040 C.ar  1 <1>  -0.1500 
 19 H       -2.2380     1.6890    -2.5140 H     1 <1>   0.4500 
 20 H       -3.3380    -1.6100     1.2380 H     1 <1>   0.0800 
 21 H       -1.9050    -1.9440     0.3140 H     1 <1>   0.0800 
 22 H       -5.3880    -0.3150     1.0390 H     1 <1>   0.0800 
 23 H       -6.1110    -0.7780    -0.4680 H     1 <1>   0.0800 
 24 H       -3.3370    -2.9820    -1.4640 H     1 <1>   0.0800 
 25 H       -4.7200    -2.7900    -0.3990 H     1 <1>   0.0800 
 26 H       -3.4590    -4.1730     1.3190 H     1 <1>   0.0800 
 27 H       -2.2690    -4.5000     0.0550 H     1 <1>   0.0800 
 28 H       -7.7970     0.6270    -1.4840 H     1 <1>   0.1500 
 29 H       -5.4500     2.1360     1.7580 H     1 <1>   0.1500 
 30 H       -9.2600     2.5790    -1.3210 H     1 <1>   0.1500 
 31 H       -6.9240     4.0820     1.9060 H     1 <1>   0.1500 
 32 H       -4.5460    -7.1790    -0.2450 H     1 <1>   0.0800 
 33 H       -3.9430    -6.5260     1.2740 H     1 <1>   0.0800 
 34 H       -2.8420    -6.7690    -0.0930 H     1 <1>   0.0800 
 35 H       -8.8320     4.3100     0.3720 H     1 <1>   0.1500 
@<TRIPOS>BOND
  1   1   2  1   
  2   2   3  ar  
  3   2   4  ar  
  4   3   5  1   
  5   3  19  1   
  6   4   6  1   
  7   4   7  1   
  8   5   6  2   
  9   6   8  1   
 10   7   9  1   
 11   7  20  1   
 12   7  21  1   
 13   8  10  1   
 14   8  22  1   
 15   8  23  1   
 16   9  11  1   
 17   9  24  1   
 18   9  25  1   
 19  10  12  ar  
 20  10  13  ar  
 21  11  14  1   
 22  11  26  1   
 23  11  27  1   
 24  12  15  ar  
 25  12  28  1   
 26  13  16  ar  
 27  13  29  1   
 28  14  17  1   
 29  15  18  ar  
 30  15  30  1   
 31  16  18  ar  
 32  16  31  1   
 33  17  32  1   
 34  17  33  1   
 35  17  34  1   
 36  18  35  1   
@<TRIPOS>SUBSTRUCTURE
  1 ****   6 GROUP 4 **** **** 0

# MOE 2024.06 (io_trps.svl 2023.06)
