@<TRIPOS>MOLECULE
NONAME
54 56 1 0 0 
SMALL
USER_CHARGES


@<TRIPOS>ATOM
  1 O        1.7430     0.3200    -0.7880 O.2   1 <1>  -0.5700 
  2 C        1.2980     0.2700     0.3410 C.2   1 <1>   0.6900 
  3 N        1.3430    -0.8760     1.0770 N.am  1 <1>  -0.5470 
  4 N        0.7600     1.3630     0.9340 N.am  1 <1>  -0.7300 
  5 C        1.7550    -2.1700     0.7280 C.ar  1 <1>   0.1170 
  6 C        0.6180     2.7720     0.4300 C.3   1 <1>   0.3610 
  7 C        1.6860    -2.6590    -0.5740 C.ar  1 <1>  -0.1500 
  8 C        2.2340    -3.0140     1.7240 C.ar  1 <1>  -0.1500 
  9 C        1.9930     3.4710     0.1520 C.2   1 <1>   0.5690 
 10 C       -0.1680     3.4970     1.5660 C.3   1 <1>  -0.1600 
 11 C       -0.2210     2.7750    -0.8790 C.3   1 <1>  -0.1600 
 12 C        2.0900    -3.9480    -0.8710 C.ar  1 <1>  -0.1500 
 13 C        2.6380    -4.3040     1.4320 C.ar  1 <1>  -0.1500 
 14 O        2.1820     4.6040     0.5400 O.2   1 <1>  -0.5700 
 15 N        2.9530     2.8020    -0.5480 N.am  1 <1>  -0.7300 
 16 C       -1.1190     4.5840     1.0420 C.3   1 <1>  -0.1600 
 17 C       -1.7350     2.7260    -0.6270 C.3   1 <1>  -0.1600 
 18 C        2.5670    -4.7730     0.1320 C.ar  1 <1>  -0.1500 
 19 C        4.3100     3.2270    -0.9390 C.3   1 <1>   0.2200 
 20 C       -2.2080     3.9760     0.1380 C.3   1 <1>  -0.1600 
 21 C        5.1740     3.5060     0.2970 C.3   1 <1>  -0.1600 
 22 C        4.2550     4.4380    -1.8790 C.3   1 <1>  -0.1600 
 23 C        6.5880     3.9480    -0.1100 C.3   1 <1>  -0.1600 
 24 C        5.6690     4.8800    -2.2860 C.3   1 <1>  -0.1600 
 25 C        6.5380     5.1610    -1.0520 C.3   1 <1>  -0.1600 
 26 H        1.1400    -0.7470     2.0610 H     1 <1>   0.3700 
 27 H        0.3690     1.2500     1.8630 H     1 <1>   0.3700 
 28 H        1.3120    -2.0320    -1.3620 H     1 <1>   0.1500 
 29 H        2.2970    -2.6610     2.7370 H     1 <1>   0.1500 
 30 H        0.5180     3.9340     2.2710 H     1 <1>   0.0800 
 31 H       -0.7760     2.7960     2.1100 H     1 <1>   0.0800 
 32 H        0.0700     1.9700    -1.5270 H     1 <1>   0.0800 
 33 H       -0.0100     3.6840    -1.4160 H     1 <1>   0.0800 
 34 H        2.0320    -4.3090    -1.8830 H     1 <1>   0.1500 
 35 H        3.0090    -4.9450     2.2130 H     1 <1>   0.1500 
 36 H        2.7140     1.8410    -0.8380 H     1 <1>   0.3700 
 37 H       -0.5470     5.3070     0.4840 H     1 <1>   0.0800 
 38 H       -1.5800     5.1030     1.8650 H     1 <1>   0.0800 
 39 H       -1.9650     1.8420    -0.0570 H     1 <1>   0.0800 
 40 H       -2.2620     2.6550    -1.5630 H     1 <1>   0.0800 
 41 H        2.8820    -5.7760    -0.0990 H     1 <1>   0.1500 
 42 H        4.7610     2.4110    -1.4790 H     1 <1>   0.0800 
 43 H       -2.5250     4.7280    -0.5640 H     1 <1>   0.0800 
 44 H       -3.0650     3.7110     0.7330 H     1 <1>   0.0800 
 45 H        5.2350     2.6170     0.9000 H     1 <1>   0.0800 
 46 H        4.7230     4.2860     0.8840 H     1 <1>   0.0800 
 47 H        3.7660     5.2580    -1.3830 H     1 <1>   0.0800 
 48 H        3.6890     4.1840    -2.7580 H     1 <1>   0.0800 
 49 H        7.0890     3.1330    -0.6040 H     1 <1>   0.0800 
 50 H        7.1530     4.2000     0.7710 H     1 <1>   0.0800 
 51 H        5.6060     5.7680    -2.8920 H     1 <1>   0.0800 
 52 H        6.1280     4.1080    -2.8790 H     1 <1>   0.0800 
 53 H        7.5350     5.4180    -1.3630 H     1 <1>   0.0800 
 54 H        6.1310     6.0040    -0.5190 H     1 <1>   0.0800 
@<TRIPOS>BOND
  1   1   2  2   
  2   2   3  am  
  3   2   4  am  
  4   3   5  1   
  5   3  26  1   
  6   4   6  1   
  7   4  27  1   
  8   5   7  ar  
  9   5   8  ar  
 10   6   9  1   
 11   6  10  1   
 12   6  11  1   
 13   7  12  ar  
 14   7  28  1   
 15   8  13  ar  
 16   8  29  1   
 17   9  14  2   
 18   9  15  am  
 19  10  16  1   
 20  10  30  1   
 21  10  31  1   
 22  11  17  1   
 23  11  32  1   
 24  11  33  1   
 25  12  18  ar  
 26  12  34  1   
 27  13  18  ar  
 28  13  35  1   
 29  15  19  1   
 30  15  36  1   
 31  16  20  1   
 32  16  37  1   
 33  16  38  1   
 34  17  20  1   
 35  17  39  1   
 36  17  40  1   
 37  18  41  1   
 38  19  21  1   
 39  19  22  1   
 40  19  42  1   
 41  20  43  1   
 42  20  44  1   
 43  21  23  1   
 44  21  45  1   
 45  21  46  1   
 46  22  24  1   
 47  22  47  1   
 48  22  48  1   
 49  23  25  1   
 50  23  49  1   
 51  23  50  1   
 52  24  25  1   
 53  24  51  1   
 54  24  52  1   
 55  25  53  1   
 56  25  54  1   
@<TRIPOS>SUBSTRUCTURE
  1 ****   1 GROUP 4 **** **** 0

# MOE 2024.06 (io_trps.svl 2023.06)
