@<TRIPOS>MOLECULE
NONAME
51 54 1 0 0 
SMALL
USER_CHARGES


@<TRIPOS>ATOM
  1 S       -0.1750    -0.5240     1.6890 S.o2  1 <1>   1.4470 
  2 O       -0.4030    -1.9510     1.6080 O.2   1 <1>  -0.6500 
  3 O        0.0210     0.0880     2.9840 O.2   1 <1>  -0.6500 
  4 N       -1.5260     0.2210     0.9910 N.am  1 <1>  -0.8490 
  5 C        1.1800    -0.0450     0.5830 C.ar  1 <1>  -0.0090 
  6 C       -1.9220    -0.4130    -0.2840 C.3   1 <1>   0.1960 
  7 C       -2.6740     0.2190     1.9180 C.3   1 <1>   0.1960 
  8 C        1.3150     1.2710     0.1540 C.ar  1 <1>  -0.1500 
  9 C        2.1170    -0.9770     0.1440 C.ar  1 <1>  -0.1500 
 10 C       -3.1110     0.3020    -0.9530 C.3   1 <1>   0.2090 
 11 C       -3.9140     0.9310     1.3400 C.3   1 <1>   0.2090 
 12 C        2.3420     1.6440    -0.6940 C.ar  1 <1>   0.0820 
 13 C        3.1490    -0.6170    -0.7080 C.ar  1 <1>  -0.1500 
 14 N       -4.2720     0.4490    -0.0280 N.pl3 1 <1>  -0.8380 
 15 O        2.4360     2.9410    -1.0770 O.3   1 <1>  -0.3630 
 16 C        3.2610     0.6930    -1.1360 C.ar  1 <1>   0.0830 
 17 C       -5.3370    -0.4440    -0.1660 C.ar  1 <1>   0.1000 
 18 C        3.6630     3.3500    -1.6530 C.3   1 <1>   0.1200 
 19 O        4.2650     1.0250    -1.9850 O.3   1 <1>  -0.3630 
 20 C       -6.5290    -0.0540    -0.7850 C.ar  1 <1>  -0.1430 
 21 C       -5.2120    -1.7430     0.3100 C.ar  1 <1>  -0.1500 
 22 C        4.1740     2.2820    -2.6310 C.3   1 <1>   0.1200 
 23 C       -7.5700    -0.9710    -0.9250 C.ar  1 <1>  -0.1430 
 24 C       -6.6400     1.3840    -1.2940 C.3   1 <1>  -0.0970 
 25 C       -6.2440    -2.6480     0.1770 C.ar  1 <1>  -0.1500 
 26 C       -7.4180    -2.2610    -0.4400 C.ar  1 <1>  -0.1500 
 27 C       -8.8870    -0.6140    -1.6000 C.3   1 <1>  -0.0970 
 28 H       -2.1910    -1.4420    -0.1180 H     1 <1>   0.0800 
 29 H       -1.0910    -0.3980    -0.9680 H     1 <1>   0.0800 
 30 H       -2.3980     0.7180     2.8310 H     1 <1>   0.0800 
 31 H       -2.9360    -0.7950     2.1690 H     1 <1>   0.0800 
 32 H        0.6140     2.0170     0.4850 H     1 <1>   0.1500 
 33 H        2.0370    -2.0010     0.4710 H     1 <1>   0.1500 
 34 H       -3.4180    -0.2510    -1.8240 H     1 <1>   0.0800 
 35 H       -2.7990     1.2800    -1.2760 H     1 <1>   0.0800 
 36 H       -3.7180     1.9870     1.2920 H     1 <1>   0.0800 
 37 H       -4.7510     0.7830     2.0000 H     1 <1>   0.0800 
 38 H        3.8660    -1.3450    -1.0440 H     1 <1>   0.1500 
 39 H        4.3720     3.4990    -0.8590 H     1 <1>   0.0800 
 40 H        3.4970     4.2840    -2.1590 H     1 <1>   0.0800 
 41 H       -4.3000    -2.0470     0.7850 H     1 <1>   0.1500 
 42 H        5.1510     2.5370    -2.9990 H     1 <1>   0.0800 
 43 H        3.4980     2.1820    -3.4620 H     1 <1>   0.0800 
 44 H       -5.9800     1.5160    -2.1310 H     1 <1>   0.0800 
 45 H       -6.3440     2.0650    -0.5180 H     1 <1>   0.0800 
 46 H       -7.6340     1.6490    -1.5960 H     1 <1>   0.0800 
 47 H       -6.1360    -3.6510     0.5500 H     1 <1>   0.1500 
 48 H       -8.2150    -2.9770    -0.5390 H     1 <1>   0.1500 
 49 H       -9.3970     0.1420    -1.0300 H     1 <1>   0.0800 
 50 H       -9.5310    -1.4720    -1.6750 H     1 <1>   0.0800 
 51 H       -8.7040    -0.2470    -2.5930 H     1 <1>   0.0800 
@<TRIPOS>BOND
  1   1   2  2   
  2   1   3  2   
  3   1   4  am  
  4   1   5  1   
  5   4   6  1   
  6   4   7  1   
  7   5   8  ar  
  8   5   9  ar  
  9   6  10  1   
 10   6  28  1   
 11   6  29  1   
 12   7  11  1   
 13   7  30  1   
 14   7  31  1   
 15   8  12  ar  
 16   8  32  1   
 17   9  13  ar  
 18   9  33  1   
 19  10  14  1   
 20  10  34  1   
 21  10  35  1   
 22  11  14  1   
 23  11  36  1   
 24  11  37  1   
 25  12  15  1   
 26  12  16  ar  
 27  13  16  ar  
 28  13  38  1   
 29  14  17  1   
 30  15  18  1   
 31  16  19  1   
 32  17  20  ar  
 33  17  21  ar  
 34  18  22  1   
 35  18  39  1   
 36  18  40  1   
 37  19  22  1   
 38  20  23  ar  
 39  20  24  1   
 40  21  25  ar  
 41  21  41  1   
 42  22  42  1   
 43  22  43  1   
 44  23  26  ar  
 45  23  27  1   
 46  24  44  1   
 47  24  45  1   
 48  24  46  1   
 49  25  26  ar  
 50  25  47  1   
 51  26  48  1   
 52  27  49  1   
 53  27  50  1   
 54  27  51  1   
@<TRIPOS>SUBSTRUCTURE
  1 ****   6 GROUP 4 **** **** 0

# MOE 2024.06 (io_trps.svl 2023.06)
