@<TRIPOS>MOLECULE
NONAME
45 48 1 0 0 
SMALL
USER_CHARGES


@<TRIPOS>ATOM
  1 S        0.0590     0.5490     0.7520 S.o2  1 <1>   1.3330 
  2 O       -0.7650    -0.2680     1.6150 O.2   1 <1>  -0.6500 
  3 O        1.1940     1.2570     1.2990 O.2   1 <1>  -0.6500 
  4 N       -0.9500     1.6860     0.0040 N.am  1 <1>  -0.8490 
  5 C        0.6310    -0.4400    -0.6380 C.3   1 <1>  -0.0550 
  6 C       -0.9420     2.9780     0.7250 C.3   1 <1>   0.1960 
  7 C       -2.3400     1.2020    -0.1400 C.3   1 <1>   0.1960 
  8 C        1.5910    -1.5810    -0.2550 C.3   1 <1>  -0.2400 
  9 C       -1.8280     4.0420     0.0490 C.3   1 <1>   0.2090 
 10 C       -3.2420     2.2220    -0.8610 C.3   1 <1>   0.2090 
 11 N       -3.2190     3.5350    -0.1540 N.pl3 1 <1>  -0.8380 
 12 C       -4.2540     4.4250    -0.3310 C.ar  1 <1>   0.4100 
 13 N       -3.9970     5.5600    -0.9520 N.ar  1 <1>  -0.6200 
 14 C       -5.5400     4.1760     0.1120 C.ar  1 <1>   0.0400 
 15 C       -5.0330     6.3790    -1.1170 C.ar  1 <1>   0.4700 
 16 S       -6.2040     2.8140     0.9780 S.3   1 <1>   0.1810 
 17 C       -6.5420     5.0700    -0.0890 C.ar  1 <1>   0.2560 
 18 N       -6.2850     6.2140    -0.7330 N.ar  1 <1>  -0.5660 
 19 N       -7.7910     3.4440     1.0290 N.2   1 <1>  -0.5090 
 20 C       -7.7990     4.5990     0.4560 C.2   1 <1>   0.2350 
 21 C       -9.0160     5.3840     0.3550 C.ar  1 <1>   0.0540 
 22 C      -10.2220     4.7680     0.0070 C.ar  1 <1>  -0.1500 
 23 C       -9.0350     6.7590     0.6090 C.ar  1 <1>  -0.1500 
 24 C      -11.4000     5.4880    -0.0980 C.ar  1 <1>  -0.1500 
 25 C      -10.2020     7.4960     0.5090 C.ar  1 <1>  -0.1500 
 26 C      -11.3670     6.8450     0.1550 C.ar  1 <1>   0.1900 
 27 F      -12.4720     7.5330     0.0580 F     1 <1>  -0.1900 
 28 H        1.1300     0.2060    -1.3350 H     1 <1>   0.0800 
 29 H       -0.2170    -0.8630    -1.1380 H     1 <1>   0.0800 
 30 H        0.0630     3.3620     0.7680 H     1 <1>   0.0800 
 31 H       -1.2810     2.8310     1.7370 H     1 <1>   0.0800 
 32 H       -2.7630     1.0050     0.8320 H     1 <1>   0.0800 
 33 H       -2.3450     0.2810    -0.6950 H     1 <1>   0.0800 
 34 H        2.4680    -1.1800     0.2240 H     1 <1>   0.0800 
 35 H        1.8920    -2.1250    -1.1320 H     1 <1>   0.0800 
 36 H        1.1070    -2.2590     0.4270 H     1 <1>   0.0800 
 37 H       -1.4030     4.3080    -0.9030 H     1 <1>   0.0800 
 38 H       -1.8540     4.9270     0.6620 H     1 <1>   0.0800 
 39 H       -4.2470     1.8420    -0.9070 H     1 <1>   0.0800 
 40 H       -2.8900     2.3560    -1.8690 H     1 <1>   0.0800 
 41 H       -4.8160     7.3000    -1.6340 H     1 <1>   0.1500 
 42 H      -10.2310     3.7080    -0.1820 H     1 <1>   0.1500 
 43 H       -8.1250     7.2580     0.8910 H     1 <1>   0.1500 
 44 H      -12.3250     5.0110    -0.3670 H     1 <1>   0.1500 
 45 H      -10.2130     8.5530     0.7020 H     1 <1>   0.1500 
@<TRIPOS>BOND
  1   1   2  2   
  2   1   3  2   
  3   1   4  am  
  4   1   5  1   
  5   4   6  1   
  6   4   7  1   
  7   5   8  1   
  8   5  28  1   
  9   5  29  1   
 10   6   9  1   
 11   6  30  1   
 12   6  31  1   
 13   7  10  1   
 14   7  32  1   
 15   7  33  1   
 16   8  34  1   
 17   8  35  1   
 18   8  36  1   
 19   9  11  1   
 20   9  37  1   
 21   9  38  1   
 22  10  11  1   
 23  10  39  1   
 24  10  40  1   
 25  11  12  1   
 26  12  13  ar  
 27  12  14  ar  
 28  13  15  ar  
 29  14  16  1   
 30  14  17  ar  
 31  15  18  ar  
 32  15  41  1   
 33  16  19  1   
 34  17  18  ar  
 35  17  20  1   
 36  19  20  2   
 37  20  21  1   
 38  21  22  ar  
 39  21  23  ar  
 40  22  24  ar  
 41  22  42  1   
 42  23  25  ar  
 43  23  43  1   
 44  24  26  ar  
 45  24  44  1   
 46  25  26  ar  
 47  25  45  1   
 48  26  27  1   
@<TRIPOS>SUBSTRUCTURE
  1 ****  14 GROUP 4 **** **** 0

# MOE 2024.06 (io_trps.svl 2023.06)
