@<TRIPOS>MOLECULE
NONAME
57 59 1 0 0 
SMALL
USER_CHARGES


@<TRIPOS>ATOM
  1 O       -0.0240    -0.9180    -1.7140 O.2   1 <1>  -0.5700 
  2 C       -0.9750    -1.4850    -1.2150 C.2   1 <1>   0.5690 
  3 N       -0.8780    -2.7760    -0.7570 N.am  1 <1>  -0.4770 
  4 C       -2.3110    -0.7370    -1.0290 C.3   1 <1>   0.2610 
  5 C       -1.9540    -3.3520    -0.0480 C.ar  1 <1>   0.1170 
  6 C        0.3220    -3.5970    -1.1250 C.3   1 <1>   0.2010 
  7 O       -3.4090    -1.6350    -0.8800 O.3   1 <1>  -0.3630 
  8 C       -2.6390     0.2250    -2.1890 C.3   1 <1>  -0.1600 
  9 C       -3.2190    -2.7650    -0.1500 C.ar  1 <1>   0.0830 
 10 C       -1.8140    -4.4780     0.7590 C.ar  1 <1>  -0.1500 
 11 C        1.5080    -3.3540    -0.1970 C.2   1 <1>   0.5690 
 12 C       -3.9470     1.0050    -1.9830 C.3   1 <1>  -0.2400 
 13 C       -4.3120    -3.3180     0.4910 C.ar  1 <1>  -0.1500 
 14 C       -2.9050    -5.0310     1.4110 C.ar  1 <1>  -0.1440 
 15 O        1.9700    -4.2760     0.4360 O.2   1 <1>  -0.5700 
 16 N        2.0390    -2.1050    -0.1160 N.am  1 <1>  -0.7300 
 17 C       -4.1550    -4.4500     1.2700 C.ar  1 <1>  -0.1500 
 18 C       -2.7310    -6.2630     2.2810 C.3   1 <1>  -0.0970 
 19 C        3.1170    -1.7080     0.8010 C.3   1 <1>   0.1400 
 20 C        4.4560    -2.0710     0.1610 C.3   1 <1>  -0.1600 
 21 C        5.5920    -1.9200     1.1680 C.3   1 <1>   0.3430 
 22 N        6.8520    -2.4740     0.6040 N.4   1 <1>  -0.9590 
 23 C        7.9130    -2.6790     1.6460 C.3   1 <1>   0.3430 
 24 C        7.4040    -1.7050    -0.5660 C.3   1 <1>   0.3430 
 25 C        9.1930    -3.2970     1.0340 C.3   1 <1>   0.1200 
 26 C        8.7510    -2.2920    -1.0490 C.3   1 <1>   0.1200 
 27 O        9.0690    -3.4660    -0.3530 O.3   1 <1>  -0.5600 
 28 H       -2.2450    -0.1770    -0.1150 H     1 <1>   0.0800 
 29 H        0.6220    -3.3520    -2.1270 H     1 <1>   0.0800 
 30 H        0.0700    -4.6410    -1.1170 H     1 <1>   0.0800 
 31 H       -2.6910    -0.3380    -3.1050 H     1 <1>   0.0800 
 32 H       -1.8330     0.9300    -2.2900 H     1 <1>   0.0800 
 33 H       -0.8480    -4.9300     0.8930 H     1 <1>   0.1500 
 34 H       -4.7860     0.3340    -1.9390 H     1 <1>   0.0800 
 35 H       -4.1010     1.6870    -2.8010 H     1 <1>   0.0800 
 36 H       -3.9090     1.5710    -1.0680 H     1 <1>   0.0800 
 37 H       -5.2780    -2.8580     0.3830 H     1 <1>   0.1500 
 38 H        1.5700    -1.3590    -0.6580 H     1 <1>   0.3700 
 39 H       -5.0100    -4.8730     1.7700 H     1 <1>   0.1500 
 40 H       -2.5340    -5.9670     3.2950 H     1 <1>   0.0800 
 41 H       -1.9100    -6.8610     1.9290 H     1 <1>   0.0800 
 42 H       -3.6210    -6.8660     2.2620 H     1 <1>   0.0800 
 43 H        2.9900    -2.2400     1.7310 H     1 <1>   0.0800 
 44 H        3.0530    -0.6500     0.9980 H     1 <1>   0.0800 
 45 H        4.6140    -1.4350    -0.6910 H     1 <1>   0.0800 
 46 H        4.4120    -3.0980    -0.1600 H     1 <1>   0.0800 
 47 H        5.3330    -2.4650     2.0630 H     1 <1>   0.0800 
 48 H        5.7230    -0.8820     1.4300 H     1 <1>   0.0800 
 49 H        6.6630    -3.4200     0.2350 H     1 <1>   0.4500 
 50 H        7.5480    -3.3290     2.4240 H     1 <1>   0.0800 
 51 H        8.1660    -1.7360     2.1020 H     1 <1>   0.0800 
 52 H        7.5510    -0.6730    -0.2950 H     1 <1>   0.0800 
 53 H        6.7040    -1.7290    -1.3840 H     1 <1>   0.0800 
 54 H        9.3770    -4.2670     1.4650 H     1 <1>   0.0800 
 55 H       10.0490    -2.6750     1.2310 H     1 <1>   0.0800 
 56 H        9.5490    -1.5830    -0.9120 H     1 <1>   0.0800 
 57 H        8.6950    -2.5350    -2.0970 H     1 <1>   0.0800 
@<TRIPOS>BOND
  1   1   2  2   
  2   2   3  am  
  3   2   4  1   
  4   3   5  1   
  5   3   6  1   
  6   4   7  1   
  7   4   8  1   
  8   4  28  1   
  9   5   9  ar  
 10   5  10  ar  
 11   6  11  1   
 12   6  29  1   
 13   6  30  1   
 14   7   9  1   
 15   8  12  1   
 16   8  31  1   
 17   8  32  1   
 18   9  13  ar  
 19  10  14  ar  
 20  10  33  1   
 21  11  15  2   
 22  11  16  am  
 23  12  34  1   
 24  12  35  1   
 25  12  36  1   
 26  13  17  ar  
 27  13  37  1   
 28  14  17  ar  
 29  14  18  1   
 30  16  19  1   
 31  16  38  1   
 32  17  39  1   
 33  18  40  1   
 34  18  41  1   
 35  18  42  1   
 36  19  20  1   
 37  19  43  1   
 38  19  44  1   
 39  20  21  1   
 40  20  45  1   
 41  20  46  1   
 42  21  22  1   
 43  21  47  1   
 44  21  48  1   
 45  22  23  1   
 46  22  24  1   
 47  22  49  1   
 48  23  25  1   
 49  23  50  1   
 50  23  51  1   
 51  24  26  1   
 52  24  52  1   
 53  24  53  1   
 54  25  27  1   
 55  25  54  1   
 56  25  55  1   
 57  26  27  1   
 58  26  56  1   
 59  26  57  1   
@<TRIPOS>SUBSTRUCTURE
  1 ****  11 GROUP 4 **** **** 0

# MOE 2024.06 (io_trps.svl 2023.06)
