@<TRIPOS>MOLECULE
NONAME
39 41 1 0 0 
SMALL
USER_CHARGES


@<TRIPOS>ATOM
  1 CL      -1.7840    -1.8030     3.3250 Cl    1 <1>  -0.1770 
  2 C       -2.6060    -1.7690     1.7860 C.ar  1 <1>   0.1770 
  3 C       -3.8820    -1.2470     1.7150 C.ar  1 <1>  -0.1500 
  4 C       -1.9650    -2.2670     0.6670 C.ar  1 <1>  -0.1500 
  5 C       -4.5530    -1.2100     0.4990 C.ar  1 <1>   0.1170 
  6 C       -2.6260    -2.2390    -0.5490 C.ar  1 <1>  -0.1500 
  7 N       -5.8520    -0.6790     0.4650 N.am  1 <1>  -0.5470 
  8 C       -3.9060    -1.7170    -0.6280 C.ar  1 <1>  -0.1500 
  9 C       -6.5870    -0.1640    -0.5690 C.2   1 <1>   0.5690 
 10 O       -6.1800    -0.0810    -1.7020 O.2   1 <1>  -0.5700 
 11 C       -7.9900     0.3290    -0.2580 C.3   1 <1>  -0.0190 
 12 C       -9.0050    -0.5050    -1.0430 C.3   1 <1>   0.2090 
 13 C       -8.1680     1.8310    -0.5680 C.3   1 <1>  -0.1600 
 14 N      -10.3760    -0.0370    -0.6970 N.pl3 1 <1>  -0.8380 
 15 C       -9.6210     2.2740    -0.3220 C.3   1 <1>  -0.1600 
 16 C      -11.2030    -0.7390     0.1530 C.ar  1 <1>   0.7200 
 17 C      -10.6330     1.3830    -1.0550 C.3   1 <1>   0.2090 
 18 N      -10.6380    -1.6810     0.9100 N.ar  1 <1>  -0.6200 
 19 N      -12.4940    -0.4100     0.1500 N.ar  1 <1>  -0.6200 
 20 C      -11.4410    -2.3440     1.7070 C.ar  1 <1>   0.1600 
 21 C      -13.2710    -1.0890     0.9570 C.ar  1 <1>   0.1600 
 22 C      -12.7870    -2.0840     1.7700 C.ar  1 <1>  -0.1500 
 23 H       -4.3430    -0.8680     2.6070 H     1 <1>   0.1500 
 24 H       -0.9710    -2.6680     0.7500 H     1 <1>   0.1500 
 25 H       -2.1470    -2.6220    -1.4340 H     1 <1>   0.1500 
 26 H       -6.3170    -0.6460     1.3700 H     1 <1>   0.3700 
 27 H       -4.4040    -1.7100    -1.5810 H     1 <1>   0.1500 
 28 H       -8.1870     0.1700     0.7870 H     1 <1>   0.0800 
 29 H       -8.8850    -1.5510    -0.8190 H     1 <1>   0.0800 
 30 H       -8.8450    -0.3780    -2.1000 H     1 <1>   0.0800 
 31 H       -7.9140     2.0120    -1.6000 H     1 <1>   0.0800 
 32 H       -7.5000     2.4130     0.0430 H     1 <1>   0.0800 
 33 H       -9.7500     3.2920    -0.6440 H     1 <1>   0.0800 
 34 H       -9.8380     2.2350     0.7310 H     1 <1>   0.0800 
 35 H      -11.6330     1.6810    -0.7910 H     1 <1>   0.0800 
 36 H      -10.5250     1.5000    -2.1200 H     1 <1>   0.0800 
 37 H      -11.0140    -3.1150     2.3250 H     1 <1>   0.1500 
 38 H      -14.3190    -0.8450     0.9700 H     1 <1>   0.1500 
 39 H      -13.4340    -2.6340     2.4260 H     1 <1>   0.1500 
@<TRIPOS>BOND
  1   1   2  1   
  2   2   3  ar  
  3   2   4  ar  
  4   3   5  ar  
  5   3  23  1   
  6   4   6  ar  
  7   4  24  1   
  8   5   7  1   
  9   5   8  ar  
 10   6   8  ar  
 11   6  25  1   
 12   7   9  am  
 13   7  26  1   
 14   8  27  1   
 15   9  10  2   
 16   9  11  1   
 17  11  12  1   
 18  11  13  1   
 19  11  28  1   
 20  12  14  1   
 21  12  29  1   
 22  12  30  1   
 23  13  15  1   
 24  13  31  1   
 25  13  32  1   
 26  14  16  1   
 27  14  17  1   
 28  15  17  1   
 29  15  33  1   
 30  15  34  1   
 31  16  18  ar  
 32  16  19  ar  
 33  17  35  1   
 34  17  36  1   
 35  18  20  ar  
 36  19  21  ar  
 37  20  22  ar  
 38  20  37  1   
 39  21  22  ar  
 40  21  38  1   
 41  22  39  1   
@<TRIPOS>SUBSTRUCTURE
  1 ****  11 GROUP 4 **** **** 0

# MOE 2024.06 (io_trps.svl 2023.06)
