@<TRIPOS>MOLECULE
ka-06317
24 23 1 0 0 
SMALL
USER_CHARGES


@<TRIPOS>ATOM
  1 O       -0.7920     4.7820     0.0130 O.2   1 <1>  -0.5700 
  2 C       -0.8820     3.5620     0.0050 C.2   1 <1>   0.7060 
  3 O        0.2480     2.8410    -0.0020 O.3   1 <1>  -0.4300 
  4 C       -2.0980     2.8440     0.0020 C.2   1 <1>  -0.1360 
  5 C        1.5110     3.4670     0.0000 C.3   1 <1>   0.1200 
  6 C       -3.3680     3.3240     0.0070 C.2   1 <1>   0.1770 
  7 C        2.5790     2.3770    -0.0090 C.3   1 <1>  -0.2400 
  8 O       -4.3810     2.4520     0.0030 O.3   1 <1>  -0.3570 
  9 N       -3.6800     4.6510     0.0170 N.pl3 1 <1>  -0.9000 
 10 C       -5.7390     2.8300     0.0080 C.3   1 <1>   0.1200 
 11 C       -6.5850     1.5590     0.0010 C.3   1 <1>  -0.2400 
 12 H       -1.9740     1.7800    -0.0060 H     1 <1>   0.1500 
 13 H        1.5890     4.0770     0.8850 H     1 <1>   0.0800 
 14 H        1.5860     4.0890    -0.8770 H     1 <1>   0.0800 
 15 H        2.4850     1.7590     0.8650 H     1 <1>   0.0800 
 16 H        3.5550     2.8260    -0.0080 H     1 <1>   0.0800 
 17 H        2.4820     1.7710    -0.8920 H     1 <1>   0.0800 
 18 H       -2.9250     5.3530     0.0200 H     1 <1>   0.4000 
 19 H       -4.6290     5.0240     0.0210 H     1 <1>   0.4000 
 20 H       -5.9300     3.4200    -0.8710 H     1 <1>   0.0800 
 21 H       -5.9270     3.4090     0.8960 H     1 <1>   0.0800 
 22 H       -6.3760     0.9820    -0.8820 H     1 <1>   0.0800 
 23 H       -7.6280     1.8160     0.0040 H     1 <1>   0.0800 
 24 H       -6.3730     0.9700     0.8750 H     1 <1>   0.0800 
@<TRIPOS>BOND
  1   1   2  2   
  2   2   3  1   
  3   2   4  1   
  4   3   5  1   
  5   4   6  2   
  6   4  12  1   
  7   5   7  1   
  8   5  13  1   
  9   5  14  1   
 10   6   8  1   
 11   6   9  1   
 12   7  15  1   
 13   7  16  1   
 14   7  17  1   
 15   8  10  1   
 16   9  18  1   
 17   9  19  1   
 18  10  11  1   
 19  10  20  1   
 20  10  21  1   
 21  11  22  1   
 22  11  23  1   
 23  11  24  1   
@<TRIPOS>SUBSTRUCTURE
  1 ****   4 GROUP 4 **** **** 0

# MOE 2024.06 (io_trps.svl 2023.06)
