@<TRIPOS>MOLECULE
3097
47 48 1 0 0 
SMALL
USER_CHARGES


@<TRIPOS>ATOM
  1 O       -1.2400    -0.4000     1.5940 O.2   1 <1>  -0.5700 
  2 C       -0.5520    -1.3570     1.3400 C.2   1 <1>   0.5690 
  3 N        0.5930    -1.1640     0.6320 N.am  1 <1>  -0.7300 
  4 C       -1.0000    -2.7210     1.8780 C.3   1 <1>   0.1810 
  5 C        1.4890    -2.1760     0.0240 C.3   1 <1>   0.1400 
  6 O       -0.9820    -3.7610     0.9080 O.3   1 <1>  -0.3620 
  7 C        2.4920    -2.6950     1.0540 C.3   1 <1>  -0.0160 
  8 C       -1.7900    -3.7520    -0.1870 C.ar  1 <1>   0.0820 
  9 C        3.1850    -3.9330     0.5120 C.ar  1 <1>  -0.1430 
 10 C       -1.5480    -4.7040    -1.1760 C.ar  1 <1>  -0.1430 
 11 C       -2.8280    -2.8370    -0.3540 C.ar  1 <1>  -0.1500 
 12 C        4.3330    -3.8220    -0.2560 C.ar  1 <1>  -0.1500 
 13 C        2.6570    -5.1860     0.7730 C.ar  1 <1>  -0.1500 
 14 C       -2.3380    -4.7250    -2.3140 C.ar  1 <1>  -0.1500 
 15 C       -0.4240    -5.7220    -1.0330 C.3   1 <1>  -0.0970 
 16 C       -3.6090    -2.8690    -1.4950 C.ar  1 <1>  -0.1500 
 17 C        4.9570    -4.9570    -0.7680 C.ar  1 <1>   0.0820 
 18 C        3.2660    -6.3220     0.2710 C.ar  1 <1>  -0.1500 
 19 C       -3.3640    -3.8120    -2.4750 C.ar  1 <1>  -0.1500 
 20 O        6.0870    -4.8890    -1.5300 O.3   1 <1>  -0.3630 
 21 C        4.4170    -6.2190    -0.5040 C.ar  1 <1>   0.0820 
 22 C        6.7550    -3.6710    -1.7690 C.3   1 <1>   0.0400 
 23 O        5.0500    -7.3100    -1.0230 O.3   1 <1>  -0.3630 
 24 C        4.6100    -8.6220    -0.7560 C.3   1 <1>   0.0400 
 25 H        0.7580    -0.1970     0.3450 H     1 <1>   0.3700 
 26 H       -1.9940    -2.6530     2.2790 H     1 <1>   0.0800 
 27 H       -0.3390    -3.0140     2.6700 H     1 <1>   0.0800 
 28 H        2.0150    -1.7350    -0.8050 H     1 <1>   0.0800 
 29 H        0.9070    -2.9910    -0.3660 H     1 <1>   0.0800 
 30 H        1.9850    -2.9500     1.9660 H     1 <1>   0.0800 
 31 H        3.2160    -1.9320     1.2740 H     1 <1>   0.0800 
 32 H       -3.0480    -2.0910     0.3860 H     1 <1>   0.1500 
 33 H        4.7280    -2.8440    -0.4500 H     1 <1>   0.1500 
 34 H        1.7640    -5.2840     1.3660 H     1 <1>   0.1500 
 35 H       -2.1570    -5.4530    -3.0850 H     1 <1>   0.1500 
 36 H        0.5230    -5.2450    -1.2050 H     1 <1>   0.0800 
 37 H       -0.5380    -6.5230    -1.7400 H     1 <1>   0.0800 
 38 H       -0.4290    -6.1440    -0.0440 H     1 <1>   0.0800 
 39 H       -4.4070    -2.1580    -1.6190 H     1 <1>   0.1500 
 40 H        2.8270    -7.2750     0.4940 H     1 <1>   0.1500 
 41 H       -3.9720    -3.8360    -3.3630 H     1 <1>   0.1500 
 42 H        7.6310    -3.8830    -2.3550 H     1 <1>   0.0800 
 43 H        7.0410    -3.2400    -0.8270 H     1 <1>   0.0800 
 44 H        6.1000    -3.0160    -2.3150 H     1 <1>   0.0800 
 45 H        5.2790    -9.3030    -1.2490 H     1 <1>   0.0800 
 46 H        3.6140    -8.7410    -1.1450 H     1 <1>   0.0800 
 47 H        4.6360    -8.7890     0.3060 H     1 <1>   0.0800 
@<TRIPOS>BOND
  1   1   2  2   
  2   2   3  am  
  3   2   4  1   
  4   3   5  1   
  5   3  25  1   
  6   4   6  1   
  7   4  26  1   
  8   4  27  1   
  9   5   7  1   
 10   5  28  1   
 11   5  29  1   
 12   6   8  1   
 13   7   9  1   
 14   7  30  1   
 15   7  31  1   
 16   8  10  ar  
 17   8  11  ar  
 18   9  12  ar  
 19   9  13  ar  
 20  10  14  ar  
 21  10  15  1   
 22  11  16  ar  
 23  11  32  1   
 24  12  17  ar  
 25  12  33  1   
 26  13  18  ar  
 27  13  34  1   
 28  14  19  ar  
 29  14  35  1   
 30  15  36  1   
 31  15  37  1   
 32  15  38  1   
 33  16  19  ar  
 34  16  39  1   
 35  17  20  1   
 36  17  21  ar  
 37  18  21  ar  
 38  18  40  1   
 39  19  41  1   
 40  20  22  1   
 41  21  23  1   
 42  22  42  1   
 43  22  43  1   
 44  22  44  1   
 45  23  24  1   
 46  24  45  1   
 47  24  46  1   
 48  24  47  1   
@<TRIPOS>SUBSTRUCTURE
  1 ****   5 GROUP 4 **** **** 0

# MOE 2024.06 (io_trps.svl 2023.06)
