@<TRIPOS>MOLECULE
5148
29 29 1 0 0 
SMALL
USER_CHARGES


@<TRIPOS>ATOM
  1 I       -1.5330     0.6080    -2.3180 I     1 <1>  -0.0810 
  2 C       -2.6290    -0.8090    -1.1640 C.ar  1 <1>   0.0810 
  3 C       -3.5110    -0.3450    -0.2070 C.ar  1 <1>  -0.1500 
  4 C       -2.4290    -2.1540    -1.4020 C.ar  1 <1>  -0.1500 
  5 C       -4.2270    -1.2620     0.5480 C.ar  1 <1>  -0.1440 
  6 C       -3.1490    -3.0620    -0.6480 C.ar  1 <1>  -0.1500 
  7 C       -4.0510    -2.6330     0.3220 C.ar  1 <1>   0.1170 
  8 C       -5.1870    -0.7410     1.6110 C.3   1 <1>  -0.0960 
  9 N       -4.7460    -3.6030     1.0520 N.am  1 <1>  -0.5470 
 10 C       -6.0690    -3.9000     1.0270 C.2   1 <1>   0.7800 
 11 O       -6.5120    -4.8030     1.7030 O.2   1 <1>  -0.5700 
 12 O       -6.8670    -3.1850     0.2360 O.3   1 <1>  -0.4300 
 13 C       -8.2470    -3.4570     0.1630 C.3   1 <1>   0.1200 
 14 C       -8.8790    -2.4560    -0.8050 C.3   1 <1>  -0.1600 
 15 C      -10.3880    -2.6860    -0.9370 C.3   1 <1>  -0.2400 
 16 H       -3.6320     0.7130    -0.0570 H     1 <1>   0.1500 
 17 H       -1.7340    -2.4830    -2.1540 H     1 <1>   0.1500 
 18 H       -3.0170    -4.1160    -0.8160 H     1 <1>   0.1500 
 19 H       -4.9660     0.2820     1.8580 H     1 <1>   0.0800 
 20 H       -5.1070    -1.3250     2.5100 H     1 <1>   0.0800 
 21 H       -6.1970    -0.7940     1.2490 H     1 <1>   0.0800 
 22 H       -4.2010    -4.2660     1.5960 H     1 <1>   0.3700 
 23 H       -8.6660    -3.3580     1.1500 H     1 <1>   0.0800 
 24 H       -8.3760    -4.4680    -0.1860 H     1 <1>   0.0800 
 25 H       -8.4180    -2.5610    -1.7720 H     1 <1>   0.0800 
 26 H       -8.7030    -1.4570    -0.4460 H     1 <1>   0.0800 
 27 H      -10.5870    -3.6760    -1.3110 H     1 <1>   0.0800 
 28 H      -10.8100    -1.9720    -1.6230 H     1 <1>   0.0800 
 29 H      -10.8720    -2.5710     0.0170 H     1 <1>   0.0800 
@<TRIPOS>BOND
  1   1   2  1   
  2   2   3  ar  
  3   2   4  ar  
  4   3   5  ar  
  5   3  16  1   
  6   4   6  ar  
  7   4  17  1   
  8   5   7  ar  
  9   5   8  1   
 10   6   7  ar  
 11   6  18  1   
 12   7   9  1   
 13   8  19  1   
 14   8  20  1   
 15   8  21  1   
 16   9  10  am  
 17   9  22  1   
 18  10  11  2   
 19  10  12  1   
 20  12  13  1   
 21  13  14  1   
 22  13  23  1   
 23  13  24  1   
 24  14  15  1   
 25  14  25  1   
 26  14  26  1   
 27  15  27  1   
 28  15  28  1   
 29  15  29  1   
@<TRIPOS>SUBSTRUCTURE
  1 ****   7 GROUP 4 **** **** 0

# MOE 2024.06 (io_trps.svl 2023.06)
