@<TRIPOS>MOLECULE
2-[3-(3-Methoxy-propyl)-2,4-dioxo-3,4-dihydro-2H-thieno[3,2-d]pyrimidin-1-yl]-N-
48 50 1 0 0 
SMALL
USER_CHARGES


@<TRIPOS>ATOM
  1 S       -0.2560    -1.4540     0.5800 S.3   1 <1>  -0.0800 
  2 C        1.3820    -1.3920    -0.0850 C.2   1 <1>  -0.0450 
  3 C       -0.3860    -3.1640     0.2070 C.2   1 <1>  -0.1100 
  4 C        2.2030    -0.2380    -0.1670 C.2   1 <1>   0.7150 
  5 C        1.7570    -2.6160    -0.5250 C.2   1 <1>   0.0630 
  6 C        0.7440    -3.6170    -0.3700 C.2   1 <1>  -0.1500 
  7 O        1.8510     0.8530     0.2540 O.2   1 <1>  -0.5700 
  8 N        3.4400    -0.3940    -0.7680 N.am  1 <1>  -0.4200 
  9 N        3.0370    -2.7550    -1.0670 N.am  1 <1>  -0.4230 
 10 C        3.8360    -1.6320    -1.2600 C.2   1 <1>   0.6900 
 11 C        4.3660     0.7700    -0.8650 C.3   1 <1>   0.1400 
 12 C        3.6490    -4.1100    -1.2530 C.3   1 <1>   0.2010 
 13 O        4.8750    -1.7280    -1.8880 O.2   1 <1>  -0.5700 
 14 C        5.2570     0.8400     0.3780 C.3   1 <1>  -0.1600 
 15 C        4.3370    -4.6090     0.0210 C.2   1 <1>   0.5690 
 16 C        6.2220     2.0180     0.2820 C.3   1 <1>   0.1200 
 17 O        5.3960    -4.1350     0.3470 O.2   1 <1>  -0.5700 
 18 N        3.7850    -5.5700     0.8100 N.am  1 <1>  -0.5470 
 19 O        6.9710     2.0510     1.4490 O.3   1 <1>  -0.5600 
 20 C        2.6050    -6.2980     0.6600 C.ar  1 <1>   0.1170 
 21 C        7.9140     3.0720     1.4890 C.3   1 <1>   0.0400 
 22 C        2.4160    -7.1480    -0.4220 C.ar  1 <1>  -0.1500 
 23 C        1.5950    -6.1790     1.6050 C.ar  1 <1>  -0.1500 
 24 C        1.2320    -7.8480    -0.5670 C.ar  1 <1>  -0.1500 
 25 C        0.4110    -6.8790     1.4610 C.ar  1 <1>  -0.1500 
 26 C        0.2220    -7.7160     0.3730 C.ar  1 <1>  -0.1430 
 27 C       -1.0770    -8.4840     0.2100 C.3   1 <1>  -0.0970 
 28 H       -1.3090    -3.6570     0.4570 H     1 <1>   0.1500 
 29 H        0.8860    -4.6300    -0.6960 H     1 <1>   0.1500 
 30 H        3.7980     1.6800    -0.9590 H     1 <1>   0.0800 
 31 H        4.9760     0.6780    -1.7470 H     1 <1>   0.0800 
 32 H        4.3860    -4.0710    -2.0340 H     1 <1>   0.0800 
 33 H        2.8970    -4.8020    -1.5710 H     1 <1>   0.0800 
 34 H        5.8260    -0.0700     0.4650 H     1 <1>   0.0800 
 35 H        4.6420     0.9640     1.2530 H     1 <1>   0.0800 
 36 H        5.6820     2.9470     0.1940 H     1 <1>   0.0800 
 37 H        6.8890     1.8950    -0.5550 H     1 <1>   0.0800 
 38 H        4.3070    -5.7160     1.6760 H     1 <1>   0.3700 
 39 H        8.4330     3.0090     2.4290 H     1 <1>   0.0800 
 40 H        7.4120     4.0220     1.4140 H     1 <1>   0.0800 
 41 H        8.6110     2.9440     0.6800 H     1 <1>   0.0800 
 42 H        3.1990    -7.2690    -1.1480 H     1 <1>   0.1500 
 43 H        1.7330    -5.5290     2.4510 H     1 <1>   0.1500 
 44 H        1.0980    -8.5010    -1.4120 H     1 <1>   0.1500 
 45 H       -0.3630    -6.7690     2.2000 H     1 <1>   0.1500 
 46 H       -1.7420    -7.9460    -0.4420 H     1 <1>   0.0800 
 47 H       -1.5590    -8.6210     1.1610 H     1 <1>   0.0800 
 48 H       -0.8860    -9.4550    -0.2130 H     1 <1>   0.0800 
@<TRIPOS>BOND
  1   1   2  1   
  2   1   3  1   
  3   2   4  1   
  4   2   5  2   
  5   3   6  2   
  6   3  28  1   
  7   4   7  2   
  8   4   8  am  
  9   5   6  1   
 10   5   9  1   
 11   6  29  1   
 12   8  10  am  
 13   8  11  1   
 14   9  10  am  
 15   9  12  1   
 16  10  13  2   
 17  11  14  1   
 18  11  30  1   
 19  11  31  1   
 20  12  15  1   
 21  12  32  1   
 22  12  33  1   
 23  14  16  1   
 24  14  34  1   
 25  14  35  1   
 26  15  17  2   
 27  15  18  am  
 28  16  19  1   
 29  16  36  1   
 30  16  37  1   
 31  18  20  1   
 32  18  38  1   
 33  19  21  1   
 34  20  22  ar  
 35  20  23  ar  
 36  21  39  1   
 37  21  40  1   
 38  21  41  1   
 39  22  24  ar  
 40  22  42  1   
 41  23  25  ar  
 42  23  43  1   
 43  24  26  ar  
 44  24  44  1   
 45  25  26  ar  
 46  25  45  1   
 47  26  27  1   
 48  27  46  1   
 49  27  47  1   
 50  27  48  1   
@<TRIPOS>SUBSTRUCTURE
  1 ****   9 GROUP 4 **** **** 0

# MOE 2024.06 (io_trps.svl 2023.06)
