@<TRIPOS>MOLECULE
NONAME
46 49 1 0 0 
SMALL
USER_CHARGES


@<TRIPOS>ATOM
  1 S        0.0620    -0.0730    -1.0040 S.3   1 <1>  -0.3320 
  2 C       -1.4870     0.7560    -0.6410 C.ar  1 <1>   0.4120 
  3 C        1.1260     1.2400    -1.7840 C.3   1 <1>   0.1310 
  4 N       -1.5170     2.0200    -0.9170 N.ar  1 <1>  -0.6200 
  5 C       -2.5500     0.0030    -0.0960 C.ar  1 <1>  -0.1430 
  6 C        2.5930     0.8310    -1.7660 C.2   1 <1>   0.5690 
  7 C       -2.6760     2.6670    -0.6560 C.ar  1 <1>   0.3100 
  8 C       -3.7400     0.6390     0.1480 C.ar  1 <1>  -0.1440 
  9 C       -2.3530    -1.4880     0.1920 C.3   1 <1>  -0.0160 
 10 O        3.1210     0.6170    -2.8330 O.2   1 <1>  -0.5700 
 11 N        3.2950     0.7390    -0.5880 N.am  1 <1>  -0.6600 
 12 C       -3.8170     2.0290    -0.1150 C.ar  1 <1>   0.0000 
 13 C       -2.7320     4.0420    -0.9390 C.ar  1 <1>  -0.1500 
 14 C       -4.9600    -0.1080     0.6910 C.3   1 <1>  -0.0170 
 15 C       -3.4530    -2.0800     1.0780 C.3   1 <1>  -0.1600 
 16 C        2.7380     0.9940     0.7770 C.3   1 <1>   0.1400 
 17 C        4.7260     0.3120    -0.5620 C.3   1 <1>   0.1400 
 18 C       -4.9590     2.8260     0.1370 C.ar  1 <1>  -0.1500 
 19 C       -3.8550     4.7830    -0.6940 C.ar  1 <1>  -0.1500 
 20 C       -4.8290    -1.6310     0.5890 C.3   1 <1>  -0.1600 
 21 C        3.6860     1.8890     1.5930 C.3   1 <1>   0.1200 
 22 C        5.5580     1.2480     0.3300 C.3   1 <1>   0.1200 
 23 C       -4.9810     4.1650    -0.1460 C.ar  1 <1>  -0.1500 
 24 O        4.9830     1.3630     1.6020 O.3   1 <1>  -0.5600 
 25 H        0.9900     2.1530    -1.2390 H     1 <1>   0.0800 
 26 H        0.7790     1.3640    -2.7930 H     1 <1>   0.0800 
 27 H       -1.4120    -1.6520     0.6850 H     1 <1>   0.0800 
 28 H       -2.3310    -2.0150    -0.7470 H     1 <1>   0.0800 
 29 H       -1.8550     4.4980    -1.3590 H     1 <1>   0.1500 
 30 H       -5.8410     0.1810     0.1460 H     1 <1>   0.0800 
 31 H       -5.0970     0.1680     1.7230 H     1 <1>   0.0800 
 32 H       -3.3100    -1.7500     2.0930 H     1 <1>   0.0800 
 33 H       -3.3880    -3.1540     1.0640 H     1 <1>   0.0800 
 34 H        2.6160     0.0540     1.2860 H     1 <1>   0.0800 
 35 H        1.7760     1.4670     0.7230 H     1 <1>   0.0800 
 36 H        5.1400     0.3110    -1.5550 H     1 <1>   0.0800 
 37 H        4.7880    -0.6910    -0.1770 H     1 <1>   0.0800 
 38 H       -5.8360     2.3770     0.5640 H     1 <1>   0.1500 
 39 H       -3.8860     5.8360    -0.9150 H     1 <1>   0.1500 
 40 H       -4.9570    -1.9310    -0.4370 H     1 <1>   0.0800 
 41 H       -5.6010    -2.1000     1.1730 H     1 <1>   0.0800 
 42 H        3.3500     1.9500     2.6130 H     1 <1>   0.0800 
 43 H        3.7200     2.8810     1.1790 H     1 <1>   0.0800 
 44 H        5.6230     2.2280    -0.1100 H     1 <1>   0.0800 
 45 H        6.5520     0.8570     0.4530 H     1 <1>   0.0800 
 46 H       -5.8590     4.7560     0.0490 H     1 <1>   0.1500 
@<TRIPOS>BOND
  1   1   2  1   
  2   1   3  1   
  3   2   4  ar  
  4   2   5  ar  
  5   3   6  1   
  6   3  25  1   
  7   3  26  1   
  8   4   7  ar  
  9   5   8  ar  
 10   5   9  1   
 11   6  10  2   
 12   6  11  am  
 13   7  12  ar  
 14   7  13  ar  
 15   8  12  ar  
 16   8  14  1   
 17   9  15  1   
 18   9  27  1   
 19   9  28  1   
 20  11  16  1   
 21  11  17  1   
 22  12  18  ar  
 23  13  19  ar  
 24  13  29  1   
 25  14  20  1   
 26  14  30  1   
 27  14  31  1   
 28  15  20  1   
 29  15  32  1   
 30  15  33  1   
 31  16  21  1   
 32  16  34  1   
 33  16  35  1   
 34  17  22  1   
 35  17  36  1   
 36  17  37  1   
 37  18  23  ar  
 38  18  38  1   
 39  19  23  ar  
 40  19  39  1   
 41  20  40  1   
 42  20  41  1   
 43  21  24  1   
 44  21  42  1   
 45  21  43  1   
 46  22  24  1   
 47  22  44  1   
 48  22  45  1   
 49  23  46  1   
@<TRIPOS>SUBSTRUCTURE
  1 ****   2 GROUP 4 **** **** 0

# MOE 2024.06 (io_trps.svl 2023.06)
