@<TRIPOS>MOLECULE
3-(4-Ethoxy-benzoylamino)-9-aza-bicyclo[3.3.1]nonane-9-carboxylic acid (4-fluoro-phenyl)-amide
59 62 1 0 0 
SMALL
USER_CHARGES


@<TRIPOS>ATOM
  1 F        2.8290    -1.6880     3.1120 F     1 <1>  -0.1900 
  2 C        1.8560    -2.3560     2.5470 C.ar  1 <1>   0.1900 
  3 C        1.7000    -3.6940     2.8500 C.ar  1 <1>  -0.1500 
  4 C        1.0200    -1.6980     1.6670 C.ar  1 <1>  -0.1500 
  5 C        0.6690    -4.3930     2.2460 C.ar  1 <1>  -0.1500 
  6 C       -0.0080    -2.4110     1.0730 C.ar  1 <1>  -0.1500 
  7 C       -0.1990    -3.7630     1.3540 C.ar  1 <1>   0.1170 
  8 N       -1.2470    -4.4360     0.7110 N.am  1 <1>  -0.5470 
  9 C       -1.9440    -5.5650     1.0390 C.2   1 <1>   0.6900 
 10 O       -1.7320    -6.1540     2.0820 O.2   1 <1>  -0.5700 
 11 N       -2.9070    -6.0210     0.1780 N.am  1 <1>  -0.6600 
 12 C       -3.4030    -5.4450    -1.0460 C.3   1 <1>   0.2200 
 13 C       -3.5780    -7.3350     0.2900 C.3   1 <1>   0.2200 
 14 C       -4.9430    -5.2760    -0.7770 C.3   1 <1>  -0.1600 
 15 C       -2.9420    -6.4570    -2.1640 C.3   1 <1>  -0.1600 
 16 C       -4.7230    -7.0660     1.2380 C.3   1 <1>  -0.1600 
 17 C       -2.5560    -8.3090    -0.2690 C.3   1 <1>  -0.1600 
 18 C       -5.4630    -5.8170     0.6270 C.3   1 <1>   0.2200 
 19 C       -2.1030    -7.7070    -1.6550 C.3   1 <1>  -0.1600 
 20 N       -6.9220    -6.0650     0.5630 N.am  1 <1>  -0.7300 
 21 C       -7.5690    -7.0140    -0.1870 C.2   1 <1>   0.5440 
 22 O       -6.9140    -7.7460    -0.9040 O.2   1 <1>  -0.5700 
 23 C       -9.0120    -7.1540    -0.1080 C.ar  1 <1>   0.0860 
 24 C       -9.8490    -6.0720     0.1820 C.ar  1 <1>  -0.1500 
 25 C       -9.6250    -8.3900    -0.3220 C.ar  1 <1>  -0.1500 
 26 C      -11.2220    -6.2170     0.2700 C.ar  1 <1>  -0.1500 
 27 C      -10.9960    -8.5440    -0.2370 C.ar  1 <1>  -0.1500 
 28 C      -11.8070    -7.4620     0.0620 C.ar  1 <1>   0.0830 
 29 O      -13.1370    -7.6930     0.1290 O.3   1 <1>  -0.3620 
 30 C      -14.0600    -6.6650     0.4030 C.3   1 <1>   0.1200 
 31 C      -15.4600    -7.2720     0.3940 C.3   1 <1>  -0.2400 
 32 H        2.3700    -4.1750     3.5390 H     1 <1>   0.1500 
 33 H        1.1730    -0.6550     1.4570 H     1 <1>   0.1500 
 34 H        0.5440    -5.4370     2.4700 H     1 <1>   0.1500 
 35 H       -0.6680    -1.9110     0.3880 H     1 <1>   0.1500 
 36 H       -1.5680    -4.0180    -0.1520 H     1 <1>   0.3700 
 37 H       -2.9610    -4.4810    -1.2230 H     1 <1>   0.0800 
 38 H       -4.2560    -7.5280    -0.5260 H     1 <1>   0.0800 
 39 H       -5.4760    -5.7600    -1.5730 H     1 <1>   0.0800 
 40 H       -5.1860    -4.2320    -0.8440 H     1 <1>   0.0800 
 41 H       -2.3640    -5.9240    -2.8970 H     1 <1>   0.0800 
 42 H       -3.8130    -6.8230    -2.6790 H     1 <1>   0.0800 
 43 H       -4.3490    -6.8580     2.2240 H     1 <1>   0.0800 
 44 H       -5.3610    -7.9290     1.2820 H     1 <1>   0.0800 
 45 H       -3.0190    -9.2700    -0.4100 H     1 <1>   0.0800 
 46 H       -1.7280    -8.4230     0.4090 H     1 <1>   0.0800 
 47 H       -5.3040    -5.0160     1.3290 H     1 <1>   0.0800 
 48 H       -1.0810    -7.3860    -1.5410 H     1 <1>   0.0800 
 49 H       -2.1070    -8.4780    -2.4050 H     1 <1>   0.0800 
 50 H       -7.4580    -5.5840     1.2840 H     1 <1>   0.3700 
 51 H       -9.4180    -5.0990     0.3330 H     1 <1>   0.1500 
 52 H       -9.0080    -9.2410    -0.5580 H     1 <1>   0.1500 
 53 H      -11.8210    -5.3550     0.4960 H     1 <1>   0.1500 
 54 H      -11.4490    -9.5050    -0.4030 H     1 <1>   0.1500 
 55 H      -13.9680    -5.9120    -0.3600 H     1 <1>   0.0800 
 56 H      -13.8320    -6.2500     1.3690 H     1 <1>   0.0800 
 57 H      -15.6710    -7.6990    -0.5710 H     1 <1>   0.0800 
 58 H      -16.1900    -6.5110     0.6000 H     1 <1>   0.0800 
 59 H      -15.5360    -8.0350     1.1480 H     1 <1>   0.0800 
@<TRIPOS>BOND
  1   1   2  1   
  2   2   3  ar  
  3   2   4  ar  
  4   3   5  ar  
  5   3  32  1   
  6   4   6  ar  
  7   4  33  1   
  8   5   7  ar  
  9   5  34  1   
 10   6   7  ar  
 11   6  35  1   
 12   7   8  1   
 13   8   9  am  
 14   8  36  1   
 15   9  10  2   
 16   9  11  am  
 17  11  12  1   
 18  11  13  1   
 19  12  14  1   
 20  12  15  1   
 21  12  37  1   
 22  13  16  1   
 23  13  17  1   
 24  13  38  1   
 25  14  18  1   
 26  14  39  1   
 27  14  40  1   
 28  15  19  1   
 29  15  41  1   
 30  15  42  1   
 31  16  18  1   
 32  16  43  1   
 33  16  44  1   
 34  17  19  1   
 35  17  45  1   
 36  17  46  1   
 37  18  20  1   
 38  18  47  1   
 39  19  48  1   
 40  19  49  1   
 41  20  21  am  
 42  20  50  1   
 43  21  22  2   
 44  21  23  1   
 45  23  24  ar  
 46  23  25  ar  
 47  24  26  ar  
 48  24  51  1   
 49  25  27  ar  
 50  25  52  1   
 51  26  28  ar  
 52  26  53  1   
 53  27  28  ar  
 54  27  54  1   
 55  28  29  1   
 56  29  30  1   
 57  30  31  1   
 58  30  55  1   
 59  30  56  1   
 60  31  57  1   
 61  31  58  1   
 62  31  59  1   
@<TRIPOS>SUBSTRUCTURE
  1 ****  18 GROUP 4 **** **** 0

# MOE 2024.06 (io_trps.svl 2023.06)
