@<TRIPOS>MOLECULE
2-Chloro-N-m-tolyl-propionamide
25 25 1 0 0 
SMALL
USER_CHARGES


@<TRIPOS>ATOM
  1 CL      -1.3400    -3.4000     0.8410 Cl    1 <1>  -0.2900 
  2 C       -0.5600    -2.2440    -0.2420 C.3   1 <1>   0.2710 
  3 C        0.7890    -2.7890    -0.7220 C.2   1 <1>   0.5690 
  4 C       -0.4360    -0.9210     0.5220 C.3   1 <1>  -0.2400 
  5 O        1.2630    -2.3180    -1.7280 O.2   1 <1>  -0.5700 
  6 N        1.3910    -3.7810     0.0090 N.am  1 <1>  -0.5470 
  7 C        2.6160    -4.4480    -0.1390 C.ar  1 <1>   0.1170 
  8 C        2.8050    -5.6440     0.5440 C.ar  1 <1>  -0.1500 
  9 C        3.6590    -3.9660    -0.9250 C.ar  1 <1>  -0.1500 
 10 C        3.9930    -6.3490     0.4500 C.ar  1 <1>  -0.1430 
 11 C        4.8490    -4.6620    -1.0250 C.ar  1 <1>  -0.1500 
 12 C        5.0170    -5.8520    -0.3380 C.ar  1 <1>  -0.1500 
 13 C        4.1840    -7.6540     1.2020 C.3   1 <1>  -0.0970 
 14 H       -1.2100    -2.1240    -1.0900 H     1 <1>   0.0800 
 15 H        0.1900    -1.0460     1.3870 H     1 <1>   0.0800 
 16 H       -1.4080    -0.5760     0.8270 H     1 <1>   0.0800 
 17 H        0.0070    -0.1770    -0.1160 H     1 <1>   0.0800 
 18 H        0.8110    -4.1330     0.7730 H     1 <1>   0.3700 
 19 H        2.0100    -6.0290     1.1560 H     1 <1>   0.1500 
 20 H        3.5500    -3.0430    -1.4620 H     1 <1>   0.1500 
 21 H        5.6450    -4.2770    -1.6370 H     1 <1>   0.1500 
 22 H        5.9470    -6.3870    -0.4210 H     1 <1>   0.1500 
 23 H        3.2390    -8.0560     1.5180 H     1 <1>   0.0800 
 24 H        4.7970    -7.4880     2.0700 H     1 <1>   0.0800 
 25 H        4.6660    -8.3780     0.5700 H     1 <1>   0.0800 
@<TRIPOS>BOND
  1   1   2  1   
  2   2   3  1   
  3   2   4  1   
  4   2  14  1   
  5   3   5  2   
  6   3   6  am  
  7   4  15  1   
  8   4  16  1   
  9   4  17  1   
 10   6   7  1   
 11   6  18  1   
 12   7   8  ar  
 13   7   9  ar  
 14   8  10  ar  
 15   8  19  1   
 16   9  11  ar  
 17   9  20  1   
 18  10  12  ar  
 19  10  13  1   
 20  11  12  ar  
 21  11  21  1   
 22  12  22  1   
 23  13  23  1   
 24  13  24  1   
 25  13  25  1   
@<TRIPOS>SUBSTRUCTURE
  1 ****   7 GROUP 4 **** **** 0

# MOE 2024.06 (io_trps.svl 2023.06)
