@<TRIPOS>MOLECULE
1-Benzothiazol-2-yl-piperidine-4-carboxylic acid butylamide
45 47 1 0 0 
SMALL
USER_CHARGES


@<TRIPOS>ATOM
  1 S       -0.1750    -0.4420     0.2670 S.3   1 <1>  -0.0800 
  2 C       -1.1710     0.9250    -0.2670 C.2   1 <1>   0.4620 
  3 C        1.1020     0.6610     0.7170 C.ar  1 <1>   0.0400 
  4 N       -0.5960     2.0640    -0.1190 N.2   1 <1>  -0.5650 
  5 N       -2.4320     0.6960    -0.7790 N.pl3 1 <1>  -0.8220 
  6 C        0.6700     1.9400     0.4280 C.ar  1 <1>   0.2270 
  7 C        2.3370     0.3710     1.2650 C.ar  1 <1>  -0.1500 
  8 C       -3.0490    -0.6480    -0.9510 C.3   1 <1>   0.2090 
  9 C       -3.3050     1.8390    -1.1600 C.3   1 <1>   0.2090 
 10 C        1.5310     2.9940     0.7060 C.ar  1 <1>  -0.1500 
 11 C        3.1820     1.4360     1.5350 C.ar  1 <1>  -0.1500 
 12 C       -4.3440    -0.7190    -0.1400 C.3   1 <1>  -0.1600 
 13 C       -4.6030     1.7800    -0.3520 C.3   1 <1>  -0.1600 
 14 C        2.7780     2.7400     1.2560 C.ar  1 <1>  -0.1500 
 15 C       -5.3120     0.4220    -0.5120 C.3   1 <1>  -0.0190 
 16 C       -6.6070     0.3850     0.2980 C.2   1 <1>   0.5690 
 17 O       -6.5970    -0.0080     1.4400 O.2   1 <1>  -0.5700 
 18 N       -7.7490     0.8120    -0.3020 N.am  1 <1>  -0.7300 
 19 C       -9.0740     0.8810     0.3490 C.3   1 <1>   0.1400 
 20 C       -9.6210     2.3010     0.2130 C.3   1 <1>  -0.1600 
 21 C      -10.9970     2.4310     0.8800 C.3   1 <1>  -0.1600 
 22 C      -11.5430     3.8550     0.7440 C.3   1 <1>  -0.2400 
 23 H        2.6230    -0.6450     1.4700 H     1 <1>   0.1500 
 24 H       -2.3890    -1.4340    -0.6340 H     1 <1>   0.0800 
 25 H       -3.2630    -0.8010    -1.9950 H     1 <1>   0.0800 
 26 H       -3.5200     1.7800    -2.2130 H     1 <1>   0.0800 
 27 H       -2.8120     2.7780    -0.9750 H     1 <1>   0.0800 
 28 H        1.2110     3.9960     0.4880 H     1 <1>   0.1500 
 29 H        4.1540     1.2570     1.9620 H     1 <1>   0.1500 
 30 H       -4.0950    -0.6600     0.9060 H     1 <1>   0.0800 
 31 H       -4.8200    -1.6670    -0.3080 H     1 <1>   0.0800 
 32 H       -5.2540     2.5740    -0.6700 H     1 <1>   0.0800 
 33 H       -4.3690     1.9450     0.6860 H     1 <1>   0.0800 
 34 H        3.4430     3.5590     1.4710 H     1 <1>   0.1500 
 35 H       -5.5740     0.3010    -1.5470 H     1 <1>   0.0800 
 36 H       -7.7200     1.1420    -1.2660 H     1 <1>   0.3700 
 37 H       -8.9860     0.6200     1.3910 H     1 <1>   0.0800 
 38 H       -9.7380     0.1770    -0.1220 H     1 <1>   0.0800 
 39 H       -9.7070     2.5540    -0.8290 H     1 <1>   0.0800 
 40 H       -8.9350     2.9860     0.6820 H     1 <1>   0.0800 
 41 H      -10.9170     2.1810     1.9250 H     1 <1>   0.0800 
 42 H      -11.6890     1.7420     0.4240 H     1 <1>   0.0800 
 43 H      -10.8780     4.5590     1.2140 H     1 <1>   0.0800 
 44 H      -12.5050     3.9260     1.2190 H     1 <1>   0.0800 
 45 H      -11.6540     4.1200    -0.2920 H     1 <1>   0.0800 
@<TRIPOS>BOND
  1   1   2  1   
  2   1   3  1   
  3   2   4  2   
  4   2   5  1   
  5   3   6  ar  
  6   3   7  ar  
  7   4   6  1   
  8   5   8  1   
  9   5   9  1   
 10   6  10  ar  
 11   7  11  ar  
 12   7  23  1   
 13   8  12  1   
 14   8  24  1   
 15   8  25  1   
 16   9  13  1   
 17   9  26  1   
 18   9  27  1   
 19  10  14  ar  
 20  10  28  1   
 21  11  14  ar  
 22  11  29  1   
 23  12  15  1   
 24  12  30  1   
 25  12  31  1   
 26  13  15  1   
 27  13  32  1   
 28  13  33  1   
 29  14  34  1   
 30  15  16  1   
 31  15  35  1   
 32  16  17  2   
 33  16  18  am  
 34  18  19  1   
 35  18  36  1   
 36  19  20  1   
 37  19  37  1   
 38  19  38  1   
 39  20  21  1   
 40  20  39  1   
 41  20  40  1   
 42  21  22  1   
 43  21  41  1   
 44  21  42  1   
 45  22  43  1   
 46  22  44  1   
 47  22  45  1   
@<TRIPOS>SUBSTRUCTURE
  1 ****  13 GROUP 4 **** **** 0

# MOE 2024.06 (io_trps.svl 2023.06)
