@<TRIPOS>MOLECULE
5-(Naphthalen-1-yloxymethyl)-4-(tetrahydro-furan-2-ylmethyl)-4H-[1,2,4]triazole-
43 46 1 0 0 
SMALL
USER_CHARGES


@<TRIPOS>ATOM
  1 S        1.1120     1.0190     0.3660 S.3   1 <1>  -0.9360 
  2 C        2.3430     0.1690    -0.2550 C.cat 1 <1>   0.7360 
  3 N        2.3720    -1.1400    -0.3630 N.pl3 1 <1>  -0.3930 
  4 N        3.4680     0.6550    -0.7410 N.pl3 1 <1>  -0.7640 
  5 N        3.5390    -1.5510    -0.9420 N.2   1 <1>  -0.2600 
  6 C        4.1760    -0.4540    -1.1560 C.2   1 <1>   0.4850 
  7 C        3.8230     2.1010    -0.7930 C.3   1 <1>   0.3540 
  8 C        5.5440    -0.3750    -1.8240 C.3   1 <1>   0.2880 
  9 C        3.9280     2.7680     0.5920 C.3   1 <1>   0.2000 
 10 O        6.5210     0.0280    -0.8830 O.3   1 <1>  -0.3630 
 11 O        4.6220     3.9700     0.4610 O.3   1 <1>  -0.5600 
 12 C        4.7060     1.9860     1.6530 C.3   1 <1>  -0.1600 
 13 C        7.7850     0.3680    -1.2430 C.ar  1 <1>   0.0820 
 14 C        5.1320     4.3440     1.6960 C.3   1 <1>   0.1200 
 15 C        5.5450     3.0400     2.3630 C.3   1 <1>  -0.1600 
 16 C        8.6830     0.6870    -0.1900 C.ar  1 <1>   0.0000 
 17 C        8.2010     0.4200    -2.5560 C.ar  1 <1>  -0.1500 
 18 C        9.9920     1.1070    -0.5190 C.ar  1 <1>   0.0000 
 19 C        8.3420     0.6020     1.1790 C.ar  1 <1>  -0.1500 
 20 C        9.5030     0.8170    -2.8690 C.ar  1 <1>  -0.1500 
 21 C       10.3730     1.1570    -1.8730 C.ar  1 <1>  -0.1500 
 22 C       10.8810     1.4580     0.5170 C.ar  1 <1>  -0.1500 
 23 C        9.2260     0.9430     2.1650 C.ar  1 <1>  -0.1500 
 24 C       10.5100     1.3820     1.8300 C.ar  1 <1>  -0.1500 
 25 H        1.5890    -1.7100    -0.0420 H     1 <1>   0.4500 
 26 H        3.0730     2.6210    -1.3630 H     1 <1>   0.0800 
 27 H        4.7690     2.2150    -1.2910 H     1 <1>   0.0800 
 28 H        5.5040     0.3480    -2.6170 H     1 <1>   0.0800 
 29 H        5.8300    -1.3350    -2.2120 H     1 <1>   0.0800 
 30 H        2.9440     3.0070     0.9590 H     1 <1>   0.0800 
 31 H        5.3370     1.2470     1.1980 H     1 <1>   0.0800 
 32 H        4.0210     1.4940     2.3200 H     1 <1>   0.0800 
 33 H        4.3460     4.8330     2.2470 H     1 <1>   0.0800 
 34 H        5.9600     5.0160     1.5490 H     1 <1>   0.0800 
 35 H        6.5930     2.8650     2.1950 H     1 <1>   0.0800 
 36 H        5.3540     3.0700     3.4210 H     1 <1>   0.0800 
 37 H        7.5600     0.1690    -3.3790 H     1 <1>   0.1500 
 38 H        7.3630     0.2540     1.4450 H     1 <1>   0.1500 
 39 H        9.8090     0.8530    -3.9010 H     1 <1>   0.1500 
 40 H       11.3750     1.4690    -2.1110 H     1 <1>   0.1500 
 41 H       11.8690     1.7890     0.2530 H     1 <1>   0.1500 
 42 H        8.9490     0.8770     3.2030 H     1 <1>   0.1500 
 43 H       11.1940     1.6510     2.6160 H     1 <1>   0.1500 
@<TRIPOS>BOND
  1   1   2  1   
  2   2   3  ar  
  3   2   4  ar  
  4   3   5  1   
  5   3  25  1   
  6   4   6  1   
  7   4   7  1   
  8   5   6  2   
  9   6   8  1   
 10   7   9  1   
 11   7  26  1   
 12   7  27  1   
 13   8  10  1   
 14   8  28  1   
 15   8  29  1   
 16   9  11  1   
 17   9  12  1   
 18   9  30  1   
 19  10  13  1   
 20  11  14  1   
 21  12  15  1   
 22  12  31  1   
 23  12  32  1   
 24  13  16  ar  
 25  13  17  ar  
 26  14  15  1   
 27  14  33  1   
 28  14  34  1   
 29  15  35  1   
 30  15  36  1   
 31  16  18  ar  
 32  16  19  ar  
 33  17  20  ar  
 34  17  37  1   
 35  18  21  ar  
 36  18  22  ar  
 37  19  23  ar  
 38  19  38  1   
 39  20  21  ar  
 40  20  39  1   
 41  21  40  1   
 42  22  24  ar  
 43  22  41  1   
 44  23  24  ar  
 45  23  42  1   
 46  24  43  1   
@<TRIPOS>SUBSTRUCTURE
  1 ****  10 GROUP 4 **** **** 0

# MOE 2024.06 (io_trps.svl 2023.06)
