@<TRIPOS>MOLECULE
Cyclohexanecarboxylic acid {1-[3-(1,3-dioxo-1,3-dihydro-isoindol-2-yl)-propyl]-piperidin-4-yl}-amide
61 64 1 0 0 
SMALL
USER_CHARGES


@<TRIPOS>ATOM
  1 O        1.9920     2.6700    -1.7950 O.2   1 <1>  -0.5700 
  2 C        1.6860     2.8340    -0.6310 C.2   1 <1>   0.5440 
  3 N        2.2310     2.1090     0.3940 N.am  1 <1>  -0.4200 
  4 C        0.7640     3.7880    -0.0830 C.ar  1 <1>   0.0860 
  5 C        1.7180     2.5700     1.5780 C.2   1 <1>   0.5440 
  6 C        3.1900     1.0000     0.2440 C.3   1 <1>   0.1400 
  7 C        0.7850     3.6240     1.2950 C.ar  1 <1>   0.0860 
  8 C       -0.0550     4.7490    -0.6620 C.ar  1 <1>  -0.1500 
  9 O        2.0490     2.1350     2.6600 O.2   1 <1>  -0.5700 
 10 C        4.6020     1.5700     0.0890 C.3   1 <1>  -0.1600 
 11 C       -0.0110     4.4200     2.1090 C.ar  1 <1>  -0.1500 
 12 C       -0.8480     5.5420     0.1500 C.ar  1 <1>  -0.1500 
 13 C        5.6090     0.4430    -0.1260 C.3   1 <1>   0.3430 
 14 C       -0.8270     5.3780     1.5300 C.ar  1 <1>  -0.1500 
 15 N        6.9910     0.9880    -0.2360 N.4   1 <1>  -0.9590 
 16 C        7.2220     1.7200    -1.5180 C.3   1 <1>   0.3430 
 17 C        8.0000    -0.0930    -0.0450 C.3   1 <1>   0.3430 
 18 C        8.5890     2.3950    -1.4780 C.3   1 <1>  -0.1600 
 19 C        9.3920     0.5200     0.0470 C.3   1 <1>  -0.1600 
 20 C        9.7070     1.3900    -1.1750 C.3   1 <1>   0.2200 
 21 N       10.9900     2.0970    -0.9800 N.am  1 <1>  -0.7300 
 22 C       11.2930     3.0110    -0.0140 C.2   1 <1>   0.5690 
 23 O       10.4860     3.3430     0.8220 O.2   1 <1>  -0.5700 
 24 C       12.6940     3.6230    -0.0020 C.3   1 <1>  -0.0190 
 25 C       13.4440     3.2810     1.3000 C.3   1 <1>  -0.1600 
 26 C       12.6420     5.1490    -0.2120 C.3   1 <1>  -0.1600 
 27 C       14.8490     3.9010     1.3210 C.3   1 <1>  -0.1600 
 28 C       14.0460     5.7690    -0.1910 C.3   1 <1>  -0.1600 
 29 C       14.7860     5.4190     1.1060 C.3   1 <1>  -0.1600 
 30 H        2.9170     0.4250    -0.6250 H     1 <1>   0.0800 
 31 H        3.1300     0.3610     1.1100 H     1 <1>   0.0800 
 32 H       -0.0630     4.8670    -1.7330 H     1 <1>   0.1500 
 33 H        4.8540     2.1160     0.9820 H     1 <1>   0.0800 
 34 H        4.6060     2.2360    -0.7550 H     1 <1>   0.0800 
 35 H        0.0150     4.2830     3.1770 H     1 <1>   0.1500 
 36 H       -1.4870     6.2900    -0.2890 H     1 <1>   0.1500 
 37 H        5.3580    -0.1100    -1.0180 H     1 <1>   0.0800 
 38 H        5.5540    -0.2310     0.7150 H     1 <1>   0.0800 
 39 H       -1.4490     6.0010     2.1510 H     1 <1>   0.1500 
 40 H        7.1340     1.6670     0.5290 H     1 <1>   0.4500 
 41 H        6.4640     2.4730    -1.6620 H     1 <1>   0.0800 
 42 H        7.1780     1.0320    -2.3470 H     1 <1>   0.0800 
 43 H        7.9590    -0.7840    -0.8720 H     1 <1>   0.0800 
 44 H        7.7920    -0.6360     0.8630 H     1 <1>   0.0800 
 45 H        8.5550     3.1700    -0.7340 H     1 <1>   0.0800 
 46 H        8.7770     2.8610    -2.4280 H     1 <1>   0.0800 
 47 H       10.1190    -0.2690     0.1190 H     1 <1>   0.0800 
 48 H        9.4430     1.0950     0.9540 H     1 <1>   0.0800 
 49 H        9.8140     0.7410    -2.0300 H     1 <1>   0.0800 
 50 H       11.7220     1.8630    -1.6540 H     1 <1>   0.3700 
 51 H       13.2500     3.2000    -0.8190 H     1 <1>   0.0800 
 52 H       13.5220     2.2130     1.4040 H     1 <1>   0.0800 
 53 H       12.8820     3.6520     2.1410 H     1 <1>   0.0800 
 54 H       12.0480     5.5940     0.5690 H     1 <1>   0.0800 
 55 H       12.1660     5.3700    -1.1510 H     1 <1>   0.0800 
 56 H       15.4500     3.4550     0.5480 H     1 <1>   0.0800 
 57 H       15.3200     3.6920     2.2660 H     1 <1>   0.0800 
 58 H       13.9680     6.8390    -0.2820 H     1 <1>   0.0800 
 59 H       14.6110     5.4080    -1.0330 H     1 <1>   0.0800 
 60 H       15.7850     5.8190     1.0710 H     1 <1>   0.0800 
 61 H       14.2780     5.8750     1.9390 H     1 <1>   0.0800 
@<TRIPOS>BOND
  1   1   2  2   
  2   2   3  am  
  3   2   4  1   
  4   3   5  am  
  5   3   6  1   
  6   4   7  ar  
  7   4   8  ar  
  8   5   7  1   
  9   5   9  2   
 10   6  10  1   
 11   6  30  1   
 12   6  31  1   
 13   7  11  ar  
 14   8  12  ar  
 15   8  32  1   
 16  10  13  1   
 17  10  33  1   
 18  10  34  1   
 19  11  14  ar  
 20  11  35  1   
 21  12  14  ar  
 22  12  36  1   
 23  13  15  1   
 24  13  37  1   
 25  13  38  1   
 26  14  39  1   
 27  15  16  1   
 28  15  17  1   
 29  15  40  1   
 30  16  18  1   
 31  16  41  1   
 32  16  42  1   
 33  17  19  1   
 34  17  43  1   
 35  17  44  1   
 36  18  20  1   
 37  18  45  1   
 38  18  46  1   
 39  19  20  1   
 40  19  47  1   
 41  19  48  1   
 42  20  21  1   
 43  20  49  1   
 44  21  22  am  
 45  21  50  1   
 46  22  23  2   
 47  22  24  1   
 48  24  25  1   
 49  24  26  1   
 50  24  51  1   
 51  25  27  1   
 52  25  52  1   
 53  25  53  1   
 54  26  28  1   
 55  26  54  1   
 56  26  55  1   
 57  27  29  1   
 58  27  56  1   
 59  27  57  1   
 60  28  29  1   
 61  28  58  1   
 62  28  59  1   
 63  29  60  1   
 64  29  61  1   
@<TRIPOS>SUBSTRUCTURE
  1 ****  15 GROUP 4 **** **** 0

# MOE 2024.06 (io_trps.svl 2023.06)
