@<TRIPOS>MOLECULE
ka-03878
35 35 1 0 0 
SMALL
USER_CHARGES


@<TRIPOS>ATOM
  1 S        0.0120    -0.0550     0.0390 S.3   1 <1>  -0.3310 
  2 C       -0.0220     1.7310    -0.0210 C.ar  1 <1>   0.7220 
  3 C       -1.7630    -0.5680     0.0780 C.3   1 <1>  -0.0100 
  4 N       -1.1990     2.2830    -0.0250 N.ar  1 <1>  -0.6200 
  5 N        1.1420     2.3030    -0.0560 N.ar  1 <1>  -0.6200 
  6 C       -1.1300     3.5890    -0.0700 C.ar  1 <1>   0.7200 
  7 C        1.0520     3.6070    -0.0990 C.ar  1 <1>   0.7200 
  8 N       -0.0450     4.3090    -0.1090 N.ar  1 <1>  -0.6200 
  9 N       -2.2790     4.2990    -0.0790 N.pl3 1 <1>  -0.8690 
 10 N        2.1890     4.3350    -0.1390 N.pl3 1 <1>  -0.8690 
 11 C       -3.6510     3.7960    -0.0160 C.3   1 <1>   0.2890 
 12 C        3.5680     3.8440    -0.1630 C.3   1 <1>   0.2890 
 13 C       -4.3920     4.3030    -1.2470 C.3   1 <1>  -0.2400 
 14 C       -4.2830     4.3190     1.2680 C.3   1 <1>  -0.2400 
 15 C        4.2970     4.4400     1.0340 C.3   1 <1>  -0.2400 
 16 C        4.2000     4.2870    -1.4760 C.3   1 <1>  -0.2400 
 17 H       -1.7940    -1.6410     0.1140 H     1 <1>   0.0800 
 18 H       -2.2330    -0.1970    -0.8150 H     1 <1>   0.0800 
 19 H       -2.2110    -0.1380     0.9560 H     1 <1>   0.0800 
 20 H       -2.1580     5.3080    -0.1010 H     1 <1>   0.4000 
 21 H        2.0560     5.3420    -0.1850 H     1 <1>   0.4000 
 22 H       -3.6610     2.7180    -0.0100 H     1 <1>   0.0800 
 23 H        3.5900     2.7680    -0.0970 H     1 <1>   0.0800 
 24 H       -4.4010     5.3780    -1.2710 H     1 <1>   0.0800 
 25 H       -5.4060     3.9490    -1.2350 H     1 <1>   0.0800 
 26 H       -3.9140     3.9320    -2.1360 H     1 <1>   0.0800 
 27 H       -4.2900     5.3940     1.2790 H     1 <1>   0.0800 
 28 H       -3.7310     3.9570     2.1170 H     1 <1>   0.0800 
 29 H       -5.2950     3.9670     1.3470 H     1 <1>   0.0800 
 30 H        4.2950     5.5140     0.9870 H     1 <1>   0.0800 
 31 H        5.3160     4.0970     1.0490 H     1 <1>   0.0800 
 32 H        3.8200     4.1220     1.9440 H     1 <1>   0.0800 
 33 H        4.1940     5.3580    -1.5600 H     1 <1>   0.0800 
 34 H        3.6560     3.8620    -2.3010 H     1 <1>   0.0800 
 35 H        5.2160     3.9410    -1.5280 H     1 <1>   0.0800 
@<TRIPOS>BOND
  1   1   2  1   
  2   1   3  1   
  3   2   4  ar  
  4   2   5  ar  
  5   3  17  1   
  6   3  18  1   
  7   3  19  1   
  8   4   6  ar  
  9   5   7  ar  
 10   6   8  ar  
 11   6   9  1   
 12   7   8  ar  
 13   7  10  1   
 14   9  11  1   
 15   9  20  1   
 16  10  12  1   
 17  10  21  1   
 18  11  13  1   
 19  11  14  1   
 20  11  22  1   
 21  12  15  1   
 22  12  16  1   
 23  12  23  1   
 24  13  24  1   
 25  13  25  1   
 26  13  26  1   
 27  14  27  1   
 28  14  28  1   
 29  14  29  1   
 30  15  30  1   
 31  15  31  1   
 32  15  32  1   
 33  16  33  1   
 34  16  34  1   
 35  16  35  1   
@<TRIPOS>SUBSTRUCTURE
  1 ****   6 GROUP 4 **** **** 0

# MOE 2024.06 (io_trps.svl 2023.06)
