@<TRIPOS>MOLECULE
1-Benzothiazol-2-yl-piperidine-4-carboxylic acid (2,6-dimethoxy-phenyl)-amide
51 54 1 0 0 
SMALL
USER_CHARGES


@<TRIPOS>ATOM
  1 S        0.3460     0.2120     0.5430 S.3   1 <1>  -0.0800 
  2 C        1.2450    -1.3140     0.4560 C.2   1 <1>   0.4620 
  3 C       -1.0240    -0.5490    -0.2290 C.ar  1 <1>   0.0400 
  4 N        0.5800    -2.2690    -0.0870 N.2   1 <1>  -0.5650 
  5 N        2.5330    -1.3800     0.9510 N.pl3 1 <1>  -0.8220 
  6 C       -0.6850    -1.8650    -0.4780 C.ar  1 <1>   0.2270 
  7 C       -2.2460     0.0060    -0.5570 C.ar  1 <1>  -0.1500 
  8 C        3.3250    -2.6320     0.8130 C.3   1 <1>   0.2090 
  9 C        3.2460    -0.2540     1.6160 C.3   1 <1>   0.2090 
 10 C       -1.6320    -2.6730    -1.0940 C.ar  1 <1>  -0.1500 
 11 C       -3.1770    -0.8170    -1.1710 C.ar  1 <1>  -0.1500 
 12 C        4.6190    -2.3370     0.0510 C.3   1 <1>  -0.1600 
 13 C        4.5360     0.0510     0.8530 C.3   1 <1>  -0.1600 
 14 C       -2.8690    -2.1490    -1.4370 C.ar  1 <1>  -0.1500 
 15 C        5.4200    -1.2020     0.7130 C.3   1 <1>  -0.0190 
 16 C        6.7040    -0.9060    -0.0590 C.2   1 <1>   0.5690 
 17 O        6.6350    -0.3580    -1.1340 O.2   1 <1>  -0.5700 
 18 N        7.8800    -1.3110     0.4990 N.am  1 <1>  -0.5470 
 19 C        9.1910    -1.1310     0.0100 C.ar  1 <1>   0.1170 
 20 C        9.7200     0.1340    -0.2680 C.ar  1 <1>   0.0830 
 21 C        9.9990    -2.2560    -0.1840 C.ar  1 <1>   0.0830 
 22 O        8.9900     1.2500    -0.0160 O.3   1 <1>  -0.3630 
 23 C       11.0090     0.2670    -0.7620 C.ar  1 <1>  -0.1500 
 24 O        9.4700    -3.4750     0.1410 O.3   1 <1>  -0.3630 
 25 C       11.2910    -2.1100    -0.6850 C.ar  1 <1>  -0.1500 
 26 C        8.6650     2.0550    -1.1280 C.3   1 <1>   0.0400 
 27 C       11.7900    -0.8530    -0.9770 C.ar  1 <1>  -0.1500 
 28 C       10.1200    -4.6730    -0.2250 C.3   1 <1>   0.0400 
 29 H       -2.4580     1.0370    -0.3410 H     1 <1>   0.1500 
 30 H        2.7650    -3.3850     0.2850 H     1 <1>   0.0800 
 31 H        3.5510    -3.0140     1.7930 H     1 <1>   0.0800 
 32 H        3.4790    -0.5400     2.6270 H     1 <1>   0.0800 
 33 H        2.6420     0.6330     1.6580 H     1 <1>   0.0800 
 34 H       -1.3850    -3.6990    -1.2940 H     1 <1>   0.1500 
 35 H       -4.1430    -0.4260    -1.4440 H     1 <1>   0.1500 
 36 H        4.3680    -2.0620    -0.9590 H     1 <1>   0.0800 
 37 H        5.2170    -3.2300     0.0070 H     1 <1>   0.0800 
 38 H        5.0800     0.8240     1.3660 H     1 <1>   0.0800 
 39 H        4.2770     0.4270    -0.1230 H     1 <1>   0.0800 
 40 H       -3.6010    -2.7780    -1.9140 H     1 <1>   0.1500 
 41 H        5.6930    -1.5190     1.7030 H     1 <1>   0.0800 
 42 H        7.8170    -2.0150     1.2310 H     1 <1>   0.3700 
 43 H       11.4050     1.2450    -0.9670 H     1 <1>   0.1500 
 44 H       11.9270    -2.9590    -0.8510 H     1 <1>   0.1500 
 45 H        7.9060     2.7530    -0.8250 H     1 <1>   0.0800 
 46 H        8.2870     1.4260    -1.9150 H     1 <1>   0.0800 
 47 H        9.5440     2.5800    -1.4530 H     1 <1>   0.0800 
 48 H       12.7890    -0.7450    -1.3630 H     1 <1>   0.1500 
 49 H        9.4850    -5.4950     0.0510 H     1 <1>   0.0800 
 50 H       11.0530    -4.7410     0.3050 H     1 <1>   0.0800 
 51 H       10.2770    -4.6740    -1.2890 H     1 <1>   0.0800 
@<TRIPOS>BOND
  1   1   2  1   
  2   1   3  1   
  3   2   4  2   
  4   2   5  1   
  5   3   6  ar  
  6   3   7  ar  
  7   4   6  1   
  8   5   8  1   
  9   5   9  1   
 10   6  10  ar  
 11   7  11  ar  
 12   7  29  1   
 13   8  12  1   
 14   8  30  1   
 15   8  31  1   
 16   9  13  1   
 17   9  32  1   
 18   9  33  1   
 19  10  14  ar  
 20  10  34  1   
 21  11  14  ar  
 22  11  35  1   
 23  12  15  1   
 24  12  36  1   
 25  12  37  1   
 26  13  15  1   
 27  13  38  1   
 28  13  39  1   
 29  14  40  1   
 30  15  16  1   
 31  15  41  1   
 32  16  17  2   
 33  16  18  am  
 34  18  19  1   
 35  18  42  1   
 36  19  20  ar  
 37  19  21  ar  
 38  20  22  1   
 39  20  23  ar  
 40  21  24  1   
 41  21  25  ar  
 42  22  26  1   
 43  23  27  ar  
 44  23  43  1   
 45  24  28  1   
 46  25  27  ar  
 47  25  44  1   
 48  26  45  1   
 49  26  46  1   
 50  26  47  1   
 51  27  48  1   
 52  28  49  1   
 53  28  50  1   
 54  28  51  1   
@<TRIPOS>SUBSTRUCTURE
  1 ****  15 GROUP 4 **** **** 0

# MOE 2024.06 (io_trps.svl 2023.06)
