@<TRIPOS>MOLECULE
NONAME
70 75 1 0 0 
SMALL
USER_CHARGES


@<TRIPOS>ATOM
  1 O       -4.0830     0.3250     0.7130 O.2   1 <1>  -0.5700 
  2 C       -4.0580    -0.6290    -0.0310 C.2   1 <1>   0.5690 
  3 N       -5.0570    -0.8060    -0.9380 N.am  1 <1>  -0.7300 
  4 C       -2.9040    -1.6500     0.0330 C.3   1 <1>   0.0610 
  5 C       -6.2170     0.0730    -1.1930 C.3   1 <1>   0.2200 
  6 C       -2.1780    -1.7300    -1.3340 C.3   1 <1>  -0.1600 
  7 C       -3.4500    -3.0580     0.3850 C.3   1 <1>  -0.1600 
  8 C       -1.8550    -1.2610     1.1090 C.3   1 <1>  -0.1600 
  9 C       -5.7190     1.4270    -1.8610 C.3   1 <1>  -0.1600 
 10 C       -7.0890     0.1770     0.1090 C.3   1 <1>  -0.1600 
 11 C       -1.0350    -2.7620    -1.2910 C.3   1 <1>  -0.0800 
 12 C       -2.3110    -4.0930     0.4330 C.3   1 <1>  -0.0800 
 13 C       -0.7090    -2.2870     1.1640 C.3   1 <1>  -0.0800 
 14 C       -5.8450     2.7560    -1.0370 C.3   1 <1>   0.4230 
 15 C       -7.3400     1.6470     0.2660 C.3   1 <1>   0.4230 
 16 C       -1.6150    -4.1440    -0.9390 C.3   1 <1>  -0.1600 
 17 C       -0.0200    -2.3480    -0.2110 C.3   1 <1>  -0.1600 
 18 C       -1.2890    -3.6720     1.5040 C.3   1 <1>  -0.1600 
 19 N       -6.0160     2.2940     0.3270 N.4   1 <1>  -0.9590 
 20 C       -7.0660     3.6900    -1.3980 C.3   1 <1>  -0.1600 
 21 C       -8.4360     2.6230     0.6270 C.3   1 <1>  -0.1600 
 22 C       -5.7200     3.2810     1.4120 C.3   1 <1>   0.4860 
 23 C       -8.2130     3.8530    -0.3180 C.3   1 <1>  -0.1600 
 24 C       -4.3410     3.8900     1.2310 C.ar  1 <1>  -0.1440 
 25 C       -4.2150     5.1610     0.6800 C.ar  1 <1>   0.0820 
 26 C       -3.2060     3.1980     1.6240 C.ar  1 <1>  -0.1500 
 27 O       -5.3570     5.8100     0.3360 O.3   1 <1>  -0.3630 
 28 C       -2.9490     5.7160     0.5060 C.ar  1 <1>  -0.1500 
 29 C       -1.9510     3.7530     1.4500 C.ar  1 <1>  -0.1500 
 30 C       -5.3430     7.1680    -0.0510 C.3   1 <1>   0.0400 
 31 C       -1.8230     5.0100     0.8890 C.ar  1 <1>  -0.1500 
 32 H       -4.9980    -1.6310    -1.5410 H     1 <1>   0.3700 
 33 H       -6.8210    -0.4280    -1.9320 H     1 <1>   0.0800 
 34 H       -1.7780    -0.7630    -1.5870 H     1 <1>   0.0800 
 35 H       -2.8690    -2.0090    -2.1100 H     1 <1>   0.0800 
 36 H       -4.1760    -3.3710    -0.3440 H     1 <1>   0.0800 
 37 H       -3.9440    -3.0240     1.3410 H     1 <1>   0.0800 
 38 H       -2.3270    -1.2030     2.0740 H     1 <1>   0.0800 
 39 H       -1.4510    -0.2880     0.8880 H     1 <1>   0.0800 
 40 H       -6.2400     1.5540    -2.7930 H     1 <1>   0.0800 
 41 H       -4.6830     1.3200    -2.1330 H     1 <1>   0.0800 
 42 H       -6.6160    -0.2250     0.9870 H     1 <1>   0.0800 
 43 H       -8.0260    -0.3300    -0.0390 H     1 <1>   0.0800 
 44 H       -0.5460    -2.8060    -2.2500 H     1 <1>   0.0800 
 45 H       -2.7090    -5.0640     0.6760 H     1 <1>   0.0800 
 46 H        0.0050    -1.9970     1.9160 H     1 <1>   0.0800 
 47 H       -4.9270     3.3160    -1.1280 H     1 <1>   0.0800 
 48 H       -7.6580     1.6880    -0.7590 H     1 <1>   0.0800 
 49 H       -0.8230    -4.8730    -0.9160 H     1 <1>   0.0800 
 50 H       -2.3160    -4.4520    -1.6950 H     1 <1>   0.0800 
 51 H        0.4000    -1.3870    -0.4520 H     1 <1>   0.0800 
 52 H        0.7880    -3.0580    -0.1810 H     1 <1>   0.0800 
 53 H       -0.4940    -4.3960     1.5530 H     1 <1>   0.0800 
 54 H       -1.7610    -3.6430     2.4710 H     1 <1>   0.0800 
 55 H       -5.3030     1.5490     0.4570 H     1 <1>   0.4500 
 56 H       -7.5140     3.3340    -2.3090 H     1 <1>   0.0800 
 57 H       -6.6800     4.6650    -1.6380 H     1 <1>   0.0800 
 58 H       -8.4150     2.8880     1.6690 H     1 <1>   0.0800 
 59 H       -9.3890     2.1710     0.4160 H     1 <1>   0.0800 
 60 H       -5.7620     2.7850     2.3680 H     1 <1>   0.0800 
 61 H       -6.4490     4.0710     1.4180 H     1 <1>   0.0800 
 62 H       -9.1370     4.0900    -0.8210 H     1 <1>   0.0800 
 63 H       -7.9840     4.7120     0.2900 H     1 <1>   0.0800 
 64 H       -3.2810     2.2220     2.0730 H     1 <1>   0.1500 
 65 H       -2.8160     6.6910     0.0770 H     1 <1>   0.1500 
 66 H       -1.0740     3.2070     1.7530 H     1 <1>   0.1500 
 67 H       -6.3590     7.4870    -0.2000 H     1 <1>   0.0800 
 68 H       -4.7930     7.2670    -0.9700 H     1 <1>   0.0800 
 69 H       -4.8900     7.7510     0.7320 H     1 <1>   0.0800 
 70 H       -0.8450     5.4400     0.7540 H     1 <1>   0.1500 
@<TRIPOS>BOND
  1   1   2  2   
  2   2   3  am  
  3   2   4  1   
  4   3   5  1   
  5   3  32  1   
  6   4   6  1   
  7   4   7  1   
  8   4   8  1   
  9   5   9  1   
 10   5  10  1   
 11   5  33  1   
 12   6  11  1   
 13   6  34  1   
 14   6  35  1   
 15   7  12  1   
 16   7  36  1   
 17   7  37  1   
 18   8  13  1   
 19   8  38  1   
 20   8  39  1   
 21   9  14  1   
 22   9  40  1   
 23   9  41  1   
 24  10  15  1   
 25  10  42  1   
 26  10  43  1   
 27  11  16  1   
 28  11  17  1   
 29  11  44  1   
 30  12  16  1   
 31  12  18  1   
 32  12  45  1   
 33  13  17  1   
 34  13  18  1   
 35  13  46  1   
 36  14  19  1   
 37  14  20  1   
 38  14  47  1   
 39  15  19  1   
 40  15  21  1   
 41  15  48  1   
 42  16  49  1   
 43  16  50  1   
 44  17  51  1   
 45  17  52  1   
 46  18  53  1   
 47  18  54  1   
 48  19  22  1   
 49  19  55  1   
 50  20  23  1   
 51  20  56  1   
 52  20  57  1   
 53  21  23  1   
 54  21  58  1   
 55  21  59  1   
 56  22  24  1   
 57  22  60  1   
 58  22  61  1   
 59  23  62  1   
 60  23  63  1   
 61  24  25  ar  
 62  24  26  ar  
 63  25  27  1   
 64  25  28  ar  
 65  26  29  ar  
 66  26  64  1   
 67  27  30  1   
 68  28  31  ar  
 69  28  65  1   
 70  29  31  ar  
 71  29  66  1   
 72  30  67  1   
 73  30  68  1   
 74  30  69  1   
 75  31  70  1   
@<TRIPOS>SUBSTRUCTURE
  1 ****   1 GROUP 4 **** **** 0

# MOE 2024.06 (io_trps.svl 2023.06)
