@<TRIPOS>MOLECULE
4-Benzoylamino-piperidine-1-carboxylic acid (3,5-dimethyl-phenyl)-amide
51 53 1 0 0 
SMALL
USER_CHARGES


@<TRIPOS>ATOM
  1 O       -0.2990    -0.2660     0.6860 O.2   1 <1>  -0.5700 
  2 C       -0.7930     0.7180     0.1680 C.2   1 <1>   0.6900 
  3 N       -2.0810     0.6740    -0.3090 N.am  1 <1>  -0.6600 
  4 N       -0.1000     1.8910     0.0770 N.am  1 <1>  -0.5470 
  5 C       -2.9860    -0.4560     0.0400 C.3   1 <1>   0.1400 
  6 C       -2.6340     1.6060    -1.3300 C.3   1 <1>   0.1400 
  7 C        1.2400     2.2110     0.3410 C.ar  1 <1>   0.1170 
  8 C       -4.3170     0.1000     0.5530 C.3   1 <1>  -0.1600 
  9 C       -3.9480     2.1920    -0.8150 C.3   1 <1>  -0.1600 
 10 C        1.5700     3.5350     0.6060 C.ar  1 <1>  -0.1500 
 11 C        2.2590     1.2650     0.3290 C.ar  1 <1>  -0.1500 
 12 C       -4.9270     1.0720    -0.4590 C.3   1 <1>   0.2200 
 13 C        2.8790     3.9110     0.8560 C.ar  1 <1>  -0.1430 
 14 C        3.5720     1.6260     0.5790 C.ar  1 <1>  -0.1430 
 15 N       -6.1470     1.6630     0.1120 N.am  1 <1>  -0.7300 
 16 C        3.8770     2.9510     0.8400 C.ar  1 <1>  -0.1500 
 17 C        3.2320     5.3590     1.1450 C.3   1 <1>  -0.0970 
 18 C        4.6730     0.5810     0.5660 C.3   1 <1>  -0.0970 
 19 C       -7.2940     1.9200    -0.5860 C.2   1 <1>   0.5440 
 20 O       -7.3170     1.6640    -1.7740 O.2   1 <1>  -0.5700 
 21 C       -8.4590     2.4780     0.0800 C.ar  1 <1>   0.0860 
 22 C       -8.3500     3.2850     1.2150 C.ar  1 <1>  -0.1500 
 23 C       -9.7450     2.2220    -0.3990 C.ar  1 <1>  -0.1500 
 24 C       -9.4680     3.7980     1.8480 C.ar  1 <1>  -0.1500 
 25 C      -10.8670     2.7320     0.2280 C.ar  1 <1>  -0.1500 
 26 C      -10.7300     3.5200     1.3560 C.ar  1 <1>  -0.1500 
 27 H       -0.7020     2.6800    -0.1170 H     1 <1>   0.3700 
 28 H       -2.5440    -1.0800     0.7990 H     1 <1>   0.0800 
 29 H       -3.1480    -1.0600    -0.8370 H     1 <1>   0.0800 
 30 H       -2.8140     1.0570    -2.2390 H     1 <1>   0.0800 
 31 H       -1.9420     2.3970    -1.5590 H     1 <1>   0.0800 
 32 H       -4.1380     0.5990     1.4890 H     1 <1>   0.0800 
 33 H       -4.9950    -0.7160     0.7220 H     1 <1>   0.0800 
 34 H       -4.3830     2.8110    -1.5800 H     1 <1>   0.0800 
 35 H       -3.7490     2.8010     0.0490 H     1 <1>   0.0800 
 36 H        0.7940     4.2760     0.6180 H     1 <1>   0.1500 
 37 H        2.0230     0.2390     0.1190 H     1 <1>   0.1500 
 38 H       -5.1780     0.5280    -1.3570 H     1 <1>   0.0800 
 39 H       -6.1300     1.8130     1.1190 H     1 <1>   0.3700 
 40 H        4.8960     3.2360     1.0330 H     1 <1>   0.1500 
 41 H        2.3470     5.9430     1.3230 H     1 <1>   0.0800 
 42 H        3.7600     5.7790     0.3080 H     1 <1>   0.0800 
 43 H        3.8580     5.4170     2.0170 H     1 <1>   0.0800 
 44 H        4.2590    -0.4060     0.6680 H     1 <1>   0.0800 
 45 H        5.3530     0.7490     1.3810 H     1 <1>   0.0800 
 46 H        5.2150     0.6360    -0.3600 H     1 <1>   0.0800 
 47 H       -7.3780     3.5240     1.6060 H     1 <1>   0.1500 
 48 H       -9.8590     1.6120    -1.2790 H     1 <1>   0.1500 
 49 H       -9.3590     4.4160     2.7230 H     1 <1>   0.1500 
 50 H      -11.8470     2.5170    -0.1630 H     1 <1>   0.1500 
 51 H      -11.6020     3.9180     1.8460 H     1 <1>   0.1500 
@<TRIPOS>BOND
  1   1   2  2   
  2   2   3  am  
  3   2   4  am  
  4   3   5  1   
  5   3   6  1   
  6   4   7  1   
  7   4  27  1   
  8   5   8  1   
  9   5  28  1   
 10   5  29  1   
 11   6   9  1   
 12   6  30  1   
 13   6  31  1   
 14   7  10  ar  
 15   7  11  ar  
 16   8  12  1   
 17   8  32  1   
 18   8  33  1   
 19   9  12  1   
 20   9  34  1   
 21   9  35  1   
 22  10  13  ar  
 23  10  36  1   
 24  11  14  ar  
 25  11  37  1   
 26  12  15  1   
 27  12  38  1   
 28  13  16  ar  
 29  13  17  1   
 30  14  16  ar  
 31  14  18  1   
 32  15  19  am  
 33  15  39  1   
 34  16  40  1   
 35  17  41  1   
 36  17  42  1   
 37  17  43  1   
 38  18  44  1   
 39  18  45  1   
 40  18  46  1   
 41  19  20  2   
 42  19  21  1   
 43  21  22  ar  
 44  21  23  ar  
 45  22  24  ar  
 46  22  47  1   
 47  23  25  ar  
 48  23  48  1   
 49  24  26  ar  
 50  24  49  1   
 51  25  26  ar  
 52  25  50  1   
 53  26  51  1   
@<TRIPOS>SUBSTRUCTURE
  1 ****   9 GROUP 4 **** **** 0

# MOE 2024.06 (io_trps.svl 2023.06)
