@<TRIPOS>MOLECULE
NONAME
26 26 1 0 0 
SMALL
USER_CHARGES


@<TRIPOS>ATOM
  1 S       -0.0310    -0.5570    -0.2860 S.3   1 <1>  -0.2860 
  2 C        1.5280     0.2770     0.0230 C.2   1 <1>   0.2420 
  3 C       -1.2820     0.7020     0.2220 C.3   1 <1>   0.0700 
  4 N        1.6540     1.4700     0.4780 N.2   1 <1>  -0.3380 
  5 N        2.6900    -0.3240    -0.2100 N.pl3 1 <1>   0.0330 
  6 C       -2.6760     0.0990     0.0230 C.3   1 <1>  -0.1600 
  7 N        2.9790     1.6910     0.5630 N.2   1 <1>  -0.3380 
  8 C        3.5700     0.6150     0.1470 C.2   1 <1>   0.2700 
  9 C       -3.8040     1.0240     0.5120 C.3   1 <1>  -0.0800 
 10 N        4.9380     0.4660     0.0860 N.pl3 1 <1>  -0.8840 
 11 C       -5.1500     0.2980     0.4090 C.3   1 <1>  -0.2400 
 12 C       -3.8640     2.3310    -0.2890 C.3   1 <1>  -0.2400 
 13 H       -1.1210     1.5700    -0.3940 H     1 <1>   0.0800 
 14 H       -1.0920     0.9410     1.2530 H     1 <1>   0.0800 
 15 H        2.8640    -1.2710    -0.5370 H     1 <1>   0.2700 
 16 H       -2.7220    -0.8270     0.5710 H     1 <1>   0.0800 
 17 H       -2.8170    -0.1260    -1.0200 H     1 <1>   0.0800 
 18 H       -3.6310     1.2630     1.5490 H     1 <1>   0.0800 
 19 H        5.3990     1.2550     0.5520 H     1 <1>   0.4000 
 20 H        5.3050     0.3960    -0.8660 H     1 <1>   0.4000 
 21 H       -5.3650     0.0410    -0.6140 H     1 <1>   0.0800 
 22 H       -5.9420     0.9250     0.7780 H     1 <1>   0.0800 
 23 H       -5.1360    -0.6040     0.9940 H     1 <1>   0.0800 
 24 H       -3.9850     2.1270    -1.3390 H     1 <1>   0.0800 
 25 H       -2.9690     2.9090    -0.1510 H     1 <1>   0.0800 
 26 H       -4.6950     2.9300     0.0390 H     1 <1>   0.0800 
@<TRIPOS>BOND
  1   1   2  1   
  2   1   3  1   
  3   2   4  2   
  4   2   5  1   
  5   3   6  1   
  6   3  13  1   
  7   3  14  1   
  8   4   7  1   
  9   5   8  1   
 10   5  15  1   
 11   6   9  1   
 12   6  16  1   
 13   6  17  1   
 14   7   8  2   
 15   8  10  1   
 16   9  11  1   
 17   9  12  1   
 18   9  18  1   
 19  10  19  1   
 20  10  20  1   
 21  11  21  1   
 22  11  22  1   
 23  11  23  1   
 24  12  24  1   
 25  12  25  1   
 26  12  26  1   
@<TRIPOS>SUBSTRUCTURE
  1 ****   1 GROUP 4 **** **** 0

# MOE 2024.06 (io_trps.svl 2023.06)
