@<TRIPOS>MOLECULE
NONAME
33 33 1 0 0 
SMALL
USER_CHARGES


@<TRIPOS>ATOM
  1 O       -0.2580    -0.4950    -0.1810 O.2   1 <1>  -0.5700 
  2 C       -0.3430    -1.7020    -0.0930 C.2   1 <1>   0.6340 
  3 O        0.7870    -2.4160    -0.0320 O.3   1 <1>  -0.4300 
  4 C       -1.6040    -2.4240    -0.0560 C.ar  1 <1>   0.0860 
  5 C        2.0550    -1.8000    -0.0630 C.3   1 <1>   0.1200 
  6 C       -2.8280    -1.7550     0.0140 C.ar  1 <1>  -0.1500 
  7 C       -1.6440    -3.8210    -0.0900 C.ar  1 <1>  -0.1500 
  8 C        3.1140    -2.8950     0.0210 C.3   1 <1>  -0.2400 
  9 C       -4.0430    -2.4260     0.0420 C.ar  1 <1>   0.1170 
 10 C       -2.8420    -4.5090    -0.0570 C.ar  1 <1>  -0.1500 
 11 N       -5.2220    -1.6720     0.1150 N.am  1 <1>  -0.5470 
 12 C       -4.0340    -3.8150     0.0100 C.ar  1 <1>  -0.1500 
 13 C       -6.5260    -1.9710    -0.1610 C.2   1 <1>   0.5690 
 14 O       -6.8860    -3.0490    -0.5720 O.2   1 <1>  -0.5700 
 15 C       -7.6010    -0.9120     0.0600 C.3   1 <1>  -0.0990 
 16 C       -7.2570     0.5140    -0.4260 C.3   1 <1>  -0.2660 
 17 C       -6.3860     1.2590     0.5530 C.2   1 <1>   0.9060 
 18 O       -6.9160     2.0400     1.3410 O.co2 1 <1>  -0.9000 
 19 O       -5.1760     1.0150     0.5550 O.co2 1 <1>  -0.9000 
 20 H        2.1270    -1.1260     0.7740 H     1 <1>   0.0800 
 21 H        2.1420    -1.2450    -0.9820 H     1 <1>   0.0800 
 22 H       -2.8380    -0.6770     0.0470 H     1 <1>   0.1500 
 23 H       -0.7260    -4.3790    -0.1430 H     1 <1>   0.1500 
 24 H        3.0060    -3.4450     0.9380 H     1 <1>   0.0800 
 25 H        4.0940    -2.4520     0.0000 H     1 <1>   0.0800 
 26 H        3.0220    -3.5640    -0.8160 H     1 <1>   0.0800 
 27 H       -2.8510    -5.5850    -0.0830 H     1 <1>   0.1500 
 28 H       -5.0720    -0.6700     0.3550 H     1 <1>   0.3700 
 29 H       -4.9600    -4.3590     0.0410 H     1 <1>   0.1500 
 30 H       -7.8380    -0.8820     1.1080 H     1 <1>   0.0800 
 31 H       -8.4850    -1.2370    -0.4580 H     1 <1>   0.0800 
 32 H       -8.1620     1.0800    -0.5370 H     1 <1>   0.0800 
 33 H       -6.7610     0.4810    -1.3770 H     1 <1>   0.0800 
@<TRIPOS>BOND
  1   1   2  2   
  2   2   3  1   
  3   2   4  1   
  4   3   5  1   
  5   4   6  ar  
  6   4   7  ar  
  7   5   8  1   
  8   5  20  1   
  9   5  21  1   
 10   6   9  ar  
 11   6  22  1   
 12   7  10  ar  
 13   7  23  1   
 14   8  24  1   
 15   8  25  1   
 16   8  26  1   
 17   9  11  1   
 18   9  12  ar  
 19  10  12  ar  
 20  10  27  1   
 21  11  13  am  
 22  11  28  1   
 23  12  29  1   
 24  13  14  2   
 25  13  15  1   
 26  15  16  1   
 27  15  30  1   
 28  15  31  1   
 29  16  17  1   
 30  16  32  1   
 31  16  33  1   
 32  17  18  ar  
 33  17  19  ar  
@<TRIPOS>SUBSTRUCTURE
  1 ****   6 GROUP 4 **** **** 0

# MOE 2024.06 (io_trps.svl 2023.06)
