@<TRIPOS>MOLECULE
6-(2-Oxo-2-pyrrolidin-1-yl-ethylsulfanyl)-[1,3]dioxolo[4,5-g]quinoline-7-carbonitrile
39 42 1 0 0 
SMALL
USER_CHARGES


@<TRIPOS>ATOM
  1 S        0.4500     0.7550     1.9500 S.3   1 <1>  -0.3320 
  2 C       -1.2710     1.2400     1.8380 C.ar  1 <1>   0.4120 
  3 C        0.8020    -0.0650     0.3170 C.3   1 <1>   0.1310 
  4 N       -1.8500     0.9790     0.7050 N.ar  1 <1>  -0.6200 
  5 C       -1.8730     1.8590     2.9520 C.ar  1 <1>   0.0730 
  6 C        2.2600    -0.4860     0.2150 C.2   1 <1>   0.5690 
  7 C       -3.1530     1.3290     0.5830 C.ar  1 <1>   0.3100 
  8 C       -1.1330     2.1070     4.1520 C.1   1 <1>   0.4840 
  9 C       -3.1890     2.2160     2.8370 C.ar  1 <1>  -0.1500 
 10 O        2.5060    -1.6700     0.2140 O.2   1 <1>  -0.5700 
 11 N        3.2550     0.4490     0.0940 N.am  1 <1>  -0.6600 
 12 C       -3.8710     1.9580     1.6370 C.ar  1 <1>   0.0000 
 13 C       -3.8080     1.0570    -0.6300 C.ar  1 <1>  -0.1500 
 14 N       -0.5840     2.3330     5.1260 N.1   1 <1>  -0.5570 
 15 C        4.6820     0.0760     0.0020 C.3   1 <1>   0.1400 
 16 C        3.0880     1.9180     0.1150 C.3   1 <1>   0.1400 
 17 C       -5.2300     2.2990     1.4490 C.ar  1 <1>  -0.1500 
 18 C       -5.1220     1.4040    -0.7700 C.ar  1 <1>   0.0830 
 19 C        5.4400     1.3860     0.1840 C.3   1 <1>  -0.1600 
 20 C        4.4590     2.4660    -0.2630 C.3   1 <1>  -0.1600 
 21 C       -5.8190     2.0140     0.2510 C.ar  1 <1>   0.0830 
 22 O       -5.9210     1.2380    -1.8250 O.3   1 <1>  -0.3630 
 23 O       -7.0750     2.2460    -0.1390 O.3   1 <1>  -0.3630 
 24 C       -7.1980     1.7650    -1.4750 C.3   1 <1>   0.4000 
 25 H        0.5550     0.6330    -0.4590 H     1 <1>   0.0800 
 26 H        0.1610    -0.9240     0.2520 H     1 <1>   0.0800 
 27 H       -3.7130     2.6930     3.6490 H     1 <1>   0.1500 
 28 H       -3.2700     0.5810    -1.4270 H     1 <1>   0.1500 
 29 H        4.8720    -0.3430    -0.9720 H     1 <1>   0.0800 
 30 H        4.9390    -0.6440     0.7600 H     1 <1>   0.0800 
 31 H        2.8280     2.2290     1.1130 H     1 <1>   0.0800 
 32 H        2.3300     2.2380    -0.5790 H     1 <1>   0.0800 
 33 H       -5.7900     2.7750     2.2330 H     1 <1>   0.1500 
 34 H        6.3550     1.4000    -0.3810 H     1 <1>   0.0800 
 35 H        5.6710     1.5110     1.2280 H     1 <1>   0.0800 
 36 H        4.6530     3.4160     0.2040 H     1 <1>   0.0800 
 37 H        4.5060     2.5840    -1.3320 H     1 <1>   0.0800 
 38 H       -7.9350     0.9820    -1.5120 H     1 <1>   0.0800 
 39 H       -7.4460     2.5790    -2.1320 H     1 <1>   0.0800 
@<TRIPOS>BOND
  1   1   2  1   
  2   1   3  1   
  3   2   4  ar  
  4   2   5  ar  
  5   3   6  1   
  6   3  25  1   
  7   3  26  1   
  8   4   7  ar  
  9   5   8  1   
 10   5   9  ar  
 11   6  10  2   
 12   6  11  am  
 13   7  12  ar  
 14   7  13  ar  
 15   8  14  3   
 16   9  12  ar  
 17   9  27  1   
 18  11  15  1   
 19  11  16  1   
 20  12  17  ar  
 21  13  18  ar  
 22  13  28  1   
 23  15  19  1   
 24  15  29  1   
 25  15  30  1   
 26  16  20  1   
 27  16  31  1   
 28  16  32  1   
 29  17  21  ar  
 30  17  33  1   
 31  18  21  ar  
 32  18  22  1   
 33  19  20  1   
 34  19  34  1   
 35  19  35  1   
 36  20  36  1   
 37  20  37  1   
 38  21  23  1   
 39  22  24  1   
 40  23  24  1   
 41  24  38  1   
 42  24  39  1   
@<TRIPOS>SUBSTRUCTURE
  1 ****   4 GROUP 4 **** **** 0

# MOE 2024.06 (io_trps.svl 2023.06)
