@<TRIPOS>MOLECULE
4-(3-Fluoro-benzoylamino)-piperidine-1-carboxylic acid (2-methoxy-phenyl)-amide
49 51 1 0 0 
SMALL
USER_CHARGES


@<TRIPOS>ATOM
  1 F       -1.8080     0.4420     2.8450 F     1 <1>  -0.1900 
  2 C       -1.9890     1.3560     1.9310 C.ar  1 <1>   0.1900 
  3 C       -3.1140     1.2820     1.1360 C.ar  1 <1>  -0.1500 
  4 C       -1.0470     2.3570     1.7980 C.ar  1 <1>  -0.1500 
  5 C       -3.3360     2.2500     0.1540 C.ar  1 <1>   0.0860 
  6 C       -1.2480     3.3180     0.8230 C.ar  1 <1>  -0.1500 
  7 C       -4.5120     2.2210    -0.6990 C.2   1 <1>   0.5440 
  8 C       -2.3750     3.2580     0.0180 C.ar  1 <1>  -0.1500 
  9 O       -4.4940     2.7380    -1.7990 O.2   1 <1>  -0.5700 
 10 N       -5.6690     1.6290    -0.2750 N.am  1 <1>  -0.7300 
 11 C       -6.9070     1.5240    -1.0640 C.3   1 <1>   0.2200 
 12 C       -7.9100     2.5610    -0.5560 C.3   1 <1>  -0.1600 
 13 C       -7.4610     0.1040    -0.9330 C.3   1 <1>  -0.1600 
 14 C       -9.2540     2.4160    -1.2720 C.3   1 <1>   0.1400 
 15 C       -8.8060    -0.0160    -1.6510 C.3   1 <1>   0.1400 
 16 N       -9.7410     1.0160    -1.1220 N.am  1 <1>  -0.6600 
 17 C      -10.8510     0.6560    -0.3940 C.2   1 <1>   0.6900 
 18 O      -10.9800    -0.4880    -0.0020 O.2   1 <1>  -0.5700 
 19 N      -11.8020     1.6000    -0.1390 N.am  1 <1>  -0.5470 
 20 C      -12.9850     1.6250     0.6210 C.ar  1 <1>   0.1170 
 21 C      -13.8300     2.7330     0.4840 C.ar  1 <1>   0.0830 
 22 C      -13.3460     0.6130     1.5030 C.ar  1 <1>  -0.1500 
 23 O      -13.4380     3.7150    -0.3860 O.3   1 <1>  -0.3630 
 24 C      -15.0110     2.8040     1.2180 C.ar  1 <1>  -0.1500 
 25 C      -14.5210     0.6890     2.2300 C.ar  1 <1>  -0.1500 
 26 C      -14.2620     4.8310    -0.6460 C.3   1 <1>   0.0400 
 27 C      -15.3540     1.7830     2.0870 C.ar  1 <1>  -0.1500 
 28 H       -3.8030     0.4710     1.2790 H     1 <1>   0.1500 
 29 H       -0.1830     2.3790     2.4380 H     1 <1>   0.1500 
 30 H       -0.5310     4.1100     0.6900 H     1 <1>   0.1500 
 31 H       -2.5200     4.0090    -0.7400 H     1 <1>   0.1500 
 32 H       -5.7480     1.3130     0.6900 H     1 <1>   0.3700 
 33 H       -6.6940     1.7200    -2.1030 H     1 <1>   0.0800 
 34 H       -7.5200     3.5480    -0.7340 H     1 <1>   0.0800 
 35 H       -8.0670     2.4390     0.5010 H     1 <1>   0.0800 
 36 H       -7.6050    -0.1490     0.1030 H     1 <1>   0.0800 
 37 H       -6.7680    -0.5940    -1.3650 H     1 <1>   0.0800 
 38 H       -9.1380     2.6370    -2.3200 H     1 <1>   0.0800 
 39 H       -9.9510     3.1220    -0.8560 H     1 <1>   0.0800 
 40 H       -9.2070    -1.0060    -1.5110 H     1 <1>   0.0800 
 41 H       -8.6750     0.1390    -2.7080 H     1 <1>   0.0800 
 42 H      -11.6950     2.4410    -0.6980 H     1 <1>   0.3700 
 43 H      -12.7120    -0.2440     1.6320 H     1 <1>   0.1500 
 44 H      -15.6770     3.6410     1.1320 H     1 <1>   0.1500 
 45 H      -14.7840    -0.1060     2.9060 H     1 <1>   0.1500 
 46 H      -13.7710     5.4480    -1.3760 H     1 <1>   0.0800 
 47 H      -14.3990     5.3850     0.2660 H     1 <1>   0.0800 
 48 H      -15.2050     4.4870    -1.0340 H     1 <1>   0.0800 
 49 H      -16.2680     1.8400     2.6530 H     1 <1>   0.1500 
@<TRIPOS>BOND
  1   1   2  1   
  2   2   3  ar  
  3   2   4  ar  
  4   3   5  ar  
  5   3  28  1   
  6   4   6  ar  
  7   4  29  1   
  8   5   7  1   
  9   5   8  ar  
 10   6   8  ar  
 11   6  30  1   
 12   7   9  2   
 13   7  10  am  
 14   8  31  1   
 15  10  11  1   
 16  10  32  1   
 17  11  12  1   
 18  11  13  1   
 19  11  33  1   
 20  12  14  1   
 21  12  34  1   
 22  12  35  1   
 23  13  15  1   
 24  13  36  1   
 25  13  37  1   
 26  14  16  1   
 27  14  38  1   
 28  14  39  1   
 29  15  16  1   
 30  15  40  1   
 31  15  41  1   
 32  16  17  am  
 33  17  18  2   
 34  17  19  am  
 35  19  20  1   
 36  19  42  1   
 37  20  21  ar  
 38  20  22  ar  
 39  21  23  1   
 40  21  24  ar  
 41  22  25  ar  
 42  22  43  1   
 43  23  26  1   
 44  24  27  ar  
 45  24  44  1   
 46  25  27  ar  
 47  25  45  1   
 48  26  46  1   
 49  26  47  1   
 50  26  48  1   
 51  27  49  1   
@<TRIPOS>SUBSTRUCTURE
  1 ****  12 GROUP 4 **** **** 0

# MOE 2024.06 (io_trps.svl 2023.06)
