@<TRIPOS>MOLECULE
NONAME
54 57 1 0 0 
SMALL
USER_CHARGES


@<TRIPOS>ATOM
  1 CL       1.6760     2.8400    -2.3230 Cl    1 <1>  -0.1770 
  2 C        0.5120     2.8400    -1.0120 C.ar  1 <1>   0.1770 
  3 C        0.9030     2.5380     0.2970 C.ar  1 <1>   0.1000 
  4 C       -0.7960     3.1500    -1.3260 C.ar  1 <1>  -0.1500 
  5 N        2.2050     2.2230     0.6890 N.pl3 1 <1>  -0.8380 
  6 C       -0.0830     2.5620     1.2740 C.ar  1 <1>  -0.1500 
  7 C       -1.7790     3.1710    -0.3430 C.ar  1 <1>  -0.0090 
  8 C        2.7580     0.9080     0.2340 C.3   1 <1>   0.2090 
  9 C        3.2140     3.3250     0.6390 C.3   1 <1>   0.2090 
 10 C       -1.3940     2.8730     0.9600 C.ar  1 <1>  -0.1500 
 11 S       -3.4940     3.5930    -0.7440 S.o2  1 <1>   1.4470 
 12 C        4.0260     0.5350     1.0220 C.3   1 <1>   0.1400 
 13 C        4.4780     2.9500     1.4320 C.3   1 <1>   0.1400 
 14 O       -3.8160     4.8790    -0.1660 O.2   1 <1>  -0.6500 
 15 O       -3.7460     3.3640    -2.1500 O.2   1 <1>  -0.6500 
 16 N       -4.3940     2.4340     0.1010 N.am  1 <1>  -0.8490 
 17 N        5.0350     1.6410     0.9630 N.am  1 <1>  -0.6600 
 18 C       -5.7740     2.8860     0.3640 C.3   1 <1>   0.1960 
 19 C       -4.3880     1.1080    -0.5260 C.3   1 <1>   0.1960 
 20 C        6.2860     1.4400     0.4340 C.2   1 <1>   0.5770 
 21 C       -6.7810     1.7350     0.5870 C.3   1 <1>   0.1200 
 22 C       -5.1210     0.0650     0.3510 C.3   1 <1>   0.1200 
 23 O        6.6490     0.3380     0.0930 O.2   1 <1>  -0.5700 
 24 C        7.2530     2.6130     0.2620 C.3   1 <1>   0.0530 
 25 O       -6.1570     0.6090     1.1310 O.3   1 <1>  -0.5600 
 26 C        6.8940     3.5700    -0.9080 C.3   1 <1>   0.0000 
 27 C        8.5830     2.3290    -0.4960 C.3   1 <1>   0.0000 
 28 C        8.4180     3.7280    -1.1420 C.3   1 <1>   0.0000 
 29 H       -1.0510     3.3790    -2.3460 H     1 <1>   0.1500 
 30 H        0.1940     2.3340     2.2880 H     1 <1>   0.1500 
 31 H        3.0020     0.9570    -0.8130 H     1 <1>   0.0800 
 32 H        2.0150     0.1420     0.3690 H     1 <1>   0.0800 
 33 H        2.7840     4.2200     1.0520 H     1 <1>   0.0800 
 34 H        3.4870     3.5230    -0.3830 H     1 <1>   0.0800 
 35 H       -2.1370     2.8870     1.7420 H     1 <1>   0.1500 
 36 H        4.4330    -0.3760     0.6210 H     1 <1>   0.0800 
 37 H        3.7620     0.3530     2.0490 H     1 <1>   0.0800 
 38 H        4.2190     2.8650     2.4730 H     1 <1>   0.0800 
 39 H        5.2000     3.7390     1.3410 H     1 <1>   0.0800 
 40 H       -6.1300     3.4850    -0.4590 H     1 <1>   0.0800 
 41 H       -5.7640     3.5180     1.2350 H     1 <1>   0.0800 
 42 H       -3.3770     0.7780    -0.6910 H     1 <1>   0.0800 
 43 H       -4.8730     1.1590    -1.4870 H     1 <1>   0.0800 
 44 H       -7.2360     1.4480    -0.3450 H     1 <1>   0.0800 
 45 H       -7.5580     2.0460     1.2630 H     1 <1>   0.0800 
 46 H       -4.4230    -0.3880     1.0310 H     1 <1>   0.0800 
 47 H       -5.5390    -0.7090    -0.2680 H     1 <1>   0.0800 
 48 H        7.4350     3.1460     1.1810 H     1 <1>   0.0000 
 49 H        6.4070     4.4780    -0.6000 H     1 <1>   0.0000 
 50 H        6.3990     3.0710    -1.7240 H     1 <1>   0.0000 
 51 H        8.5140     1.5410    -1.2260 H     1 <1>   0.0000 
 52 H        9.4410     2.2470     0.1470 H     1 <1>   0.0000 
 53 H        8.8510     4.5150    -0.5490 H     1 <1>   0.0000 
 54 H        8.6980     3.7650    -2.1800 H     1 <1>   0.0000 
@<TRIPOS>BOND
  1   1   2  1   
  2   2   3  ar  
  3   2   4  ar  
  4   3   5  1   
  5   3   6  ar  
  6   4   7  ar  
  7   4  29  1   
  8   5   8  1   
  9   5   9  1   
 10   6  10  ar  
 11   6  30  1   
 12   7  10  ar  
 13   7  11  1   
 14   8  12  1   
 15   8  31  1   
 16   8  32  1   
 17   9  13  1   
 18   9  33  1   
 19   9  34  1   
 20  10  35  1   
 21  11  14  2   
 22  11  15  2   
 23  11  16  am  
 24  12  17  1   
 25  12  36  1   
 26  12  37  1   
 27  13  17  1   
 28  13  38  1   
 29  13  39  1   
 30  16  18  1   
 31  16  19  1   
 32  17  20  am  
 33  18  21  1   
 34  18  40  1   
 35  18  41  1   
 36  19  22  1   
 37  19  42  1   
 38  19  43  1   
 39  20  23  2   
 40  20  24  1   
 41  21  25  1   
 42  21  44  1   
 43  21  45  1   
 44  22  25  1   
 45  22  46  1   
 46  22  47  1   
 47  24  26  1   
 48  24  27  1   
 49  24  48  1   
 50  26  28  1   
 51  26  49  1   
 52  26  50  1   
 53  27  28  1   
 54  27  51  1   
 55  27  52  1   
 56  28  53  1   
 57  28  54  1   
@<TRIPOS>SUBSTRUCTURE
  1 ****   3 GROUP 4 **** **** 0

# MOE 2024.06 (io_trps.svl 2023.06)
