@<TRIPOS>MOLECULE
NONAME
36 36 1 0 0 
SMALL
USER_CHARGES


@<TRIPOS>ATOM
  1 O       -0.5090     0.6640    -1.2160 O.2   1 <1>  -0.5700 
  2 C       -0.2180     1.3600    -0.2740 C.2   1 <1>   0.6590 
  3 O        1.0400     1.6710     0.0140 O.3   1 <1>  -0.4300 
  4 C       -1.2920     1.9250     0.6980 C.3   1 <1>   0.4840 
  5 C        2.1430     1.2110    -0.7420 C.3   1 <1>   0.1200 
  6 N       -2.7030     1.3830     0.5460 N.4   1 <1>  -0.9590 
  7 C       -1.3560     3.4560     0.6480 C.3   1 <1>  -0.2400 
  8 C        2.5540    -0.1670    -0.2270 C.3   1 <1>  -0.2400 
  9 C       -2.7310    -0.0820     0.8360 C.3   1 <1>   0.3430 
 10 C       -3.2940     1.6520    -0.8050 C.3   1 <1>   0.3430 
 11 C       -4.1780    -0.5760     0.8580 C.3   1 <1>  -0.1600 
 12 C       -4.7550     1.2030    -0.8250 C.3   1 <1>  -0.1600 
 13 C       -4.8920    -0.2830    -0.4690 C.3   1 <1>  -0.0800 
 14 C       -6.3680    -0.6880    -0.3900 C.3   1 <1>  -0.2400 
 15 H       -0.9510     1.6620     1.6840 H     1 <1>   0.0800 
 16 H        2.9480     1.9140    -0.6100 H     1 <1>   0.0800 
 17 H        1.8740     1.1780    -1.7850 H     1 <1>   0.0800 
 18 H       -3.3010     1.8470     1.2380 H     1 <1>   0.4500 
 19 H       -1.5690     3.8070    -0.3460 H     1 <1>   0.0800 
 20 H       -0.4010     3.8600     0.9340 H     1 <1>   0.0800 
 21 H       -2.0920     3.8340     1.3340 H     1 <1>   0.0800 
 22 H        2.8060    -0.1190     0.8170 H     1 <1>   0.0800 
 23 H        3.4180    -0.5070    -0.7690 H     1 <1>   0.0800 
 24 H        1.7630    -0.8790    -0.3800 H     1 <1>   0.0800 
 25 H       -2.2710    -0.2830     1.7900 H     1 <1>   0.0800 
 26 H       -2.1830    -0.6160     0.0750 H     1 <1>   0.0800 
 27 H       -2.7460     1.1120    -1.5620 H     1 <1>   0.0800 
 28 H       -3.2450     2.7030    -1.0360 H     1 <1>   0.0800 
 29 H       -4.7010    -0.1140     1.6770 H     1 <1>   0.0800 
 30 H       -4.1780    -1.6380     1.0340 H     1 <1>   0.0800 
 31 H       -5.1550     1.3710    -1.8100 H     1 <1>   0.0800 
 32 H       -5.3240     1.8080    -0.1400 H     1 <1>   0.0800 
 33 H       -4.4250    -0.8670    -1.2470 H     1 <1>   0.0800 
 34 H       -6.8820    -0.1320     0.3740 H     1 <1>   0.0800 
 35 H       -6.4580    -1.7380    -0.1670 H     1 <1>   0.0800 
 36 H       -6.8570    -0.5060    -1.3320 H     1 <1>   0.0800 
@<TRIPOS>BOND
  1   1   2  2   
  2   2   3  1   
  3   2   4  1   
  4   3   5  1   
  5   4   6  1   
  6   4   7  1   
  7   4  15  1   
  8   5   8  1   
  9   5  16  1   
 10   5  17  1   
 11   6   9  1   
 12   6  10  1   
 13   6  18  1   
 14   7  19  1   
 15   7  20  1   
 16   7  21  1   
 17   8  22  1   
 18   8  23  1   
 19   8  24  1   
 20   9  11  1   
 21   9  25  1   
 22   9  26  1   
 23  10  12  1   
 24  10  27  1   
 25  10  28  1   
 26  11  13  1   
 27  11  29  1   
 28  11  30  1   
 29  12  13  1   
 30  12  31  1   
 31  12  32  1   
 32  13  14  1   
 33  13  33  1   
 34  14  34  1   
 35  14  35  1   
 36  14  36  1   
@<TRIPOS>SUBSTRUCTURE
  1 ****   6 GROUP 4 **** **** 0

# MOE 2024.06 (io_trps.svl 2023.06)
