@<TRIPOS>MOLECULE
1-(4-Chloro-benzenesulfonyl)-pyrrolidine-2-carboxylic acid (pyridin-3-ylmethyl)-amide
43 45 1 0 0 
SMALL
USER_CHARGES


@<TRIPOS>ATOM
  1 CL       4.0330    -2.2220     0.8560 Cl    1 <1>  -0.1770 
  2 C        4.4610    -0.6110     0.3430 C.ar  1 <1>   0.1770 
  3 C        4.3450     0.4400     1.2310 C.ar  1 <1>  -0.1500 
  4 C        4.9090    -0.4060    -0.9460 C.ar  1 <1>  -0.1500 
  5 C        4.6870     1.7160     0.8170 C.ar  1 <1>  -0.1500 
  6 C        5.2500     0.8760    -1.3470 C.ar  1 <1>  -0.1500 
  7 C        5.1540     1.9570    -0.4740 C.ar  1 <1>  -0.0090 
  8 S        5.6080     3.6270    -1.0270 S.o2  1 <1>   1.4470 
  9 O        4.4210     4.3140    -1.4810 O.2   1 <1>  -0.6500 
 10 O        6.7490     3.5500    -1.9170 O.2   1 <1>  -0.6500 
 11 N        6.1380     4.4330     0.3630 N.am  1 <1>  -0.8490 
 12 C        7.5280     4.1430     0.7490 C.3   1 <1>   0.3370 
 13 C        6.0500     5.8800     0.2550 C.3   1 <1>   0.1960 
 14 C        7.8020     2.7040     1.2680 C.2   1 <1>   0.5690 
 15 C        7.8320     5.2370     1.7750 C.3   1 <1>  -0.1600 
 16 C        6.9610     6.4220     1.3530 C.3   1 <1>  -0.1600 
 17 O        7.4420     2.3890     2.3770 O.2   1 <1>  -0.5700 
 18 N        8.4260     1.7620     0.5160 N.am  1 <1>  -0.7300 
 19 C        9.0310     1.8440    -0.8280 C.3   1 <1>   0.2840 
 20 C       10.2110     0.8930    -0.8830 C.ar  1 <1>  -0.1430 
 21 C       10.2070    -0.1830    -1.7600 C.ar  1 <1>   0.1600 
 22 C       11.3080     1.0770    -0.0640 C.ar  1 <1>  -0.1500 
 23 N       11.1850    -1.0650    -1.8820 N.ar  1 <1>  -0.6200 
 24 C       12.3360     0.1670    -0.1780 C.ar  1 <1>  -0.1500 
 25 C       12.2260    -0.8700    -1.0890 C.ar  1 <1>   0.1600 
 26 H        3.9970     0.2610     2.2330 H     1 <1>   0.1500 
 27 H        4.9870    -1.2380    -1.6230 H     1 <1>   0.1500 
 28 H        4.5990     2.5350     1.5120 H     1 <1>   0.1500 
 29 H        5.5950     1.0410    -2.3540 H     1 <1>   0.1500 
 30 H        8.1650     4.3320    -0.0960 H     1 <1>   0.0800 
 31 H        5.0310     6.2100     0.3790 H     1 <1>   0.0800 
 32 H        6.4110     6.2000    -0.7100 H     1 <1>   0.0800 
 33 H        8.8790     5.4810     1.7880 H     1 <1>   0.0800 
 34 H        7.5390     4.9100     2.7580 H     1 <1>   0.0800 
 35 H        6.3730     6.7710     2.1830 H     1 <1>   0.0800 
 36 H        7.5520     7.2380     0.9770 H     1 <1>   0.0800 
 37 H        8.5330     0.8490     0.9660 H     1 <1>   0.3700 
 38 H        9.3650     2.8440    -1.0400 H     1 <1>   0.0800 
 39 H        8.2980     1.5640    -1.5650 H     1 <1>   0.0800 
 40 H        9.3540    -0.3310    -2.3990 H     1 <1>   0.1500 
 41 H       11.3610     1.8930     0.6380 H     1 <1>   0.1500 
 42 H       13.2170     0.2560     0.4320 H     1 <1>   0.1500 
 43 H       13.0360    -1.5750    -1.1700 H     1 <1>   0.1500 
@<TRIPOS>BOND
  1   1   2  1   
  2   2   3  ar  
  3   2   4  ar  
  4   3   5  ar  
  5   3  26  1   
  6   4   6  ar  
  7   4  27  1   
  8   5   7  ar  
  9   5  28  1   
 10   6   7  ar  
 11   6  29  1   
 12   7   8  1   
 13   8   9  2   
 14   8  10  2   
 15   8  11  am  
 16  11  12  1   
 17  11  13  1   
 18  12  14  1   
 19  12  15  1   
 20  12  30  1   
 21  13  16  1   
 22  13  31  1   
 23  13  32  1   
 24  14  17  2   
 25  14  18  am  
 26  15  16  1   
 27  15  33  1   
 28  15  34  1   
 29  16  35  1   
 30  16  36  1   
 31  18  19  1   
 32  18  37  1   
 33  19  20  1   
 34  19  38  1   
 35  19  39  1   
 36  20  21  ar  
 37  20  22  ar  
 38  21  23  ar  
 39  21  40  1   
 40  22  24  ar  
 41  22  41  1   
 42  23  25  ar  
 43  24  25  ar  
 44  24  42  1   
 45  25  43  1   
@<TRIPOS>SUBSTRUCTURE
  1 ****  18 GROUP 4 **** **** 0

# MOE 2024.06 (io_trps.svl 2023.06)
