@<TRIPOS>MOLECULE
N-Cyclopropyl-2-[5-propyl-4-(tetrahydro-furan-2-ylmethyl)-4H-[1,2,4]triazol-3-ylsulfanyl]-acetamide
46 48 1 0 0 
SMALL
USER_CHARGES


@<TRIPOS>ATOM
  1 S        0.6740    -0.4710     0.2620 S.3   1 <1>  -0.2860 
  2 C       -1.0490    -0.5840     0.7560 C.2   1 <1>   0.2420 
  3 C        1.5230    -1.5740     1.4990 C.3   1 <1>   0.1310 
  4 N       -1.4510    -1.3120     1.7350 N.2   1 <1>  -0.3380 
  5 N       -2.0320     0.0740     0.1410 N.pl3 1 <1>   0.0480 
  6 C        3.0190    -1.6700     1.2400 C.2   1 <1>   0.5690 
  7 N       -2.7760    -1.1500     1.7870 N.2   1 <1>  -0.3380 
  8 C       -3.1040    -0.3350     0.8390 C.2   1 <1>   0.0060 
  9 C       -1.9530     1.0190    -0.9940 C.3   1 <1>   0.0960 
 10 O        3.7240    -2.1040     2.1200 O.2   1 <1>  -0.5700 
 11 N        3.5200    -1.2790     0.0360 N.am  1 <1>  -0.5790 
 12 C       -4.5390     0.0870     0.5610 C.3   1 <1>   0.0200 
 13 C       -1.9480     2.4660    -0.4930 C.3   1 <1>   0.2000 
 14 C        4.9320    -1.3160    -0.3660 C.3   1 <1>   0.0490 
 15 C       -5.1570    -0.7640    -0.5560 C.3   1 <1>  -0.1600 
 16 O       -1.9900     3.3150    -1.5880 O.3   1 <1>  -0.5600 
 17 C       -0.6990     2.8940     0.2630 C.3   1 <1>  -0.1600 
 18 C        5.4390    -0.2210    -1.2430 C.3   1 <1>  -0.2000 
 19 C        5.2460    -1.6010    -1.7970 C.3   1 <1>  -0.2000 
 20 C       -6.5990    -0.3400    -0.8540 C.3   1 <1>  -0.2400 
 21 C       -1.4910     4.5740    -1.2540 C.3   1 <1>   0.1200 
 22 C       -0.6680     4.3920     0.0200 C.3   1 <1>  -0.1600 
 23 H        1.0700    -2.5440     1.4280 H     1 <1>   0.0800 
 24 H        1.3390    -1.1590     2.4730 H     1 <1>   0.0800 
 25 H       -2.8040     0.8670    -1.6310 H     1 <1>   0.0800 
 26 H       -1.0610     0.8250    -1.5600 H     1 <1>   0.0800 
 27 H        2.8760    -0.8940    -0.6570 H     1 <1>   0.3700 
 28 H       -4.5750     1.1280     0.2980 H     1 <1>   0.0800 
 29 H       -5.1140    -0.0420     1.4620 H     1 <1>   0.0800 
 30 H       -2.8280     2.6690     0.0940 H     1 <1>   0.0800 
 31 H        5.5830    -1.7140     0.3970 H     1 <1>   0.1000 
 32 H       -5.1450    -1.7980    -0.2540 H     1 <1>   0.0800 
 33 H       -4.5700    -0.6770    -1.4520 H     1 <1>   0.0800 
 34 H        0.1710     2.4360    -0.1740 H     1 <1>   0.0800 
 35 H       -0.7500     2.6410     1.3080 H     1 <1>   0.0800 
 36 H        6.4450     0.1320    -1.0950 H     1 <1>   0.1000 
 37 H        4.7640     0.5630    -1.5390 H     1 <1>   0.1000 
 38 H        4.4360    -1.7830    -2.4810 H     1 <1>   0.1000 
 39 H        6.1210    -2.1840    -2.0250 H     1 <1>   0.1000 
 40 H       -7.2130    -0.4470     0.0240 H     1 <1>   0.0800 
 41 H       -7.0100    -0.9590    -1.6320 H     1 <1>   0.0800 
 42 H       -6.6340     0.6850    -1.1790 H     1 <1>   0.0800 
 43 H       -2.3220     5.2400    -1.0960 H     1 <1>   0.0800 
 44 H       -0.8890     4.9250    -2.0750 H     1 <1>   0.0800 
 45 H        0.3350     4.7610    -0.1010 H     1 <1>   0.0800 
 46 H       -1.1400     4.9200     0.8300 H     1 <1>   0.0800 
@<TRIPOS>BOND
  1   1   2  1   
  2   1   3  1   
  3   2   4  2   
  4   2   5  1   
  5   3   6  1   
  6   3  23  1   
  7   3  24  1   
  8   4   7  1   
  9   5   8  1   
 10   5   9  1   
 11   6  10  2   
 12   6  11  am  
 13   7   8  2   
 14   8  12  1   
 15   9  13  1   
 16   9  25  1   
 17   9  26  1   
 18  11  14  1   
 19  11  27  1   
 20  12  15  1   
 21  12  28  1   
 22  12  29  1   
 23  13  16  1   
 24  13  17  1   
 25  13  30  1   
 26  14  18  1   
 27  14  19  1   
 28  14  31  1   
 29  15  20  1   
 30  15  32  1   
 31  15  33  1   
 32  16  21  1   
 33  17  22  1   
 34  17  34  1   
 35  17  35  1   
 36  18  19  1   
 37  18  36  1   
 38  18  37  1   
 39  19  38  1   
 40  19  39  1   
 41  20  40  1   
 42  20  41  1   
 43  20  42  1   
 44  21  22  1   
 45  21  43  1   
 46  21  44  1   
 47  22  45  1   
 48  22  46  1   
@<TRIPOS>SUBSTRUCTURE
  1 ****   1 GROUP 4 **** **** 0

# MOE 2024.06 (io_trps.svl 2023.06)
