@<TRIPOS>MOLECULE
11631
30 30 1 0 0 
SMALL
USER_CHARGES


@<TRIPOS>ATOM
  1 BR      -0.7080     1.1150    -0.6870 Br    1 <1>  -0.1110 
  2 C        0.4940    -0.3890    -0.5490 C.ar  1 <1>   0.1110 
  3 C        0.2570    -1.3700     0.4050 C.ar  1 <1>   0.0830 
  4 C        1.5620    -0.4440    -1.4240 C.ar  1 <1>  -0.1500 
  5 O       -0.8200    -1.2290     1.2230 O.3   1 <1>  -0.3630 
  6 C        1.1390    -2.4470     0.4670 C.ar  1 <1>  -0.1500 
  7 C        2.4290    -1.5210    -1.3480 C.ar  1 <1>  -0.1500 
  8 C       -1.3490    -2.3190     1.9670 C.3   1 <1>   0.1810 
  9 C        2.2140    -2.5170    -0.4060 C.ar  1 <1>  -0.1500 
 10 C       -1.8310    -3.4640     1.0760 C.2   1 <1>   0.5690 
 11 O       -1.3940    -4.5700     1.2790 O.2   1 <1>  -0.5700 
 12 N       -2.7370    -3.2880     0.0800 N.am  1 <1>  -0.7300 
 13 C       -3.3810    -2.0290    -0.3820 C.3   1 <1>   0.1400 
 14 C       -4.8960    -2.2130    -0.4580 C.3   1 <1>   0.1200 
 15 O       -5.4620    -1.0220    -0.9030 O.3   1 <1>  -0.5600 
 16 C       -6.8480    -1.0570    -1.0060 C.3   1 <1>   0.0400 
 17 H        1.7100     0.3370    -2.1480 H     1 <1>   0.1500 
 18 H        1.0090    -3.2380     1.1830 H     1 <1>   0.1500 
 19 H        3.2680    -1.5870    -2.0190 H     1 <1>   0.1500 
 20 H       -2.1770    -1.9460     2.5380 H     1 <1>   0.0800 
 21 H       -0.5930    -2.6650     2.6470 H     1 <1>   0.0800 
 22 H        2.8890    -3.3540    -0.3510 H     1 <1>   0.1500 
 23 H       -2.9230    -4.1190    -0.4860 H     1 <1>   0.3700 
 24 H       -2.9990    -1.7750    -1.3560 H     1 <1>   0.0800 
 25 H       -3.1620    -1.2220     0.2940 H     1 <1>   0.0800 
 26 H       -5.2930    -2.4380     0.5160 H     1 <1>   0.0800 
 27 H       -5.1460    -2.9920    -1.1580 H     1 <1>   0.0800 
 28 H       -7.1820    -0.0950    -1.3550 H     1 <1>   0.0800 
 29 H       -7.2730    -1.2570    -0.0380 H     1 <1>   0.0800 
 30 H       -7.1340    -1.8170    -1.7120 H     1 <1>   0.0800 
@<TRIPOS>BOND
  1   1   2  1   
  2   2   3  ar  
  3   2   4  ar  
  4   3   5  1   
  5   3   6  ar  
  6   4   7  ar  
  7   4  17  1   
  8   5   8  1   
  9   6   9  ar  
 10   6  18  1   
 11   7   9  ar  
 12   7  19  1   
 13   8  10  1   
 14   8  20  1   
 15   8  21  1   
 16   9  22  1   
 17  10  11  2   
 18  10  12  am  
 19  12  13  1   
 20  12  23  1   
 21  13  14  1   
 22  13  24  1   
 23  13  25  1   
 24  14  15  1   
 25  14  26  1   
 26  14  27  1   
 27  15  16  1   
 28  16  28  1   
 29  16  29  1   
 30  16  30  1   
@<TRIPOS>SUBSTRUCTURE
  1 ****   5 GROUP 4 **** **** 0

# MOE 2024.06 (io_trps.svl 2023.06)
