@<TRIPOS>MOLECULE
10599
45 46 1 0 0 
SMALL
USER_CHARGES


@<TRIPOS>ATOM
  1 O       -1.8420    -0.0440     2.1840 O.2   1 <1>  -0.5700 
  2 C       -1.8060     0.6450     1.1930 C.2   1 <1>   0.5690 
  3 N       -2.5160     0.3690     0.0600 N.am  1 <1>  -0.5470 
  4 C       -0.9300     1.8890     1.2060 C.3   1 <1>   0.1810 
  5 C       -3.5040    -0.6030    -0.1470 C.ar  1 <1>   0.1170 
  6 O       -1.1680     2.6900     0.0550 O.3   1 <1>  -0.3630 
  7 C       -3.1670    -1.9470    -0.3410 C.ar  1 <1>  -0.1430 
  8 C       -4.8480    -0.2180    -0.1890 C.ar  1 <1>  -0.1430 
  9 C       -0.5220     3.8690    -0.1400 C.ar  1 <1>   0.0830 
 10 C       -4.1660    -2.8780    -0.5700 C.ar  1 <1>  -0.1500 
 11 C       -1.7210    -2.4390    -0.3190 C.3   1 <1>  -0.0170 
 12 C       -5.8290    -1.1680    -0.4170 C.ar  1 <1>  -0.1500 
 13 C       -5.2860     1.2300     0.0230 C.3   1 <1>  -0.0170 
 14 C       -0.8390     4.5930    -1.2870 C.ar  1 <1>  -0.1430 
 15 C        0.4270     4.3670     0.7510 C.ar  1 <1>  -0.1500 
 16 C       -5.4930    -2.4940    -0.6080 C.ar  1 <1>  -0.1500 
 17 C       -1.0500    -2.2210    -1.6780 C.3   1 <1>  -0.2400 
 18 C       -5.4680     1.5260     1.5140 C.3   1 <1>  -0.2400 
 19 C       -0.2060     5.8010    -1.5300 C.ar  1 <1>  -0.1500 
 20 C       -1.8720     4.0720    -2.2770 C.3   1 <1>  -0.0970 
 21 C        1.0510     5.5750     0.4970 C.ar  1 <1>  -0.1500 
 22 C        0.7360     6.2920    -0.6420 C.ar  1 <1>  -0.1500 
 23 H       -2.4380     1.0850    -0.6640 H     1 <1>   0.3700 
 24 H        0.1030     1.5970     1.2120 H     1 <1>   0.0800 
 25 H       -1.1580     2.4710     2.0800 H     1 <1>   0.0800 
 26 H       -3.9170    -3.9140    -0.7220 H     1 <1>   0.1500 
 27 H       -1.7000    -3.4870    -0.0790 H     1 <1>   0.0800 
 28 H       -1.1650    -1.9350     0.4500 H     1 <1>   0.0800 
 29 H       -6.8660    -0.8820    -0.4430 H     1 <1>   0.1500 
 30 H       -6.2170     1.4050    -0.4870 H     1 <1>   0.0800 
 31 H       -4.5670     1.9100    -0.3970 H     1 <1>   0.0800 
 32 H        0.6960     3.8370     1.6430 H     1 <1>   0.1500 
 33 H       -6.2610    -3.2260    -0.7840 H     1 <1>   0.1500 
 34 H       -1.5910    -2.7440    -2.4450 H     1 <1>   0.0800 
 35 H       -0.0390    -2.5880    -1.6530 H     1 <1>   0.0800 
 36 H       -1.0320    -1.1740    -1.9200 H     1 <1>   0.0800 
 37 H       -6.2180     0.8770     1.9300 H     1 <1>   0.0800 
 38 H       -5.7720     2.5470     1.6570 H     1 <1>   0.0800 
 39 H       -4.5460     1.3610     2.0420 H     1 <1>   0.0800 
 40 H       -0.4410     6.3700    -2.4120 H     1 <1>   0.1500 
 41 H       -1.5540     3.1220    -2.6690 H     1 <1>   0.0800 
 42 H       -2.0020     4.7540    -3.0970 H     1 <1>   0.0800 
 43 H       -2.8180     3.9460    -1.7830 H     1 <1>   0.0800 
 44 H        1.7840     5.9590     1.1860 H     1 <1>   0.1500 
 45 H        1.2220     7.2320    -0.8390 H     1 <1>   0.1500 
@<TRIPOS>BOND
  1   1   2  2   
  2   2   3  am  
  3   2   4  1   
  4   3   5  1   
  5   3  23  1   
  6   4   6  1   
  7   4  24  1   
  8   4  25  1   
  9   5   7  ar  
 10   5   8  ar  
 11   6   9  1   
 12   7  10  ar  
 13   7  11  1   
 14   8  12  ar  
 15   8  13  1   
 16   9  14  ar  
 17   9  15  ar  
 18  10  16  ar  
 19  10  26  1   
 20  11  17  1   
 21  11  27  1   
 22  11  28  1   
 23  12  16  ar  
 24  12  29  1   
 25  13  18  1   
 26  13  30  1   
 27  13  31  1   
 28  14  19  ar  
 29  14  20  1   
 30  15  21  ar  
 31  15  32  1   
 32  16  33  1   
 33  17  34  1   
 34  17  35  1   
 35  17  36  1   
 36  18  37  1   
 37  18  38  1   
 38  18  39  1   
 39  19  22  ar  
 40  19  40  1   
 41  20  41  1   
 42  20  42  1   
 43  20  43  1   
 44  21  22  ar  
 45  21  44  1   
 46  22  45  1   
@<TRIPOS>SUBSTRUCTURE
  1 ****   3 GROUP 4 **** **** 0

# MOE 2024.06 (io_trps.svl 2023.06)
