@<TRIPOS>MOLECULE
Cyclopropanecarboxylic acid {5-[(3,5-dimethyl-phenylcarbamoyl)-methylsulfanyl]-[1,3,4]thiadiazol-2-yl}-amide
42 44 1 0 0 
SMALL
USER_CHARGES


@<TRIPOS>ATOM
  1 S       -0.3050     1.7260     0.6500 S.3   1 <1>  -0.0800 
  2 C       -1.4140     1.0480    -0.4820 C.2   1 <1>   0.4340 
  3 C        0.9530     1.0680    -0.3520 C.2   1 <1>   0.4420 
  4 S       -3.1540     1.2900    -0.1650 S.3   1 <1>  -0.2860 
  5 N       -0.8770     0.4300    -1.4500 N.2   1 <1>  -0.3380 
  6 N        0.4910     0.4400    -1.3760 N.2   1 <1>  -0.3380 
  7 N        2.2490     1.2930     0.0620 N.am  1 <1>  -0.4940 
  8 C       -3.9510     0.4310    -1.6120 C.3   1 <1>   0.1310 
  9 C        3.4190     0.8940    -0.5120 C.2   1 <1>   0.6300 
 10 C       -5.4710     0.4950    -1.5520 C.2   1 <1>   0.5690 
 11 O        3.4880     0.2510    -1.5260 O.2   1 <1>  -0.5700 
 12 C        4.7050     1.3060     0.1870 C.3   1 <1>  -0.1000 
 13 O       -6.0770     0.1770    -2.5460 O.2   1 <1>  -0.5700 
 14 N       -6.0730     0.9030    -0.3910 N.am  1 <1>  -0.5470 
 15 C        5.6260     0.2670     0.7580 C.3   1 <1>  -0.2000 
 16 C        4.8800     1.1830     1.6770 C.3   1 <1>  -0.2000 
 17 C       -7.4220     1.0380    -0.0270 C.ar  1 <1>   0.1170 
 18 C       -7.7300     1.8060     1.0900 C.ar  1 <1>  -0.1500 
 19 C       -8.4650     0.4300    -0.7170 C.ar  1 <1>  -0.1500 
 20 C       -9.0380     1.9710     1.5100 C.ar  1 <1>  -0.1430 
 21 C       -9.7790     0.5870    -0.3110 C.ar  1 <1>  -0.1430 
 22 C      -10.0600     1.3580     0.8050 C.ar  1 <1>  -0.1500 
 23 C       -9.3660     2.8120     2.7300 C.3   1 <1>  -0.0970 
 24 C      -10.9060    -0.0810    -1.0760 C.3   1 <1>  -0.0970 
 25 H        2.3540     1.8270     0.9180 H     1 <1>   0.3700 
 26 H       -3.6230    -0.5910    -1.5990 H     1 <1>   0.0800 
 27 H       -3.5960     0.9130    -2.5040 H     1 <1>   0.0800 
 28 H        5.1730     2.1340    -0.3140 H     1 <1>   0.1000 
 29 H       -5.4170     1.2060     0.3290 H     1 <1>   0.3700 
 30 H        6.6870     0.3980     0.6310 H     1 <1>   0.1000 
 31 H        5.3290    -0.7660     0.6860 H     1 <1>   0.1000 
 32 H        4.1080     0.7450     2.2850 H     1 <1>   0.1000 
 33 H        5.4360     1.9420     2.2000 H     1 <1>   0.1000 
 34 H       -6.9360     2.2820     1.6340 H     1 <1>   0.1500 
 35 H       -8.2520    -0.1760    -1.5780 H     1 <1>   0.1500 
 36 H      -11.0790     1.4800     1.1260 H     1 <1>   0.1500 
 37 H       -8.4950     3.3310     3.0870 H     1 <1>   0.0800 
 38 H       -9.7380     2.1810     3.5170 H     1 <1>   0.0800 
 39 H      -10.1190     3.5390     2.4820 H     1 <1>   0.0800 
 40 H      -10.5880    -0.3420    -2.0700 H     1 <1>   0.0800 
 41 H      -11.7480     0.5830    -1.1540 H     1 <1>   0.0800 
 42 H      -11.2130    -0.9750    -0.5640 H     1 <1>   0.0800 
@<TRIPOS>BOND
  1   1   2  1   
  2   1   3  1   
  3   2   4  1   
  4   2   5  2   
  5   3   6  2   
  6   3   7  1   
  7   4   8  1   
  8   5   6  1   
  9   7   9  am  
 10   7  25  1   
 11   8  10  1   
 12   8  26  1   
 13   8  27  1   
 14   9  11  2   
 15   9  12  1   
 16  10  13  2   
 17  10  14  am  
 18  12  15  1   
 19  12  16  1   
 20  12  28  1   
 21  14  17  1   
 22  14  29  1   
 23  15  16  1   
 24  15  30  1   
 25  15  31  1   
 26  16  32  1   
 27  16  33  1   
 28  17  18  ar  
 29  17  19  ar  
 30  18  20  ar  
 31  18  34  1   
 32  19  21  ar  
 33  19  35  1   
 34  20  22  ar  
 35  20  23  1   
 36  21  22  ar  
 37  21  24  1   
 38  22  36  1   
 39  23  37  1   
 40  23  38  1   
 41  23  39  1   
 42  24  40  1   
 43  24  41  1   
 44  24  42  1   
@<TRIPOS>SUBSTRUCTURE
  1 ****   4 GROUP 4 **** **** 0

# MOE 2024.06 (io_trps.svl 2023.06)
