@<TRIPOS>MOLECULE
4-(1-Ethyl-1H-benzoimidazol-2-yl)-piperazine-1-carboxylic acid (3-methoxy-phenyl)-amide
54 57 1 0 0 
SMALL
USER_CHARGES


@<TRIPOS>ATOM
  1 O       -0.2680    -0.2650     1.5480 O.2   1 <1>  -0.5740 
  2 C       -0.6410    -1.0890     0.7360 C.2   1 <1>   0.6870 
  3 N       -1.9830    -1.2340     0.4880 N.am  1 <1>  -0.6640 
  4 N        0.2420    -1.8670     0.0430 N.am  1 <1>  -0.5510 
  5 C       -2.5750    -2.5060    -0.0200 C.3   1 <1>   0.1330 
  6 C       -2.9280    -0.2230     1.0450 C.3   1 <1>   0.1330 
  7 C        1.6170    -2.0890     0.2070 C.ar  1 <1>   0.1100 
  8 C       -3.9200    -2.8050     0.6620 C.3   1 <1>   0.1610 
  9 C       -4.3180    -0.3170     0.3990 C.3   1 <1>   0.1610 
 10 C        2.3370    -2.6030    -0.8620 C.ar  1 <1>  -0.1570 
 11 C        2.2900    -1.8420     1.4000 C.ar  1 <1>  -0.1570 
 12 N       -4.9170    -1.6920     0.4830 N.pl3 1 <1>  -0.5960 
 13 C        3.6920    -2.8650    -0.7580 C.ar  1 <1>   0.0750 
 14 C        3.6450    -2.0970     1.5150 C.ar  1 <1>  -0.1570 
 15 C       -6.2470    -1.9250     0.4970 C.cat 1 <1>   1.0690 
 16 O        4.3020    -3.3670    -1.8620 O.3   1 <1>  -0.3680 
 17 C        4.3510    -2.6080     0.4410 C.ar  1 <1>  -0.1570 
 18 N       -6.7640    -3.0230     1.0420 N.pl3 1 <1>  -0.7030 
 19 N       -7.2400    -1.1620    -0.0040 N.pl3 1 <1>  -0.7670 
 20 C        5.6850    -3.6440    -1.8670 C.3   1 <1>   0.0330 
 21 C       -8.1350    -2.9910     0.9180 C.ar  1 <1>   0.3030 
 22 C       -8.4440    -1.8190     0.2560 C.ar  1 <1>   0.3030 
 23 C       -7.1800     0.0180    -0.9000 C.3   1 <1>   0.3490 
 24 C       -9.1230    -3.8800     1.3220 C.ar  1 <1>  -0.1160 
 25 C       -9.7720    -1.5080    -0.0250 C.ar  1 <1>  -0.1160 
 26 C       -6.8170    -0.4430    -2.3080 C.3   1 <1>  -0.2460 
 27 C      -10.4390    -3.5680     1.0430 C.ar  1 <1>  -0.1570 
 28 C      -10.7610    -2.3880     0.3720 C.ar  1 <1>  -0.1570 
 29 H       -0.1470    -2.2470    -0.8100 H     1 <1>   0.3650 
 30 H       -1.9020    -3.3240     0.1730 H     1 <1>   0.0730 
 31 H       -2.7170    -2.4310    -1.0850 H     1 <1>   0.0730 
 32 H       -2.5250     0.7630     0.8800 H     1 <1>   0.0730 
 33 H       -3.0080    -0.3660     2.1090 H     1 <1>   0.0730 
 34 H       -3.7420    -2.9600     1.7130 H     1 <1>   0.0730 
 35 H       -4.3110    -3.7190     0.2490 H     1 <1>   0.0730 
 36 H       -4.2290    -0.0280    -0.6340 H     1 <1>   0.0730 
 37 H       -4.9590     0.3880     0.9000 H     1 <1>   0.0730 
 38 H        1.8500    -2.8050    -1.7970 H     1 <1>   0.1430 
 39 H        1.7580    -1.4490     2.2460 H     1 <1>   0.1430 
 40 H        4.1480    -1.8960     2.4450 H     1 <1>   0.1430 
 41 H        5.4000    -2.7980     0.5560 H     1 <1>   0.1430 
 42 H       -6.2370    -3.7380     1.5320 H     1 <1>   0.4450 
 43 H        5.9460    -4.0210    -2.8390 H     1 <1>   0.0730 
 44 H        5.8940    -4.3870    -1.1180 H     1 <1>   0.0730 
 45 H        6.2230    -2.7340    -1.6700 H     1 <1>   0.0730 
 46 H       -6.4690     0.7400    -0.5460 H     1 <1>   0.0730 
 47 H       -8.1370     0.5100    -0.9220 H     1 <1>   0.0730 
 48 H       -8.8670    -4.7890     1.8380 H     1 <1>   0.1430 
 49 H      -10.0300    -0.6020    -0.5420 H     1 <1>   0.1430 
 50 H       -6.7940     0.4060    -2.9680 H     1 <1>   0.0730 
 51 H       -5.8480    -0.9080    -2.3250 H     1 <1>   0.0730 
 52 H       -7.5530    -1.1340    -2.6780 H     1 <1>   0.0730 
 53 H      -11.2310    -4.2380     1.3430 H     1 <1>   0.1430 
 54 H      -11.7970    -2.1670     0.1650 H     1 <1>   0.1430 
@<TRIPOS>BOND
  1   1   2  2   
  2   2   3  am  
  3   2   4  am  
  4   3   5  1   
  5   3   6  1   
  6   4   7  1   
  7   4  29  1   
  8   5   8  1   
  9   5  30  1   
 10   5  31  1   
 11   6   9  1   
 12   6  32  1   
 13   6  33  1   
 14   7  10  ar  
 15   7  11  ar  
 16   8  12  1   
 17   8  34  1   
 18   8  35  1   
 19   9  12  1   
 20   9  36  1   
 21   9  37  1   
 22  10  13  ar  
 23  10  38  1   
 24  11  14  ar  
 25  11  39  1   
 26  12  15  ar  
 27  13  16  1   
 28  13  17  ar  
 29  14  17  ar  
 30  14  40  1   
 31  15  18  ar  
 32  15  19  ar  
 33  16  20  1   
 34  17  41  1   
 35  18  21  1   
 36  18  42  1   
 37  19  22  1   
 38  19  23  1   
 39  20  43  1   
 40  20  44  1   
 41  20  45  1   
 42  21  22  ar  
 43  21  24  ar  
 44  22  25  ar  
 45  23  26  1   
 46  23  46  1   
 47  23  47  1   
 48  24  27  ar  
 49  24  48  1   
 50  25  28  ar  
 51  25  49  1   
 52  26  50  1   
 53  26  51  1   
 54  26  52  1   
 55  27  28  ar  
 56  27  53  1   
 57  28  54  1   
@<TRIPOS>SUBSTRUCTURE
  1 ****   5 GROUP 4 **** **** 0

# MOE 2024.06 (io_trps.svl 2023.06)
