@<TRIPOS>MOLECULE
4-[(Furan-2-carbonyl)-amino]-piperidine-1-carboxylic acid (3-methoxy-phenyl)-amide
46 48 1 0 0 
SMALL
USER_CHARGES


@<TRIPOS>ATOM
  1 O       -0.5180     0.1390     0.2940 O.2   1 <1>  -0.5700 
  2 C       -0.9380    -0.9730     0.5500 C.2   1 <1>   0.6900 
  3 N       -2.2500    -1.1490     0.9170 N.am  1 <1>  -0.6600 
  4 N       -0.1320    -2.0720     0.4500 N.am  1 <1>  -0.5470 
  5 C       -3.2470    -0.0590     0.7250 C.3   1 <1>   0.1400 
  6 C       -2.7520    -2.3080     1.7050 C.3   1 <1>   0.1400 
  7 C        1.2460    -2.2040     0.2300 C.ar  1 <1>   0.1170 
  8 C       -4.4930    -0.6240     0.0370 C.3   1 <1>  -0.1600 
  9 C       -3.9820    -2.8960     1.0110 C.3   1 <1>  -0.1600 
 10 C        1.7300    -3.4070    -0.2670 C.ar  1 <1>  -0.1500 
 11 C        2.1580    -1.1900     0.5070 C.ar  1 <1>  -0.1500 
 12 C       -5.0490    -1.8180     0.8130 C.3   1 <1>   0.2200 
 13 C        3.0810    -3.6030    -0.4900 C.ar  1 <1>   0.0820 
 14 C        3.5120    -1.3730     0.2870 C.ar  1 <1>  -0.1500 
 15 N       -6.1780    -2.3930     0.0700 N.am  1 <1>  -0.7300 
 16 O        3.4480    -4.8150    -0.9790 O.3   1 <1>  -0.3630 
 17 C        3.9790    -2.5760    -0.2120 C.ar  1 <1>  -0.1500 
 18 C       -7.3780    -2.7720     0.5970 C.2   1 <1>   0.7150 
 19 C        4.7970    -5.1070    -1.2690 C.3   1 <1>   0.0400 
 20 O       -7.5570    -2.6550     1.7960 O.2   1 <1>  -0.5700 
 21 C       -8.4050    -3.3070    -0.2650 C.2   1 <1>   0.0550 
 22 O       -8.2010    -3.4420    -1.5750 O.3   1 <1>  -0.2800 
 23 C       -9.6630    -3.7450     0.0210 C.2   1 <1>  -0.1500 
 24 C       -9.2840    -3.9480    -2.1220 C.2   1 <1>  -0.0100 
 25 C      -10.2320    -4.1610    -1.1840 C.2   1 <1>  -0.1500 
 26 H       -0.6610    -2.9340     0.4120 H     1 <1>   0.3700 
 27 H       -2.8340     0.7320     0.1200 H     1 <1>   0.0800 
 28 H       -3.5050     0.3540     1.6850 H     1 <1>   0.0800 
 29 H       -3.0220    -1.9660     2.6900 H     1 <1>   0.0800 
 30 H       -1.9970    -3.0650     1.8180 H     1 <1>   0.0800 
 31 H       -4.2260    -0.9190    -0.9620 H     1 <1>   0.0800 
 32 H       -5.2400     0.1470    -0.0210 H     1 <1>   0.0800 
 33 H       -4.3840    -3.6880     1.6180 H     1 <1>   0.0800 
 34 H       -3.6870    -3.3070     0.0610 H     1 <1>   0.0800 
 35 H        1.0540    -4.2090    -0.4910 H     1 <1>   0.1500 
 36 H        1.8130    -0.2510     0.9000 H     1 <1>   0.1500 
 37 H       -5.3880    -1.4800     1.7800 H     1 <1>   0.0800 
 38 H        4.2000    -0.5750     0.5050 H     1 <1>   0.1500 
 39 H       -6.0520    -2.5230    -0.9350 H     1 <1>   0.3700 
 40 H        5.0330    -2.6930    -0.3740 H     1 <1>   0.1500 
 41 H        4.8460    -6.1100    -1.6520 H     1 <1>   0.0800 
 42 H        5.3730    -5.0320    -0.3640 H     1 <1>   0.0800 
 43 H        5.1510    -4.4140    -2.0120 H     1 <1>   0.0800 
 44 H      -10.1370    -3.7710     0.9870 H     1 <1>   0.1500 
 45 H       -9.3010    -4.1270    -3.1830 H     1 <1>   0.1500 
 46 H      -11.2220    -4.5620    -1.3070 H     1 <1>   0.1500 
@<TRIPOS>BOND
  1   1   2  2   
  2   2   3  am  
  3   2   4  am  
  4   3   5  1   
  5   3   6  1   
  6   4   7  1   
  7   4  26  1   
  8   5   8  1   
  9   5  27  1   
 10   5  28  1   
 11   6   9  1   
 12   6  29  1   
 13   6  30  1   
 14   7  10  ar  
 15   7  11  ar  
 16   8  12  1   
 17   8  31  1   
 18   8  32  1   
 19   9  12  1   
 20   9  33  1   
 21   9  34  1   
 22  10  13  ar  
 23  10  35  1   
 24  11  14  ar  
 25  11  36  1   
 26  12  15  1   
 27  12  37  1   
 28  13  16  1   
 29  13  17  ar  
 30  14  17  ar  
 31  14  38  1   
 32  15  18  am  
 33  15  39  1   
 34  16  19  1   
 35  17  40  1   
 36  18  20  2   
 37  18  21  1   
 38  19  41  1   
 39  19  42  1   
 40  19  43  1   
 41  21  22  1   
 42  21  23  2   
 43  22  24  1   
 44  23  25  1   
 45  23  44  1   
 46  24  25  2   
 47  24  45  1   
 48  25  46  1   
@<TRIPOS>SUBSTRUCTURE
  1 ****   3 GROUP 4 **** **** 0

# MOE 2024.06 (io_trps.svl 2023.06)
