@<TRIPOS>MOLECULE
NONAME
54 57 1 0 0 
SMALL
USER_CHARGES


@<TRIPOS>ATOM
  1 S       -0.1830     0.0970     1.6860 S.o2  1 <1>   1.4470 
  2 O        0.1020     1.0250     2.7590 O.2   1 <1>  -0.6500 
  3 O       -0.4970    -1.2800     2.0020 O.2   1 <1>  -0.6500 
  4 N        1.1840     0.0630     0.6870 N.am  1 <1>  -0.8490 
  5 C       -1.4630     0.8040     0.6080 C.ar  1 <1>  -0.0090 
  6 C        1.0750    -0.9500    -0.3830 C.3   1 <1>   0.1960 
  7 C        2.4060    -0.1860     1.4770 C.3   1 <1>   0.1960 
  8 C       -2.3910    -0.0060    -0.0360 C.ar  1 <1>  -0.1500 
  9 C       -1.5230     2.1710     0.3730 C.ar  1 <1>  -0.1500 
 10 C        2.3000    -0.9610    -1.3190 C.3   1 <1>   0.2090 
 11 C        3.6880    -0.1900     0.6180 C.3   1 <1>   0.2090 
 12 C       -3.3540     0.5020    -0.8990 C.ar  1 <1>  -0.0090 
 13 C       -2.4760     2.7070    -0.4740 C.ar  1 <1>  -0.1500 
 14 N        3.5830    -1.0920    -0.5680 N.pl3 1 <1>  -0.8380 
 15 S       -4.5260    -0.6080    -1.7300 S.o2  1 <1>   1.4470 
 16 C       -3.3820     1.8750    -1.1050 C.ar  1 <1>  -0.1500 
 17 C        4.1670    -2.3520    -0.4900 C.ar  1 <1>   0.1000 
 18 O       -3.7780    -1.6440    -2.4080 O.2   1 <1>  -0.6500 
 19 O       -5.5100     0.1580    -2.4650 O.2   1 <1>  -0.6500 
 20 N       -5.3280    -1.3500    -0.4370 N.am  1 <1>  -0.8490 
 21 C        5.3000    -2.6240    -1.2440 C.ar  1 <1>  -0.1500 
 22 C        3.6480    -3.3550     0.3210 C.ar  1 <1>  -0.1500 
 23 C       -6.1020    -2.5090    -0.8450 C.3   1 <1>   0.1960 
 24 C       -6.2620    -0.4930     0.2750 C.3   1 <1>   0.1960 
 25 C        5.9050    -3.8670    -1.1930 C.ar  1 <1>  -0.1500 
 26 C        4.2480    -4.6000     0.3760 C.ar  1 <1>  -0.1500 
 27 C       -7.0340    -2.7830     0.3300 C.3   1 <1>  -0.1600 
 28 C       -7.1070    -1.4600     1.0940 C.3   1 <1>  -0.1600 
 29 C        5.3790    -4.8590    -0.3810 C.ar  1 <1>  -0.1500 
 30 H        0.2010    -0.7540    -0.9800 H     1 <1>   0.0800 
 31 H        0.9650    -1.9320     0.0450 H     1 <1>   0.0800 
 32 H        2.3240    -1.1310     1.9860 H     1 <1>   0.0800 
 33 H        2.5110     0.5780     2.2280 H     1 <1>   0.0800 
 34 H       -2.3670    -1.0710     0.1350 H     1 <1>   0.1500 
 35 H       -0.8140     2.8210     0.8590 H     1 <1>   0.1500 
 36 H        2.3200    -0.0450    -1.8840 H     1 <1>   0.0800 
 37 H        2.2090    -1.7760    -2.0160 H     1 <1>   0.0800 
 38 H        4.5220    -0.4940     1.2260 H     1 <1>   0.0800 
 39 H        3.8820     0.8110     0.2750 H     1 <1>   0.0800 
 40 H       -2.5090     3.7710    -0.6440 H     1 <1>   0.1500 
 41 H       -4.1190     2.2990    -1.7690 H     1 <1>   0.1500 
 42 H        5.7000    -1.8480    -1.8700 H     1 <1>   0.1500 
 43 H        2.7720    -3.1610     0.9090 H     1 <1>   0.1500 
 44 H       -5.4580    -3.3480    -1.0550 H     1 <1>   0.0800 
 45 H       -6.6800    -2.2730    -1.7240 H     1 <1>   0.0800 
 46 H       -6.8960     0.0330    -0.4210 H     1 <1>   0.0800 
 47 H       -5.7450     0.2160     0.8990 H     1 <1>   0.0800 
 48 H        6.7820    -4.0630    -1.7830 H     1 <1>   0.1500 
 49 H        3.8370    -5.3680     1.0070 H     1 <1>   0.1500 
 50 H       -6.6140    -3.5530     0.9550 H     1 <1>   0.0800 
 51 H       -8.0000    -3.1030    -0.0200 H     1 <1>   0.0800 
 52 H       -8.1160    -1.1020     1.1930 H     1 <1>   0.0800 
 53 H       -6.6750    -1.5730     2.0730 H     1 <1>   0.0800 
 54 H        5.8470    -5.8260    -0.3400 H     1 <1>   0.1500 
@<TRIPOS>BOND
  1   1   2  2   
  2   1   3  2   
  3   1   4  am  
  4   1   5  1   
  5   4   6  1   
  6   4   7  1   
  7   5   8  ar  
  8   5   9  ar  
  9   6  10  1   
 10   6  30  1   
 11   6  31  1   
 12   7  11  1   
 13   7  32  1   
 14   7  33  1   
 15   8  12  ar  
 16   8  34  1   
 17   9  13  ar  
 18   9  35  1   
 19  10  14  1   
 20  10  36  1   
 21  10  37  1   
 22  11  14  1   
 23  11  38  1   
 24  11  39  1   
 25  12  15  1   
 26  12  16  ar  
 27  13  16  ar  
 28  13  40  1   
 29  14  17  1   
 30  15  18  2   
 31  15  19  2   
 32  15  20  am  
 33  16  41  1   
 34  17  21  ar  
 35  17  22  ar  
 36  20  23  1   
 37  20  24  1   
 38  21  25  ar  
 39  21  42  1   
 40  22  26  ar  
 41  22  43  1   
 42  23  27  1   
 43  23  44  1   
 44  23  45  1   
 45  24  28  1   
 46  24  46  1   
 47  24  47  1   
 48  25  29  ar  
 49  25  48  1   
 50  26  29  ar  
 51  26  49  1   
 52  27  28  1   
 53  27  50  1   
 54  27  51  1   
 55  28  52  1   
 56  28  53  1   
 57  29  54  1   
@<TRIPOS>SUBSTRUCTURE
  1 ****   6 GROUP 4 **** **** 0

# MOE 2024.06 (io_trps.svl 2023.06)
