@<TRIPOS>MOLECULE
2-(4-Furan-2-ylmethyl-5-propyl-4H-[1,2,4]triazol-3-ylsulfanyl)-N-isopropyl-acetamide
44 45 1 0 0 
SMALL
USER_CHARGES


@<TRIPOS>ATOM
  1 S        0.2430     0.2250    -1.0300 S.3   1 <1>  -0.2860 
  2 C        1.7480     1.2000    -0.9390 C.2   1 <1>   0.2420 
  3 C       -1.0860     1.5100    -0.8380 C.3   1 <1>   0.1310 
  4 N        1.7600     2.4680    -0.7390 N.2   1 <1>  -0.3380 
  5 N        2.9610     0.6690    -1.0750 N.pl3 1 <1>   0.0480 
  6 C       -2.4520     0.8600    -0.6950 C.2   1 <1>   0.5690 
  7 N        3.0500     2.8190    -0.7290 N.2   1 <1>  -0.3380 
  8 C        3.7490     1.7470    -0.9250 C.2   1 <1>   0.0060 
  9 C        3.3050    -0.7380    -1.3530 C.3   1 <1>   0.2760 
 10 O       -3.3970     1.3680    -1.2500 O.2   1 <1>  -0.5700 
 11 N       -2.5760    -0.2630     0.0610 N.am  1 <1>  -0.7300 
 12 C        5.2730     1.6850    -0.9770 C.3   1 <1>   0.0200 
 13 C        3.5070    -1.5050    -0.0610 C.2   1 <1>  -0.0400 
 14 C       -3.8190    -1.0040     0.2920 C.3   1 <1>   0.2200 
 15 C        5.9400     3.0630    -0.8560 C.3   1 <1>  -0.1600 
 16 O        4.5840    -1.2640     0.6620 O.3   1 <1>  -0.2800 
 17 C        2.7460    -2.4540     0.5260 C.2   1 <1>  -0.1500 
 18 C       -4.0740    -1.0490     1.7940 C.3   1 <1>  -0.2400 
 19 C       -3.6530    -2.4040    -0.2870 C.3   1 <1>  -0.2400 
 20 C        7.4680     2.9590    -0.9170 C.3   1 <1>  -0.2400 
 21 C        4.5340    -2.0440     1.7230 C.2   1 <1>  -0.0100 
 22 C        3.4220    -2.8080     1.7010 C.2   1 <1>  -0.1500 
 23 H       -1.0520     2.1370    -1.7090 H     1 <1>   0.0800 
 24 H       -0.8540     2.0880     0.0370 H     1 <1>   0.0800 
 25 H        4.2030    -0.7770    -1.9410 H     1 <1>   0.0800 
 26 H        2.5110    -1.1860    -1.9210 H     1 <1>   0.0800 
 27 H       -1.7370    -0.6780     0.4670 H     1 <1>   0.3700 
 28 H        5.5720     1.2350    -1.9060 H     1 <1>   0.0800 
 29 H        5.6190     1.0600    -0.1730 H     1 <1>   0.0800 
 30 H       -4.6400    -0.5040    -0.1990 H     1 <1>   0.0800 
 31 H        5.6510     3.5160     0.0780 H     1 <1>   0.0800 
 32 H        5.5920     3.6990    -1.6520 H     1 <1>   0.0800 
 33 H        1.8120    -2.8750     0.1970 H     1 <1>   0.1500 
 34 H       -3.2690    -1.5450     2.3060 H     1 <1>   0.0800 
 35 H       -4.9870    -1.5820     1.9930 H     1 <1>   0.0800 
 36 H       -4.1790    -0.0500     2.1770 H     1 <1>   0.0800 
 37 H       -2.8430    -2.9240     0.1910 H     1 <1>   0.0800 
 38 H       -3.4650    -2.3410    -1.3440 H     1 <1>   0.0800 
 39 H       -4.5570    -2.9680    -0.1400 H     1 <1>   0.0800 
 40 H        7.8370     2.3460    -0.1140 H     1 <1>   0.0800 
 41 H        7.9040     3.9390    -0.8250 H     1 <1>   0.0800 
 42 H        7.7810     2.5340    -1.8540 H     1 <1>   0.0800 
 43 H        5.3310    -1.9910     2.4450 H     1 <1>   0.1500 
 44 H        3.0940    -3.5400     2.4170 H     1 <1>   0.1500 
@<TRIPOS>BOND
  1   1   2  1   
  2   1   3  1   
  3   2   4  2   
  4   2   5  1   
  5   3   6  1   
  6   3  23  1   
  7   3  24  1   
  8   4   7  1   
  9   5   8  1   
 10   5   9  1   
 11   6  10  2   
 12   6  11  am  
 13   7   8  2   
 14   8  12  1   
 15   9  13  1   
 16   9  25  1   
 17   9  26  1   
 18  11  14  1   
 19  11  27  1   
 20  12  15  1   
 21  12  28  1   
 22  12  29  1   
 23  13  16  1   
 24  13  17  2   
 25  14  18  1   
 26  14  19  1   
 27  14  30  1   
 28  15  20  1   
 29  15  31  1   
 30  15  32  1   
 31  16  21  1   
 32  17  22  1   
 33  17  33  1   
 34  18  34  1   
 35  18  35  1   
 36  18  36  1   
 37  19  37  1   
 38  19  38  1   
 39  19  39  1   
 40  20  40  1   
 41  20  41  1   
 42  20  42  1   
 43  21  22  2   
 44  21  43  1   
 45  22  44  1   
@<TRIPOS>SUBSTRUCTURE
  1 ****   2 GROUP 4 **** **** 0

# MOE 2024.06 (io_trps.svl 2023.06)
