@<TRIPOS>MOLECULE
2-(2-Cyclohexylamino-acetylamino)-4,5,6,7-tetrahydro-benzo[b]thiophene-3-carboxylic acid amide
49 51 1 0 0 
SMALL
USER_CHARGES


@<TRIPOS>ATOM
  1 S        0.3620    -0.1660    -0.1590 S.3   1 <1>  -0.0800 
  2 C       -1.0990     0.8030    -0.2620 C.2   1 <1>   0.1040 
  3 C       -0.5760    -1.6400    -0.0780 C.2   1 <1>  -0.1400 
  4 N       -1.0300     2.1870    -0.3200 N.am  1 <1>  -0.4940 
  5 C       -2.2220     0.0180    -0.2620 C.2   1 <1>  -0.0860 
  6 C       -1.8930    -1.3860    -0.1230 C.2   1 <1>  -0.1810 
  7 C        0.1360    -2.9690     0.0500 C.3   1 <1>   0.0200 
  8 C        0.0190     3.0670    -0.3770 C.2   1 <1>   0.5690 
  9 C       -3.5460     0.5820    -0.3930 C.2   1 <1>   0.7160 
 10 C       -2.8900    -2.5360    -0.0100 C.3   1 <1>   0.0210 
 11 C       -0.8740    -4.1060    -0.1760 C.3   1 <1>  -0.1600 
 12 O        1.1820     2.7520    -0.4550 O.2   1 <1>  -0.5700 
 13 C       -0.2700     4.5710    -0.3320 C.3   1 <1>   0.4040 
 14 O       -3.7480     1.7700    -0.2070 O.2   1 <1>  -0.5700 
 15 N       -4.6200    -0.1380    -0.7770 N.am  1 <1>  -0.8000 
 16 C       -2.2180    -3.8190     0.5210 C.3   1 <1>  -0.1600 
 17 N        0.9450     5.3520     0.0950 N.4   1 <1>  -0.9060 
 18 C        0.9460     6.7770    -0.2710 C.3   1 <1>   0.4230 
 19 C        2.3450     7.3380    -0.0020 C.3   1 <1>  -0.1600 
 20 C       -0.1190     7.5270     0.5420 C.3   1 <1>  -0.1600 
 21 C        2.4010     8.8450    -0.2900 C.3   1 <1>  -0.1600 
 22 C       -0.0670     9.0360     0.2580 C.3   1 <1>  -0.1600 
 23 C        1.3350     9.6030     0.5110 C.3   1 <1>  -0.1600 
 24 H       -1.9790     2.5890    -0.2970 H     1 <1>   0.3700 
 25 H        0.5610    -3.0400     1.0360 H     1 <1>   0.0800 
 26 H        0.9320    -3.0340    -0.6710 H     1 <1>   0.0800 
 27 H       -3.3050    -2.7340    -0.9830 H     1 <1>   0.0800 
 28 H       -3.6870    -2.2680     0.6600 H     1 <1>   0.0800 
 29 H       -0.4590    -5.0300     0.1870 H     1 <1>   0.0800 
 30 H       -1.0460    -4.2140    -1.2330 H     1 <1>   0.0800 
 31 H       -1.0870     4.7590     0.3440 H     1 <1>   0.0800 
 32 H       -0.5670     4.8770    -1.3210 H     1 <1>   0.0800 
 33 H       -5.5130     0.3360    -0.9110 H     1 <1>   0.3700 
 34 H       -4.5380    -1.0830    -1.1440 H     1 <1>   0.3700 
 35 H       -2.8840    -4.6530     0.3850 H     1 <1>   0.0800 
 36 H       -2.0430    -3.7080     1.5780 H     1 <1>   0.0800 
 37 H        1.7490     4.8700    -0.3430 H     1 <1>   0.4500 
 38 H        1.1000     5.2430     1.1030 H     1 <1>   0.4500 
 39 H        0.7290     6.8860    -1.3220 H     1 <1>   0.0800 
 40 H        3.0670     6.8420    -0.6270 H     1 <1>   0.0800 
 41 H        2.6150     7.1780     1.0280 H     1 <1>   0.0800 
 42 H        0.0470     7.3740     1.5940 H     1 <1>   0.0800 
 43 H       -1.1030     7.1720     0.2930 H     1 <1>   0.0800 
 44 H        2.2490     9.0220    -1.3420 H     1 <1>   0.0800 
 45 H        3.3770     9.2270    -0.0360 H     1 <1>   0.0800 
 46 H       -0.7780     9.5480     0.8860 H     1 <1>   0.0800 
 47 H       -0.3460     9.2240    -0.7660 H     1 <1>   0.0800 
 48 H        1.3560    10.6460     0.2390 H     1 <1>   0.0800 
 49 H        1.5640     9.5410     1.5620 H     1 <1>   0.0800 
@<TRIPOS>BOND
  1   1   2  1   
  2   1   3  1   
  3   2   4  1   
  4   2   5  2   
  5   3   6  2   
  6   3   7  1   
  7   4   8  am  
  8   4  24  1   
  9   5   6  1   
 10   5   9  1   
 11   6  10  1   
 12   7  11  1   
 13   7  25  1   
 14   7  26  1   
 15   8  12  2   
 16   8  13  1   
 17   9  14  2   
 18   9  15  am  
 19  10  16  1   
 20  10  27  1   
 21  10  28  1   
 22  11  16  1   
 23  11  29  1   
 24  11  30  1   
 25  13  17  1   
 26  13  31  1   
 27  13  32  1   
 28  15  33  1   
 29  15  34  1   
 30  16  35  1   
 31  16  36  1   
 32  17  18  1   
 33  17  37  1   
 34  17  38  1   
 35  18  19  1   
 36  18  20  1   
 37  18  39  1   
 38  19  21  1   
 39  19  40  1   
 40  19  41  1   
 41  20  22  1   
 42  20  42  1   
 43  20  43  1   
 44  21  23  1   
 45  21  44  1   
 46  21  45  1   
 47  22  23  1   
 48  22  46  1   
 49  22  47  1   
 50  23  48  1   
 51  23  49  1   
@<TRIPOS>SUBSTRUCTURE
  1 ****   4 GROUP 4 **** **** 0

# MOE 2024.06 (io_trps.svl 2023.06)
