@<TRIPOS>MOLECULE
NONAME
39 41 1 0 0 
SMALL
USER_CHARGES


@<TRIPOS>ATOM
  1 F       -1.0310    -0.0510     0.8160 F     1 <1>  -0.1900 
  2 C       -2.1990     0.5270     0.7110 C.ar  1 <1>   0.1900 
  3 C       -2.8890     0.8510     1.8620 C.ar  1 <1>  -0.1500 
  4 C       -2.7030     0.7910    -0.5480 C.ar  1 <1>  -0.1500 
  5 C       -4.1260     1.4620     1.7420 C.ar  1 <1>  -0.1500 
  6 C       -3.9410     1.4010    -0.6510 C.ar  1 <1>  -0.1500 
  7 C       -4.6660     1.7470     0.4900 C.ar  1 <1>   0.1170 
  8 N       -5.9300     2.3530     0.4320 N.am  1 <1>  -0.5470 
  9 C       -6.5400     3.0770    -0.5570 C.2   1 <1>   0.5690 
 10 O       -6.0160     3.3440    -1.6110 O.2   1 <1>  -0.5700 
 11 C       -7.9620     3.5430    -0.2990 C.3   1 <1>  -0.0190 
 12 C       -8.9240     2.6020    -1.0230 C.3   1 <1>   0.2090 
 13 C       -8.2210     5.0050    -0.7230 C.3   1 <1>  -0.1600 
 14 N      -10.3170     3.0060    -0.6960 N.pl3 1 <1>  -0.8380 
 15 C       -9.6970     5.3820    -0.4980 C.3   1 <1>  -0.1600 
 16 C      -11.0740     2.3360     0.2410 C.ar  1 <1>   0.7200 
 17 C      -10.6620     4.3810    -1.1500 C.3   1 <1>   0.2090 
 18 N      -12.3830     2.5820     0.2460 N.ar  1 <1>  -0.6200 
 19 N      -10.4300     1.5070     1.0650 N.ar  1 <1>  -0.6200 
 20 C      -13.0950     1.9340     1.1340 C.ar  1 <1>   0.1600 
 21 C      -11.1680     0.8730     1.9420 C.ar  1 <1>   0.1600 
 22 C      -12.5270     1.0520     2.0210 C.ar  1 <1>  -0.1500 
 23 H       -2.4640     0.6300     2.8240 H     1 <1>   0.1500 
 24 H       -2.1400     0.5250    -1.4240 H     1 <1>   0.1500 
 25 H       -4.6720     1.7220     2.6310 H     1 <1>   0.1500 
 26 H       -4.3410     1.6040    -1.6280 H     1 <1>   0.1500 
 27 H       -6.4890     2.2400     1.2770 H     1 <1>   0.3700 
 28 H       -8.1580     3.4600     0.7550 H     1 <1>   0.0800 
 29 H       -8.7420     1.5800    -0.7350 H     1 <1>   0.0800 
 30 H       -8.7740     2.6710    -2.0870 H     1 <1>   0.0800 
 31 H       -7.9820     5.1220    -1.7670 H     1 <1>   0.0800 
 32 H       -7.5840     5.6670    -0.1630 H     1 <1>   0.0800 
 33 H       -9.8850     6.3630    -0.8960 H     1 <1>   0.0800 
 34 H       -9.9050     5.4130     0.5570 H     1 <1>   0.0800 
 35 H      -11.6750     4.6360    -0.8920 H     1 <1>   0.0800 
 36 H      -10.5720     4.4270    -2.2220 H     1 <1>   0.0800 
 37 H      -14.1560     2.1100     1.1560 H     1 <1>   0.1500 
 38 H      -10.6780     0.1920     2.6170 H     1 <1>   0.1500 
 39 H      -13.1210     0.5260     2.7430 H     1 <1>   0.1500 
@<TRIPOS>BOND
  1   1   2  1   
  2   2   3  ar  
  3   2   4  ar  
  4   3   5  ar  
  5   3  23  1   
  6   4   6  ar  
  7   4  24  1   
  8   5   7  ar  
  9   5  25  1   
 10   6   7  ar  
 11   6  26  1   
 12   7   8  1   
 13   8   9  am  
 14   8  27  1   
 15   9  10  2   
 16   9  11  1   
 17  11  12  1   
 18  11  13  1   
 19  11  28  1   
 20  12  14  1   
 21  12  29  1   
 22  12  30  1   
 23  13  15  1   
 24  13  31  1   
 25  13  32  1   
 26  14  16  1   
 27  14  17  1   
 28  15  17  1   
 29  15  33  1   
 30  15  34  1   
 31  16  18  ar  
 32  16  19  ar  
 33  17  35  1   
 34  17  36  1   
 35  18  20  ar  
 36  19  21  ar  
 37  20  22  ar  
 38  20  37  1   
 39  21  22  ar  
 40  21  38  1   
 41  22  39  1   
@<TRIPOS>SUBSTRUCTURE
  1 ****  11 GROUP 4 **** **** 0

# MOE 2024.06 (io_trps.svl 2023.06)
