@<TRIPOS>MOLECULE
NONAME
42 44 1 0 0 
SMALL
USER_CHARGES


@<TRIPOS>ATOM
  1 S       -0.1090     0.0920     0.5230 S.3   1 <1>  -0.3320 
  2 C        1.5580    -0.5110     0.3060 C.ar  1 <1>   0.7220 
  3 C       -1.0890    -0.7840    -0.7930 C.3   1 <1>   0.1310 
  4 N        1.7310    -1.4310    -0.6760 N.ar  1 <1>  -0.3100 
  5 N        2.4540    -0.0140     1.1200 N.ar  1 <1>  -0.5670 
  6 C       -2.5630    -0.4160    -0.7020 C.2   1 <1>   0.5690 
  7 N        2.9140    -1.9270    -0.8970 N.ar  1 <1>  -0.2560 
  8 C        3.6560    -0.5310     0.8760 C.ar  1 <1>   0.1050 
  9 O       -2.9640     0.4170    -1.4820 O.2   1 <1>  -0.5700 
 10 N       -3.4040    -1.0270     0.2020 N.am  1 <1>  -0.6600 
 11 C        3.8960    -1.4710    -0.1110 C.ar  1 <1>   0.2560 
 12 N        4.8250    -0.2480     1.5200 N.pl3 1 <1>   0.0330 
 13 C       -4.8390    -0.6320     0.2630 C.3   1 <1>   0.1400 
 14 C       -2.9440    -1.9600     1.2680 C.3   1 <1>   0.1400 
 15 C        5.2840    -1.7770    -0.0660 C.ar  1 <1>   0.0000 
 16 C        5.8310    -1.0040     0.9550 C.ar  1 <1>  -0.1520 
 17 C       -5.6410    -1.3940    -0.7900 C.3   1 <1>  -0.2400 
 18 C       -3.0920    -3.4070     0.8040 C.3   1 <1>  -0.2400 
 19 C        6.1040    -2.6360    -0.7980 C.ar  1 <1>  -0.1500 
 20 C        7.1900    -1.0760     1.2550 C.ar  1 <1>  -0.1500 
 21 C        7.4510    -2.7110    -0.5050 C.ar  1 <1>  -0.1440 
 22 C        7.9870    -1.9290     0.5230 C.ar  1 <1>  -0.1500 
 23 C        8.3670    -3.6360    -1.2850 C.3   1 <1>  -0.0970 
 24 H       -0.9460    -1.8400    -0.6650 H     1 <1>   0.0800 
 25 H       -0.6890    -0.4750    -1.7410 H     1 <1>   0.0800 
 26 H        4.9170     0.4190     2.2900 H     1 <1>   0.2700 
 27 H       -4.9240     0.4260     0.0790 H     1 <1>   0.0800 
 28 H       -5.2400    -0.8270     1.2430 H     1 <1>   0.0800 
 29 H       -3.5180    -1.8030     2.1650 H     1 <1>   0.0800 
 30 H       -1.9160    -1.7670     1.5160 H     1 <1>   0.0800 
 31 H       -5.2550    -1.1800    -1.7710 H     1 <1>   0.0800 
 32 H       -6.6680    -1.0810    -0.7560 H     1 <1>   0.0800 
 33 H       -5.6000    -2.4510    -0.6140 H     1 <1>   0.0800 
 34 H       -4.1290    -3.6570     0.6800 H     1 <1>   0.0800 
 35 H       -2.6750    -4.0660     1.5430 H     1 <1>   0.0800 
 36 H       -2.5740    -3.5630    -0.1240 H     1 <1>   0.0800 
 37 H        5.6670    -3.2260    -1.5840 H     1 <1>   0.1500 
 38 H        7.6060    -0.4760     2.0450 H     1 <1>   0.1500 
 39 H        9.0390    -1.9970     0.7410 H     1 <1>   0.1500 
 40 H        7.8210    -4.1730    -2.0400 H     1 <1>   0.0800 
 41 H        8.8210    -4.3480    -0.6200 H     1 <1>   0.0800 
 42 H        9.1420    -3.0650    -1.7650 H     1 <1>   0.0800 
@<TRIPOS>BOND
  1   1   2  1   
  2   1   3  1   
  3   2   4  ar  
  4   2   5  ar  
  5   3   6  1   
  6   3  24  1   
  7   3  25  1   
  8   4   7  ar  
  9   5   8  ar  
 10   6   9  2   
 11   6  10  am  
 12   7  11  ar  
 13   8  11  ar  
 14   8  12  1   
 15  10  13  1   
 16  10  14  1   
 17  11  15  1   
 18  12  16  1   
 19  12  26  1   
 20  13  17  1   
 21  13  27  1   
 22  13  28  1   
 23  14  18  1   
 24  14  29  1   
 25  14  30  1   
 26  15  16  ar  
 27  15  19  ar  
 28  16  20  ar  
 29  17  31  1   
 30  17  32  1   
 31  17  33  1   
 32  18  34  1   
 33  18  35  1   
 34  18  36  1   
 35  19  21  ar  
 36  19  37  1   
 37  20  22  ar  
 38  20  38  1   
 39  21  22  ar  
 40  21  23  1   
 41  22  39  1   
 42  23  40  1   
 43  23  41  1   
 44  23  42  1   
@<TRIPOS>SUBSTRUCTURE
  1 ****   4 GROUP 4 **** **** 0

# MOE 2024.06 (io_trps.svl 2023.06)
