@<TRIPOS>MOLECULE
Pyrrolidine-1,2-dicarboxylic acid 1-[(2,6-dimethyl-phenyl)-amide] 2-[(4-methoxy-phenyl)-amide]
52 54 1 0 0 
SMALL
USER_CHARGES


@<TRIPOS>ATOM
  1 O        2.9930    -0.9180    -2.3220 O.2   1 <1>  -0.5700 
  2 C        3.4910    -0.0400    -1.6430 C.2   1 <1>   0.6900 
  3 N        4.4020    -0.3610    -0.6770 N.am  1 <1>  -0.6600 
  4 N        3.0990     1.2360    -1.8900 N.am  1 <1>  -0.5470 
  5 C        4.7490    -1.7810    -0.3620 C.3   1 <1>   0.2810 
  6 C        5.3660     0.5760    -0.0540 C.3   1 <1>   0.1400 
  7 C        2.7600     2.2620    -0.9990 C.ar  1 <1>   0.1170 
  8 C        3.6420    -2.4740     0.4610 C.2   1 <1>   0.5690 
  9 C        6.1210    -1.6870     0.3210 C.3   1 <1>  -0.1600 
 10 C        6.1750    -0.2810     0.9110 C.3   1 <1>  -0.1600 
 11 C        2.3690     2.0060     0.3110 C.ar  1 <1>  -0.1500 
 12 C        2.7900     3.5800    -1.4390 C.ar  1 <1>  -0.1500 
 13 O        3.8150    -2.7250     1.6320 O.2   1 <1>  -0.5700 
 14 N        2.4810    -2.7730    -0.1990 N.am  1 <1>  -0.5470 
 15 C        2.0230     3.0430     1.1590 C.ar  1 <1>  -0.1500 
 16 C        2.4450     4.6210    -0.5950 C.ar  1 <1>  -0.1500 
 17 C        1.2880    -3.3420     0.2760 C.ar  1 <1>   0.1170 
 18 C        2.0580     4.3540     0.7150 C.ar  1 <1>   0.0830 
 19 C        0.0960    -2.6290     0.1160 C.ar  1 <1>  -0.1430 
 20 C        1.2510    -4.6070     0.8750 C.ar  1 <1>  -0.1430 
 21 O        1.7040     5.3130     1.6120 O.3   1 <1>  -0.3630 
 22 C       -1.0990    -3.1620     0.5700 C.ar  1 <1>  -0.1500 
 23 C        0.0770    -1.2590    -0.5510 C.3   1 <1>  -0.0970 
 24 C        0.0460    -5.1190     1.3280 C.ar  1 <1>  -0.1500 
 25 C        2.4960    -5.4680     1.0450 C.3   1 <1>  -0.0970 
 26 C        1.7030     6.6770     1.2550 C.3   1 <1>   0.0400 
 27 C       -1.1260    -4.4020     1.1790 C.ar  1 <1>  -0.1500 
 28 H        2.6740     1.3120    -2.8120 H     1 <1>   0.3700 
 29 H        4.8610    -2.3310    -1.2800 H     1 <1>   0.0800 
 30 H        4.8700     1.3730     0.4700 H     1 <1>   0.0800 
 31 H        6.0010     0.9890    -0.8190 H     1 <1>   0.0800 
 32 H        6.8850    -1.7910    -0.4290 H     1 <1>   0.0800 
 33 H        6.2690    -2.4500     1.0650 H     1 <1>   0.0800 
 34 H        5.6900    -0.2750     1.8730 H     1 <1>   0.0800 
 35 H        7.1810     0.0820     1.0250 H     1 <1>   0.0800 
 36 H        2.3360     0.9950     0.6750 H     1 <1>   0.1500 
 37 H        3.0890     3.7920    -2.4500 H     1 <1>   0.1500 
 38 H        2.3980    -2.3080    -1.1130 H     1 <1>   0.3700 
 39 H        1.7240     2.8400     2.1710 H     1 <1>   0.1500 
 40 H        2.4820     5.6250    -0.9720 H     1 <1>   0.1500 
 41 H       -2.0180    -2.6160     0.4550 H     1 <1>   0.1500 
 42 H        0.3590    -1.3490    -1.5850 H     1 <1>   0.0800 
 43 H        0.7650    -0.6010    -0.0560 H     1 <1>   0.0800 
 44 H       -0.9020    -0.8170    -0.5040 H     1 <1>   0.0800 
 45 H        0.0120    -6.0850     1.7990 H     1 <1>   0.1500 
 46 H        3.0160    -5.1810     1.9410 H     1 <1>   0.0800 
 47 H        3.1560    -5.3530     0.2060 H     1 <1>   0.0800 
 48 H        2.2340    -6.5070     1.1210 H     1 <1>   0.0800 
 49 H        1.3910     7.2460     2.1120 H     1 <1>   0.0800 
 50 H        1.0100     6.8260     0.4460 H     1 <1>   0.0800 
 51 H        2.7000     6.9640     0.9690 H     1 <1>   0.0800 
 52 H       -2.0560    -4.8090     1.5330 H     1 <1>   0.1500 
@<TRIPOS>BOND
  1   1   2  2   
  2   2   3  am  
  3   2   4  am  
  4   3   5  1   
  5   3   6  1   
  6   4   7  1   
  7   4  28  1   
  8   5   8  1   
  9   5   9  1   
 10   5  29  1   
 11   6  10  1   
 12   6  30  1   
 13   6  31  1   
 14   7  11  ar  
 15   7  12  ar  
 16   8  13  2   
 17   8  14  am  
 18   9  10  1   
 19   9  32  1   
 20   9  33  1   
 21  10  34  1   
 22  10  35  1   
 23  11  15  ar  
 24  11  36  1   
 25  12  16  ar  
 26  12  37  1   
 27  14  17  1   
 28  14  38  1   
 29  15  18  ar  
 30  15  39  1   
 31  16  18  ar  
 32  16  40  1   
 33  17  19  ar  
 34  17  20  ar  
 35  18  21  1   
 36  19  22  ar  
 37  19  23  1   
 38  20  24  ar  
 39  20  25  1   
 40  21  26  1   
 41  22  27  ar  
 42  22  41  1   
 43  23  42  1   
 44  23  43  1   
 45  23  44  1   
 46  24  27  ar  
 47  24  45  1   
 48  25  46  1   
 49  25  47  1   
 50  25  48  1   
 51  26  49  1   
 52  26  50  1   
 53  26  51  1   
 54  27  52  1   
@<TRIPOS>SUBSTRUCTURE
  1 ****   2 GROUP 4 **** **** 0

# MOE 2024.06 (io_trps.svl 2023.06)
