@<TRIPOS>MOLECULE
NONAME
42 44 1 0 0 
SMALL
USER_CHARGES


@<TRIPOS>ATOM
  1 CL      -0.3260     0.2650     0.2240 Cl    1 <1>  -0.1770 
  2 C       -1.9840    -0.2580     0.0910 C.ar  1 <1>   0.1770 
  3 C       -2.6110    -0.8190     1.1860 C.ar  1 <1>  -0.1500 
  4 C       -2.6510    -0.1070    -1.1100 C.ar  1 <1>  -0.1500 
  5 C       -3.9280    -1.2300     1.0740 C.ar  1 <1>  -0.1500 
  6 C       -3.9670    -0.5230    -1.2120 C.ar  1 <1>  -0.1500 
  7 C       -4.6350    -1.0870    -0.1220 C.ar  1 <1>   0.0000 
  8 C       -6.0160    -1.5100    -0.2230 C.ar  1 <1>   0.3100 
  9 N       -6.3520    -2.7100     0.2700 N.ar  1 <1>  -0.3100 
 10 C       -6.9670    -0.6900    -0.8110 C.ar  1 <1>  -0.1500 
 11 N       -7.5850    -3.1450     0.2000 N.ar  1 <1>  -0.3100 
 12 C       -8.2610    -1.1410    -0.8810 C.ar  1 <1>  -0.1500 
 13 C       -8.5310    -2.3900    -0.3540 C.ar  1 <1>   0.4100 
 14 N       -9.7900    -2.9340    -0.3630 N.pl3 1 <1>  -0.8690 
 15 C      -10.8970    -2.2690     0.3580 C.3   1 <1>   0.2090 
 16 C      -12.0540    -1.9910    -0.6180 C.3   1 <1>   0.3430 
 17 N      -13.2840    -1.4310     0.0420 N.4   1 <1>  -0.9590 
 18 C      -14.4210    -1.3710    -0.9460 C.3   1 <1>   0.3430 
 19 C      -13.0560    -0.0660     0.6440 C.3   1 <1>   0.3430 
 20 C      -15.6690    -0.7000    -0.3400 C.3   1 <1>   0.1200 
 21 C      -14.3660     0.5450     1.1800 C.3   1 <1>   0.1200 
 22 O      -15.3380     0.5550     0.1770 O.3   1 <1>  -0.5600 
 23 H       -2.0740    -0.9320     2.1100 H     1 <1>   0.1500 
 24 H       -2.1400     0.3270    -1.9510 H     1 <1>   0.1500 
 25 H       -4.4190    -1.6730     1.9250 H     1 <1>   0.1500 
 26 H       -4.4790    -0.4150    -2.1520 H     1 <1>   0.1500 
 27 H       -6.6920     0.2740    -1.1980 H     1 <1>   0.1500 
 28 H       -9.0360    -0.5560    -1.3360 H     1 <1>   0.1500 
 29 H       -9.7170    -3.9370    -0.1380 H     1 <1>   0.4000 
 30 H      -10.5410    -1.3490     0.7900 H     1 <1>   0.0800 
 31 H      -11.2290    -2.9200     1.1490 H     1 <1>   0.0800 
 32 H      -12.3060    -2.9210    -1.1020 H     1 <1>   0.0800 
 33 H      -11.7070    -1.3080    -1.3760 H     1 <1>   0.0800 
 34 H      -13.5790    -2.0640     0.7980 H     1 <1>   0.4500 
 35 H      -14.6780    -2.3640    -1.2760 H     1 <1>   0.0800 
 36 H      -14.1220    -0.8020    -1.8120 H     1 <1>   0.0800 
 37 H      -12.6570     0.6000    -0.1030 H     1 <1>   0.0800 
 38 H      -12.3420    -0.1280     1.4490 H     1 <1>   0.0800 
 39 H      -16.0940    -1.3000     0.4470 H     1 <1>   0.0800 
 40 H      -16.4170    -0.5530    -1.1000 H     1 <1>   0.0800 
 41 H      -14.2020     1.5640     1.4860 H     1 <1>   0.0800 
 42 H      -14.7420    -0.0080     2.0240 H     1 <1>   0.0800 
@<TRIPOS>BOND
  1   1   2  1   
  2   2   3  ar  
  3   2   4  ar  
  4   3   5  ar  
  5   3  23  1   
  6   4   6  ar  
  7   4  24  1   
  8   5   7  ar  
  9   5  25  1   
 10   6   7  ar  
 11   6  26  1   
 12   7   8  1   
 13   8   9  ar  
 14   8  10  ar  
 15   9  11  ar  
 16  10  12  ar  
 17  10  27  1   
 18  11  13  ar  
 19  12  13  ar  
 20  12  28  1   
 21  13  14  1   
 22  14  15  1   
 23  14  29  1   
 24  15  16  1   
 25  15  30  1   
 26  15  31  1   
 27  16  17  1   
 28  16  32  1   
 29  16  33  1   
 30  17  18  1   
 31  17  19  1   
 32  17  34  1   
 33  18  20  1   
 34  18  35  1   
 35  18  36  1   
 36  19  21  1   
 37  19  37  1   
 38  19  38  1   
 39  20  22  1   
 40  20  39  1   
 41  20  40  1   
 42  21  22  1   
 43  21  41  1   
 44  21  42  1   
@<TRIPOS>SUBSTRUCTURE
  1 ****  12 GROUP 4 **** **** 0

# MOE 2024.06 (io_trps.svl 2023.06)
