@<TRIPOS>MOLECULE
N-[2-(4-Phenyl-piperazin-1-yl)-phenyl]-butyramide
49 51 1 0 0 
SMALL
USER_CHARGES


@<TRIPOS>ATOM
  1 O       -0.1210    -0.0290     0.8800 O.2   1 <1>  -0.5700 
  2 C       -1.3110     0.1680     0.8780 C.2   1 <1>   0.5690 
  3 N       -2.2410    -0.7720     0.5550 N.am  1 <1>  -0.5470 
  4 C       -1.8210     1.5470     1.2550 C.3   1 <1>  -0.0990 
  5 C       -2.1760    -2.1100     0.1390 C.ar  1 <1>   0.1170 
  6 C       -2.4870     2.2710     0.0720 C.3   1 <1>  -0.1600 
  7 C       -3.3890    -2.7040    -0.2370 C.ar  1 <1>   0.1000 
  8 C       -1.0030    -2.8510     0.0880 C.ar  1 <1>  -0.1500 
  9 C       -2.9830     3.6620     0.4790 C.3   1 <1>  -0.2400 
 10 N       -4.5810    -1.9560    -0.1900 N.pl3 1 <1>  -0.8380 
 11 C       -3.3910    -4.0280    -0.6590 C.ar  1 <1>  -0.1500 
 12 C       -1.0220    -4.1700    -0.3330 C.ar  1 <1>  -0.1500 
 13 C       -5.1830    -1.6380    -1.5250 C.3   1 <1>   0.2090 
 14 C       -5.6240    -2.4610     0.7630 C.3   1 <1>   0.2090 
 15 C       -2.2160    -4.7590    -0.7070 C.ar  1 <1>  -0.1500 
 16 C       -6.3540    -0.6440    -1.4020 C.3   1 <1>   0.2090 
 17 C       -6.7970    -1.4700     0.9020 C.3   1 <1>   0.2090 
 18 N       -7.3860    -1.1210    -0.4280 N.pl3 1 <1>  -0.8380 
 19 C       -8.5780    -0.4080    -0.4010 C.ar  1 <1>   0.1000 
 20 C       -8.6340     0.9050     0.0560 C.ar  1 <1>  -0.1500 
 21 C       -9.7470    -1.0130    -0.8390 C.ar  1 <1>  -0.1500 
 22 C       -9.8330     1.5940     0.0750 C.ar  1 <1>  -0.1500 
 23 C      -10.9490    -0.3280    -0.8230 C.ar  1 <1>  -0.1500 
 24 C      -10.9930     0.9790    -0.3650 C.ar  1 <1>  -0.1500 
 25 H       -3.2190    -0.4720     0.5460 H     1 <1>   0.3700 
 26 H       -0.9910     2.1300     1.6110 H     1 <1>   0.0800 
 27 H       -2.5200     1.4420     2.0640 H     1 <1>   0.0800 
 28 H       -3.3170     1.6920    -0.2930 H     1 <1>   0.0800 
 29 H       -1.7730     2.3680    -0.7290 H     1 <1>   0.0800 
 30 H       -0.0700    -2.4040     0.3770 H     1 <1>   0.1500 
 31 H       -3.7120     3.5880     1.2670 H     1 <1>   0.0800 
 32 H       -3.4390     4.1510    -0.3640 H     1 <1>   0.0800 
 33 H       -2.1630     4.2680     0.8210 H     1 <1>   0.0800 
 34 H       -4.3150    -4.4880    -0.9520 H     1 <1>   0.1500 
 35 H       -0.1050    -4.7330    -0.3690 H     1 <1>   0.1500 
 36 H       -5.5440    -2.5430    -1.9830 H     1 <1>   0.0800 
 37 H       -4.4260    -1.2200    -2.1650 H     1 <1>   0.0800 
 38 H       -5.1750    -2.6200     1.7280 H     1 <1>   0.0800 
 39 H       -6.0080    -3.4030     0.4130 H     1 <1>   0.0800 
 40 H       -2.2310    -5.7830    -1.0360 H     1 <1>   0.1500 
 41 H       -6.8140    -0.5130    -2.3660 H     1 <1>   0.0800 
 42 H       -5.9720     0.3100    -1.0820 H     1 <1>   0.0800 
 43 H       -6.4450    -0.5760     1.3850 H     1 <1>   0.0800 
 44 H       -7.5600    -1.9070     1.5210 H     1 <1>   0.0800 
 45 H       -7.7350     1.3810     0.3970 H     1 <1>   0.1500 
 46 H       -9.7010    -2.0260    -1.1920 H     1 <1>   0.1500 
 47 H       -9.8670     2.6090     0.4310 H     1 <1>   0.1500 
 48 H      -11.8480    -0.8090    -1.1660 H     1 <1>   0.1500 
 49 H      -11.9270     1.5130    -0.3510 H     1 <1>   0.1500 
@<TRIPOS>BOND
  1   1   2  2   
  2   2   3  am  
  3   2   4  1   
  4   3   5  1   
  5   3  25  1   
  6   4   6  1   
  7   4  26  1   
  8   4  27  1   
  9   5   7  ar  
 10   5   8  ar  
 11   6   9  1   
 12   6  28  1   
 13   6  29  1   
 14   7  10  1   
 15   7  11  ar  
 16   8  12  ar  
 17   8  30  1   
 18   9  31  1   
 19   9  32  1   
 20   9  33  1   
 21  10  13  1   
 22  10  14  1   
 23  11  15  ar  
 24  11  34  1   
 25  12  15  ar  
 26  12  35  1   
 27  13  16  1   
 28  13  36  1   
 29  13  37  1   
 30  14  17  1   
 31  14  38  1   
 32  14  39  1   
 33  15  40  1   
 34  16  18  1   
 35  16  41  1   
 36  16  42  1   
 37  17  18  1   
 38  17  43  1   
 39  17  44  1   
 40  18  19  1   
 41  19  20  ar  
 42  19  21  ar  
 43  20  22  ar  
 44  20  45  1   
 45  21  23  ar  
 46  21  46  1   
 47  22  24  ar  
 48  22  47  1   
 49  23  24  ar  
 50  23  48  1   
 51  24  49  1   
@<TRIPOS>SUBSTRUCTURE
  1 ****  10 GROUP 4 **** **** 0

# MOE 2024.06 (io_trps.svl 2023.06)
