@<TRIPOS>MOLECULE
NONAME
53 56 1 0 0 
SMALL
USER_CHARGES


@<TRIPOS>ATOM
  1 F       -1.1860     0.3880    -0.5420 F     1 <1>  -0.1900 
  2 C       -2.4560     0.5300    -0.2780 C.ar  1 <1>   0.1900 
  3 C       -3.2570    -0.5930    -0.2450 C.ar  1 <1>  -0.1500 
  4 C       -2.9460     1.8000    -0.0430 C.ar  1 <1>  -0.1500 
  5 C       -4.6170    -0.4670     0.0370 C.ar  1 <1>   0.0540 
  6 C       -4.2940     1.9390     0.2340 C.ar  1 <1>  -0.1500 
  7 C       -5.4880    -1.6240     0.0850 C.2   1 <1>   0.2350 
  8 C       -5.1110     0.8190     0.2720 C.ar  1 <1>  -0.1500 
  9 N       -6.7620    -1.6030    -0.2390 N.2   1 <1>  -0.7070 
 10 C       -5.0870    -2.9070     0.4810 C.2   1 <1>  -0.1500 
 11 N       -7.1880    -2.8820    -0.0680 N.pl3 1 <1>   0.5610 
 12 C       -6.1810    -3.6890     0.3770 C.2   1 <1>  -0.0680 
 13 C       -8.4670    -3.3490    -0.3040 C.cat 1 <1>   0.3950 
 14 N       -6.4550    -5.0360     0.6170 N.pl3 1 <1>  -0.5840 
 15 N       -9.3540    -2.4410    -0.7590 N.pl3 1 <1>  -0.1460 
 16 C       -8.6990    -4.7120    -0.0490 C.2   1 <1>  -0.1360 
 17 C       -7.6910    -5.5340     0.4070 C.2   1 <1>  -0.0380 
 18 C      -10.7950    -2.5880    -1.1060 C.3   1 <1>   0.1860 
 19 C       -7.9020    -7.0080     0.6920 C.3   1 <1>  -0.1020 
 20 C      -11.6450    -1.5200    -0.3890 C.3   1 <1>  -0.1600 
 21 C      -13.1360    -1.6470    -0.7480 C.3   1 <1>   0.3430 
 22 N      -13.9660    -0.6730     0.0210 N.4   1 <1>  -0.9590 
 23 C      -15.4320    -1.0280    -0.0890 C.3   1 <1>   0.3430 
 24 C      -13.7680     0.7630    -0.4120 C.3   1 <1>   0.3430 
 25 C      -16.3300     0.0090     0.6140 C.3   1 <1>   0.1200 
 26 C      -14.7390     1.7190     0.3060 C.3   1 <1>   0.1200 
 27 O      -16.0540     1.2880     0.1260 O.3   1 <1>  -0.5600 
 28 H       -2.8180    -1.5520    -0.4450 H     1 <1>   0.1500 
 29 H       -2.2890     2.6500    -0.0780 H     1 <1>   0.1500 
 30 H       -4.7060     2.9170     0.4210 H     1 <1>   0.1500 
 31 H       -6.1560     0.9430     0.4910 H     1 <1>   0.1500 
 32 H       -4.1010    -3.1880     0.8050 H     1 <1>   0.1500 
 33 H       -5.6900    -5.6410     0.9570 H     1 <1>   0.4000 
 34 H       -8.9560    -1.4990    -0.9170 H     1 <1>   0.4000 
 35 H       -9.6730    -5.1340    -0.2120 H     1 <1>   0.1500 
 36 H      -11.1360    -3.5720    -0.8320 H     1 <1>   0.0800 
 37 H      -10.9000    -2.4850    -2.1750 H     1 <1>   0.0800 
 38 H       -7.6820    -7.2200     1.7240 H     1 <1>   0.0800 
 39 H       -7.2510    -7.6000     0.0740 H     1 <1>   0.0800 
 40 H       -8.9180    -7.3020     0.4950 H     1 <1>   0.0800 
 41 H      -11.2940    -0.5450    -0.6750 H     1 <1>   0.0800 
 42 H      -11.5320    -1.6420     0.6750 H     1 <1>   0.0800 
 43 H      -13.4680    -2.6480    -0.5200 H     1 <1>   0.0800 
 44 H      -13.2780    -1.4850    -1.8060 H     1 <1>   0.0800 
 45 H      -13.7310    -0.7280     1.0220 H     1 <1>   0.4500 
 46 H      -15.6130    -1.9980     0.3440 H     1 <1>   0.0800 
 47 H      -15.7210    -1.0700    -1.1260 H     1 <1>   0.0800 
 48 H      -13.9380     0.8510    -1.4730 H     1 <1>   0.0800 
 49 H      -12.7580     1.0770    -0.2110 H     1 <1>   0.0800 
 50 H      -16.1810     0.0020     1.6800 H     1 <1>   0.0800 
 51 H      -17.3660    -0.2010     0.4120 H     1 <1>   0.0800 
 52 H      -14.6620     2.7090    -0.1090 H     1 <1>   0.0800 
 53 H      -14.5320     1.7740     1.3610 H     1 <1>   0.0800 
@<TRIPOS>BOND
  1   1   2  1   
  2   2   3  ar  
  3   2   4  ar  
  4   3   5  ar  
  5   3  28  1   
  6   4   6  ar  
  7   4  29  1   
  8   5   7  1   
  9   5   8  ar  
 10   6   8  ar  
 11   6  30  1   
 12   7   9  2   
 13   7  10  1   
 14   8  31  1   
 15   9  11  1   
 16  10  12  2   
 17  10  32  1   
 18  11  12  1   
 19  11  13  ar  
 20  12  14  1   
 21  13  15  ar  
 22  13  16  1   
 23  14  17  1   
 24  14  33  1   
 25  15  18  1   
 26  15  34  1   
 27  16  17  2   
 28  16  35  1   
 29  17  19  1   
 30  18  20  1   
 31  18  36  1   
 32  18  37  1   
 33  19  38  1   
 34  19  39  1   
 35  19  40  1   
 36  20  21  1   
 37  20  41  1   
 38  20  42  1   
 39  21  22  1   
 40  21  43  1   
 41  21  44  1   
 42  22  23  1   
 43  22  24  1   
 44  22  45  1   
 45  23  25  1   
 46  23  46  1   
 47  23  47  1   
 48  24  26  1   
 49  24  48  1   
 50  24  49  1   
 51  25  27  1   
 52  25  50  1   
 53  25  51  1   
 54  26  27  1   
 55  26  52  1   
 56  26  53  1   
@<TRIPOS>SUBSTRUCTURE
  1 ****  15 GROUP 4 **** **** 0

# MOE 2024.06 (io_trps.svl 2023.06)
