@<TRIPOS>MOLECULE
NONAME
64 67 1 0 0 
SMALL
USER_CHARGES


@<TRIPOS>ATOM
  1 O        2.6900    -3.8760    -0.0550 O.3   1 <1>  -0.3630 
  2 C        1.4530    -3.6130    -0.5770 C.ar  1 <1>   0.0830 
  3 C        3.6370    -4.6550    -0.7530 C.3   1 <1>   0.0400 
  4 C        0.7030    -2.5280    -0.0730 C.ar  1 <1>   0.1000 
  5 C        0.9330    -4.3970    -1.6030 C.ar  1 <1>  -0.1500 
  6 N        1.1070    -1.6540     0.9580 N.pl3 1 <1>  -0.8380 
  7 C       -0.5420    -2.2820    -0.6380 C.ar  1 <1>  -0.1500 
  8 C       -0.3100    -4.1220    -2.1450 C.ar  1 <1>  -0.1500 
  9 C        1.3090    -0.2130     0.6180 C.3   1 <1>   0.2090 
 10 C        1.8950    -2.1410     2.1270 C.3   1 <1>   0.2090 
 11 C       -1.0480    -3.0610    -1.6610 C.ar  1 <1>  -0.1500 
 12 C        2.5580     0.3930     1.3020 C.3   1 <1>   0.1100 
 13 C        3.3930    -1.7420     2.0720 C.3   1 <1>   0.1100 
 14 N        3.7480    -0.5080     1.2970 N.3   1 <1>  -0.8100 
 15 C        4.1640    -0.8490    -0.1030 C.3   1 <1>   0.5130 
 16 C        5.4450    -1.6990    -0.2530 C.ar  1 <1>  -0.1430 
 17 C        4.2380     0.3830    -1.0160 C.2   1 <1>   0.0060 
 18 C        5.7950    -2.1040    -1.5370 C.ar  1 <1>  -0.1500 
 19 C        6.2640    -2.0990     0.8000 C.ar  1 <1>  -0.1500 
 20 N        3.5020     0.4390    -2.0670 N.2   1 <1>  -0.3380 
 21 N        4.9610     1.5070    -0.9140 N.pl3 1 <1>   0.3140 
 22 C        6.9190    -2.8780    -1.7690 C.ar  1 <1>  -0.1500 
 23 C        7.3860    -2.8750     0.5750 C.ar  1 <1>  -0.1500 
 24 N        3.7430     1.6040    -2.6310 N.2   1 <1>   0.0000 
 25 N        4.6040     2.2570    -1.9500 N.2   1 <1>  -0.4180 
 26 C        5.9600     2.0840     0.0840 C.3   1 <1>   0.2560 
 27 C        7.7240    -3.2700    -0.7070 C.ar  1 <1>   0.0830 
 28 C        6.9680     3.0070    -0.6390 C.3   1 <1>  -0.2400 
 29 C        5.2140     2.9260     1.1330 C.3   1 <1>  -0.2400 
 30 C        6.7930     1.0230     0.8100 C.3   1 <1>  -0.2400 
 31 O        8.8410    -4.0270    -0.8420 O.3   1 <1>  -0.3620 
 32 C        9.3120    -4.4160    -2.1120 C.3   1 <1>   0.0400 
 33 H        4.5790    -4.5750    -0.2400 H     1 <1>   0.0800 
 34 H        3.7350    -4.2740    -1.7540 H     1 <1>   0.0800 
 35 H        3.3120    -5.6800    -0.7580 H     1 <1>   0.0800 
 36 H        1.4770    -5.2330    -1.9960 H     1 <1>   0.1500 
 37 H       -1.1250    -1.4640    -0.2590 H     1 <1>   0.1500 
 38 H       -0.7010    -4.7330    -2.9400 H     1 <1>   0.1500 
 39 H        0.4400     0.3430     0.9190 H     1 <1>   0.0800 
 40 H        1.4000    -0.1100    -0.4500 H     1 <1>   0.0800 
 41 H        1.8070    -3.2110     2.2100 H     1 <1>   0.0800 
 42 H        1.4610    -1.7240     3.0170 H     1 <1>   0.0800 
 43 H       -2.0160    -2.8410    -2.0770 H     1 <1>   0.1500 
 44 H        2.3070     0.6220     2.3230 H     1 <1>   0.0800 
 45 H        2.7840     1.3300     0.8280 H     1 <1>   0.0800 
 46 H        3.9290    -2.5910     1.6930 H     1 <1>   0.0800 
 47 H        3.7270    -1.6070     3.0850 H     1 <1>   0.0800 
 48 H        3.3810    -1.4630    -0.5120 H     1 <1>   0.0800 
 49 H        5.1840    -1.8150    -2.3770 H     1 <1>   0.1500 
 50 H        6.0410    -1.8050     1.8090 H     1 <1>   0.1500 
 51 H        7.1480    -3.1620    -2.7780 H     1 <1>   0.1500 
 52 H        8.0110    -3.1780     1.3960 H     1 <1>   0.1500 
 53 H        7.4800     2.4650    -1.4140 H     1 <1>   0.0800 
 54 H        7.7020     3.3860     0.0490 H     1 <1>   0.0800 
 55 H        6.4710     3.8550    -1.0780 H     1 <1>   0.0800 
 56 H        4.6000     3.6670     0.6520 H     1 <1>   0.0800 
 57 H        5.9130     3.4310     1.7740 H     1 <1>   0.0800 
 58 H        4.5970     2.3010     1.7510 H     1 <1>   0.0800 
 59 H        7.2680     0.3670     0.1030 H     1 <1>   0.0800 
 60 H        6.1800     0.4650     1.4880 H     1 <1>   0.0800 
 61 H        7.5640     1.4870     1.4000 H     1 <1>   0.0800 
 62 H       10.2170    -4.9800    -1.9740 H     1 <1>   0.0800 
 63 H        9.5160    -3.5350    -2.6940 H     1 <1>   0.0800 
 64 H        8.5680    -5.0300    -2.5880 H     1 <1>   0.0800 
@<TRIPOS>BOND
  1   1   2  1   
  2   1   3  1   
  3   2   4  ar  
  4   2   5  ar  
  5   3  33  1   
  6   3  34  1   
  7   3  35  1   
  8   4   6  1   
  9   4   7  ar  
 10   5   8  ar  
 11   5  36  1   
 12   6   9  1   
 13   6  10  1   
 14   7  11  ar  
 15   7  37  1   
 16   8  11  ar  
 17   8  38  1   
 18   9  12  1   
 19   9  39  1   
 20   9  40  1   
 21  10  13  1   
 22  10  41  1   
 23  10  42  1   
 24  11  43  1   
 25  12  14  1   
 26  12  44  1   
 27  12  45  1   
 28  13  14  1   
 29  13  46  1   
 30  13  47  1   
 31  14  15  1   
 32  15  16  1   
 33  15  17  1   
 34  15  48  1   
 35  16  18  ar  
 36  16  19  ar  
 37  17  20  2   
 38  17  21  1   
 39  18  22  ar  
 40  18  49  1   
 41  19  23  ar  
 42  19  50  1   
 43  20  24  1   
 44  21  25  1   
 45  21  26  1   
 46  22  27  ar  
 47  22  51  1   
 48  23  27  ar  
 49  23  52  1   
 50  24  25  2   
 51  26  28  1   
 52  26  29  1   
 53  26  30  1   
 54  27  31  1   
 55  28  53  1   
 56  28  54  1   
 57  28  55  1   
 58  29  56  1   
 59  29  57  1   
 60  29  58  1   
 61  30  59  1   
 62  30  60  1   
 63  30  61  1   
 64  31  32  1   
 65  32  62  1   
 66  32  63  1   
 67  32  64  1   
@<TRIPOS>SUBSTRUCTURE
  1 ****  15 GROUP 4 **** **** 0

# MOE 2024.06 (io_trps.svl 2023.06)
