@<TRIPOS>MOLECULE
3-(2-Methanesulfonyl-6,7-dimethoxy-1,2,3,4-tetrahydro-isoquinolin-1-yl)-7,8-dimethyl-1H-quinolin-2-one
57 60 1 0 0 
SMALL
USER_CHARGES


@<TRIPOS>ATOM
  1 S       -0.2800    -0.1010     0.2590 S.o2  1 <1>   1.3330 
  2 O        0.1830    -0.0560    -1.1090 O.2   1 <1>  -0.6500 
  3 O       -1.0610    -1.2350     0.6950 O.2   1 <1>  -0.6500 
  4 N       -1.1530     1.3070     0.5950 N.am  1 <1>  -0.8490 
  5 C        1.1190     0.0220     1.3560 C.3   1 <1>  -0.1350 
  6 C       -0.8640     2.3990    -0.3520 C.3   1 <1>   0.5570 
  7 C       -2.5860     1.0820     0.7920 C.3   1 <1>   0.1960 
  8 C        0.5420     2.9360    -0.1210 C.2   1 <1>  -0.1240 
  9 C       -1.8800     3.5530    -0.3330 C.ar  1 <1>  -0.1440 
 10 C       -3.2340     2.3350     1.3820 C.3   1 <1>  -0.0160 
 11 C        0.8250     3.6020     1.1150 C.2   1 <1>   0.6160 
 12 C        1.5160     2.7960    -1.0580 C.2   1 <1>  -0.1780 
 13 C       -3.0040     3.5300     0.4790 C.ar  1 <1>  -0.1440 
 14 C       -1.6800     4.6490    -1.1610 C.ar  1 <1>  -0.1500 
 15 O        0.0480     3.7410     2.0410 O.2   1 <1>  -0.5700 
 16 N        2.0810     4.0970     1.2900 N.am  1 <1>  -0.5470 
 17 C        2.8350     3.3070    -0.8400 C.ar  1 <1>   0.0280 
 18 C       -3.9010     4.5860     0.4680 C.ar  1 <1>  -0.1500 
 19 C       -2.5630     5.7140    -1.1790 C.ar  1 <1>   0.0830 
 20 C        3.1140     3.9770     0.3620 C.ar  1 <1>   0.1170 
 21 C        3.8530     3.1640    -1.7770 C.ar  1 <1>  -0.1500 
 22 C       -3.7020     5.6870    -0.3610 C.ar  1 <1>   0.0830 
 23 O       -2.2370     6.7280    -2.0270 O.3   1 <1>  -0.3630 
 24 C        4.3920     4.4970     0.6080 C.ar  1 <1>  -0.1430 
 25 C        5.1080     3.6720    -1.5330 C.ar  1 <1>  -0.1500 
 26 O       -4.5910     6.7230    -0.4070 O.3   1 <1>  -0.3630 
 27 C       -2.3810     8.0660    -1.6050 C.3   1 <1>   0.0400 
 28 C        5.3900     4.3410    -0.3450 C.ar  1 <1>  -0.1430 
 29 C        4.6370     5.2250     1.9320 C.3   1 <1>  -0.0970 
 30 C       -5.7680     6.7360     0.3690 C.3   1 <1>   0.0400 
 31 C        6.8050     4.8730    -0.1540 C.3   1 <1>  -0.0970 
 32 H        1.7040    -0.8750     1.3020 H     1 <1>   0.0800 
 33 H        0.7820     0.1540     2.3650 H     1 <1>   0.0800 
 34 H        1.7420     0.8510     1.0890 H     1 <1>   0.0800 
 35 H       -0.9230     2.0040    -1.3530 H     1 <1>   0.0800 
 36 H       -2.7420     0.2740     1.4860 H     1 <1>   0.0800 
 37 H       -3.0510     0.8230    -0.1450 H     1 <1>   0.0800 
 38 H       -2.8080     2.5330     2.3500 H     1 <1>   0.0800 
 39 H       -4.2870     2.1600     1.5050 H     1 <1>   0.0800 
 40 H        1.3370     2.2930    -1.9930 H     1 <1>   0.1500 
 41 H       -0.8230     4.6970    -1.8080 H     1 <1>   0.1500 
 42 H        2.2310     4.5840     2.1700 H     1 <1>   0.3700 
 43 H       -4.7540     4.5310     1.1160 H     1 <1>   0.1500 
 44 H        3.6530     2.6510    -2.7010 H     1 <1>   0.1500 
 45 H        5.8770     3.5480    -2.2750 H     1 <1>   0.1500 
 46 H       -1.7090     8.6730    -2.1840 H     1 <1>   0.0800 
 47 H       -2.1360     8.1350    -0.5600 H     1 <1>   0.0800 
 48 H       -3.3940     8.3780    -1.7810 H     1 <1>   0.0800 
 49 H        3.9620     6.0580     2.0190 H     1 <1>   0.0800 
 50 H        5.6350     5.6060     2.0220 H     1 <1>   0.0800 
 51 H        4.4680     4.5520     2.7530 H     1 <1>   0.0800 
 52 H       -6.3020     7.6430     0.1480 H     1 <1>   0.0800 
 53 H       -5.5010     6.7140     1.4100 H     1 <1>   0.0800 
 54 H       -6.3700     5.8850     0.1040 H     1 <1>   0.0800 
 55 H        6.7840     5.9420    -0.0420 H     1 <1>   0.0800 
 56 H        7.4280     4.6390    -0.9990 H     1 <1>   0.0800 
 57 H        7.2500     4.4340     0.7200 H     1 <1>   0.0800 
@<TRIPOS>BOND
  1   1   2  2   
  2   1   3  2   
  3   1   4  am  
  4   1   5  1   
  5   4   6  1   
  6   4   7  1   
  7   5  32  1   
  8   5  33  1   
  9   5  34  1   
 10   6   8  1   
 11   6   9  1   
 12   6  35  1   
 13   7  10  1   
 14   7  36  1   
 15   7  37  1   
 16   8  11  1   
 17   8  12  2   
 18   9  13  ar  
 19   9  14  ar  
 20  10  13  1   
 21  10  38  1   
 22  10  39  1   
 23  11  15  2   
 24  11  16  am  
 25  12  17  1   
 26  12  40  1   
 27  13  18  ar  
 28  14  19  ar  
 29  14  41  1   
 30  16  20  1   
 31  16  42  1   
 32  17  20  ar  
 33  17  21  ar  
 34  18  22  ar  
 35  18  43  1   
 36  19  22  ar  
 37  19  23  1   
 38  20  24  ar  
 39  21  25  ar  
 40  21  44  1   
 41  22  26  1   
 42  23  27  1   
 43  24  28  ar  
 44  24  29  1   
 45  25  28  ar  
 46  25  45  1   
 47  26  30  1   
 48  27  46  1   
 49  27  47  1   
 50  27  48  1   
 51  28  31  1   
 52  29  49  1   
 53  29  50  1   
 54  29  51  1   
 55  30  52  1   
 56  30  53  1   
 57  30  54  1   
 58  31  55  1   
 59  31  56  1   
 60  31  57  1   
@<TRIPOS>SUBSTRUCTURE
  1 ****   8 GROUP 4 **** **** 0

# MOE 2024.06 (io_trps.svl 2023.06)
