@<TRIPOS>MOLECULE
9204
48 49 1 0 0 
SMALL
USER_CHARGES


@<TRIPOS>ATOM
  1 O       -2.4040    -1.5840     0.6840 O.2   1 <1>  -0.5700 
  2 C       -3.4260    -0.9380     0.5670 C.2   1 <1>   0.6340 
  3 O       -3.5940     0.1450     1.3310 O.3   1 <1>  -0.4300 
  4 C       -4.4850    -1.2890    -0.3620 C.ar  1 <1>   0.0860 
  5 C       -2.6190     0.5530     2.2630 C.3   1 <1>   0.1200 
  6 C       -4.3570    -2.3980    -1.1970 C.ar  1 <1>  -0.1500 
  7 C       -5.6680    -0.5510    -0.4550 C.ar  1 <1>  -0.1500 
  8 C       -3.1320     1.8060     2.9660 C.3   1 <1>  -0.2400 
  9 C       -5.3750    -2.8070    -2.0470 C.ar  1 <1>   0.1170 
 10 C       -6.6770    -0.9190    -1.3250 C.ar  1 <1>  -0.1500 
 11 N       -5.2730    -3.9520    -2.8450 N.am  1 <1>  -0.5470 
 12 C       -6.5310    -2.0430    -2.1140 C.ar  1 <1>  -0.1500 
 13 C       -4.9190    -5.2410    -2.5670 C.2   1 <1>   0.5690 
 14 O       -5.0150    -6.0560    -3.4510 O.2   1 <1>  -0.5700 
 15 C       -4.3810    -5.7040    -1.2110 C.3   1 <1>   0.1810 
 16 O       -5.4050    -6.0370    -0.2850 O.3   1 <1>  -0.3630 
 17 C       -6.0320    -5.0250     0.3630 C.ar  1 <1>   0.0830 
 18 C       -7.3350    -4.6870    -0.0080 C.ar  1 <1>  -0.1430 
 19 C       -5.3830    -4.3500     1.3970 C.ar  1 <1>  -0.1430 
 20 C       -7.9680    -3.6230     0.6290 C.ar  1 <1>  -0.1430 
 21 C       -8.0600    -5.4700    -1.1030 C.3   1 <1>  -0.0970 
 22 C       -6.0300    -3.2980     2.0180 C.ar  1 <1>  -0.1500 
 23 C       -3.9920    -4.7290     1.8900 C.3   1 <1>  -0.0970 
 24 C       -7.3070    -2.9360     1.6350 C.ar  1 <1>  -0.1500 
 25 C       -9.3750    -3.1820     0.2530 C.3   1 <1>  -0.0970 
 26 H       -1.7030     0.7540     1.7320 H     1 <1>   0.0800 
 27 H       -2.4610    -0.2480     2.9660 H     1 <1>   0.0800 
 28 H       -3.4350    -2.9450    -1.1770 H     1 <1>   0.1500 
 29 H       -5.8030     0.3180     0.1650 H     1 <1>   0.1500 
 30 H       -3.2950     2.5910     2.2500 H     1 <1>   0.0800 
 31 H       -2.4060     2.1420     3.6840 H     1 <1>   0.0800 
 32 H       -4.0510     1.5910     3.4820 H     1 <1>   0.0800 
 33 H       -7.5800    -0.3360    -1.3800 H     1 <1>   0.1500 
 34 H       -5.6700    -3.8720    -3.7810 H     1 <1>   0.3700 
 35 H       -7.3260    -2.3370    -2.7750 H     1 <1>   0.1500 
 36 H       -3.7380    -4.9710    -0.7740 H     1 <1>   0.0800 
 37 H       -3.8060    -6.5970    -1.3660 H     1 <1>   0.0800 
 38 H       -7.5830    -6.4120    -1.3050 H     1 <1>   0.0800 
 39 H       -8.0750    -4.8970    -2.0110 H     1 <1>   0.0800 
 40 H       -9.0690    -5.6840    -0.8060 H     1 <1>   0.0800 
 41 H       -5.5450    -2.7550     2.8100 H     1 <1>   0.1500 
 42 H       -3.2450    -4.1620     1.3660 H     1 <1>   0.0800 
 43 H       -3.8100    -5.7780     1.7440 H     1 <1>   0.0800 
 44 H       -3.9000    -4.5230     2.9410 H     1 <1>   0.0800 
 45 H       -7.7870    -2.1130     2.1330 H     1 <1>   0.1500 
 46 H       -9.4490    -3.0390    -0.8090 H     1 <1>   0.0800 
 47 H       -9.6300    -2.2540     0.7330 H     1 <1>   0.0800 
 48 H      -10.0860    -3.9280     0.5600 H     1 <1>   0.0800 
@<TRIPOS>BOND
  1   1   2  2   
  2   2   3  1   
  3   2   4  1   
  4   3   5  1   
  5   4   6  ar  
  6   4   7  ar  
  7   5   8  1   
  8   5  26  1   
  9   5  27  1   
 10   6   9  ar  
 11   6  28  1   
 12   7  10  ar  
 13   7  29  1   
 14   8  30  1   
 15   8  31  1   
 16   8  32  1   
 17   9  11  1   
 18   9  12  ar  
 19  10  12  ar  
 20  10  33  1   
 21  11  13  am  
 22  11  34  1   
 23  12  35  1   
 24  13  14  2   
 25  13  15  1   
 26  15  16  1   
 27  15  36  1   
 28  15  37  1   
 29  16  17  1   
 30  17  18  ar  
 31  17  19  ar  
 32  18  20  ar  
 33  18  21  1   
 34  19  22  ar  
 35  19  23  1   
 36  20  24  ar  
 37  20  25  1   
 38  21  38  1   
 39  21  39  1   
 40  21  40  1   
 41  22  24  ar  
 42  22  41  1   
 43  23  42  1   
 44  23  43  1   
 45  23  44  1   
 46  24  45  1   
 47  25  46  1   
 48  25  47  1   
 49  25  48  1   
@<TRIPOS>SUBSTRUCTURE
  1 ****   6 GROUP 4 **** **** 0

# MOE 2024.06 (io_trps.svl 2023.06)
