@<TRIPOS>MOLECULE
11364
38 38 1 0 0 
SMALL
USER_CHARGES


@<TRIPOS>ATOM
  1 O        0.6170    -2.0240     3.2370 O.2   1 <1>  -0.5700 
  2 C        0.0820    -2.3760     2.2150 C.2   1 <1>   0.5690 
  3 N        0.7970    -2.3700     1.0600 N.am  1 <1>  -0.7300 
  4 C       -1.3680    -2.8470     2.2730 C.3   1 <1>   0.1810 
  5 C        0.3560    -2.7320    -0.3070 C.3   1 <1>   0.1400 
  6 O       -2.1820    -2.1360     1.3520 O.3   1 <1>  -0.3620 
  7 C        1.4160    -3.6000    -1.0040 C.3   1 <1>  -0.0800 
  8 C       -3.4490    -2.5370     1.0660 C.ar  1 <1>   0.0820 
  9 C        2.7560    -2.8660    -1.1670 C.3   1 <1>  -0.2400 
 10 C        0.9030    -4.0410    -2.3810 C.3   1 <1>  -0.2400 
 11 C       -4.0660    -1.9820    -0.0550 C.ar  1 <1>  -0.1440 
 12 C       -4.1270    -3.4690     1.8490 C.ar  1 <1>  -0.1500 
 13 C       -5.3560    -2.3870    -0.3780 C.ar  1 <1>  -0.1500 
 14 C       -3.2940    -0.9500    -0.8840 C.3   1 <1>  -0.0170 
 15 C       -5.4090    -3.8600     1.5120 C.ar  1 <1>  -0.1500 
 16 C       -6.0220    -3.3190     0.3980 C.ar  1 <1>  -0.1500 
 17 C       -4.0480    -0.3470    -2.0760 C.3   1 <1>  -0.2400 
 18 H        1.7510    -2.0140     1.1350 H     1 <1>   0.3700 
 19 H       -1.7590    -2.6840     3.2600 H     1 <1>   0.0800 
 20 H       -1.4080    -3.8920     2.0290 H     1 <1>   0.0800 
 21 H        0.1920    -1.8300    -0.8720 H     1 <1>   0.0800 
 22 H       -0.5730    -3.2730    -0.2640 H     1 <1>   0.0800 
 23 H        1.5720    -4.4850    -0.4090 H     1 <1>   0.0800 
 24 H        2.6240    -1.9520    -1.7180 H     1 <1>   0.0800 
 25 H        3.4580    -3.4860    -1.6960 H     1 <1>   0.0800 
 26 H        3.1830    -2.6320    -0.2080 H     1 <1>   0.0800 
 27 H        0.7350    -3.1880    -3.0160 H     1 <1>   0.0800 
 28 H       -0.0200    -4.5840    -2.2820 H     1 <1>   0.0800 
 29 H        1.6210    -4.6860    -2.8580 H     1 <1>   0.0800 
 30 H       -3.6790    -3.8990     2.7240 H     1 <1>   0.1500 
 31 H       -5.8670    -1.9880    -1.2340 H     1 <1>   0.1500 
 32 H       -2.3960    -1.4140    -1.2510 H     1 <1>   0.0800 
 33 H       -2.9970    -0.1480    -0.2310 H     1 <1>   0.0800 
 34 H       -5.9310    -4.5810     2.1170 H     1 <1>   0.1500 
 35 H       -7.0210    -3.6220     0.1340 H     1 <1>   0.1500 
 36 H       -4.3150    -1.1150    -2.7800 H     1 <1>   0.0800 
 37 H       -3.4230     0.3710    -2.5760 H     1 <1>   0.0800 
 38 H       -4.9380     0.1550    -1.7390 H     1 <1>   0.0800 
@<TRIPOS>BOND
  1   1   2  2   
  2   2   3  am  
  3   2   4  1   
  4   3   5  1   
  5   3  18  1   
  6   4   6  1   
  7   4  19  1   
  8   4  20  1   
  9   5   7  1   
 10   5  21  1   
 11   5  22  1   
 12   6   8  1   
 13   7   9  1   
 14   7  10  1   
 15   7  23  1   
 16   8  11  ar  
 17   8  12  ar  
 18   9  24  1   
 19   9  25  1   
 20   9  26  1   
 21  10  27  1   
 22  10  28  1   
 23  10  29  1   
 24  11  13  ar  
 25  11  14  1   
 26  12  15  ar  
 27  12  30  1   
 28  13  16  ar  
 29  13  31  1   
 30  14  17  1   
 31  14  32  1   
 32  14  33  1   
 33  15  16  ar  
 34  15  34  1   
 35  16  35  1   
 36  17  36  1   
 37  17  37  1   
 38  17  38  1   
@<TRIPOS>SUBSTRUCTURE
  1 ****   6 GROUP 4 **** **** 0

# MOE 2024.06 (io_trps.svl 2023.06)
