@<TRIPOS>MOLECULE
4-(3-Methoxy-benzoylamino)-piperidine-1-carboxylic acid m-tolylamide
52 54 1 0 0 
SMALL
USER_CHARGES


@<TRIPOS>ATOM
  1 O        0.9620     0.3140    -0.0650 O.2   1 <1>  -0.5700 
  2 C        1.0260     1.4740    -0.4250 C.2   1 <1>   0.6900 
  3 N        2.0850     1.9020    -1.1890 N.am  1 <1>  -0.6600 
  4 N        0.0440     2.3690    -0.1080 N.am  1 <1>  -0.5470 
  5 C        2.5830     3.3070    -1.2030 C.3   1 <1>   0.1400 
  6 C        2.9880     0.9230    -1.8560 C.3   1 <1>   0.1400 
  7 C       -1.0630     2.2800     0.7470 C.ar  1 <1>   0.1170 
  8 C        3.9590     3.3630    -0.5370 C.3   1 <1>  -0.1600 
  9 C        4.3640     0.9590    -1.1890 C.3   1 <1>  -0.1600 
 10 C       -2.1300     3.1500     0.5510 C.ar  1 <1>  -0.1500 
 11 C       -1.1370     1.3720     1.7980 C.ar  1 <1>  -0.1500 
 12 C        4.9250     2.3810    -1.2000 C.3   1 <1>   0.2200 
 13 C       -3.2430     3.1220     1.3740 C.ar  1 <1>  -0.1440 
 14 C       -2.2450     1.3350     2.6250 C.ar  1 <1>  -0.1500 
 15 N        6.2030     2.3990    -0.4730 N.am  1 <1>  -0.7300 
 16 C       -3.2970     2.2090     2.4140 C.ar  1 <1>  -0.1500 
 17 C       -4.4040     4.0750     1.1490 C.3   1 <1>  -0.0970 
 18 C        7.3220     3.0810    -0.8620 C.2   1 <1>   0.5440 
 19 O        7.2620     3.7670    -1.8640 O.2   1 <1>  -0.5700 
 20 C        8.5470     3.0040    -0.0830 C.ar  1 <1>   0.0860 
 21 C        8.8290     1.9170     0.7460 C.ar  1 <1>  -0.1500 
 22 C        9.4960     4.0260    -0.1360 C.ar  1 <1>  -0.1500 
 23 C        9.9880     1.8530     1.4980 C.ar  1 <1>   0.0820 
 24 C       10.6610     3.9750     0.6080 C.ar  1 <1>  -0.1500 
 25 O       10.1500     0.7500     2.2710 O.3   1 <1>  -0.3620 
 26 C       10.9110     2.8910     1.4300 C.ar  1 <1>  -0.1500 
 27 C       11.3080     0.5670     3.0560 C.3   1 <1>   0.0400 
 28 H        0.0760     3.1960    -0.6910 H     1 <1>   0.3700 
 29 H        1.9130     3.9630    -0.6770 H     1 <1>   0.0800 
 30 H        2.6550     3.6440    -2.2230 H     1 <1>   0.0800 
 31 H        3.0760     1.1800    -2.8970 H     1 <1>   0.0800 
 32 H        2.5800    -0.0730    -1.7960 H     1 <1>   0.0800 
 33 H        3.8490     3.1260     0.5070 H     1 <1>   0.0800 
 34 H        4.3530     4.3600    -0.6230 H     1 <1>   0.0800 
 35 H        5.0300     0.3040    -1.7210 H     1 <1>   0.0800 
 36 H        4.2630     0.6030    -0.1790 H     1 <1>   0.0800 
 37 H       -2.0880     3.8540    -0.2590 H     1 <1>   0.1500 
 38 H       -0.3260     0.6910     1.9770 H     1 <1>   0.1500 
 39 H        5.0890     2.6840    -2.2220 H     1 <1>   0.0800 
 40 H       -2.2880     0.6250     3.4320 H     1 <1>   0.1500 
 41 H        6.1970     1.9240     0.4290 H     1 <1>   0.3700 
 42 H       -4.1560     2.1730     3.0600 H     1 <1>   0.1500 
 43 H       -4.1420     4.8400     0.4410 H     1 <1>   0.0800 
 44 H       -4.6770     4.5470     2.0760 H     1 <1>   0.0800 
 45 H       -5.2510     3.5320     0.7730 H     1 <1>   0.0800 
 46 H        8.1430     1.0930     0.8080 H     1 <1>   0.1500 
 47 H        9.3110     4.8730    -0.7750 H     1 <1>   0.1500 
 48 H       11.3730     4.7800     0.5460 H     1 <1>   0.1500 
 49 H       11.8200     2.8730     2.0000 H     1 <1>   0.1500 
 50 H       11.2180    -0.3740     3.5680 H     1 <1>   0.0800 
 51 H       11.3760     1.3670     3.7710 H     1 <1>   0.0800 
 52 H       12.1680     0.5510     2.4100 H     1 <1>   0.0800 
@<TRIPOS>BOND
  1   1   2  2   
  2   2   3  am  
  3   2   4  am  
  4   3   5  1   
  5   3   6  1   
  6   4   7  1   
  7   4  28  1   
  8   5   8  1   
  9   5  29  1   
 10   5  30  1   
 11   6   9  1   
 12   6  31  1   
 13   6  32  1   
 14   7  10  ar  
 15   7  11  ar  
 16   8  12  1   
 17   8  33  1   
 18   8  34  1   
 19   9  12  1   
 20   9  35  1   
 21   9  36  1   
 22  10  13  ar  
 23  10  37  1   
 24  11  14  ar  
 25  11  38  1   
 26  12  15  1   
 27  12  39  1   
 28  13  16  ar  
 29  13  17  1   
 30  14  16  ar  
 31  14  40  1   
 32  15  18  am  
 33  15  41  1   
 34  16  42  1   
 35  17  43  1   
 36  17  44  1   
 37  17  45  1   
 38  18  19  2   
 39  18  20  1   
 40  20  21  ar  
 41  20  22  ar  
 42  21  23  ar  
 43  21  46  1   
 44  22  24  ar  
 45  22  47  1   
 46  23  25  1   
 47  23  26  ar  
 48  24  26  ar  
 49  24  48  1   
 50  25  27  1   
 51  26  49  1   
 52  27  50  1   
 53  27  51  1   
 54  27  52  1   
@<TRIPOS>SUBSTRUCTURE
  1 ****   8 GROUP 4 **** **** 0

# MOE 2024.06 (io_trps.svl 2023.06)
