@<TRIPOS>MOLECULE
4-Benzoylamino-piperidine-1-carboxylic acid (4-methoxy-phenyl)-amide
49 51 1 0 0 
SMALL
USER_CHARGES


@<TRIPOS>ATOM
  1 O        0.3520    -0.1500    -0.2510 O.2   1 <1>  -0.5700 
  2 C        0.8800     0.9430    -0.3350 C.2   1 <1>   0.6900 
  3 N        2.1600     1.0560    -0.8210 N.am  1 <1>  -0.6600 
  4 N        0.2320     2.0710     0.0800 N.am  1 <1>  -0.5470 
  5 C        2.7440     2.3080    -1.3780 C.3   1 <1>   0.1400 
  6 C        3.0240    -0.1450    -0.9880 C.3   1 <1>   0.1400 
  7 C       -1.0900     2.2820     0.5000 C.ar  1 <1>   0.1170 
  8 C        4.0810     2.5870    -0.6910 C.3   1 <1>  -0.1600 
  9 C        4.3760     0.1060    -0.3150 C.3   1 <1>  -0.1600 
 10 C       -2.1440     1.4600     0.1140 C.ar  1 <1>  -0.1500 
 11 C       -1.3670     3.3710     1.3190 C.ar  1 <1>  -0.1500 
 12 C        5.0190     1.3880    -0.8460 C.3   1 <1>   0.2200 
 13 C       -3.4380     1.7120     0.5380 C.ar  1 <1>  -0.1500 
 14 C       -2.6570     3.6280     1.7440 C.ar  1 <1>  -0.1500 
 15 N        6.2600     1.6510    -0.1000 N.am  1 <1>  -0.7300 
 16 C       -3.7010     2.8030     1.3600 C.ar  1 <1>   0.0820 
 17 C        7.4070     2.1580    -0.6440 C.2   1 <1>   0.5440 
 18 O       -4.9390     3.1250     1.8220 O.3   1 <1>  -0.3630 
 19 O        7.4040     2.4580    -1.8220 O.2   1 <1>  -0.5700 
 20 C        8.5910     2.3580     0.1760 C.ar  1 <1>   0.0860 
 21 C       -6.0550     2.3200     1.5150 C.3   1 <1>   0.0400 
 22 C        8.8470     1.5800     1.3080 C.ar  1 <1>  -0.1500 
 23 C        9.5230     3.3450    -0.1440 C.ar  1 <1>  -0.1500 
 24 C        9.9690     1.7880     2.0890 C.ar  1 <1>  -0.1500 
 25 C       10.6480     3.5590     0.6330 C.ar  1 <1>  -0.1500 
 26 C       10.8720     2.7810     1.7540 C.ar  1 <1>  -0.1500 
 27 H        0.8600     2.8540     0.2080 H     1 <1>   0.3700 
 28 H        2.0810     3.1450    -1.2490 H     1 <1>   0.0800 
 29 H        2.9010     2.1760    -2.4360 H     1 <1>   0.0800 
 30 H        3.1610    -0.3380    -2.0390 H     1 <1>   0.0800 
 31 H        2.5620    -1.0130    -0.5470 H     1 <1>   0.0800 
 32 H        3.9070     2.7930     0.3490 H     1 <1>   0.0800 
 33 H        4.5360     3.4510    -1.1430 H     1 <1>   0.0800 
 34 H        5.0250    -0.7290    -0.5110 H     1 <1>   0.0800 
 35 H        4.2200     0.1770     0.7470 H     1 <1>   0.0800 
 36 H       -1.9560     0.6170    -0.5240 H     1 <1>   0.1500 
 37 H       -0.5710     4.0210     1.6320 H     1 <1>   0.1500 
 38 H        5.2500     1.2560    -1.8910 H     1 <1>   0.0800 
 39 H       -4.2180     1.0490     0.2170 H     1 <1>   0.1500 
 40 H       -2.8660     4.4700     2.3800 H     1 <1>   0.1500 
 41 H        6.1960     1.5370     0.9100 H     1 <1>   0.3700 
 42 H       -6.9170     2.7480     1.9930 H     1 <1>   0.0800 
 43 H       -5.8830     1.3270     1.8920 H     1 <1>   0.0800 
 44 H       -6.1950     2.3090     0.4490 H     1 <1>   0.0800 
 45 H        8.1650     0.7940     1.5780 H     1 <1>   0.1500 
 46 H        9.3580     3.9530    -1.0170 H     1 <1>   0.1500 
 47 H       10.1450     1.1770     2.9580 H     1 <1>   0.1500 
 48 H       11.3500     4.3300     0.3630 H     1 <1>   0.1500 
 49 H       11.7460     2.9460     2.3600 H     1 <1>   0.1500 
@<TRIPOS>BOND
  1   1   2  2   
  2   2   3  am  
  3   2   4  am  
  4   3   5  1   
  5   3   6  1   
  6   4   7  1   
  7   4  27  1   
  8   5   8  1   
  9   5  28  1   
 10   5  29  1   
 11   6   9  1   
 12   6  30  1   
 13   6  31  1   
 14   7  10  ar  
 15   7  11  ar  
 16   8  12  1   
 17   8  32  1   
 18   8  33  1   
 19   9  12  1   
 20   9  34  1   
 21   9  35  1   
 22  10  13  ar  
 23  10  36  1   
 24  11  14  ar  
 25  11  37  1   
 26  12  15  1   
 27  12  38  1   
 28  13  16  ar  
 29  13  39  1   
 30  14  16  ar  
 31  14  40  1   
 32  15  17  am  
 33  15  41  1   
 34  16  18  1   
 35  17  19  2   
 36  17  20  1   
 37  18  21  1   
 38  20  22  ar  
 39  20  23  ar  
 40  21  42  1   
 41  21  43  1   
 42  21  44  1   
 43  22  24  ar  
 44  22  45  1   
 45  23  25  ar  
 46  23  46  1   
 47  24  26  ar  
 48  24  47  1   
 49  25  26  ar  
 50  25  48  1   
 51  26  49  1   
@<TRIPOS>SUBSTRUCTURE
  1 ****   8 GROUP 4 **** **** 0

# MOE 2024.06 (io_trps.svl 2023.06)
