@<TRIPOS>MOLECULE
Piperidine-1,3-dicarboxylic acid 3-(2-fluoro-benzylamide) 1-phenylamide
48 50 1 0 0 
SMALL
USER_CHARGES


@<TRIPOS>ATOM
  1 F       -0.8750    -1.2570    -2.0750 F     1 <1>  -0.1900 
  2 C       -0.5950    -2.1280    -1.1420 C.ar  1 <1>   0.1900 
  3 C       -1.4310    -2.2410    -0.0410 C.ar  1 <1>  -0.1440 
  4 C        0.5330    -2.9100    -1.3020 C.ar  1 <1>  -0.1500 
  5 C       -1.1080    -3.1840     0.9250 C.ar  1 <1>  -0.1500 
  6 C       -2.6680    -1.3780     0.1260 C.3   1 <1>   0.2840 
  7 C        0.8410    -3.8440    -0.3270 C.ar  1 <1>  -0.1500 
  8 C        0.0200    -3.9790     0.7820 C.ar  1 <1>  -0.1500 
  9 N       -3.8510    -2.2000    -0.1940 N.am  1 <1>  -0.7300 
 10 C       -4.7540    -2.6390     0.7160 C.2   1 <1>   0.5690 
 11 O       -4.7070    -2.2970     1.8730 O.2   1 <1>  -0.5700 
 12 C       -5.8340    -3.6070     0.2510 C.3   1 <1>  -0.0190 
 13 C       -7.0540    -3.5610     1.1850 C.3   1 <1>   0.1400 
 14 C       -5.2810    -5.0420     0.1420 C.3   1 <1>  -0.1600 
 15 N       -8.0860    -4.5370     0.7230 N.am  1 <1>  -0.6600 
 16 C       -6.3860    -6.0230    -0.2810 C.3   1 <1>  -0.1600 
 17 C       -9.3070    -4.1810     0.2060 C.2   1 <1>   0.6900 
 18 C       -7.6010    -5.9430     0.6490 C.3   1 <1>   0.1400 
 19 O       -9.8980    -4.9340    -0.5450 O.2   1 <1>  -0.5700 
 20 N       -9.8490    -2.9820     0.5730 N.am  1 <1>  -0.5470 
 21 C      -10.9920    -2.2990     0.1330 C.ar  1 <1>   0.1170 
 22 C      -11.5660    -2.5120    -1.1170 C.ar  1 <1>  -0.1500 
 23 C      -11.5700    -1.3520     0.9710 C.ar  1 <1>  -0.1500 
 24 C      -12.6860    -1.8040    -1.5150 C.ar  1 <1>  -0.1500 
 25 C      -12.6900    -0.6400     0.5770 C.ar  1 <1>  -0.1500 
 26 C      -13.2500    -0.8660    -0.6680 C.ar  1 <1>  -0.1500 
 27 H        1.1550    -2.7890    -2.1710 H     1 <1>   0.1500 
 28 H       -1.7390    -3.3010     1.7910 H     1 <1>   0.1500 
 29 H       -2.6380    -0.5220    -0.5260 H     1 <1>   0.0800 
 30 H       -2.7250    -1.0190     1.1400 H     1 <1>   0.0800 
 31 H        1.7150    -4.4640    -0.4300 H     1 <1>   0.1500 
 32 H        0.2580    -4.7060     1.5390 H     1 <1>   0.1500 
 33 H       -3.8640    -2.5670    -1.1460 H     1 <1>   0.3700 
 34 H       -6.1610    -3.2850    -0.7210 H     1 <1>   0.0800 
 35 H       -7.4440    -2.5580     1.1980 H     1 <1>   0.0800 
 36 H       -6.7570    -3.8170     2.1880 H     1 <1>   0.0800 
 37 H       -4.8850    -5.3430     1.0970 H     1 <1>   0.0800 
 38 H       -4.4780    -5.0740    -0.5740 H     1 <1>   0.0800 
 39 H       -6.0020    -7.0280    -0.2750 H     1 <1>   0.0800 
 40 H       -6.7090    -5.8040    -1.2850 H     1 <1>   0.0800 
 41 H       -8.3790    -6.5960     0.2900 H     1 <1>   0.0800 
 42 H       -7.3280    -6.2690     1.6380 H     1 <1>   0.0800 
 43 H       -9.3990    -2.5930     1.3930 H     1 <1>   0.3700 
 44 H      -11.1370    -3.2340    -1.7870 H     1 <1>   0.1500 
 45 H      -11.1460    -1.1690     1.9400 H     1 <1>   0.1500 
 46 H      -13.1180    -1.9850    -2.4830 H     1 <1>   0.1500 
 47 H      -13.1270     0.0880     1.2370 H     1 <1>   0.1500 
 48 H      -14.1220    -0.3150    -0.9770 H     1 <1>   0.1500 
@<TRIPOS>BOND
  1   1   2  1   
  2   2   3  ar  
  3   2   4  ar  
  4   3   5  ar  
  5   3   6  1   
  6   4   7  ar  
  7   4  27  1   
  8   5   8  ar  
  9   5  28  1   
 10   6   9  1   
 11   6  29  1   
 12   6  30  1   
 13   7   8  ar  
 14   7  31  1   
 15   8  32  1   
 16   9  10  am  
 17   9  33  1   
 18  10  11  2   
 19  10  12  1   
 20  12  13  1   
 21  12  14  1   
 22  12  34  1   
 23  13  15  1   
 24  13  35  1   
 25  13  36  1   
 26  14  16  1   
 27  14  37  1   
 28  14  38  1   
 29  15  17  am  
 30  15  18  1   
 31  16  18  1   
 32  16  39  1   
 33  16  40  1   
 34  17  19  2   
 35  17  20  am  
 36  18  41  1   
 37  18  42  1   
 38  20  21  1   
 39  20  43  1   
 40  21  22  ar  
 41  21  23  ar  
 42  22  24  ar  
 43  22  44  1   
 44  23  25  ar  
 45  23  45  1   
 46  24  26  ar  
 47  24  46  1   
 48  25  26  ar  
 49  25  47  1   
 50  26  48  1   
@<TRIPOS>SUBSTRUCTURE
  1 ****  12 GROUP 4 **** **** 0

# MOE 2024.06 (io_trps.svl 2023.06)
