@<TRIPOS>MOLECULE
NONAME
50 53 1 0 0 
SMALL
USER_CHARGES


@<TRIPOS>ATOM
  1 O        0.8870    -1.5950     0.6980 O.2   1 <1>  -0.5700 
  2 C        0.2850    -2.2720    -0.1150 C.2   1 <1>   0.5440 
  3 N        0.9950    -2.6890    -1.2160 N.am  1 <1>  -0.6600 
  4 C       -1.0970    -2.6660     0.1070 C.ar  1 <1>   0.0860 
  5 C        2.0450    -1.7780    -1.7630 C.3   1 <1>   0.1400 
  6 C        1.3650    -4.1280    -1.3070 C.3   1 <1>   0.1400 
  7 C       -1.9270    -3.0820    -0.9360 C.ar  1 <1>  -0.1500 
  8 C       -1.6580    -2.6380     1.3840 C.ar  1 <1>  -0.1500 
  9 C        3.3840    -2.0160    -1.0390 C.3   1 <1>   0.3430 
 10 C        2.7140    -4.3730    -0.5950 C.3   1 <1>   0.3430 
 11 C       -3.2400    -3.4570    -0.7170 C.ar  1 <1>  -0.1500 
 12 C       -2.9690    -3.0130     1.6100 C.ar  1 <1>  -0.1500 
 13 N        3.8110    -3.4630    -1.1000 N.4   1 <1>  -0.9590 
 14 C       -3.7860    -3.4330     0.5640 C.ar  1 <1>  -0.0230 
 15 C        5.1240    -3.6550    -0.4190 C.3   1 <1>   0.4230 
 16 N       -5.1390    -3.8170     0.8050 N.pl3 1 <1>   0.5930 
 17 C        5.7250    -5.0110    -0.8130 C.3   1 <1>  -0.1600 
 18 C        5.0340    -3.5170     1.1120 C.3   1 <1>  -0.1600 
 19 N       -5.8960    -3.3590     1.7910 N.2   1 <1>  -0.4180 
 20 C       -5.8970    -4.6790     0.1380 C.2   1 <1>   0.0360 
 21 C        7.1100    -5.1960    -0.1770 C.3   1 <1>  -0.1600 
 22 C        6.4190    -3.6950     1.7510 C.3   1 <1>  -0.1600 
 23 N       -7.0400    -3.9320     1.6900 N.2   1 <1>   0.0000 
 24 N       -7.0590    -4.7650     0.6570 N.2   1 <1>  -0.3380 
 25 C        7.0480    -5.0350     1.3480 C.3   1 <1>  -0.1600 
 26 H        1.7420    -0.7540    -1.6190 H     1 <1>   0.0800 
 27 H        2.1560    -1.9420    -2.8210 H     1 <1>   0.0800 
 28 H        1.4320    -4.4210    -2.3400 H     1 <1>   0.0800 
 29 H        0.6040    -4.7320    -0.8410 H     1 <1>   0.0800 
 30 H       -1.5380    -3.1000    -1.9400 H     1 <1>   0.1500 
 31 H       -1.0540    -2.3100     2.2140 H     1 <1>   0.1500 
 32 H        3.2600    -1.7150    -0.0110 H     1 <1>   0.0800 
 33 H        4.1410    -1.3880    -1.4780 H     1 <1>   0.0800 
 34 H        3.0000    -5.4030    -0.7260 H     1 <1>   0.0800 
 35 H        2.5640    -4.2030     0.4590 H     1 <1>   0.0800 
 36 H       -3.8400    -3.7590    -1.5590 H     1 <1>   0.1500 
 37 H       -3.3620    -2.9720     2.6140 H     1 <1>   0.1500 
 38 H        3.9600    -3.6880    -2.0900 H     1 <1>   0.4500 
 39 H        5.8030    -2.8940    -0.7710 H     1 <1>   0.0800 
 40 H        5.8270    -5.0720    -1.8820 H     1 <1>   0.0800 
 41 H        5.0930    -5.8140    -0.4790 H     1 <1>   0.0800 
 42 H        4.3820    -4.2660     1.5240 H     1 <1>   0.0800 
 43 H        4.6560    -2.5480     1.3830 H     1 <1>   0.0800 
 44 H       -5.5550    -5.2250    -0.7190 H     1 <1>   0.1500 
 45 H        7.7970    -4.4720    -0.5820 H     1 <1>   0.0800 
 46 H        7.4930    -6.1750    -0.4160 H     1 <1>   0.0800 
 47 H        6.3310    -3.6500     2.8240 H     1 <1>   0.0800 
 48 H        7.0670    -2.8900     1.4460 H     1 <1>   0.0800 
 49 H        8.0430    -5.1010     1.7570 H     1 <1>   0.0800 
 50 H        6.4730    -5.8420     1.7710 H     1 <1>   0.0800 
@<TRIPOS>BOND
  1   1   2  2   
  2   2   3  am  
  3   2   4  1   
  4   3   5  1   
  5   3   6  1   
  6   4   7  ar  
  7   4   8  ar  
  8   5   9  1   
  9   5  26  1   
 10   5  27  1   
 11   6  10  1   
 12   6  28  1   
 13   6  29  1   
 14   7  11  ar  
 15   7  30  1   
 16   8  12  ar  
 17   8  31  1   
 18   9  13  1   
 19   9  32  1   
 20   9  33  1   
 21  10  13  1   
 22  10  34  1   
 23  10  35  1   
 24  11  14  ar  
 25  11  36  1   
 26  12  14  ar  
 27  12  37  1   
 28  13  15  1   
 29  13  38  1   
 30  14  16  1   
 31  15  17  1   
 32  15  18  1   
 33  15  39  1   
 34  16  19  1   
 35  16  20  1   
 36  17  21  1   
 37  17  40  1   
 38  17  41  1   
 39  18  22  1   
 40  18  42  1   
 41  18  43  1   
 42  19  23  2   
 43  20  24  2   
 44  20  44  1   
 45  21  25  1   
 46  21  45  1   
 47  21  46  1   
 48  22  25  1   
 49  22  47  1   
 50  22  48  1   
 51  23  24  1   
 52  25  49  1   
 53  25  50  1   
@<TRIPOS>SUBSTRUCTURE
  1 ****   2 GROUP 4 **** **** 0

# MOE 2024.06 (io_trps.svl 2023.06)
