@<TRIPOS>MOLECULE
2-(2,4-Dioxo-3-phenethyl-3,4-dihydro-2H-thieno[3,2-d]pyrimidin-1-yl)-N,N-diethyl
50 52 1 0 0 
SMALL
USER_CHARGES


@<TRIPOS>ATOM
  1 S        1.5180    -0.7170     3.1220 S.3   1 <1>  -0.0800 
  2 C        2.5660    -0.9760     1.7200 C.2   1 <1>  -0.0450 
  3 C        0.4470    -2.0080     2.6070 C.2   1 <1>  -0.1100 
  4 C        3.7310    -0.2300     1.4110 C.2   1 <1>   0.7150 
  5 C        2.0960    -1.9920     0.9580 C.2   1 <1>   0.0630 
  6 C        0.8850    -2.5680     1.4630 C.2   1 <1>  -0.1500 
  7 O        4.1390     0.6830     2.1110 O.2   1 <1>  -0.5700 
  8 N        4.3990    -0.5730     0.2490 N.am  1 <1>  -0.4200 
  9 N        2.8100    -2.3390    -0.1930 N.am  1 <1>  -0.4230 
 10 C        3.9210    -1.5870    -0.5690 C.2   1 <1>   0.6900 
 11 C        5.6360     0.1680    -0.1340 C.3   1 <1>   0.1400 
 12 C        2.3630    -3.4940    -1.0500 C.3   1 <1>   0.2010 
 13 O        4.4840    -1.8200    -1.6240 O.2   1 <1>  -0.5700 
 14 C        5.2890     1.3860    -0.9930 C.3   1 <1>  -0.0160 
 15 C        2.4290    -4.8630    -0.3640 C.2   1 <1>   0.5690 
 16 C        6.5620     2.1060    -1.4020 C.ar  1 <1>  -0.1440 
 17 O        1.3670    -5.3740    -0.0860 O.2   1 <1>  -0.5700 
 18 N        3.6180    -5.5080    -0.0990 N.am  1 <1>  -0.6600 
 19 C        7.2180     1.7540    -2.5710 C.ar  1 <1>  -0.1500 
 20 C        7.0820     3.1140    -0.6050 C.ar  1 <1>  -0.1500 
 21 C        4.9630    -5.0140    -0.4890 C.3   1 <1>   0.1400 
 22 C        3.6200    -6.8170     0.6090 C.3   1 <1>   0.1400 
 23 C        8.3830     2.4040    -2.9400 C.ar  1 <1>  -0.1500 
 24 C        8.2460     3.7650    -0.9740 C.ar  1 <1>  -0.1500 
 25 C        5.2910    -5.4790    -1.9050 C.3   1 <1>  -0.2400 
 26 C        3.7950    -6.5800     2.1070 C.3   1 <1>  -0.2400 
 27 C        8.8980     3.4110    -2.1420 C.ar  1 <1>  -0.1500 
 28 H       -0.4110    -2.2150     3.2220 H     1 <1>   0.1500 
 29 H        0.3820    -3.3740     0.9600 H     1 <1>   0.1500 
 30 H        6.2980    -0.4810    -0.6820 H     1 <1>   0.0800 
 31 H        6.1620     0.4900     0.7490 H     1 <1>   0.0800 
 32 H        2.9360    -3.5470    -1.9550 H     1 <1>   0.0800 
 33 H        1.3440    -3.3170    -1.3410 H     1 <1>   0.0800 
 34 H        4.6580     2.0570    -0.4360 H     1 <1>   0.0800 
 35 H        4.7580     1.0700    -1.8740 H     1 <1>   0.0800 
 36 H        6.8260     0.9720    -3.1980 H     1 <1>   0.1500 
 37 H        6.5830     3.3970     0.3070 H     1 <1>   0.1500 
 38 H        5.7020    -5.3960     0.1950 H     1 <1>   0.0800 
 39 H        5.0040    -3.9450    -0.4320 H     1 <1>   0.0800 
 40 H        4.4170    -7.4360     0.2340 H     1 <1>   0.0800 
 41 H        2.6920    -7.3350     0.4320 H     1 <1>   0.0800 
 42 H        8.8870     2.1280    -3.8490 H     1 <1>   0.1500 
 43 H        8.6450     4.5470    -0.3510 H     1 <1>   0.1500 
 44 H        5.2860    -6.5530    -1.9600 H     1 <1>   0.0800 
 45 H        6.2690    -5.1280    -2.1810 H     1 <1>   0.0800 
 46 H        4.5820    -5.0830    -2.6090 H     1 <1>   0.0800 
 47 H        4.7290    -6.0890     2.3100 H     1 <1>   0.0800 
 48 H        3.7820    -7.5210     2.6250 H     1 <1>   0.0800 
 49 H        2.9850    -5.9770     2.4790 H     1 <1>   0.0800 
 50 H        9.8030     3.9170    -2.4290 H     1 <1>   0.1500 
@<TRIPOS>BOND
  1   1   2  1   
  2   1   3  1   
  3   2   4  1   
  4   2   5  2   
  5   3   6  2   
  6   3  28  1   
  7   4   7  2   
  8   4   8  am  
  9   5   6  1   
 10   5   9  1   
 11   6  29  1   
 12   8  10  am  
 13   8  11  1   
 14   9  10  am  
 15   9  12  1   
 16  10  13  2   
 17  11  14  1   
 18  11  30  1   
 19  11  31  1   
 20  12  15  1   
 21  12  32  1   
 22  12  33  1   
 23  14  16  1   
 24  14  34  1   
 25  14  35  1   
 26  15  17  2   
 27  15  18  am  
 28  16  19  ar  
 29  16  20  ar  
 30  18  21  1   
 31  18  22  1   
 32  19  23  ar  
 33  19  36  1   
 34  20  24  ar  
 35  20  37  1   
 36  21  25  1   
 37  21  38  1   
 38  21  39  1   
 39  22  26  1   
 40  22  40  1   
 41  22  41  1   
 42  23  27  ar  
 43  23  42  1   
 44  24  27  ar  
 45  24  43  1   
 46  25  44  1   
 47  25  45  1   
 48  25  46  1   
 49  26  47  1   
 50  26  48  1   
 51  26  49  1   
 52  27  50  1   
@<TRIPOS>SUBSTRUCTURE
  1 ****  10 GROUP 4 **** **** 0

# MOE 2024.06 (io_trps.svl 2023.06)
