@<TRIPOS>MOLECULE
NONAME
39 40 1 0 0 
SMALL
USER_CHARGES


@<TRIPOS>ATOM
  1 S       -0.1400     0.6880    -1.7030 S.o2  1 <1>   1.4470 
  2 O       -0.8200     1.8870    -2.1520 O.2   1 <1>  -0.6500 
  3 O        0.7460     0.0120    -2.6270 O.2   1 <1>  -0.6500 
  4 N        0.7660     1.1240    -0.3410 N.am  1 <1>  -0.8490 
  5 C       -1.3780    -0.4710    -1.0520 C.ar  1 <1>  -0.0090 
  6 C        1.5170    -0.0080     0.2620 C.3   1 <1>   0.1960 
  7 C        1.5700     2.3250    -0.5900 C.3   1 <1>   0.1960 
  8 C       -2.5400    -0.0090    -0.4430 C.ar  1 <1>  -0.1500 
  9 C       -1.1890    -1.8480    -1.1220 C.ar  1 <1>  -0.1500 
 10 C        3.0380     0.1360     0.1450 C.3   1 <1>  -0.1860 
 11 C        2.5110     2.6000     0.5860 C.3   1 <1>  -0.1600 
 12 C       -3.4810    -0.8860     0.0680 C.ar  1 <1>  -0.1500 
 13 C       -2.1210    -2.7340    -0.6100 C.ar  1 <1>  -0.1500 
 14 C        3.7350    -1.0780     0.7380 C.2   1 <1>   0.9060 
 15 C        3.5180     1.4550     0.7900 C.3   1 <1>  -0.1600 
 16 C       -3.2800    -2.2530    -0.0100 C.ar  1 <1>   0.0820 
 17 O        4.9610    -1.1640     0.6210 O.co2 1 <1>  -0.9000 
 18 O        3.0660    -1.9430     1.3150 O.co2 1 <1>  -0.9000 
 19 O       -4.2450    -3.0460     0.5160 O.3   1 <1>  -0.3630 
 20 C       -4.1190    -4.4480     0.5280 C.3   1 <1>   0.1200 
 21 C       -5.3560    -5.0300     1.2070 C.3   1 <1>  -0.2400 
 22 H        1.2250    -0.9460    -0.1800 H     1 <1>   0.0800 
 23 H        1.2640    -0.0640     1.3070 H     1 <1>   0.0800 
 24 H        0.9140     3.1680    -0.7320 H     1 <1>   0.0800 
 25 H        2.1500     2.1960    -1.4900 H     1 <1>   0.0800 
 26 H       -2.7060     1.0530    -0.3700 H     1 <1>   0.1500 
 27 H       -0.2930    -2.2310    -1.5820 H     1 <1>   0.1500 
 28 H        3.2910     0.1350    -0.8980 H     1 <1>   0.0800 
 29 H        1.9150     2.7200     1.4740 H     1 <1>   0.0800 
 30 H        3.0420     3.5200     0.4200 H     1 <1>   0.0800 
 31 H       -4.3760    -0.5150     0.5340 H     1 <1>   0.1500 
 32 H       -1.9240    -3.7860    -0.6870 H     1 <1>   0.1500 
 33 H        4.4720     1.7110     0.3630 H     1 <1>   0.0800 
 34 H        3.6680     1.3030     1.8460 H     1 <1>   0.0800 
 35 H       -3.2280    -4.7050     1.0750 H     1 <1>   0.0800 
 36 H       -4.0460    -4.7920    -0.4890 H     1 <1>   0.0800 
 37 H       -5.4270    -4.6670     2.2160 H     1 <1>   0.0800 
 38 H       -5.2890    -6.1020     1.2310 H     1 <1>   0.0800 
 39 H       -6.2410    -4.7530     0.6620 H     1 <1>   0.0800 
@<TRIPOS>BOND
  1   1   2  2   
  2   1   3  2   
  3   1   4  am  
  4   1   5  1   
  5   4   6  1   
  6   4   7  1   
  7   5   8  ar  
  8   5   9  ar  
  9   6  10  1   
 10   6  22  1   
 11   6  23  1   
 12   7  11  1   
 13   7  24  1   
 14   7  25  1   
 15   8  12  ar  
 16   8  26  1   
 17   9  13  ar  
 18   9  27  1   
 19  10  14  1   
 20  10  15  1   
 21  10  28  1   
 22  11  15  1   
 23  11  29  1   
 24  11  30  1   
 25  12  16  ar  
 26  12  31  1   
 27  13  16  ar  
 28  13  32  1   
 29  14  17  ar  
 30  14  18  ar  
 31  15  33  1   
 32  15  34  1   
 33  16  19  1   
 34  19  20  1   
 35  20  21  1   
 36  20  35  1   
 37  20  36  1   
 38  21  37  1   
 39  21  38  1   
 40  21  39  1   
@<TRIPOS>SUBSTRUCTURE
  1 ****   5 GROUP 4 **** **** 0

# MOE 2024.06 (io_trps.svl 2023.06)
