@<TRIPOS>MOLECULE
3-Cyclopropyl-4-oxo-10-oxa-3-aza-tricyclo[5.2.1.0*1,5*]dec-8-ene-2,6-dicarboxylic acid 2-tert-butylamide 6-
56 60 1 0 0 
SMALL
USER_CHARGES


@<TRIPOS>ATOM
  1 O       -0.7610     0.8460    -2.1630 O.2   1 <1>  -0.5700 
  2 C       -1.7830     1.4110    -1.8640 C.2   1 <1>   0.5690 
  3 N       -3.0650     0.9430    -1.9240 N.am  1 <1>  -0.5090 
  4 C       -1.7940     2.7840    -1.2850 C.3   1 <1>  -0.0190 
  5 C       -4.0510     2.0400    -1.5840 C.3   1 <1>   0.2810 
  6 C       -3.5120    -0.3200    -2.5380 C.3   1 <1>   0.0490 
  7 C       -3.1430     3.2600    -1.7780 C.3   1 <1>   0.4180 
  8 C       -0.9000     4.0030    -1.5580 C.3   1 <1>  -0.0190 
  9 C       -4.5900     1.9530    -0.1560 C.2   1 <1>   0.5690 
 10 C       -4.4440    -1.2150    -1.7850 C.3   1 <1>  -0.2000 
 11 C       -3.0080    -1.5970    -1.9490 C.3   1 <1>  -0.2000 
 12 O       -3.1330     4.4770    -1.1230 O.3   1 <1>  -0.5600 
 13 C       -3.0960     3.7610    -3.2180 C.2   1 <1>  -0.2880 
 14 C        0.0490     4.2730    -0.4100 C.2   1 <1>   0.5690 
 15 C       -2.0100     5.0700    -1.7470 C.3   1 <1>   0.3380 
 16 O       -5.5950     2.5640     0.1130 O.2   1 <1>  -0.5700 
 17 N       -3.9330     1.1720     0.7530 N.am  1 <1>  -0.7300 
 18 C       -2.4350     4.9090    -3.1840 C.2   1 <1>  -0.2880 
 19 O        0.0750     5.3690     0.0940 O.2   1 <1>  -0.5700 
 20 N        0.8510     3.2470    -0.0080 N.am  1 <1>  -0.4930 
 21 C       -4.1790     1.0080     2.1860 C.3   1 <1>   0.3000 
 22 C        1.7410     3.1790     1.0610 C.2   1 <1>   0.3520 
 23 C       -4.0890     2.3660     2.8820 C.3   1 <1>  -0.2400 
 24 C       -5.5430     0.3540     2.3990 C.3   1 <1>  -0.2400 
 25 C       -3.0760     0.0890     2.7080 C.3   1 <1>  -0.2400 
 26 N        2.3580     2.0870     1.3460 N.2   1 <1>  -0.4100 
 27 C        2.0970     4.1920     1.9540 C.2   1 <1>  -0.1500 
 28 O        3.1020     2.3520     2.3900 O.3   1 <1>  -0.0190 
 29 C        2.9690     3.5940     2.7760 C.2   1 <1>  -0.0400 
 30 C        3.7470     4.1030     3.9710 C.3   1 <1>  -0.0600 
 31 H       -1.8590     2.6520    -0.2180 H     1 <1>   0.0800 
 32 H       -4.8630     2.0510    -2.2870 H     1 <1>   0.0800 
 33 H       -3.6030    -0.2560    -3.6110 H     1 <1>   0.1000 
 34 H       -0.3240     3.8860    -2.4590 H     1 <1>   0.0800 
 35 H       -5.1790    -1.7780    -2.3330 H     1 <1>   0.1000 
 36 H       -4.7910    -0.9370    -0.8060 H     1 <1>   0.1000 
 37 H       -2.3440    -1.5460    -1.1040 H     1 <1>   0.1000 
 38 H       -2.7660    -2.4090    -2.6130 H     1 <1>   0.1000 
 39 H       -3.5510     3.2180    -4.0270 H     1 <1>   0.1500 
 40 H       -1.8410     6.0760    -1.4000 H     1 <1>   0.0800 
 41 H       -3.2110     0.5430     0.3980 H     1 <1>   0.3700 
 42 H       -2.1630     5.6260    -3.9390 H     1 <1>   0.1500 
 43 H        0.8070     2.3710    -0.5320 H     1 <1>   0.3700 
 44 H       -3.1430     2.8340     2.6800 H     1 <1>   0.0800 
 45 H       -4.1880     2.2430     3.9450 H     1 <1>   0.0800 
 46 H       -4.8780     3.0170     2.5510 H     1 <1>   0.0800 
 47 H       -6.3300     1.0000     2.0550 H     1 <1>   0.0800 
 48 H       -5.7030     0.1680     3.4460 H     1 <1>   0.0800 
 49 H       -5.6010    -0.5810     1.8730 H     1 <1>   0.0800 
 50 H       -2.1080     0.5310     2.5500 H     1 <1>   0.0800 
 51 H       -3.1150    -0.8680     2.2190 H     1 <1>   0.0800 
 52 H       -3.2010    -0.0700     3.7640 H     1 <1>   0.0800 
 53 H        1.7340     5.2020     1.9500 H     1 <1>   0.1500 
 54 H        3.5210     5.1390     4.1480 H     1 <1>   0.0800 
 55 H        4.8020     4.0020     3.7880 H     1 <1>   0.0800 
 56 H        3.4880     3.5330     4.8440 H     1 <1>   0.0800 
@<TRIPOS>BOND
  1   1   2  2   
  2   2   3  am  
  3   2   4  1   
  4   3   5  1   
  5   3   6  1   
  6   4   7  1   
  7   4   8  1   
  8   4  31  1   
  9   5   7  1   
 10   5   9  1   
 11   5  32  1   
 12   6  10  1   
 13   6  11  1   
 14   6  33  1   
 15   7  12  1   
 16   7  13  1   
 17   8  14  1   
 18   8  15  1   
 19   8  34  1   
 20   9  16  2   
 21   9  17  am  
 22  10  11  1   
 23  10  35  1   
 24  10  36  1   
 25  11  37  1   
 26  11  38  1   
 27  12  15  1   
 28  13  18  2   
 29  13  39  1   
 30  14  19  2   
 31  14  20  am  
 32  15  18  1   
 33  15  40  1   
 34  17  21  1   
 35  17  41  1   
 36  18  42  1   
 37  20  22  1   
 38  20  43  1   
 39  21  23  1   
 40  21  24  1   
 41  21  25  1   
 42  22  26  2   
 43  22  27  1   
 44  23  44  1   
 45  23  45  1   
 46  23  46  1   
 47  24  47  1   
 48  24  48  1   
 49  24  49  1   
 50  25  50  1   
 51  25  51  1   
 52  25  52  1   
 53  26  28  1   
 54  27  29  2   
 55  27  53  1   
 56  28  29  1   
 57  29  30  1   
 58  30  54  1   
 59  30  55  1   
 60  30  56  1   
@<TRIPOS>SUBSTRUCTURE
  1 ****   4 GROUP 4 **** **** 0

# MOE 2024.06 (io_trps.svl 2023.06)
