@<TRIPOS>MOLECULE
3-(3-Methoxy-propyl)-1-[2-(4-methyl-piperidin-1-yl)-2-oxo-ethyl]-1H-quinazoline-
54 56 1 0 0 
SMALL
USER_CHARGES


@<TRIPOS>ATOM
  1 O       -1.3750     0.1940     2.4540 O.2   1 <1>  -0.5700 
  2 C       -1.8490     0.3580     1.3440 C.2   1 <1>   0.6900 
  3 N       -3.1360    -0.0670     1.0660 N.am  1 <1>  -0.4770 
  4 N       -1.0870     0.9360     0.3500 N.am  1 <1>  -0.4200 
  5 C       -3.7580     0.2420    -0.1620 C.ar  1 <1>   0.1170 
  6 C       -3.8090    -0.9960     2.0500 C.3   1 <1>   0.2010 
  7 C       -1.5970     1.1120    -0.9210 C.2   1 <1>   0.5440 
  8 C        0.3060     1.3750     0.6550 C.3   1 <1>   0.1400 
  9 C       -2.9840     0.8130    -1.1810 C.ar  1 <1>   0.0860 
 10 C       -5.1140     0.0070    -0.4060 C.ar  1 <1>  -0.1500 
 11 C       -4.1430    -2.3740     1.4670 C.2   1 <1>   0.5690 
 12 O       -0.8690     1.5220    -1.8070 O.2   1 <1>  -0.5700 
 13 C        0.3000     2.8220     1.1550 C.3   1 <1>  -0.1600 
 14 C       -3.5780     1.0870    -2.4160 C.ar  1 <1>  -0.1500 
 15 C       -5.6840     0.2880    -1.6300 C.ar  1 <1>  -0.1500 
 16 O       -5.3150    -2.6720     1.4200 O.2   1 <1>  -0.5700 
 17 N       -3.1690    -3.2280     1.0040 N.am  1 <1>  -0.6600 
 18 C        1.7170     3.2870     1.4770 C.3   1 <1>   0.1200 
 19 C       -4.9120     0.8270    -2.6430 C.ar  1 <1>  -0.1500 
 20 C       -3.5110    -4.3760     0.1230 C.3   1 <1>   0.1400 
 21 C       -1.7050    -3.0610     1.2060 C.3   1 <1>   0.1400 
 22 O        1.6370     4.5910     1.9440 O.3   1 <1>  -0.5600 
 23 C       -2.8690    -4.1540    -1.2520 C.3   1 <1>  -0.1600 
 24 C       -1.0360    -2.8110    -0.1490 C.3   1 <1>  -0.1600 
 25 C        2.8650     5.1480     2.2810 C.3   1 <1>   0.0400 
 26 C       -1.3490    -3.9380    -1.1470 C.3   1 <1>  -0.0800 
 27 C       -0.7540    -3.6150    -2.5220 C.3   1 <1>  -0.2400 
 28 H       -4.7200    -0.5360     2.3840 H     1 <1>   0.0800 
 29 H       -3.2060    -1.1500     2.9240 H     1 <1>   0.0800 
 30 H        0.9180     1.2960    -0.2260 H     1 <1>   0.0800 
 31 H        0.7360     0.7310     1.4030 H     1 <1>   0.0800 
 32 H       -5.7500    -0.4020     0.3570 H     1 <1>   0.1500 
 33 H       -0.2990     2.8900     2.0470 H     1 <1>   0.0800 
 34 H       -0.1130     3.4620     0.3950 H     1 <1>   0.0800 
 35 H       -2.9790     1.5140    -3.2030 H     1 <1>   0.1500 
 36 H       -6.7290     0.0890    -1.7980 H     1 <1>   0.1500 
 37 H        2.3330     3.2740     0.5930 H     1 <1>   0.0800 
 38 H        2.1550     2.6720     2.2450 H     1 <1>   0.0800 
 39 H       -5.3550     1.0430    -3.6010 H     1 <1>   0.1500 
 40 H       -4.5780    -4.4700     0.0110 H     1 <1>   0.0800 
 41 H       -3.1400    -5.2850     0.5640 H     1 <1>   0.0800 
 42 H       -1.3110    -3.9650     1.6400 H     1 <1>   0.0800 
 43 H       -1.4920    -2.2600     1.8870 H     1 <1>   0.0800 
 44 H       -3.3320    -3.2960    -1.7080 H     1 <1>   0.0800 
 45 H       -3.0730    -5.0060    -1.8750 H     1 <1>   0.0800 
 46 H        0.0270    -2.7350    -0.0080 H     1 <1>   0.0800 
 47 H       -1.3830    -1.8740    -0.5420 H     1 <1>   0.0800 
 48 H        2.6920     6.1510     2.6280 H     1 <1>   0.0800 
 49 H        3.4970     5.1690     1.4100 H     1 <1>   0.0800 
 50 H        3.3170     4.5660     3.0660 H     1 <1>   0.0800 
 51 H       -0.9010    -4.8490    -0.7860 H     1 <1>   0.0800 
 52 H       -1.1780    -2.7080    -2.9160 H     1 <1>   0.0800 
 53 H       -0.9550    -4.4150    -3.2120 H     1 <1>   0.0800 
 54 H        0.3120    -3.4920    -2.4480 H     1 <1>   0.0800 
@<TRIPOS>BOND
  1   1   2  2   
  2   2   3  am  
  3   2   4  am  
  4   3   5  1   
  5   3   6  1   
  6   4   7  am  
  7   4   8  1   
  8   5   9  ar  
  9   5  10  ar  
 10   6  11  1   
 11   6  28  1   
 12   6  29  1   
 13   7   9  1   
 14   7  12  2   
 15   8  13  1   
 16   8  30  1   
 17   8  31  1   
 18   9  14  ar  
 19  10  15  ar  
 20  10  32  1   
 21  11  16  2   
 22  11  17  am  
 23  13  18  1   
 24  13  33  1   
 25  13  34  1   
 26  14  19  ar  
 27  14  35  1   
 28  15  19  ar  
 29  15  36  1   
 30  17  20  1   
 31  17  21  1   
 32  18  22  1   
 33  18  37  1   
 34  18  38  1   
 35  19  39  1   
 36  20  23  1   
 37  20  40  1   
 38  20  41  1   
 39  21  24  1   
 40  21  42  1   
 41  21  43  1   
 42  22  25  1   
 43  23  26  1   
 44  23  44  1   
 45  23  45  1   
 46  24  26  1   
 47  24  46  1   
 48  24  47  1   
 49  25  48  1   
 50  25  49  1   
 51  25  50  1   
 52  26  27  1   
 53  26  51  1   
 54  27  52  1   
 55  27  53  1   
 56  27  54  1   
@<TRIPOS>SUBSTRUCTURE
  1 ****   2 GROUP 4 **** **** 0

# MOE 2024.06 (io_trps.svl 2023.06)
