@<TRIPOS>MOLECULE
5727
35 36 1 0 0 
SMALL
USER_CHARGES


@<TRIPOS>ATOM
  1 BR       0.2320    -0.3980    -2.0020 Br    1 <1>  -0.1110 
  2 C        1.6490    -1.1440    -0.9230 C.ar  1 <1>   0.1110 
  3 C        1.3940    -2.2540    -0.1280 C.ar  1 <1>   0.0820 
  4 C        2.8870    -0.5380    -0.9810 C.ar  1 <1>  -0.1500 
  5 O        0.1470    -2.7890    -0.1320 O.3   1 <1>  -0.3630 
  6 C        2.4480    -2.7530     0.6320 C.ar  1 <1>  -0.1500 
  7 C        3.9470    -1.0340    -0.2250 C.ar  1 <1>   0.0280 
  8 C       -0.1840    -3.9120     0.6550 C.3   1 <1>   0.0400 
  9 C        3.6940    -2.1490     0.5800 C.ar  1 <1>  -0.1500 
 10 C        5.2350    -0.3930    -0.2960 C.2   1 <1>  -0.1780 
 11 C        6.4240    -0.8040     0.2060 C.2   1 <1>  -0.1360 
 12 C        7.6840    -0.1160     0.1150 C.2   1 <1>   0.6160 
 13 O        7.7070     1.0470    -0.2420 O.2   1 <1>  -0.5700 
 14 N        8.8720    -0.7390     0.4270 N.am  1 <1>  -0.6600 
 15 C        9.1190    -2.2050     0.2790 C.3   1 <1>   0.1400 
 16 C       10.1230     0.0410     0.6830 C.3   1 <1>   0.1400 
 17 C       10.2860    -2.4650    -0.6910 C.3   1 <1>   0.1200 
 18 C       11.2200    -0.3480    -0.3190 C.3   1 <1>   0.1200 
 19 O       11.4180    -1.7340    -0.3150 O.3   1 <1>  -0.5600 
 20 H        3.0250     0.3190    -1.6150 H     1 <1>   0.1500 
 21 H        2.3130    -3.6060     1.2700 H     1 <1>   0.1500 
 22 H       -1.2190    -4.1440     0.4830 H     1 <1>   0.0800 
 23 H       -0.0310    -3.6700     1.6910 H     1 <1>   0.0800 
 24 H        0.4310    -4.7420     0.3550 H     1 <1>   0.0800 
 25 H        4.4820    -2.5550     1.1860 H     1 <1>   0.1500 
 26 H        5.2230     0.5430    -0.8310 H     1 <1>   0.1500 
 27 H        6.4810    -1.7260     0.7450 H     1 <1>   0.1500 
 28 H        9.3590    -2.6230     1.2410 H     1 <1>   0.0800 
 29 H        8.2460    -2.7040    -0.0990 H     1 <1>   0.0800 
 30 H        9.9360     1.0990     0.6130 H     1 <1>   0.0800 
 31 H       10.4680    -0.1640     1.6800 H     1 <1>   0.0800 
 32 H       10.0140    -2.1860    -1.6940 H     1 <1>   0.0800 
 33 H       10.5520    -3.5070    -0.6820 H     1 <1>   0.0800 
 34 H       12.1510     0.1190    -0.0510 H     1 <1>   0.0800 
 35 H       10.9500    -0.0370    -1.3140 H     1 <1>   0.0800 
@<TRIPOS>BOND
  1   1   2  1   
  2   2   3  ar  
  3   2   4  ar  
  4   3   5  1   
  5   3   6  ar  
  6   4   7  ar  
  7   4  20  1   
  8   5   8  1   
  9   6   9  ar  
 10   6  21  1   
 11   7   9  ar  
 12   7  10  1   
 13   8  22  1   
 14   8  23  1   
 15   8  24  1   
 16   9  25  1   
 17  10  11  2   
 18  10  26  1   
 19  11  12  1   
 20  11  27  1   
 21  12  13  2   
 22  12  14  am  
 23  14  15  1   
 24  14  16  1   
 25  15  17  1   
 26  15  28  1   
 27  15  29  1   
 28  16  18  1   
 29  16  30  1   
 30  16  31  1   
 31  17  19  1   
 32  17  32  1   
 33  17  33  1   
 34  18  19  1   
 35  18  34  1   
 36  18  35  1   
@<TRIPOS>SUBSTRUCTURE
  1 ****  10 GROUP 4 **** **** 0

# MOE 2024.06 (io_trps.svl 2023.06)
