@<TRIPOS>MOLECULE
2-[3-(3-Chloro-phenyl)-6-oxo-6H-pyridazin-1-yl]-N-(3-ethoxy-propyl)-acetamide
44 45 1 0 0 
SMALL
USER_CHARGES


@<TRIPOS>ATOM
  1 CL       0.4490    -0.1090     0.1160 Cl    1 <1>  -0.1770 
  2 C       -0.3360    -1.4980    -0.5880 C.ar  1 <1>   0.1770 
  3 C        0.2110    -2.7510    -0.3990 C.ar  1 <1>  -0.1500 
  4 C       -1.4910    -1.3200    -1.3240 C.ar  1 <1>  -0.1500 
  5 C       -0.3910    -3.8800    -0.9550 C.ar  1 <1>   0.0860 
  6 C       -2.1100    -2.4270    -1.8770 C.ar  1 <1>  -0.1500 
  7 C        0.1850    -5.1950    -0.7680 C.2   1 <1>   0.3490 
  8 C       -1.5660    -3.6870    -1.6900 C.ar  1 <1>  -0.1500 
  9 N        0.6260    -5.5430     0.4140 N.2   1 <1>  -0.5120 
 10 C        0.2740    -6.0830    -1.8810 C.2   1 <1>  -0.1360 
 11 N        1.1490    -6.8030     0.5650 N.am  1 <1>  -0.2980 
 12 C        0.8000    -7.3250    -1.7340 C.2   1 <1>  -0.1360 
 13 C        1.2630    -7.7340    -0.4630 C.2   1 <1>   0.6160 
 14 C        1.6620    -7.1640     1.9250 C.3   1 <1>   0.2010 
 15 O        1.7380    -8.8470    -0.2790 O.2   1 <1>  -0.5700 
 16 C        3.1050    -6.7180     2.1380 C.2   1 <1>   0.5690 
 17 O        3.8040    -7.3270     2.9140 O.2   1 <1>  -0.5700 
 18 N        3.5600    -5.6270     1.4670 N.am  1 <1>  -0.7300 
 19 C        4.9350    -5.0990     1.4890 C.3   1 <1>   0.1400 
 20 C        5.3670    -4.7910     0.0570 C.3   1 <1>  -0.1600 
 21 C        6.8050    -4.2830     0.0230 C.3   1 <1>   0.1200 
 22 O        7.1100    -3.9700    -1.2940 O.3   1 <1>  -0.5600 
 23 C        8.4070    -3.5190    -1.4830 C.3   1 <1>   0.1200 
 24 C        8.5770    -3.2200    -2.9670 C.3   1 <1>  -0.2400 
 25 H        1.1080    -2.8510     0.1840 H     1 <1>   0.1500 
 26 H       -1.8970    -0.3320    -1.4570 H     1 <1>   0.1500 
 27 H       -3.0150    -2.3060    -2.4480 H     1 <1>   0.1500 
 28 H       -2.0690    -4.5370    -2.1160 H     1 <1>   0.1500 
 29 H       -0.0780    -5.7390    -2.8360 H     1 <1>   0.1500 
 30 H        0.8920    -8.0300    -2.5380 H     1 <1>   0.1500 
 31 H        1.5980    -8.2260     2.0760 H     1 <1>   0.0800 
 32 H        1.0480    -6.6870     2.6660 H     1 <1>   0.0800 
 33 H        2.8920    -5.1650     0.8400 H     1 <1>   0.3700 
 34 H        5.5950    -5.8300     1.9280 H     1 <1>   0.0800 
 35 H        4.9610    -4.2060     2.0890 H     1 <1>   0.0800 
 36 H        4.7210    -4.0390    -0.3580 H     1 <1>   0.0800 
 37 H        5.3020    -5.6880    -0.5340 H     1 <1>   0.0800 
 38 H        7.4860    -5.0440     0.3670 H     1 <1>   0.0800 
 39 H        6.9110    -3.3930     0.6210 H     1 <1>   0.0800 
 40 H        9.0930    -4.2880    -1.1700 H     1 <1>   0.0800 
 41 H        8.5560    -2.6270    -0.8970 H     1 <1>   0.0800 
 42 H        8.4100    -4.1120    -3.5430 H     1 <1>   0.0800 
 43 H        9.5740    -2.8680    -3.1580 H     1 <1>   0.0800 
 44 H        7.8790    -2.4610    -3.2720 H     1 <1>   0.0800 
@<TRIPOS>BOND
  1   1   2  1   
  2   2   3  ar  
  3   2   4  ar  
  4   3   5  ar  
  5   3  25  1   
  6   4   6  ar  
  7   4  26  1   
  8   5   7  1   
  9   5   8  ar  
 10   6   8  ar  
 11   6  27  1   
 12   7   9  2   
 13   7  10  1   
 14   8  28  1   
 15   9  11  1   
 16  10  12  2   
 17  10  29  1   
 18  11  13  am  
 19  11  14  1   
 20  12  13  1   
 21  12  30  1   
 22  13  15  2   
 23  14  16  1   
 24  14  31  1   
 25  14  32  1   
 26  16  17  2   
 27  16  18  am  
 28  18  19  1   
 29  18  33  1   
 30  19  20  1   
 31  19  34  1   
 32  19  35  1   
 33  20  21  1   
 34  20  36  1   
 35  20  37  1   
 36  21  22  1   
 37  21  38  1   
 38  21  39  1   
 39  22  23  1   
 40  23  24  1   
 41  23  40  1   
 42  23  41  1   
 43  24  42  1   
 44  24  43  1   
 45  24  44  1   
@<TRIPOS>SUBSTRUCTURE
  1 ****   9 GROUP 4 **** **** 0

# MOE 2024.06 (io_trps.svl 2023.06)
