@<TRIPOS>MOLECULE
22429
34 35 1 0 0 
SMALL
USER_CHARGES


@<TRIPOS>ATOM
  1 S        0.4570     0.2200     0.3990 S.3   1 <1>  -0.0800 
  2 C        0.8200     1.8870    -0.0720 C.2   1 <1>   0.4420 
  3 C       -1.2450     0.5300     0.1540 C.ar  1 <1>   0.0400 
  4 N       -0.2100     2.5820    -0.3740 N.2   1 <1>  -0.5650 
  5 N        2.1070     2.3560    -0.1000 N.am  1 <1>  -0.4940 
  6 C       -1.3800     1.8420    -0.2540 C.ar  1 <1>   0.2270 
  7 C       -2.3100    -0.3350     0.3210 C.ar  1 <1>  -0.1500 
  8 C        3.3020     1.7810     0.1800 C.2   1 <1>   0.7800 
  9 C       -2.6600     2.3140    -0.5100 C.ar  1 <1>  -0.1500 
 10 C       -3.5830     0.1490     0.0620 C.ar  1 <1>  -0.1440 
 11 O        3.4510     0.6330     0.5390 O.2   1 <1>  -0.5700 
 12 O        4.3540     2.5800     0.0330 O.3   1 <1>  -0.4300 
 13 C       -3.7490     1.4700    -0.3520 C.ar  1 <1>  -0.1500 
 14 C       -4.7990    -0.7440     0.2240 C.3   1 <1>  -0.0970 
 15 C        5.6610     2.1110     0.2900 C.3   1 <1>   0.1200 
 16 C        6.6410     3.2580     0.0330 C.3   1 <1>  -0.1600 
 17 C        8.0920     2.8890     0.3810 C.3   1 <1>  -0.1600 
 18 C        8.6530     1.7740    -0.5100 C.3   1 <1>  -0.2400 
 19 H        2.1830     3.3250    -0.3860 H     1 <1>   0.3700 
 20 H       -2.1390    -1.3470     0.6420 H     1 <1>   0.1500 
 21 H       -2.7860     3.3320    -0.8290 H     1 <1>   0.1500 
 22 H       -4.7380     1.8440    -0.5530 H     1 <1>   0.1500 
 23 H       -4.5130    -1.7300     0.5450 H     1 <1>   0.0800 
 24 H       -5.3200    -0.8270    -0.7130 H     1 <1>   0.0800 
 25 H       -5.4660    -0.3250     0.9570 H     1 <1>   0.0800 
 26 H        5.8540     1.2780    -0.3640 H     1 <1>   0.0800 
 27 H        5.7090     1.7850     1.3150 H     1 <1>   0.0800 
 28 H        6.3510     4.1000     0.6370 H     1 <1>   0.0800 
 29 H        6.5850     3.5490    -1.0010 H     1 <1>   0.0800 
 30 H        8.1520     2.5880     1.4140 H     1 <1>   0.0800 
 31 H        8.7070     3.7650     0.2630 H     1 <1>   0.0800 
 32 H        8.1280     0.8490    -0.3500 H     1 <1>   0.0800 
 33 H        9.6910     1.6130    -0.2810 H     1 <1>   0.0800 
 34 H        8.5730     2.0450    -1.5480 H     1 <1>   0.0800 
@<TRIPOS>BOND
  1   1   2  1   
  2   1   3  1   
  3   2   4  2   
  4   2   5  1   
  5   3   6  ar  
  6   3   7  ar  
  7   4   6  1   
  8   5   8  am  
  9   5  19  1   
 10   6   9  ar  
 11   7  10  ar  
 12   7  20  1   
 13   8  11  2   
 14   8  12  1   
 15   9  13  ar  
 16   9  21  1   
 17  10  13  ar  
 18  10  14  1   
 19  12  15  1   
 20  13  22  1   
 21  14  23  1   
 22  14  24  1   
 23  14  25  1   
 24  15  16  1   
 25  15  26  1   
 26  15  27  1   
 27  16  17  1   
 28  16  28  1   
 29  16  29  1   
 30  17  18  1   
 31  17  30  1   
 32  17  31  1   
 33  18  32  1   
 34  18  33  1   
 35  18  34  1   
@<TRIPOS>SUBSTRUCTURE
  1 ****   2 GROUP 4 **** **** 0

# MOE 2024.06 (io_trps.svl 2023.06)
