@<TRIPOS>MOLECULE
NONAME
43 45 1 0 0 
SMALL
USER_CHARGES


@<TRIPOS>ATOM
  1 CL       1.0250     3.4180    -2.9960 Cl    1 <1>  -0.1770 
  2 C        1.0760     2.8560    -1.3420 C.ar  1 <1>   0.1770 
  3 C        1.9210     1.8170    -0.9720 C.ar  1 <1>  -0.1440 
  4 C        0.2480     3.4740    -0.4230 C.ar  1 <1>  -0.1500 
  5 C        1.9210     1.4060     0.3540 C.ar  1 <1>  -0.1500 
  6 C        2.8370     1.1320    -1.9790 C.3   1 <1>   0.2390 
  7 C        0.2570     3.0530     0.8950 C.ar  1 <1>  -0.1500 
  8 C        1.0940     2.0200     1.2800 C.ar  1 <1>  -0.1500 
  9 N        4.2110     1.6570    -1.8820 N.pl3 1 <1>   0.3140 
 10 N        4.6970     2.6470    -2.6590 N.2   1 <1>  -0.4180 
 11 C        5.1830     1.1950    -1.0760 C.ar  1 <1>   0.1050 
 12 N        5.9310     2.8330    -2.3610 N.2   1 <1>  -0.2270 
 13 N        5.1860     0.2140    -0.1580 N.ar  1 <1>  -0.5670 
 14 C        6.2670     1.9500    -1.3830 C.ar  1 <1>   0.2270 
 15 C        6.3430     0.0520     0.4390 C.ar  1 <1>   0.4770 
 16 C        7.4500     1.6790    -0.6770 C.ar  1 <1>   0.4100 
 17 N        7.4810     0.7300     0.2350 N.ar  1 <1>  -0.6200 
 18 C        6.4290    -1.0280     1.4910 C.3   1 <1>  -0.0970 
 19 N        8.6040     2.3890    -0.9120 N.pl3 1 <1>  -0.8690 
 20 C        9.8690     2.2100    -0.1760 C.3   1 <1>   0.2090 
 21 C       10.9680     3.0150    -0.8640 C.3   1 <1>  -0.1600 
 22 C       12.2980     2.8380    -0.1370 C.3   1 <1>   0.1200 
 23 O       13.2480     3.6080    -0.7950 O.3   1 <1>  -0.5600 
 24 C       14.5200     3.5350    -0.2390 C.3   1 <1>   0.0400 
 25 H       -0.3950     4.2760    -0.7400 H     1 <1>   0.1500 
 26 H        2.5670     0.6060     0.6770 H     1 <1>   0.1500 
 27 H        2.4890     1.2720    -2.9850 H     1 <1>   0.0800 
 28 H        2.8650     0.0760    -1.7830 H     1 <1>   0.0800 
 29 H       -0.3840     3.5290     1.6190 H     1 <1>   0.1500 
 30 H        1.1040     1.6930     2.3060 H     1 <1>   0.1500 
 31 H        5.4860    -1.5310     1.5980 H     1 <1>   0.0800 
 32 H        6.7020    -0.5880     2.4320 H     1 <1>   0.0800 
 33 H        7.1770    -1.7430     1.2070 H     1 <1>   0.0800 
 34 H        8.5660     3.1650    -1.5800 H     1 <1>   0.4000 
 35 H       10.1270     1.1630    -0.1630 H     1 <1>   0.0800 
 36 H        9.7370     2.5440     0.8390 H     1 <1>   0.0800 
 37 H       10.7030     4.0570    -0.8580 H     1 <1>   0.0800 
 38 H       11.0760     2.6750    -1.8780 H     1 <1>   0.0800 
 39 H       12.6110     1.8080    -0.1610 H     1 <1>   0.0800 
 40 H       12.2240     3.1790     0.8830 H     1 <1>   0.0800 
 41 H       15.1740     4.1630    -0.8190 H     1 <1>   0.0800 
 42 H       14.8680     2.5170    -0.2780 H     1 <1>   0.0800 
 43 H       14.4860     3.8880     0.7770 H     1 <1>   0.0800 
@<TRIPOS>BOND
  1   1   2  1   
  2   2   3  ar  
  3   2   4  ar  
  4   3   5  ar  
  5   3   6  1   
  6   4   7  ar  
  7   4  25  1   
  8   5   8  ar  
  9   5  26  1   
 10   6   9  1   
 11   6  27  1   
 12   6  28  1   
 13   7   8  ar  
 14   7  29  1   
 15   8  30  1   
 16   9  10  1   
 17   9  11  1   
 18  10  12  2   
 19  11  13  ar  
 20  11  14  ar  
 21  12  14  1   
 22  13  15  ar  
 23  14  16  ar  
 24  15  17  ar  
 25  15  18  1   
 26  16  17  ar  
 27  16  19  1   
 28  18  31  1   
 29  18  32  1   
 30  18  33  1   
 31  19  20  1   
 32  19  34  1   
 33  20  21  1   
 34  20  35  1   
 35  20  36  1   
 36  21  22  1   
 37  21  37  1   
 38  21  38  1   
 39  22  23  1   
 40  22  39  1   
 41  22  40  1   
 42  23  24  1   
 43  24  41  1   
 44  24  42  1   
 45  24  43  1   
@<TRIPOS>SUBSTRUCTURE
  1 ****  14 GROUP 4 **** **** 0

# MOE 2024.06 (io_trps.svl 2023.06)
