@<TRIPOS>MOLECULE
N-(4-Ethyl-phenyl)-propionamide
28 28 1 0 0 
SMALL
USER_CHARGES


@<TRIPOS>ATOM
  1 O       -0.1870    -0.3310    -1.3930 O.2   1 <1>  -0.5700 
  2 C       -0.0490    -1.3610    -0.7810 C.2   1 <1>   0.5690 
  3 N        1.1160    -1.7570    -0.1860 N.am  1 <1>  -0.5470 
  4 C       -1.2450    -2.2890    -0.6530 C.3   1 <1>  -0.0990 
  5 C        2.3860    -1.1610    -0.1280 C.ar  1 <1>   0.1170 
  6 C       -1.7970    -2.3590     0.7810 C.3   1 <1>  -0.2400 
  7 C        3.2910    -1.6210     0.8220 C.ar  1 <1>  -0.1500 
  8 C        2.7950    -0.1420    -0.9820 C.ar  1 <1>  -0.1500 
  9 C        4.5600    -1.0800     0.9210 C.ar  1 <1>  -0.1500 
 10 C        4.0640     0.4010    -0.8850 C.ar  1 <1>  -0.1500 
 11 C        4.9570    -0.0640     0.0660 C.ar  1 <1>  -0.1440 
 12 C        6.3500     0.5340     0.1720 C.3   1 <1>  -0.0170 
 13 C        6.3550     1.7130     1.1470 C.3   1 <1>  -0.2400 
 14 H        1.0380    -2.6200     0.3440 H     1 <1>   0.3700 
 15 H       -0.9620    -3.2700    -0.9850 H     1 <1>   0.0800 
 16 H       -2.0200    -1.9350    -1.3100 H     1 <1>   0.0800 
 17 H       -1.0580    -2.7470     1.4590 H     1 <1>   0.0800 
 18 H       -2.6620    -2.9980     0.8120 H     1 <1>   0.0800 
 19 H       -2.0860    -1.3760     1.1110 H     1 <1>   0.0800 
 20 H        3.0030    -2.4060     1.4960 H     1 <1>   0.1500 
 21 H        2.1260     0.2350    -1.7330 H     1 <1>   0.1500 
 22 H        5.2410    -1.4500     1.6670 H     1 <1>   0.1500 
 23 H        4.3520     1.1910    -1.5560 H     1 <1>   0.1500 
 24 H        6.6770     0.8660    -0.7980 H     1 <1>   0.0800 
 25 H        7.0430    -0.2170     0.5090 H     1 <1>   0.0800 
 26 H        5.6760     2.4760     0.8080 H     1 <1>   0.0800 
 27 H        7.3420     2.1330     1.2170 H     1 <1>   0.0800 
 28 H        6.0460     1.3870     2.1240 H     1 <1>   0.0800 
@<TRIPOS>BOND
  1   1   2  2   
  2   2   3  am  
  3   2   4  1   
  4   3   5  1   
  5   3  14  1   
  6   4   6  1   
  7   4  15  1   
  8   4  16  1   
  9   5   7  ar  
 10   5   8  ar  
 11   6  17  1   
 12   6  18  1   
 13   6  19  1   
 14   7   9  ar  
 15   7  20  1   
 16   8  10  ar  
 17   8  21  1   
 18   9  11  ar  
 19   9  22  1   
 20  10  11  ar  
 21  10  23  1   
 22  11  12  1   
 23  12  13  1   
 24  12  24  1   
 25  12  25  1   
 26  13  26  1   
 27  13  27  1   
 28  13  28  1   
@<TRIPOS>SUBSTRUCTURE
  1 ****   5 GROUP 4 **** **** 0

# MOE 2024.06 (io_trps.svl 2023.06)
