@<TRIPOS>MOLECULE
4-(4-Methoxy-benzoylamino)-piperidine-1-carboxylic acid m-tolylamide
52 54 1 0 0 
SMALL
USER_CHARGES


@<TRIPOS>ATOM
  1 O        0.3080    -0.0580     0.1080 O.2   1 <1>  -0.5700 
  2 C        0.8380     0.9910    -0.2040 C.2   1 <1>   0.6900 
  3 N        2.1030     0.9940    -0.7410 N.am  1 <1>  -0.6600 
  4 N        0.2100     2.1870     0.0020 N.am  1 <1>  -0.5470 
  5 C        2.6730     2.1060    -1.5510 C.3   1 <1>   0.1400 
  6 C        2.9570    -0.2250    -0.6930 C.3   1 <1>   0.1400 
  7 C       -1.0970     2.5000     0.4020 C.ar  1 <1>   0.1170 
  8 C        4.0310     2.5030    -0.9700 C.3   1 <1>  -0.1600 
  9 C        4.3290     0.1420    -0.1210 C.3   1 <1>  -0.1600 
 10 C       -1.3420     3.7450     0.9700 C.ar  1 <1>  -0.1500 
 11 C       -2.1670     1.6280     0.2360 C.ar  1 <1>  -0.1500 
 12 C        4.9600     1.2890    -0.9120 C.3   1 <1>   0.2200 
 13 C       -2.6150     4.1170     1.3690 C.ar  1 <1>  -0.1430 
 14 C       -3.4420     1.9890     0.6300 C.ar  1 <1>  -0.1500 
 15 N        6.2230     1.6820    -0.2670 N.am  1 <1>  -0.7300 
 16 C       -3.6670     3.2320     1.1950 C.ar  1 <1>  -0.1500 
 17 C       -2.8700     5.4780     1.9900 C.3   1 <1>  -0.0970 
 18 C        7.3540     2.0690    -0.9310 C.2   1 <1>   0.5440 
 19 O        7.3130     2.1400    -2.1440 O.2   1 <1>  -0.5700 
 20 C        8.5640     2.4100    -0.2040 C.ar  1 <1>   0.0860 
 21 C        8.8400     1.8900     1.0630 C.ar  1 <1>  -0.1500 
 22 C        9.5070     3.2820    -0.7520 C.ar  1 <1>  -0.1500 
 23 C        9.9890     2.2360     1.7500 C.ar  1 <1>  -0.1500 
 24 C       10.6590     3.6330    -0.0720 C.ar  1 <1>  -0.1500 
 25 C       10.9070     3.1100     1.1930 C.ar  1 <1>   0.0830 
 26 O       12.0030     3.4000     1.9290 O.3   1 <1>  -0.3630 
 27 C       13.0080     4.2670     1.4520 C.3   1 <1>   0.0400 
 28 H        0.8480     2.9700    -0.0440 H     1 <1>   0.3700 
 29 H        2.0170     2.9580    -1.5710 H     1 <1>   0.0800 
 30 H        2.7990     1.7670    -2.5660 H     1 <1>   0.0800 
 31 H        3.0610    -0.6210    -1.6890 H     1 <1>   0.0800 
 32 H        2.5050    -0.9840    -0.0770 H     1 <1>   0.0800 
 33 H        3.8880     2.9120     0.0140 H     1 <1>   0.0800 
 34 H        4.4740     3.2580    -1.5950 H     1 <1>   0.0800 
 35 H        4.9690    -0.7210    -0.1680 H     1 <1>   0.0800 
 36 H        4.2040     0.4220     0.9090 H     1 <1>   0.0800 
 37 H       -0.5250     4.4290     1.1040 H     1 <1>   0.1500 
 38 H       -2.0070     0.6610    -0.2060 H     1 <1>   0.1500 
 39 H        5.1610     0.9520    -1.9160 H     1 <1>   0.0800 
 40 H       -4.2580     1.3010     0.4970 H     1 <1>   0.1500 
 41 H        6.1900     1.7620     0.7480 H     1 <1>   0.3700 
 42 H       -4.6620     3.5060     1.4990 H     1 <1>   0.1500 
 43 H       -1.9490     5.9390     2.2970 H     1 <1>   0.0800 
 44 H       -3.5030     5.3770     2.8530 H     1 <1>   0.0800 
 45 H       -3.3560     6.1180     1.2750 H     1 <1>   0.0800 
 46 H        8.1540     1.1980     1.5170 H     1 <1>   0.1500 
 47 H        9.3260     3.6900    -1.7320 H     1 <1>   0.1500 
 48 H       10.1870     1.8290     2.7260 H     1 <1>   0.1500 
 49 H       11.3500     4.3090    -0.5400 H     1 <1>   0.1500 
 50 H       13.7720     4.3380     2.2050 H     1 <1>   0.0800 
 51 H       12.5780     5.2370     1.2750 H     1 <1>   0.0800 
 52 H       13.4230     3.8570     0.5480 H     1 <1>   0.0800 
@<TRIPOS>BOND
  1   1   2  2   
  2   2   3  am  
  3   2   4  am  
  4   3   5  1   
  5   3   6  1   
  6   4   7  1   
  7   4  28  1   
  8   5   8  1   
  9   5  29  1   
 10   5  30  1   
 11   6   9  1   
 12   6  31  1   
 13   6  32  1   
 14   7  10  ar  
 15   7  11  ar  
 16   8  12  1   
 17   8  33  1   
 18   8  34  1   
 19   9  12  1   
 20   9  35  1   
 21   9  36  1   
 22  10  13  ar  
 23  10  37  1   
 24  11  14  ar  
 25  11  38  1   
 26  12  15  1   
 27  12  39  1   
 28  13  16  ar  
 29  13  17  1   
 30  14  16  ar  
 31  14  40  1   
 32  15  18  am  
 33  15  41  1   
 34  16  42  1   
 35  17  43  1   
 36  17  44  1   
 37  17  45  1   
 38  18  19  2   
 39  18  20  1   
 40  20  21  ar  
 41  20  22  ar  
 42  21  23  ar  
 43  21  46  1   
 44  22  24  ar  
 45  22  47  1   
 46  23  25  ar  
 47  23  48  1   
 48  24  25  ar  
 49  24  49  1   
 50  25  26  1   
 51  26  27  1   
 52  27  50  1   
 53  27  51  1   
 54  27  52  1   
@<TRIPOS>SUBSTRUCTURE
  1 ****   8 GROUP 4 **** **** 0

# MOE 2024.06 (io_trps.svl 2023.06)
