@<TRIPOS>MOLECULE
NONAME
41 43 1 0 0 
SMALL
USER_CHARGES


@<TRIPOS>ATOM
  1 S        0.5230    -1.5990     1.0500 S.3   1 <1>  -0.0800 
  2 C       -0.8980    -0.8810     0.2780 C.2   1 <1>   0.4420 
  3 C        1.5440    -0.4540     0.2130 C.ar  1 <1>   0.0400 
  4 N       -0.6340     0.0930    -0.5060 N.2   1 <1>  -0.5650 
  5 N       -2.1640    -1.3530     0.5230 N.am  1 <1>  -0.4940 
  6 C        0.7300     0.3520    -0.5600 C.ar  1 <1>   0.2270 
  7 C        2.9190    -0.3250     0.2700 C.ar  1 <1>  -0.1500 
  8 C       -2.6430    -2.3680     1.3050 C.2   1 <1>   0.5690 
  9 C        1.3300     1.3460    -1.3210 C.ar  1 <1>  -0.1500 
 10 C        3.5000     0.6720    -0.4960 C.ar  1 <1>  -0.1500 
 11 O       -1.9370    -3.0940     1.9570 O.2   1 <1>  -0.5700 
 12 C       -4.1470    -2.5990     1.3670 C.3   1 <1>   0.1310 
 13 C        2.7080     1.5020    -1.2870 C.ar  1 <1>  -0.1500 
 14 S       -5.0610    -1.5890     0.0970 S.3   1 <1>  -0.2860 
 15 C       -6.7770    -2.0030     0.4280 C.2   1 <1>   0.2430 
 16 N       -7.1450    -2.7870     1.3770 N.2   1 <1>  -0.3380 
 17 N       -7.7900    -1.5170    -0.2870 N.pl3 1 <1>   0.0480 
 18 N       -8.4790    -2.8380     1.3050 N.2   1 <1>  -0.3380 
 19 C       -8.8430    -2.0850     0.3210 C.2   1 <1>   0.0060 
 20 C       -7.7510    -0.5820    -1.4290 C.3   1 <1>   0.0960 
 21 C      -10.2880    -1.8730    -0.0890 C.3   1 <1>  -0.0600 
 22 C       -7.6990     0.8560    -0.9210 C.3   1 <1>   0.1200 
 23 O       -7.7460     1.6950    -2.0280 O.3   1 <1>  -0.5600 
 24 C       -7.6810     3.0500    -1.7160 C.3   1 <1>   0.0400 
 25 H       -2.8730    -0.8410     0.0020 H     1 <1>   0.3700 
 26 H        3.5070    -0.9800     0.8890 H     1 <1>   0.1500 
 27 H        0.7130     1.9820    -1.9280 H     1 <1>   0.1500 
 28 H        4.5680     0.8080    -0.4820 H     1 <1>   0.1500 
 29 H       -4.5270    -2.3190     2.3320 H     1 <1>   0.0800 
 30 H       -4.3750    -3.6320     1.1760 H     1 <1>   0.0800 
 31 H        3.1720     2.2730    -1.8770 H     1 <1>   0.1500 
 32 H       -8.6290    -0.7240    -2.0310 H     1 <1>   0.0800 
 33 H       -6.8810    -0.7900    -2.0250 H     1 <1>   0.0800 
 34 H      -10.4470    -2.2390    -1.0870 H     1 <1>   0.0800 
 35 H      -10.5380    -0.8290    -0.0470 H     1 <1>   0.0800 
 36 H      -10.9380    -2.4090     0.5790 H     1 <1>   0.0800 
 37 H       -6.7810     1.0380    -0.3890 H     1 <1>   0.0800 
 38 H       -8.5480     1.0710    -0.2940 H     1 <1>   0.0800 
 39 H       -7.7270     3.6080    -2.6350 H     1 <1>   0.0800 
 40 H       -6.7510     3.2570    -1.2140 H     1 <1>   0.0800 
 41 H       -8.5170     3.3140    -1.0910 H     1 <1>   0.0800 
@<TRIPOS>BOND
  1   1   2  1   
  2   1   3  1   
  3   2   4  2   
  4   2   5  1   
  5   3   6  ar  
  6   3   7  ar  
  7   4   6  1   
  8   5   8  am  
  9   5  25  1   
 10   6   9  ar  
 11   7  10  ar  
 12   7  26  1   
 13   8  11  2   
 14   8  12  1   
 15   9  13  ar  
 16   9  27  1   
 17  10  13  ar  
 18  10  28  1   
 19  12  14  1   
 20  12  29  1   
 21  12  30  1   
 22  13  31  1   
 23  14  15  1   
 24  15  16  2   
 25  15  17  1   
 26  16  18  1   
 27  17  19  1   
 28  17  20  1   
 29  18  19  2   
 30  19  21  1   
 31  20  22  1   
 32  20  32  1   
 33  20  33  1   
 34  21  34  1   
 35  21  35  1   
 36  21  36  1   
 37  22  23  1   
 38  22  37  1   
 39  22  38  1   
 40  23  24  1   
 41  24  39  1   
 42  24  40  1   
 43  24  41  1   
@<TRIPOS>SUBSTRUCTURE
  1 ****   5 GROUP 4 **** **** 0

# MOE 2024.06 (io_trps.svl 2023.06)
