@<TRIPOS>MOLECULE
2-{2-[(2-Chloro-benzoyl)-cyclopentyl-amino]-acetylamino}-4,5-dimethyl-thiophene-3-carboxylic acid amide
53 55 1 0 0 
SMALL
USER_CHARGES


@<TRIPOS>ATOM
  1 CL      -1.8590     0.6520    -0.7820 Cl    1 <1>  -0.1770 
  2 C       -3.0620     1.7060    -0.0800 C.ar  1 <1>   0.1770 
  3 C       -4.2160     1.1680     0.4860 C.ar  1 <1>   0.0860 
  4 C       -2.8310     3.0690    -0.1200 C.ar  1 <1>  -0.1500 
  5 C       -4.4650    -0.2560     0.5030 C.2   1 <1>   0.5440 
  6 C       -5.1360     2.0630     1.0320 C.ar  1 <1>  -0.1500 
  7 C       -3.7670     3.9360     0.4170 C.ar  1 <1>  -0.1500 
  8 O       -4.4110    -0.8400     1.5650 O.2   1 <1>  -0.5700 
  9 N       -4.8310    -0.9440    -0.6440 N.am  1 <1>  -0.6600 
 10 C       -4.9190     3.4290     0.9930 C.ar  1 <1>  -0.1500 
 11 C       -4.9110    -2.4360    -0.7460 C.3   1 <1>   0.2200 
 12 C       -5.2180    -0.2000    -1.8990 C.3   1 <1>   0.2010 
 13 C       -5.9420    -3.0570     0.2090 C.3   1 <1>  -0.1600 
 14 C       -3.5680    -3.1120    -0.4510 C.3   1 <1>  -0.1600 
 15 C       -6.5900     0.4680    -1.8020 C.2   1 <1>   0.5690 
 16 C       -5.1690    -4.0480     1.0830 C.3   1 <1>  -0.1600 
 17 C       -3.9270    -4.4070     0.2740 C.3   1 <1>  -0.1600 
 18 O       -6.9410     1.2080    -2.6890 O.2   1 <1>  -0.5700 
 19 N       -7.3690     0.1770    -0.7150 N.am  1 <1>  -0.4940 
 20 C       -8.5680     0.6960    -0.2610 C.2   1 <1>   0.1040 
 21 S       -9.6990    -0.5110     0.3120 S.3   1 <1>  -0.0800 
 22 C       -9.0810     1.9550    -0.0970 C.2   1 <1>  -0.0860 
 23 C      -10.8940     0.7020     0.7260 C.2   1 <1>  -0.1400 
 24 C      -10.4210     1.9330     0.4510 C.2   1 <1>  -0.1810 
 25 C       -8.3950     3.1930    -0.3550 C.2   1 <1>   0.7160 
 26 C      -12.1940     0.1690     1.2980 C.3   1 <1>  -0.0600 
 27 C      -11.1830     3.2320     0.6750 C.3   1 <1>  -0.0590 
 28 O       -8.1870     4.0100     0.5200 O.2   1 <1>  -0.5700 
 29 N       -7.9520     3.5180    -1.5830 N.am  1 <1>  -0.8000 
 30 H       -1.9290     3.4460    -0.5670 H     1 <1>   0.1500 
 31 H       -6.0320     1.6830     1.4920 H     1 <1>   0.1500 
 32 H       -3.6010     5.0000     0.3910 H     1 <1>   0.1500 
 33 H       -5.6520     4.0990     1.4150 H     1 <1>   0.1500 
 34 H       -5.1970    -2.7170    -1.7450 H     1 <1>   0.0800 
 35 H       -5.2270    -0.8660    -2.7420 H     1 <1>   0.0800 
 36 H       -4.4870     0.5580    -2.1120 H     1 <1>   0.0800 
 37 H       -6.6740    -3.5940    -0.3670 H     1 <1>   0.0800 
 38 H       -6.4440    -2.3280     0.8200 H     1 <1>   0.0800 
 39 H       -2.9690    -2.5060     0.2050 H     1 <1>   0.0800 
 40 H       -3.0160    -3.3070    -1.3530 H     1 <1>   0.0800 
 41 H       -5.7550    -4.9140     1.3370 H     1 <1>   0.0800 
 42 H       -4.8650    -3.5510     1.9900 H     1 <1>   0.0800 
 43 H       -3.1240    -4.7520     0.9020 H     1 <1>   0.0800 
 44 H       -4.1720    -5.1710    -0.4440 H     1 <1>   0.0800 
 45 H       -7.0070    -0.6140    -0.1730 H     1 <1>   0.3700 
 46 H      -12.6690    -0.4740     0.5790 H     1 <1>   0.0800 
 47 H      -12.8670     0.9670     1.5430 H     1 <1>   0.0800 
 48 H      -11.9920    -0.3960     2.1900 H     1 <1>   0.0800 
 49 H      -11.2180     3.8010    -0.2370 H     1 <1>   0.0800 
 50 H      -10.6930     3.8200     1.4310 H     1 <1>   0.0800 
 51 H      -12.1910     3.0460     0.9940 H     1 <1>   0.0800 
 52 H       -7.3840     4.3540    -1.6900 H     1 <1>   0.3700 
 53 H       -7.7980     2.7760    -2.2780 H     1 <1>   0.3700 
@<TRIPOS>BOND
  1   1   2  1   
  2   2   3  ar  
  3   2   4  ar  
  4   3   5  1   
  5   3   6  ar  
  6   4   7  ar  
  7   4  30  1   
  8   5   8  2   
  9   5   9  am  
 10   6  10  ar  
 11   6  31  1   
 12   7  10  ar  
 13   7  32  1   
 14   9  11  1   
 15   9  12  1   
 16  10  33  1   
 17  11  13  1   
 18  11  14  1   
 19  11  34  1   
 20  12  15  1   
 21  12  35  1   
 22  12  36  1   
 23  13  16  1   
 24  13  37  1   
 25  13  38  1   
 26  14  17  1   
 27  14  39  1   
 28  14  40  1   
 29  15  18  2   
 30  15  19  am  
 31  16  17  1   
 32  16  41  1   
 33  16  42  1   
 34  17  43  1   
 35  17  44  1   
 36  19  20  1   
 37  19  45  1   
 38  20  21  1   
 39  20  22  2   
 40  21  23  1   
 41  22  24  1   
 42  22  25  1   
 43  23  24  2   
 44  23  26  1   
 45  24  27  1   
 46  25  28  2   
 47  25  29  am  
 48  26  46  1   
 49  26  47  1   
 50  26  48  1   
 51  27  49  1   
 52  27  50  1   
 53  27  51  1   
 54  29  52  1   
 55  29  53  1   
@<TRIPOS>SUBSTRUCTURE
  1 ****  19 GROUP 4 **** **** 0

# MOE 2024.06 (io_trps.svl 2023.06)
