@<TRIPOS>MOLECULE
NONAME
50 53 1 0 0 
SMALL
USER_CHARGES


@<TRIPOS>ATOM
  1 F       -2.9200    -0.9380    -3.3600 F     1 <1>  -0.3400 
  2 C       -1.8540    -1.1830    -2.6040 C.3   1 <1>   1.1640 
  3 F       -1.3010    -2.2870    -3.0900 F     1 <1>  -0.3400 
  4 F       -0.9960    -0.1990    -2.8470 F     1 <1>  -0.3400 
  5 C       -2.1900    -1.3160    -1.1120 C.ar  1 <1>  -0.1440 
  6 C       -3.4910    -1.5490    -0.6820 C.ar  1 <1>  -0.1500 
  7 C       -1.1820    -1.2120    -0.1570 C.ar  1 <1>  -0.1500 
  8 C       -3.7960    -1.6720     0.6680 C.ar  1 <1>   0.1000 
  9 C       -1.4740    -1.3340     1.1910 C.ar  1 <1>  -0.1500 
 10 N       -5.0940    -1.9020     1.1020 N.pl3 1 <1>  -0.8380 
 11 C       -2.7740    -1.5620     1.5980 C.ar  1 <1>  -0.1500 
 12 C       -5.6890    -3.2270     0.7600 C.3   1 <1>   0.2090 
 13 C       -6.0630    -0.7830     0.9270 C.3   1 <1>   0.2090 
 14 C       -7.0160    -3.4510     1.5110 C.3   1 <1>   0.1100 
 15 C       -7.3750    -1.0660     1.6830 C.3   1 <1>   0.1100 
 16 N       -7.9870    -2.3520     1.2770 N.3   1 <1>  -0.8100 
 17 C       -9.2350    -2.5850     2.0320 C.3   1 <1>   0.2900 
 18 C       -9.9870    -3.7850     1.4860 C.2   1 <1>   0.0070 
 19 N      -10.3320    -4.8150     2.1610 N.2   1 <1>  -0.3380 
 20 N      -10.3770    -3.9200     0.2300 N.pl3 1 <1>   0.3140 
 21 N      -10.9550    -5.6120     1.3010 N.2   1 <1>   0.0000 
 22 N      -10.9870    -5.0830     0.1310 N.2   1 <1>  -0.4180 
 23 C      -10.1950    -3.0100    -0.9200 C.3   1 <1>   0.2390 
 24 C      -10.8480    -1.6550    -0.6700 C.ar  1 <1>  -0.1430 
 25 C      -12.1990    -1.5700    -0.3640 C.ar  1 <1>  -0.1500 
 26 C      -10.0920    -0.4940    -0.7420 C.ar  1 <1>  -0.1500 
 27 C      -12.7850    -0.3390    -0.1280 C.ar  1 <1>  -0.1500 
 28 C      -10.6790     0.7370    -0.5080 C.ar  1 <1>  -0.1500 
 29 C      -12.0250     0.8150    -0.2000 C.ar  1 <1>  -0.1500 
 30 H       -4.2960    -1.6390    -1.3890 H     1 <1>   0.1500 
 31 H       -0.1620    -1.0350    -0.4570 H     1 <1>   0.1500 
 32 H       -0.6890    -1.2510     1.9230 H     1 <1>   0.1500 
 33 H       -3.0130    -1.6590     2.6410 H     1 <1>   0.1500 
 34 H       -4.9940    -4.0050     1.0220 H     1 <1>   0.0800 
 35 H       -5.8690    -3.2810    -0.2990 H     1 <1>   0.0800 
 36 H       -6.2770    -0.6500    -0.1190 H     1 <1>   0.0800 
 37 H       -5.6240     0.1260     1.2990 H     1 <1>   0.0800 
 38 H       -6.8020    -3.5340     2.5630 H     1 <1>   0.0800 
 39 H       -7.4370    -4.3870     1.1860 H     1 <1>   0.0800 
 40 H       -8.0650    -0.2630     1.4900 H     1 <1>   0.0800 
 41 H       -7.1630    -1.0780     2.7390 H     1 <1>   0.0800 
 42 H       -9.8710    -1.7200     1.9560 H     1 <1>   0.0800 
 43 H       -9.0110    -2.7440     3.0740 H     1 <1>   0.0800 
 44 H      -10.6340    -3.4650    -1.7880 H     1 <1>   0.0800 
 45 H       -9.1420    -2.8960    -1.0930 H     1 <1>   0.0800 
 46 H      -12.8020    -2.4610    -0.3040 H     1 <1>   0.1500 
 47 H       -9.0430    -0.5440    -0.9780 H     1 <1>   0.1500 
 48 H      -13.8330    -0.2790     0.1100 H     1 <1>   0.1500 
 49 H      -10.0890     1.6360    -0.5660 H     1 <1>   0.1500 
 50 H      -12.4820     1.7720    -0.0180 H     1 <1>   0.1500 
@<TRIPOS>BOND
  1   1   2  1   
  2   2   3  1   
  3   2   4  1   
  4   2   5  1   
  5   5   6  ar  
  6   5   7  ar  
  7   6   8  ar  
  8   6  30  1   
  9   7   9  ar  
 10   7  31  1   
 11   8  10  1   
 12   8  11  ar  
 13   9  11  ar  
 14   9  32  1   
 15  10  12  1   
 16  10  13  1   
 17  11  33  1   
 18  12  14  1   
 19  12  34  1   
 20  12  35  1   
 21  13  15  1   
 22  13  36  1   
 23  13  37  1   
 24  14  16  1   
 25  14  38  1   
 26  14  39  1   
 27  15  16  1   
 28  15  40  1   
 29  15  41  1   
 30  16  17  1   
 31  17  18  1   
 32  17  42  1   
 33  17  43  1   
 34  18  19  2   
 35  18  20  1   
 36  19  21  1   
 37  20  22  1   
 38  20  23  1   
 39  21  22  2   
 40  23  24  1   
 41  23  44  1   
 42  23  45  1   
 43  24  25  ar  
 44  24  26  ar  
 45  25  27  ar  
 46  25  46  1   
 47  26  28  ar  
 48  26  47  1   
 49  27  29  ar  
 50  27  48  1   
 51  28  29  ar  
 52  28  49  1   
 53  29  50  1   
@<TRIPOS>SUBSTRUCTURE
  1 ****  16 GROUP 4 **** **** 0

# MOE 2024.06 (io_trps.svl 2023.06)
