@<TRIPOS>MOLECULE
NONAME
23 23 1 0 0 
SMALL
USER_CHARGES


@<TRIPOS>ATOM
  1 O       -0.5060    -1.8050     1.2370 O.2   1 <1>  -0.5700 
  2 C       -0.9620    -2.6560     0.5100 C.2   1 <1>   0.7800 
  3 O       -0.2920    -3.7450     0.1720 O.3   1 <1>  -0.4300 
  4 N       -2.1960    -2.6520    -0.0070 N.am  1 <1>  -0.7300 
  5 C       -1.0990    -4.5970    -0.6220 C.3   1 <1>   0.1200 
  6 C       -2.4870    -3.9230    -0.6680 C.3   1 <1>   0.2200 
  7 C       -3.6420    -4.6980     0.0360 C.3   1 <1>   0.0000 
  8 C       -4.9440    -3.8800    -0.0480 C.3   1 <1>  -0.2400 
  9 C       -3.3500    -4.9870     1.5230 C.3   1 <1>  -0.2400 
 10 C       -3.8890    -6.0380    -0.6810 C.3   1 <1>  -0.2400 
 11 H       -2.9200    -2.0520     0.3800 H     1 <1>   0.3700 
 12 H       -0.6650    -4.6520    -1.6040 H     1 <1>   0.0800 
 13 H       -1.1130    -5.5740    -0.1760 H     1 <1>   0.0800 
 14 H       -2.7570    -3.7370    -1.6930 H     1 <1>   0.0800 
 15 H       -5.7670    -4.4320     0.3740 H     1 <1>   0.0800 
 16 H       -5.1840    -3.6510    -1.0710 H     1 <1>   0.0800 
 17 H       -4.8570    -2.9560     0.4950 H     1 <1>   0.0800 
 18 H       -4.1730    -5.5140     1.9730 H     1 <1>   0.0800 
 19 H       -3.2050    -4.0730     2.0720 H     1 <1>   0.0800 
 20 H       -2.4680    -5.5900     1.6400 H     1 <1>   0.0800 
 21 H       -3.0370    -6.6880    -0.6040 H     1 <1>   0.0800 
 22 H       -4.1020    -5.8760    -1.7240 H     1 <1>   0.0800 
 23 H       -4.7300    -6.5490    -0.2450 H     1 <1>   0.0800 
@<TRIPOS>BOND
  1   1   2  2   
  2   2   3  1   
  3   2   4  am  
  4   3   5  1   
  5   4   6  1   
  6   4  11  1   
  7   5   6  1   
  8   5  12  1   
  9   5  13  1   
 10   6   7  1   
 11   6  14  1   
 12   7   8  1   
 13   7   9  1   
 14   7  10  1   
 15   8  15  1   
 16   8  16  1   
 17   8  17  1   
 18   9  18  1   
 19   9  19  1   
 20   9  20  1   
 21  10  21  1   
 22  10  22  1   
 23  10  23  1   
@<TRIPOS>SUBSTRUCTURE
  1 ****   6 GROUP 4 **** **** 0

# MOE 2024.06 (io_trps.svl 2023.06)
