@<TRIPOS>MOLECULE
NONAME
64 67 1 0 0 
SMALL
USER_CHARGES


@<TRIPOS>ATOM
  1 O       -1.5610    -0.6880    -0.8800 O.2   1 <1>  -0.5700 
  2 C       -2.5970    -1.0070    -0.3320 C.2   1 <1>   0.5440 
  3 N       -3.4430    -0.0070     0.0720 N.am  1 <1>  -0.7300 
  4 C       -2.9280    -2.4010    -0.0990 C.ar  1 <1>   0.0860 
  5 C       -3.1270     1.4350    -0.0290 C.3   1 <1>   0.2200 
  6 C       -1.9380    -3.3790    -0.0560 C.ar  1 <1>  -0.1500 
  7 C       -4.2440    -2.8210     0.0960 C.ar  1 <1>  -0.1500 
  8 C       -4.0820     2.1990     0.9370 C.3   1 <1>  -0.1600 
  9 C       -3.2360     1.8550    -1.5430 C.3   1 <1>  -0.1600 
 10 C       -2.2390    -4.7080     0.1750 C.ar  1 <1>   0.0820 
 11 C       -4.5750    -4.1440     0.3290 C.ar  1 <1>   0.0820 
 12 C       -5.3280     2.4340     0.1110 C.3   1 <1>   0.4230 
 13 C       -4.5880     2.4360    -2.0630 C.3   1 <1>   0.4230 
 14 O       -1.2000    -5.5780     0.2150 O.3   1 <1>  -0.3630 
 15 C       -3.5660    -5.1170     0.3440 C.ar  1 <1>   0.0820 
 16 O       -5.9060    -4.3730     0.5170 O.3   1 <1>  -0.3630 
 17 N       -5.0610     3.3390    -1.0240 N.4   1 <1>  -0.9590 
 18 C       -6.8090     2.1420     0.0490 C.3   1 <1>  -0.1600 
 19 C       -5.7850     1.4470    -2.3160 C.3   1 <1>  -0.1600 
 20 C       -0.9140    -6.1590     1.4680 C.3   1 <1>   0.0400 
 21 O       -3.8570    -6.4350     0.4930 O.3   1 <1>  -0.3630 
 22 C       -6.3580    -5.4380     1.3250 C.3   1 <1>   0.0400 
 23 C       -4.3020     4.5980    -0.8000 C.3   1 <1>   0.4860 
 24 C       -7.0840     1.6950    -1.4360 C.3   1 <1>  -0.1600 
 25 C       -3.7410    -7.2280    -0.6680 C.3   1 <1>   0.0400 
 26 C       -5.2020     5.5280    -0.0130 C.ar  1 <1>  -0.1430 
 27 C       -6.2890     6.1290    -0.6350 C.ar  1 <1>  -0.1500 
 28 C       -4.9600     5.7830     1.3300 C.ar  1 <1>  -0.1500 
 29 C       -7.1310     6.9610     0.0820 C.ar  1 <1>  -0.1500 
 30 C       -5.8030     6.6150     2.0440 C.ar  1 <1>  -0.1500 
 31 C       -6.8900     7.2020     1.4220 C.ar  1 <1>  -0.1500 
 32 H       -4.1400    -0.2690     0.7710 H     1 <1>   0.3700 
 33 H       -2.1070     1.5640     0.3010 H     1 <1>   0.0800 
 34 H       -0.9090    -3.0990    -0.2050 H     1 <1>   0.1500 
 35 H       -5.0480    -2.1110     0.0590 H     1 <1>   0.1500 
 36 H       -3.6450     3.1150     1.2810 H     1 <1>   0.0800 
 37 H       -4.3050     1.6030     1.8050 H     1 <1>   0.0800 
 38 H       -2.9420     1.0410    -2.1820 H     1 <1>   0.0800 
 39 H       -2.4920     2.6130    -1.7050 H     1 <1>   0.0800 
 40 H       -5.1970     1.4430    -0.2680 H     1 <1>   0.0800 
 41 H       -4.4060     2.9870    -2.9720 H     1 <1>   0.0800 
 42 H       -5.9940     3.6470    -1.3160 H     1 <1>   0.4500 
 43 H       -7.3910     3.0030     0.3340 H     1 <1>   0.0800 
 44 H       -7.0400     1.3380     0.7260 H     1 <1>   0.0800 
 45 H       -5.4330     0.4440    -2.1390 H     1 <1>   0.0800 
 46 H       -6.0490     1.4820    -3.3590 H     1 <1>   0.0800 
 47 H       -0.0160    -6.7420     1.3700 H     1 <1>   0.0800 
 48 H       -1.7310    -6.7920     1.7630 H     1 <1>   0.0800 
 49 H       -0.7670    -5.3750     2.1890 H     1 <1>   0.0800 
 50 H       -6.3200    -6.3490     0.7550 H     1 <1>   0.0800 
 51 H       -7.3740    -5.2340     1.6120 H     1 <1>   0.0800 
 52 H       -5.7350    -5.5100     2.1990 H     1 <1>   0.0800 
 53 H       -4.0630     5.0590    -1.7450 H     1 <1>   0.0800 
 54 H       -3.3830     4.4130    -0.2700 H     1 <1>   0.0800 
 55 H       -7.6710     2.4630    -1.9130 H     1 <1>   0.0800 
 56 H       -7.6930     0.8050    -1.4390 H     1 <1>   0.0800 
 57 H       -4.0540    -8.2270    -0.4270 H     1 <1>   0.0800 
 58 H       -2.7160    -7.2330    -0.9930 H     1 <1>   0.0800 
 59 H       -4.3740    -6.8160    -1.4340 H     1 <1>   0.0800 
 60 H       -6.4930     5.9670    -1.6800 H     1 <1>   0.1500 
 61 H       -4.1180     5.3470     1.8380 H     1 <1>   0.1500 
 62 H       -7.9740     7.4270    -0.4000 H     1 <1>   0.1500 
 63 H       -5.6160     6.8120     3.0870 H     1 <1>   0.1500 
 64 H       -7.5450     7.8500     1.9790 H     1 <1>   0.1500 
@<TRIPOS>BOND
  1   1   2  2   
  2   2   3  am  
  3   2   4  1   
  4   3   5  1   
  5   3  32  1   
  6   4   6  ar  
  7   4   7  ar  
  8   5   8  1   
  9   5   9  1   
 10   5  33  1   
 11   6  10  ar  
 12   6  34  1   
 13   7  11  ar  
 14   7  35  1   
 15   8  12  1   
 16   8  36  1   
 17   8  37  1   
 18   9  13  1   
 19   9  38  1   
 20   9  39  1   
 21  10  14  1   
 22  10  15  ar  
 23  11  15  ar  
 24  11  16  1   
 25  12  17  1   
 26  12  18  1   
 27  12  40  1   
 28  13  17  1   
 29  13  19  1   
 30  13  41  1   
 31  14  20  1   
 32  15  21  1   
 33  16  22  1   
 34  17  23  1   
 35  17  42  1   
 36  18  24  1   
 37  18  43  1   
 38  18  44  1   
 39  19  24  1   
 40  19  45  1   
 41  19  46  1   
 42  20  47  1   
 43  20  48  1   
 44  20  49  1   
 45  21  25  1   
 46  22  50  1   
 47  22  51  1   
 48  22  52  1   
 49  23  26  1   
 50  23  53  1   
 51  23  54  1   
 52  24  55  1   
 53  24  56  1   
 54  25  57  1   
 55  25  58  1   
 56  25  59  1   
 57  26  27  ar  
 58  26  28  ar  
 59  27  29  ar  
 60  27  60  1   
 61  28  30  ar  
 62  28  61  1   
 63  29  31  ar  
 64  29  62  1   
 65  30  31  ar  
 66  30  63  1   
 67  31  64  1   
@<TRIPOS>SUBSTRUCTURE
  1 ****   3 GROUP 4 **** **** 0

# MOE 2024.06 (io_trps.svl 2023.06)
