@<TRIPOS>MOLECULE
9818
46 47 1 0 0 
SMALL
USER_CHARGES


@<TRIPOS>ATOM
  1 O       -2.7620     1.0300    -3.0130 O.2   1 <1>  -0.5700 
  2 C       -2.7950     0.9680    -1.8010 C.2   1 <1>   0.5440 
  3 N       -3.3210    -0.1830    -1.2860 N.am  1 <1>  -0.5470 
  4 C       -2.3130     2.0720    -0.9900 C.ar  1 <1>   0.0860 
  5 C       -3.5780    -0.5660     0.0360 C.ar  1 <1>   0.1170 
  6 C       -2.5170     3.3850    -1.4130 C.ar  1 <1>  -0.1500 
  7 C       -1.6350     1.8910     0.2140 C.ar  1 <1>  -0.1500 
  8 C       -2.7950    -1.5710     0.6150 C.ar  1 <1>  -0.1440 
  9 C       -4.6080     0.0210     0.7810 C.ar  1 <1>  -0.1430 
 10 C       -2.0900     4.4860    -0.6760 C.ar  1 <1>   0.0830 
 11 C       -1.2090     2.9680     0.9650 C.ar  1 <1>  -0.1500 
 12 C       -3.0370    -1.9680     1.9190 C.ar  1 <1>  -0.1500 
 13 C       -1.6610    -2.2570    -0.1450 C.3   1 <1>  -0.0170 
 14 C       -4.8300    -0.3970     2.0830 C.ar  1 <1>  -0.1500 
 15 C       -5.5410     1.0980     0.2200 C.3   1 <1>  -0.0170 
 16 O       -2.3050     5.7550    -1.1320 O.3   1 <1>  -0.3620 
 17 C       -1.4300     4.2700     0.5480 C.ar  1 <1>   0.0830 
 18 C       -4.0490    -1.3830     2.6540 C.ar  1 <1>  -0.1500 
 19 C       -2.1890    -3.4470    -0.9500 C.3   1 <1>  -0.2400 
 20 C       -5.3460     2.4450     0.9260 C.3   1 <1>  -0.2400 
 21 C       -2.7430     6.0200    -2.4480 C.3   1 <1>   0.0400 
 22 O       -0.9590     5.2160     1.4060 O.3   1 <1>  -0.3630 
 23 C       -1.1790     6.6000     1.2530 C.3   1 <1>   0.0400 
 24 H       -3.5110    -0.8830    -2.0020 H     1 <1>   0.3700 
 25 H       -3.0310     3.5130    -2.3470 H     1 <1>   0.1500 
 26 H       -1.4380     0.8980     0.5730 H     1 <1>   0.1500 
 27 H       -0.6960     2.8040     1.8960 H     1 <1>   0.1500 
 28 H       -2.4400    -2.7400     2.3720 H     1 <1>   0.1500 
 29 H       -0.9190    -2.6050     0.5520 H     1 <1>   0.0800 
 30 H       -1.1690    -1.5610    -0.8020 H     1 <1>   0.0800 
 31 H       -5.6200     0.0440     2.6650 H     1 <1>   0.1500 
 32 H       -6.5580     0.7750     0.3560 H     1 <1>   0.0800 
 33 H       -5.3980     1.2300    -0.8360 H     1 <1>   0.0800 
 34 H       -4.2320    -1.6970     3.6670 H     1 <1>   0.1500 
 35 H       -2.6550    -4.1610    -0.2940 H     1 <1>   0.0800 
 36 H       -1.3800    -3.9310    -1.4690 H     1 <1>   0.0800 
 37 H       -2.9150    -3.1190    -1.6720 H     1 <1>   0.0800 
 38 H       -5.6010     2.3680     1.9670 H     1 <1>   0.0800 
 39 H       -5.9750     3.1910     0.4740 H     1 <1>   0.0800 
 40 H       -4.3250     2.7660     0.8510 H     1 <1>   0.0800 
 41 H       -2.0720     5.5450    -3.1430 H     1 <1>   0.0800 
 42 H       -2.7300     7.0840    -2.5970 H     1 <1>   0.0800 
 43 H       -3.7460     5.6490    -2.5640 H     1 <1>   0.0800 
 44 H       -0.7690     7.1010     2.1110 H     1 <1>   0.0800 
 45 H       -2.2380     6.7800     1.1940 H     1 <1>   0.0800 
 46 H       -0.6810     6.9340     0.3610 H     1 <1>   0.0800 
@<TRIPOS>BOND
  1   1   2  2   
  2   2   3  am  
  3   2   4  1   
  4   3   5  1   
  5   3  24  1   
  6   4   6  ar  
  7   4   7  ar  
  8   5   8  ar  
  9   5   9  ar  
 10   6  10  ar  
 11   6  25  1   
 12   7  11  ar  
 13   7  26  1   
 14   8  12  ar  
 15   8  13  1   
 16   9  14  ar  
 17   9  15  1   
 18  10  16  1   
 19  10  17  ar  
 20  11  17  ar  
 21  11  27  1   
 22  12  18  ar  
 23  12  28  1   
 24  13  19  1   
 25  13  29  1   
 26  13  30  1   
 27  14  18  ar  
 28  14  31  1   
 29  15  20  1   
 30  15  32  1   
 31  15  33  1   
 32  16  21  1   
 33  17  22  1   
 34  18  34  1   
 35  19  35  1   
 36  19  36  1   
 37  19  37  1   
 38  20  38  1   
 39  20  39  1   
 40  20  40  1   
 41  21  41  1   
 42  21  42  1   
 43  21  43  1   
 44  22  23  1   
 45  23  44  1   
 46  23  45  1   
 47  23  46  1   
@<TRIPOS>SUBSTRUCTURE
  1 ****   4 GROUP 4 **** **** 0

# MOE 2024.06 (io_trps.svl 2023.06)
