@<TRIPOS>MOLECULE
NONAME
41 44 1 0 0 
SMALL
USER_CHARGES


@<TRIPOS>ATOM
  1 S       -0.1820    -0.1940    -0.7190 S.3   1 <1>  -0.3320 
  2 C       -1.1550     1.2780    -0.4380 C.ar  1 <1>   0.4120 
  3 C       -1.3230    -1.3260    -1.6550 C.3   1 <1>   0.1310 
  4 N       -2.3780     1.2460    -0.8480 N.ar  1 <1>  -0.6200 
  5 C       -0.5540     2.3750     0.2080 C.ar  1 <1>   0.0000 
  6 C       -0.6930    -2.6970    -1.8530 C.2   1 <1>   0.5690 
  7 C       -3.0940     2.3610    -0.6210 C.ar  1 <1>   0.5880 
  8 C       -1.3990     3.4750     0.3860 C.ar  1 <1>   0.3100 
  9 C        0.7770     2.4590     0.6730 C.ar  1 <1>  -0.1500 
 10 O       -0.3510    -3.0060    -2.9720 O.2   1 <1>  -0.5700 
 11 N       -0.5500    -3.5610    -0.8000 N.am  1 <1>  -0.6600 
 12 N       -2.6780     3.4410    -0.0440 N.ar  1 <1>  -0.6200 
 13 C       -4.5350     2.3090    -1.1120 C.3   1 <1>  -0.0680 
 14 C       -0.9050     4.6240     1.0190 C.ar  1 <1>  -0.1500 
 15 C        1.2380     3.5920     1.2890 C.ar  1 <1>  -0.1500 
 16 C       -0.8970    -3.2890     0.6120 C.3   1 <1>   0.1400 
 17 C        0.0650    -4.8970    -0.9500 C.3   1 <1>   0.1400 
 18 C       -5.6660     2.9320    -0.3440 C.3   1 <1>  -0.2000 
 19 C       -5.5470     1.4410    -0.4230 C.3   1 <1>  -0.2000 
 20 C        0.3890     4.6880     1.4660 C.ar  1 <1>  -0.1500 
 21 C       -0.7280    -4.6300     1.3160 C.3   1 <1>  -0.1600 
 22 C        0.3050    -5.3770     0.4770 C.3   1 <1>  -0.1600 
 23 H       -1.5170    -0.8610    -2.6040 H     1 <1>   0.0800 
 24 H       -2.2350    -1.4060    -1.0960 H     1 <1>   0.0800 
 25 H        1.4370     1.6190     0.5380 H     1 <1>   0.1500 
 26 H       -4.5810     2.3620    -2.1850 H     1 <1>   0.1000 
 27 H       -1.5750     5.4550     1.1440 H     1 <1>   0.1500 
 28 H        2.2540     3.6520     1.6430 H     1 <1>   0.1500 
 29 H       -1.9050    -2.9200     0.7050 H     1 <1>   0.0800 
 30 H       -0.2040    -2.5690     1.0130 H     1 <1>   0.0800 
 31 H        0.9820    -4.8370    -1.5120 H     1 <1>   0.0800 
 32 H       -0.6280    -5.5460    -1.4590 H     1 <1>   0.0800 
 33 H       -6.4490     3.4250    -0.8940 H     1 <1>   0.1000 
 34 H       -5.4460     3.4220     0.5890 H     1 <1>   0.1000 
 35 H       -5.2450     0.9000     0.4570 H     1 <1>   0.1000 
 36 H       -6.2470     0.8910    -1.0270 H     1 <1>   0.1000 
 37 H        0.7630     5.5730     1.9520 H     1 <1>   0.1500 
 38 H       -1.6660    -5.1570     1.2950 H     1 <1>   0.0800 
 39 H       -0.4170    -4.5080     2.3390 H     1 <1>   0.0800 
 40 H        1.2980    -5.0910     0.7770 H     1 <1>   0.0800 
 41 H        0.2080    -6.4450     0.5600 H     1 <1>   0.0800 
@<TRIPOS>BOND
  1   1   2  1   
  2   1   3  1   
  3   2   4  ar  
  4   2   5  ar  
  5   3   6  1   
  6   3  23  1   
  7   3  24  1   
  8   4   7  ar  
  9   5   8  ar  
 10   5   9  ar  
 11   6  10  2   
 12   6  11  am  
 13   7  12  ar  
 14   7  13  1   
 15   8  12  ar  
 16   8  14  ar  
 17   9  15  ar  
 18   9  25  1   
 19  11  16  1   
 20  11  17  1   
 21  13  18  1   
 22  13  19  1   
 23  13  26  1   
 24  14  20  ar  
 25  14  27  1   
 26  15  20  ar  
 27  15  28  1   
 28  16  21  1   
 29  16  29  1   
 30  16  30  1   
 31  17  22  1   
 32  17  31  1   
 33  17  32  1   
 34  18  19  1   
 35  18  33  1   
 36  18  34  1   
 37  19  35  1   
 38  19  36  1   
 39  20  37  1   
 40  21  22  1   
 41  21  38  1   
 42  21  39  1   
 43  22  40  1   
 44  22  41  1   
@<TRIPOS>SUBSTRUCTURE
  1 ****   2 GROUP 4 **** **** 0

# MOE 2024.06 (io_trps.svl 2023.06)
