@<TRIPOS>MOLECULE
3-Furan-2-ylmethyl-1-[2-(2-methyl-piperidin-1-yl)-2-oxo-ethyl]-1H-thieno[3,2-d]p
48 51 1 0 0 
SMALL
USER_CHARGES


@<TRIPOS>ATOM
  1 S       -0.1250     0.7880    -0.6690 S.3   1 <1>  -0.0800 
  2 C        1.1180    -0.1920     0.1210 C.2   1 <1>  -0.0450 
  3 C       -0.9990    -0.6510    -1.1660 C.2   1 <1>  -0.1100 
  4 C        2.2720     0.3030     0.7810 C.2   1 <1>   0.7150 
  5 C        0.8300    -1.5100    -0.0050 C.2   1 <1>   0.0630 
  6 C       -0.3720    -1.7660    -0.7430 C.2   1 <1>  -0.1500 
  7 O        2.5210     1.4930     0.8850 O.2   1 <1>  -0.5700 
  8 N        3.1290    -0.6390     1.3120 N.am  1 <1>  -0.4200 
  9 N        1.7060    -2.4300     0.5770 N.am  1 <1>  -0.4230 
 10 C        2.8090    -1.9830     1.2920 C.2   1 <1>   0.6900 
 11 C        4.5180    -0.2500     1.6570 C.3   1 <1>   0.3200 
 12 C        1.6760    -3.8800     0.2030 C.3   1 <1>   0.2010 
 13 O        3.5020    -2.7800     1.9000 O.2   1 <1>  -0.5700 
 14 C        5.4480    -0.5000     0.4770 C.2   1 <1>  -0.0400 
 15 C        2.7570    -4.2020    -0.8330 C.2   1 <1>   0.5690 
 16 O        6.7440    -0.3360     0.6630 O.3   1 <1>  -0.2800 
 17 C        5.2030    -0.8820    -0.7990 C.2   1 <1>  -0.1500 
 18 O        2.6550    -3.6670    -1.9150 O.2   1 <1>  -0.5700 
 19 N        3.8510    -4.9750    -0.5270 N.am  1 <1>  -0.6600 
 20 C        7.3500    -0.6070    -0.4760 C.2   1 <1>  -0.0100 
 21 C        6.4530    -0.9510    -1.4230 C.2   1 <1>  -0.1500 
 22 C        3.8400    -6.1010     0.4660 C.3   1 <1>   0.2200 
 23 C        5.1680    -4.3120    -0.7810 C.3   1 <1>   0.1400 
 24 C        5.0710    -7.0160     0.3150 C.3   1 <1>  -0.1600 
 25 C        2.6020    -6.9920     0.2730 C.3   1 <1>  -0.2400 
 26 C        6.3120    -5.3040    -0.9720 C.3   1 <1>  -0.1600 
 27 C        6.3920    -6.2570     0.2160 C.3   1 <1>  -0.1600 
 28 H       -1.9020    -0.5080    -1.7320 H     1 <1>   0.1500 
 29 H       -0.7220    -2.7620    -0.9340 H     1 <1>   0.1500 
 30 H        4.8560    -0.8260     2.5010 H     1 <1>   0.0800 
 31 H        4.5660     0.7880     1.9340 H     1 <1>   0.0800 
 32 H        0.7210    -4.1500    -0.1990 H     1 <1>   0.0800 
 33 H        1.8320    -4.4510     1.0970 H     1 <1>   0.0800 
 34 H        4.2640    -1.1000    -1.2810 H     1 <1>   0.1500 
 35 H        8.4220    -0.5280    -0.5240 H     1 <1>   0.1500 
 36 H        6.6240    -1.2250    -2.4490 H     1 <1>   0.1500 
 37 H        3.8450    -5.6800     1.4590 H     1 <1>   0.0800 
 38 H        5.3940    -3.6740     0.0570 H     1 <1>   0.0800 
 39 H        5.1020    -3.6900    -1.6580 H     1 <1>   0.0800 
 40 H        4.9570    -7.6190    -0.5690 H     1 <1>   0.0800 
 41 H        5.1160    -7.6870     1.1550 H     1 <1>   0.0800 
 42 H        2.5360    -7.3160    -0.7510 H     1 <1>   0.0800 
 43 H        1.6890    -6.5040     0.5450 H     1 <1>   0.0800 
 44 H        2.6830    -7.8660     0.8950 H     1 <1>   0.0800 
 45 H        7.2360    -4.7610    -1.0660 H     1 <1>   0.0800 
 46 H        6.1560    -5.8520    -1.8850 H     1 <1>   0.0800 
 47 H        7.2040    -6.9500     0.0760 H     1 <1>   0.0800 
 48 H        6.5690    -5.7030     1.1230 H     1 <1>   0.0800 
@<TRIPOS>BOND
  1   1   2  1   
  2   1   3  1   
  3   2   4  1   
  4   2   5  2   
  5   3   6  2   
  6   3  28  1   
  7   4   7  2   
  8   4   8  am  
  9   5   6  1   
 10   5   9  1   
 11   6  29  1   
 12   8  10  am  
 13   8  11  1   
 14   9  10  am  
 15   9  12  1   
 16  10  13  2   
 17  11  14  1   
 18  11  30  1   
 19  11  31  1   
 20  12  15  1   
 21  12  32  1   
 22  12  33  1   
 23  14  16  1   
 24  14  17  2   
 25  15  18  2   
 26  15  19  am  
 27  16  20  1   
 28  17  21  1   
 29  17  34  1   
 30  19  22  1   
 31  19  23  1   
 32  20  21  2   
 33  20  35  1   
 34  21  36  1   
 35  22  24  1   
 36  22  25  1   
 37  22  37  1   
 38  23  26  1   
 39  23  38  1   
 40  23  39  1   
 41  24  27  1   
 42  24  40  1   
 43  24  41  1   
 44  25  42  1   
 45  25  43  1   
 46  25  44  1   
 47  26  27  1   
 48  26  45  1   
 49  26  46  1   
 50  27  47  1   
 51  27  48  1   
@<TRIPOS>SUBSTRUCTURE
  1 ****  10 GROUP 4 **** **** 0

# MOE 2024.06 (io_trps.svl 2023.06)
