@<TRIPOS>MOLECULE
NONAME
30 32 1 0 0 
SMALL
USER_CHARGES


@<TRIPOS>ATOM
  1 O        2.3710    -2.1630     0.5500 O.2   1 <1>  -0.5700 
  2 C        1.3160    -1.8460     0.0560 C.2   1 <1>   0.5690 
  3 N        1.0990    -0.6040    -0.4600 N.am  1 <1>  -0.5790 
  4 C        0.2330    -2.8950    -0.0110 C.3   1 <1>   0.1570 
  5 C        2.0560     0.5100    -0.4600 C.3   1 <1>   0.0490 
  6 N       -1.0580    -2.3040     0.3480 N.pl3 1 <1>   0.5800 
  7 C        1.5220     1.8840    -0.2290 C.3   1 <1>  -0.2000 
  8 C        2.0000     1.4810    -1.5920 C.3   1 <1>  -0.2000 
  9 N       -1.6700    -2.5390     1.4920 N.2   1 <1>  -0.4180 
 10 N       -1.7330    -1.5020    -0.4520 N.2   1 <1>  -0.7070 
 11 N       -2.7560    -1.8810     1.4460 N.2   1 <1>  -0.2270 
 12 C       -2.7840    -1.2570     0.2630 C.2   1 <1>   0.4620 
 13 C       -3.8820    -0.4040    -0.1480 C.ar  1 <1>   0.0540 
 14 C       -4.9310    -0.0920     0.7200 C.ar  1 <1>   0.1600 
 15 C       -3.9460     0.1440    -1.4240 C.ar  1 <1>  -0.1500 
 16 N       -5.9720     0.6770     0.4390 N.ar  1 <1>  -0.6200 
 17 C       -5.0210     0.9460    -1.7390 C.ar  1 <1>  -0.1500 
 18 C       -5.9940     1.1790    -0.7840 C.ar  1 <1>   0.1600 
 19 H        0.1640    -0.3700    -0.8150 H     1 <1>   0.3700 
 20 H        0.4550    -3.6890     0.6750 H     1 <1>   0.0800 
 21 H        0.1710    -3.2890    -1.0050 H     1 <1>   0.0800 
 22 H        3.0180     0.2510    -0.0450 H     1 <1>   0.1000 
 23 H        2.1200     2.5800     0.3340 H     1 <1>   0.1000 
 24 H        0.4680     2.0110    -0.0580 H     1 <1>   0.1000 
 25 H        1.2790     1.3280    -2.3750 H     1 <1>   0.1000 
 26 H        2.9210     1.9050    -1.9530 H     1 <1>   0.1000 
 27 H       -4.9070    -0.5040     1.7150 H     1 <1>   0.1500 
 28 H       -3.1750    -0.0550    -2.1490 H     1 <1>   0.1500 
 29 H       -5.1080     1.3900    -2.7150 H     1 <1>   0.1500 
 30 H       -6.8320     1.8080    -1.0380 H     1 <1>   0.1500 
@<TRIPOS>BOND
  1   1   2  2   
  2   2   3  am  
  3   2   4  1   
  4   3   5  1   
  5   3  19  1   
  6   4   6  1   
  7   4  20  1   
  8   4  21  1   
  9   5   7  1   
 10   5   8  1   
 11   5  22  1   
 12   6   9  1   
 13   6  10  1   
 14   7   8  1   
 15   7  23  1   
 16   7  24  1   
 17   8  25  1   
 18   8  26  1   
 19   9  11  2   
 20  10  12  2   
 21  11  12  1   
 22  12  13  1   
 23  13  14  ar  
 24  13  15  ar  
 25  14  16  ar  
 26  14  27  1   
 27  15  17  ar  
 28  15  28  1   
 29  16  18  ar  
 30  17  18  ar  
 31  17  29  1   
 32  18  30  1   
@<TRIPOS>SUBSTRUCTURE
  1 ****  10 GROUP 4 **** **** 0

# MOE 2024.06 (io_trps.svl 2023.06)
