@<TRIPOS>MOLECULE
1-Pyrazin-2-yl-piperidine-4-carboxylic acid (3-methoxy-phenyl)-amide
43 45 1 0 0 
SMALL
USER_CHARGES


@<TRIPOS>ATOM
  1 O       -0.5400    -1.0190    -1.1900 O.2   1 <1>  -0.5700 
  2 C       -0.8270    -1.5190    -0.1300 C.2   1 <1>   0.5690 
  3 N        0.0980    -2.0400     0.7350 N.am  1 <1>  -0.5470 
  4 C       -2.2970    -1.6050     0.2770 C.3   1 <1>  -0.0190 
  5 C        1.4990    -2.0800     0.6660 C.ar  1 <1>   0.1170 
  6 C       -3.0260    -2.7130    -0.5060 C.3   1 <1>  -0.1600 
  7 C       -3.0310    -0.2630     0.0860 C.3   1 <1>  -0.1600 
  8 C        2.2500    -1.1790    -0.0800 C.ar  1 <1>  -0.1500 
  9 C        2.1720    -3.0540     1.3960 C.ar  1 <1>  -0.1500 
 10 C       -4.5020    -2.7990    -0.1120 C.3   1 <1>   0.2090 
 11 C       -4.5060    -0.3710     0.4760 C.3   1 <1>   0.2090 
 12 C        3.6320    -1.2430    -0.1050 C.ar  1 <1>   0.0820 
 13 C        3.5530    -3.1290     1.3790 C.ar  1 <1>  -0.1500 
 14 N       -5.1420    -1.4700    -0.2900 N.pl3 1 <1>  -0.8380 
 15 O        4.2750    -0.3170    -0.8620 O.3   1 <1>  -0.3630 
 16 C        4.2870    -2.2270     0.6300 C.ar  1 <1>  -0.1500 
 17 C       -6.5220    -1.4280    -0.3990 C.ar  1 <1>   0.4100 
 18 C        5.6780    -0.3260    -0.9980 C.3   1 <1>   0.0400 
 19 N       -7.2100    -2.2530     0.3820 N.ar  1 <1>  -0.6200 
 20 C       -7.1460    -0.5350    -1.2870 C.ar  1 <1>   0.1600 
 21 C       -8.5170    -2.1250     0.2200 C.ar  1 <1>   0.1600 
 22 N       -8.4510    -0.4030    -1.4450 N.ar  1 <1>  -0.6200 
 23 C       -9.1190    -1.2340    -0.6580 C.ar  1 <1>   0.1600 
 24 H       -0.2920    -2.5100     1.5480 H     1 <1>   0.3700 
 25 H       -2.3430    -1.8520     1.3220 H     1 <1>   0.0800 
 26 H       -2.5550    -3.6630    -0.3230 H     1 <1>   0.0800 
 27 H       -2.9610    -2.5130    -1.5620 H     1 <1>   0.0800 
 28 H       -2.9700     0.0430    -0.9440 H     1 <1>   0.0800 
 29 H       -2.5590     0.4980     0.6810 H     1 <1>   0.0800 
 30 H        1.7660    -0.4100    -0.6520 H     1 <1>   0.1500 
 31 H        1.6150    -3.7630     1.9800 H     1 <1>   0.1500 
 32 H       -4.6000    -3.1060     0.9150 H     1 <1>   0.0800 
 33 H       -5.0040    -3.5250    -0.7300 H     1 <1>   0.0800 
 34 H       -5.0070     0.5590     0.2680 H     1 <1>   0.0800 
 35 H       -4.5990    -0.5760     1.5300 H     1 <1>   0.0800 
 36 H        4.0590    -3.8900     1.9480 H     1 <1>   0.1500 
 37 H        5.3580    -2.3040     0.6320 H     1 <1>   0.1500 
 38 H        5.9530     0.4790    -1.6550 H     1 <1>   0.0800 
 39 H        5.9810    -1.2660    -1.4240 H     1 <1>   0.0800 
 40 H        6.1240    -0.1770    -0.0310 H     1 <1>   0.0800 
 41 H       -6.5040     0.0850    -1.8830 H     1 <1>   0.1500 
 42 H       -9.1460    -2.7610     0.8170 H     1 <1>   0.1500 
 43 H      -10.1920    -1.2050    -0.7150 H     1 <1>   0.1500 
@<TRIPOS>BOND
  1   1   2  2   
  2   2   3  am  
  3   2   4  1   
  4   3   5  1   
  5   3  24  1   
  6   4   6  1   
  7   4   7  1   
  8   4  25  1   
  9   5   8  ar  
 10   5   9  ar  
 11   6  10  1   
 12   6  26  1   
 13   6  27  1   
 14   7  11  1   
 15   7  28  1   
 16   7  29  1   
 17   8  12  ar  
 18   8  30  1   
 19   9  13  ar  
 20   9  31  1   
 21  10  14  1   
 22  10  32  1   
 23  10  33  1   
 24  11  14  1   
 25  11  34  1   
 26  11  35  1   
 27  12  15  1   
 28  12  16  ar  
 29  13  16  ar  
 30  13  36  1   
 31  14  17  1   
 32  15  18  1   
 33  16  37  1   
 34  17  19  ar  
 35  17  20  ar  
 36  18  38  1   
 37  18  39  1   
 38  18  40  1   
 39  19  21  ar  
 40  20  22  ar  
 41  20  41  1   
 42  21  23  ar  
 43  21  42  1   
 44  22  23  ar  
 45  23  43  1   
@<TRIPOS>SUBSTRUCTURE
  1 ****   4 GROUP 4 **** **** 0

# MOE 2024.06 (io_trps.svl 2023.06)
