@<TRIPOS>MOLECULE
4-Butyl-5-phenoxymethyl-4H-[1,2,4]triazole-3-thiol
35 36 1 0 0 
SMALL
USER_CHARGES


@<TRIPOS>ATOM
  1 S       -0.4770    -0.1100     0.3200 S.3   1 <1>  -0.9360 
  2 C       -2.0290     0.3590     0.3310 C.cat 1 <1>   0.7360 
  3 N       -2.4520     1.5540     0.6750 N.pl3 1 <1>  -0.3930 
  4 N       -3.0740    -0.3790     0.0040 N.pl3 1 <1>  -0.7640 
  5 N       -3.8110     1.6290     0.5800 N.2   1 <1>  -0.2600 
  6 C       -4.1580     0.4570     0.1750 C.2   1 <1>   0.4850 
  7 C       -2.9830    -1.7850    -0.4330 C.3   1 <1>   0.3540 
  8 C       -5.5880    -0.0080    -0.0980 C.3   1 <1>   0.2880 
  9 C       -3.1780    -2.7080     0.7740 C.3   1 <1>  -0.1600 
 10 O       -6.5250     1.0230     0.1450 O.3   1 <1>  -0.3620 
 11 C       -3.2620    -4.1950     0.3920 C.3   1 <1>  -0.1600 
 12 C       -7.8530     0.8220    -0.0350 C.ar  1 <1>   0.0820 
 13 C       -1.9690    -4.7150    -0.2470 C.3   1 <1>  -0.2400 
 14 C       -8.6830     1.9000     0.2270 C.ar  1 <1>  -0.1500 
 15 C       -8.4090    -0.3840    -0.4580 C.ar  1 <1>  -0.1500 
 16 C      -10.0530     1.7860     0.0710 C.ar  1 <1>  -0.1500 
 17 C       -9.7800    -0.4960    -0.6140 C.ar  1 <1>  -0.1500 
 18 C      -10.6010     0.5870    -0.3500 C.ar  1 <1>  -0.1500 
 19 H       -1.8000     2.2820     0.9650 H     1 <1>   0.4500 
 20 H       -2.0190    -1.9630    -0.8800 H     1 <1>   0.0800 
 21 H       -3.7330    -1.9800    -1.1790 H     1 <1>   0.0800 
 22 H       -5.8250    -0.8320     0.5490 H     1 <1>   0.0800 
 23 H       -5.6770    -0.3040    -1.1270 H     1 <1>   0.0800 
 24 H       -4.0830    -2.4380     1.2880 H     1 <1>   0.0800 
 25 H       -2.3540    -2.5630     1.4520 H     1 <1>   0.0800 
 26 H       -4.0870    -4.3590    -0.2810 H     1 <1>   0.0800 
 27 H       -3.4540    -4.7670     1.2850 H     1 <1>   0.0800 
 28 H       -1.7860    -4.2510    -1.1990 H     1 <1>   0.0800 
 29 H       -2.0380    -5.7780    -0.4010 H     1 <1>   0.0800 
 30 H       -1.1270    -4.5220     0.3970 H     1 <1>   0.0800 
 31 H       -8.2510     2.8290     0.5540 H     1 <1>   0.1500 
 32 H       -7.8050    -1.2440    -0.6720 H     1 <1>   0.1500 
 33 H      -10.6910     2.6280     0.2770 H     1 <1>   0.1500 
 34 H      -10.2130    -1.4250    -0.9410 H     1 <1>   0.1500 
 35 H      -11.6670     0.4970    -0.4720 H     1 <1>   0.1500 
@<TRIPOS>BOND
  1   1   2  1   
  2   2   3  ar  
  3   2   4  ar  
  4   3   5  1   
  5   3  19  1   
  6   4   6  1   
  7   4   7  1   
  8   5   6  2   
  9   6   8  1   
 10   7   9  1   
 11   7  20  1   
 12   7  21  1   
 13   8  10  1   
 14   8  22  1   
 15   8  23  1   
 16   9  11  1   
 17   9  24  1   
 18   9  25  1   
 19  10  12  1   
 20  11  13  1   
 21  11  26  1   
 22  11  27  1   
 23  12  14  ar  
 24  12  15  ar  
 25  13  28  1   
 26  13  29  1   
 27  13  30  1   
 28  14  16  ar  
 29  14  31  1   
 30  15  17  ar  
 31  15  32  1   
 32  16  18  ar  
 33  16  33  1   
 34  17  18  ar  
 35  17  34  1   
 36  18  35  1   
@<TRIPOS>SUBSTRUCTURE
  1 ****   8 GROUP 4 **** **** 0

# MOE 2024.06 (io_trps.svl 2023.06)
