@<TRIPOS>MOLECULE
NONAME
40 42 1 0 0 
SMALL
USER_CHARGES


@<TRIPOS>ATOM
  1 S        0.2140    -0.2560    -0.5420 S.o2  1 <1>   1.3330 
  2 O       -0.4590    -0.9670    -1.6080 O.2   1 <1>  -0.6500 
  3 O       -0.3900     0.9470    -0.0110 O.2   1 <1>  -0.6500 
  4 N        1.7460     0.1950    -1.1140 N.am  1 <1>  -0.8490 
  5 C        0.4470    -1.3720     0.8600 C.3   1 <1>   0.0890 
  6 C        2.6000     0.8470    -0.0980 C.3   1 <1>   0.1960 
  7 C        2.4430    -0.8450    -1.9110 C.3   1 <1>   0.1960 
  8 C        1.2760    -2.6210     0.5860 C.ar  1 <1>  -0.1440 
  9 C        3.9570     1.3010    -0.6650 C.3   1 <1>   0.2090 
 10 C        3.8070    -0.3740    -2.4480 C.3   1 <1>   0.2090 
 11 C        2.5540    -2.7500     1.1130 C.ar  1 <1>  -0.1500 
 12 C        0.7650    -3.6320    -0.2140 C.ar  1 <1>  -0.1500 
 13 N        4.6420     0.1530    -1.3270 N.pl3 1 <1>  -0.8380 
 14 C        3.3120    -3.8740     0.8350 C.ar  1 <1>  -0.1500 
 15 C        1.5220    -4.7570    -0.4870 C.ar  1 <1>  -0.1500 
 16 C        5.4530    -0.7060    -0.6150 C.ar  1 <1>   0.7200 
 17 C        2.7970    -4.8780     0.0360 C.ar  1 <1>  -0.1500 
 18 N        5.5370    -0.5200     0.7040 N.ar  1 <1>  -0.6200 
 19 N        6.0710    -1.6590    -1.3100 N.ar  1 <1>  -0.6200 
 20 C        6.3240    -1.3410     1.3560 C.ar  1 <1>   0.1600 
 21 C        6.8480    -2.4660    -0.6310 C.ar  1 <1>   0.1600 
 22 C        7.0140    -2.3470     0.7270 C.ar  1 <1>  -0.1500 
 23 H       -0.5180    -1.6840     1.2060 H     1 <1>   0.0800 
 24 H        0.8990    -0.8270     1.6650 H     1 <1>   0.0800 
 25 H        2.7920     0.1680     0.7120 H     1 <1>   0.0800 
 26 H        2.0880     1.7070     0.2980 H     1 <1>   0.0800 
 27 H        1.8230    -1.1280    -2.7440 H     1 <1>   0.0800 
 28 H        2.6180    -1.7230    -1.3220 H     1 <1>   0.0800 
 29 H        4.5700     1.7070     0.1210 H     1 <1>   0.0800 
 30 H        3.7970     2.0830    -1.3860 H     1 <1>   0.0800 
 31 H        3.6540     0.4040    -3.1740 H     1 <1>   0.0800 
 32 H        4.2970    -1.1910    -2.9470 H     1 <1>   0.0800 
 33 H        2.9770    -1.9790     1.7330 H     1 <1>   0.1500 
 34 H       -0.2230    -3.5470    -0.6360 H     1 <1>   0.1500 
 35 H        4.3050    -3.9640     1.2390 H     1 <1>   0.1500 
 36 H        1.1200    -5.5370    -1.1100 H     1 <1>   0.1500 
 37 H        3.3870    -5.7520    -0.1800 H     1 <1>   0.1500 
 38 H        6.4230    -1.2070     2.4200 H     1 <1>   0.1500 
 39 H        7.3660    -3.2400    -1.1710 H     1 <1>   0.1500 
 40 H        7.6570    -3.0120     1.2720 H     1 <1>   0.1500 
@<TRIPOS>BOND
  1   1   2  2   
  2   1   3  2   
  3   1   4  am  
  4   1   5  1   
  5   4   6  1   
  6   4   7  1   
  7   5   8  1   
  8   5  23  1   
  9   5  24  1   
 10   6   9  1   
 11   6  25  1   
 12   6  26  1   
 13   7  10  1   
 14   7  27  1   
 15   7  28  1   
 16   8  11  ar  
 17   8  12  ar  
 18   9  13  1   
 19   9  29  1   
 20   9  30  1   
 21  10  13  1   
 22  10  31  1   
 23  10  32  1   
 24  11  14  ar  
 25  11  33  1   
 26  12  15  ar  
 27  12  34  1   
 28  13  16  1   
 29  14  17  ar  
 30  14  35  1   
 31  15  17  ar  
 32  15  36  1   
 33  16  18  ar  
 34  16  19  ar  
 35  17  37  1   
 36  18  20  ar  
 37  19  21  ar  
 38  20  22  ar  
 39  20  38  1   
 40  21  22  ar  
 41  21  39  1   
 42  22  40  1   
@<TRIPOS>SUBSTRUCTURE
  1 ****   7 GROUP 4 **** **** 0

# MOE 2024.06 (io_trps.svl 2023.06)
