@<TRIPOS>MOLECULE
N'-Cyclohexyl-N,N-dimethyl-ethane-1,2-diamine
36 36 1 0 0 
SMALL
USER_CHARGES


@<TRIPOS>ATOM
  1 N       -0.1360     0.2610     0.2120 N.4   1 <1>  -0.9590 
  2 C       -1.4540    -0.4790     0.2110 C.3   1 <1>   0.3430 
  3 C        0.2740     0.7740    -1.1420 C.3   1 <1>   0.2630 
  4 C        0.9560    -0.6290     0.7370 C.3   1 <1>   0.2630 
  5 C       -2.6920     0.3990    -0.1410 C.3   1 <1>   0.3430 
  6 N       -4.0040    -0.3400    -0.0800 N.4   1 <1>  -0.9060 
  7 C       -5.1700     0.5000    -0.4430 C.3   1 <1>   0.4230 
  8 C       -5.4500     1.5260     0.6650 C.3   1 <1>  -0.1600 
  9 C       -6.3730    -0.4260    -0.6520 C.3   1 <1>  -0.1600 
 10 C       -6.7190     2.3340     0.3600 C.3   1 <1>  -0.1600 
 11 C       -7.6420     0.3800    -0.9640 C.3   1 <1>  -0.1600 
 12 C       -7.9240     1.4140     0.1320 C.3   1 <1>  -0.1600 
 13 H       -0.1780     1.0690     0.8590 H     1 <1>   0.4500 
 14 H       -1.6080    -0.9000     1.1920 H     1 <1>   0.0800 
 15 H       -1.3930    -1.2930    -0.4930 H     1 <1>   0.0800 
 16 H        0.3640    -0.0400    -1.8440 H     1 <1>   0.0800 
 17 H        1.2300     1.2700    -1.0780 H     1 <1>   0.0800 
 18 H       -0.4460     1.4810    -1.5200 H     1 <1>   0.0800 
 19 H        1.0830    -1.4910     0.1010 H     1 <1>   0.0800 
 20 H        0.7230    -0.9680     1.7340 H     1 <1>   0.0800 
 21 H        1.8920    -0.0930     0.7740 H     1 <1>   0.0800 
 22 H       -2.5630     0.7950    -1.1360 H     1 <1>   0.0800 
 23 H       -2.7270     1.2280     0.5470 H     1 <1>   0.0800 
 24 H       -4.2010    -0.7090     0.8610 H     1 <1>   0.4500 
 25 H       -4.0200    -1.1450    -0.7220 H     1 <1>   0.4500 
 26 H       -4.9790     1.0230    -1.3670 H     1 <1>   0.0800 
 27 H       -4.6330     2.2190     0.7600 H     1 <1>   0.0800 
 28 H       -5.5890     1.0250     1.6080 H     1 <1>   0.0800 
 29 H       -6.5540    -1.0080     0.2350 H     1 <1>   0.0800 
 30 H       -6.1880    -1.0960    -1.4730 H     1 <1>   0.0800 
 31 H       -6.5660     2.9410    -0.5170 H     1 <1>   0.0800 
 32 H       -6.9320     3.0010     1.1800 H     1 <1>   0.0800 
 33 H       -8.4840    -0.2870    -1.0490 H     1 <1>   0.0800 
 34 H       -7.5340     0.8850    -1.9100 H     1 <1>   0.0800 
 35 H       -8.7810     2.0070    -0.1460 H     1 <1>   0.0800 
 36 H       -8.1700     0.9080     1.0510 H     1 <1>   0.0800 
@<TRIPOS>BOND
  1   1   2  1   
  2   1   3  1   
  3   1   4  1   
  4   1  13  1   
  5   2   5  1   
  6   2  14  1   
  7   2  15  1   
  8   3  16  1   
  9   3  17  1   
 10   3  18  1   
 11   4  19  1   
 12   4  20  1   
 13   4  21  1   
 14   5   6  1   
 15   5  22  1   
 16   5  23  1   
 17   6   7  1   
 18   6  24  1   
 19   6  25  1   
 20   7   8  1   
 21   7   9  1   
 22   7  26  1   
 23   8  10  1   
 24   8  27  1   
 25   8  28  1   
 26   9  11  1   
 27   9  29  1   
 28   9  30  1   
 29  10  12  1   
 30  10  31  1   
 31  10  32  1   
 32  11  12  1   
 33  11  33  1   
 34  11  34  1   
 35  12  35  1   
 36  12  36  1   
@<TRIPOS>SUBSTRUCTURE
  1 ****   6 GROUP 4 **** **** 0

# MOE 2024.06 (io_trps.svl 2023.06)
