@<TRIPOS>MOLECULE
NONAME
53 55 1 0 0 
SMALL
USER_CHARGES


@<TRIPOS>ATOM
  1 N       -1.4350    -0.4440    -1.4690 N.2   1 <1>   0.0000 
  2 N       -1.9110    -0.8450    -0.3480 N.2   1 <1>  -0.4180 
  3 N       -0.6140    -1.3500    -1.9790 N.2   1 <1>  -0.3380 
  4 N       -1.3920    -2.0350    -0.1190 N.pl3 1 <1>   0.3140 
  5 C       -0.6040    -2.3230    -1.1430 C.2   1 <1>   0.0060 
  6 C       -1.6720    -2.8590     1.0910 C.3   1 <1>   0.1760 
  7 C        0.2050    -3.6170    -1.2620 C.3   1 <1>   0.3700 
  8 C       -2.8650    -3.7980     0.8950 C.3   1 <1>  -0.1600 
  9 C       -2.0330    -2.0590     2.3440 C.3   1 <1>  -0.1600 
 10 N        1.4500    -3.4230    -0.4660 N.3   1 <1>  -0.8100 
 11 C        0.4010    -4.0520    -2.7490 C.3   1 <1>  -0.0800 
 12 C       -3.4150    -4.0710     2.3010 C.3   1 <1>  -0.1600 
 13 C       -2.7240    -3.0800     3.2460 C.3   1 <1>  -0.1600 
 14 C        2.4400    -2.5100    -1.0820 C.3   1 <1>   0.1100 
 15 C        2.0480    -4.6220     0.1560 C.3   1 <1>   0.1100 
 16 C       -0.9600    -4.3620    -3.4020 C.3   1 <1>  -0.2400 
 17 C        1.3020    -5.2830    -2.9580 C.3   1 <1>  -0.2400 
 18 C        3.5490    -2.1290    -0.0830 C.3   1 <1>   0.3430 
 19 C        3.1650    -4.2350     1.1500 C.3   1 <1>   0.3430 
 20 N        4.2030    -3.3450     0.5160 N.4   1 <1>  -0.9590 
 21 C        5.2730    -2.9480     1.4660 C.3   1 <1>   0.3430 
 22 C        6.1630    -4.1480     1.7710 C.3   1 <1>  -0.2400 
 23 H       -0.8000    -3.4450     1.3150 H     1 <1>   0.0800 
 24 H       -0.3670    -4.3970    -0.7900 H     1 <1>   0.0800 
 25 H       -2.5810    -4.7090     0.4010 H     1 <1>   0.0800 
 26 H       -3.6250    -3.2990     0.3160 H     1 <1>   0.0800 
 27 H       -2.7390    -1.2810     2.1040 H     1 <1>   0.0800 
 28 H       -1.1670    -1.6270     2.8140 H     1 <1>   0.0800 
 29 H        0.8310    -3.2270    -3.2920 H     1 <1>   0.0800 
 30 H       -3.2080    -5.0820     2.6080 H     1 <1>   0.0800 
 31 H       -4.4810    -3.9200     2.3130 H     1 <1>   0.0800 
 32 H       -3.4270    -2.6060     3.9110 H     1 <1>   0.0800 
 33 H       -1.9870    -3.5990     3.8350 H     1 <1>   0.0800 
 34 H        1.9530    -1.6040    -1.4020 H     1 <1>   0.0800 
 35 H        2.8810    -2.9660    -1.9500 H     1 <1>   0.0800 
 36 H        2.4600    -5.2770    -0.5870 H     1 <1>   0.0800 
 37 H        1.2860    -5.1660     0.6880 H     1 <1>   0.0800 
 38 H       -1.4460    -5.1850    -2.9090 H     1 <1>   0.0800 
 39 H       -0.8290    -4.6170    -4.4390 H     1 <1>   0.0800 
 40 H       -1.6130    -3.5070    -3.3650 H     1 <1>   0.0800 
 41 H        0.9660    -6.1090    -2.3570 H     1 <1>   0.0800 
 42 H        2.3240    -5.0570    -2.7220 H     1 <1>   0.0800 
 43 H        1.2800    -5.5880    -3.9910 H     1 <1>   0.0800 
 44 H        3.1080    -1.5310     0.6980 H     1 <1>   0.0800 
 45 H        4.2840    -1.5250    -0.5890 H     1 <1>   0.0800 
 46 H        3.6280    -5.1340     1.5210 H     1 <1>   0.0800 
 47 H        2.7150    -3.7250     1.9850 H     1 <1>   0.0800 
 48 H        4.6340    -3.8690    -0.2560 H     1 <1>   0.4500 
 49 H        4.8400    -2.5640     2.3770 H     1 <1>   0.0800 
 50 H        5.8780    -2.1700     1.0260 H     1 <1>   0.0800 
 51 H        5.6260    -4.9150     2.2970 H     1 <1>   0.0800 
 52 H        6.9750    -3.8300     2.4010 H     1 <1>   0.0800 
 53 H        6.5860    -4.5520     0.8680 H     1 <1>   0.0800 
@<TRIPOS>BOND
  1   1   2  2   
  2   1   3  1   
  3   2   4  1   
  4   3   5  2   
  5   4   5  1   
  6   4   6  1   
  7   5   7  1   
  8   6   8  1   
  9   6   9  1   
 10   6  23  1   
 11   7  10  1   
 12   7  11  1   
 13   7  24  1   
 14   8  12  1   
 15   8  25  1   
 16   8  26  1   
 17   9  13  1   
 18   9  27  1   
 19   9  28  1   
 20  10  14  1   
 21  10  15  1   
 22  11  16  1   
 23  11  17  1   
 24  11  29  1   
 25  12  13  1   
 26  12  30  1   
 27  12  31  1   
 28  13  32  1   
 29  13  33  1   
 30  14  18  1   
 31  14  34  1   
 32  14  35  1   
 33  15  19  1   
 34  15  36  1   
 35  15  37  1   
 36  16  38  1   
 37  16  39  1   
 38  16  40  1   
 39  17  41  1   
 40  17  42  1   
 41  17  43  1   
 42  18  20  1   
 43  18  44  1   
 44  18  45  1   
 45  19  20  1   
 46  19  46  1   
 47  19  47  1   
 48  20  21  1   
 49  20  48  1   
 50  21  22  1   
 51  21  49  1   
 52  21  50  1   
 53  22  51  1   
 54  22  52  1   
 55  22  53  1   
@<TRIPOS>SUBSTRUCTURE
  1 ****  10 GROUP 4 **** **** 0

# MOE 2024.06 (io_trps.svl 2023.06)
