@<TRIPOS>MOLECULE
NONAME
39 40 1 0 0 
SMALL
USER_CHARGES


@<TRIPOS>ATOM
  1 O       -0.3810     0.0470    -1.9210 O.2   1 <1>  -0.5700 
  2 C        0.7170    -0.0470    -1.4050 C.2   1 <1>   0.6900 
  3 N        1.3330     0.9840    -0.7700 N.am  1 <1>  -0.5470 
  4 N        1.3940    -1.2150    -1.4210 N.am  1 <1>  -0.7300 
  5 C        0.9710     2.3160    -0.5460 C.ar  1 <1>   0.1170 
  6 C        1.3630    -2.1530    -0.2430 C.3   1 <1>   0.1940 
  7 C        0.0480     2.9980    -1.3320 C.ar  1 <1>  -0.1500 
  8 C        1.5720     2.9950     0.5040 C.ar  1 <1>  -0.1500 
  9 C        2.3220    -1.6120     0.8830 C.2   1 <1>   0.9060 
 10 C        1.8720    -3.5020    -0.8000 C.3   1 <1>  -0.1600 
 11 C       -0.1090    -2.3050     0.2260 C.3   1 <1>  -0.1600 
 12 C       -0.2640     4.3200    -1.0710 C.ar  1 <1>  -0.1500 
 13 C        1.2630     4.3180     0.7680 C.ar  1 <1>  -0.1500 
 14 O        3.0770    -0.6610     0.5930 O.co2 1 <1>  -0.9000 
 15 O        2.3460    -2.0960     2.0220 O.co2 1 <1>  -0.9000 
 16 C        1.6420    -4.6850     0.1540 C.3   1 <1>  -0.1600 
 17 C       -0.3540    -3.5110     1.1490 C.3   1 <1>  -0.1600 
 18 C        0.3400     4.9890    -0.0190 C.ar  1 <1>  -0.1430 
 19 C        0.1600    -4.8110     0.5210 C.3   1 <1>  -0.1600 
 20 C       -0.0020     6.4400     0.2650 C.3   1 <1>  -0.0970 
 21 H        2.1140     0.6300    -0.1860 H     1 <1>   0.3700 
 22 H        2.3880    -1.0290    -1.5670 H     1 <1>   0.3700 
 23 H       -0.4250     2.4910    -2.1520 H     1 <1>   0.1500 
 24 H        2.2870     2.4740     1.1190 H     1 <1>   0.1500 
 25 H        2.9240    -3.4200    -1.0070 H     1 <1>   0.0800 
 26 H        1.3620    -3.7120    -1.7230 H     1 <1>   0.0800 
 27 H       -0.7370    -2.4170    -0.6400 H     1 <1>   0.0800 
 28 H       -0.4080    -1.4100     0.7420 H     1 <1>   0.0800 
 29 H       -0.9810     4.8240    -1.6940 H     1 <1>   0.1500 
 30 H        1.7440     4.8190     1.5880 H     1 <1>   0.1500 
 31 H        2.2210    -4.5400     1.0510 H     1 <1>   0.0800 
 32 H        1.9790    -5.5940    -0.3120 H     1 <1>   0.0800 
 33 H       -1.4060    -3.5970     1.3530 H     1 <1>   0.0800 
 34 H        0.1470    -3.3490     2.0890 H     1 <1>   0.0800 
 35 H        0.0300    -5.6200     1.2180 H     1 <1>   0.0800 
 36 H       -0.4120    -5.0320    -0.3630 H     1 <1>   0.0800 
 37 H       -1.0220     6.6440    -0.0060 H     1 <1>   0.0800 
 38 H        0.6450     7.0840    -0.3030 H     1 <1>   0.0800 
 39 H        0.1210     6.6580     1.3110 H     1 <1>   0.0800 
@<TRIPOS>BOND
  1   1   2  2   
  2   2   3  am  
  3   2   4  am  
  4   3   5  1   
  5   3  21  1   
  6   4   6  1   
  7   4  22  1   
  8   5   7  ar  
  9   5   8  ar  
 10   6   9  1   
 11   6  10  1   
 12   6  11  1   
 13   7  12  ar  
 14   7  23  1   
 15   8  13  ar  
 16   8  24  1   
 17   9  14  ar  
 18   9  15  ar  
 19  10  16  1   
 20  10  25  1   
 21  10  26  1   
 22  11  17  1   
 23  11  27  1   
 24  11  28  1   
 25  12  18  ar  
 26  12  29  1   
 27  13  18  ar  
 28  13  30  1   
 29  16  19  1   
 30  16  31  1   
 31  16  32  1   
 32  17  19  1   
 33  17  33  1   
 34  17  34  1   
 35  18  20  1   
 36  19  35  1   
 37  19  36  1   
 38  20  37  1   
 39  20  38  1   
 40  20  39  1   
@<TRIPOS>SUBSTRUCTURE
  1 ****   3 GROUP 4 **** **** 0

# MOE 2024.06 (io_trps.svl 2023.06)
