@<TRIPOS>MOLECULE
1-(6,7-Dihydro-5H-cyclopenta[d][1,2,4]triazolo[1,5-a]pyrimidin-8-yl)-piperidine-4-carboxylic acid isobutyl-
52 55 1 0 0 
SMALL
USER_CHARGES


@<TRIPOS>ATOM
  1 O        0.9370     3.0770    -1.6350 O.2   1 <1>  -0.5700 
  2 C        0.7580     2.3700    -0.6730 C.2   1 <1>   0.5690 
  3 N       -0.4670     1.8770    -0.3560 N.am  1 <1>  -0.7300 
  4 C        1.9430     2.0220     0.2250 C.3   1 <1>  -0.0190 
  5 C       -1.7170     2.1810    -1.0910 C.3   1 <1>   0.1400 
  6 C        2.5590     3.2980     0.8320 C.3   1 <1>  -0.1600 
  7 C        3.0050     1.2200    -0.5510 C.3   1 <1>  -0.1600 
  8 C       -2.7720     2.7750    -0.1430 C.3   1 <1>  -0.0800 
  9 C        3.8190     3.0020     1.6480 C.3   1 <1>   0.2090 
 10 C        4.2370     0.9290     0.3060 C.3   1 <1>   0.2090 
 11 C       -4.0890     2.9950    -0.8970 C.3   1 <1>  -0.2400 
 12 C       -2.3060     4.1050     0.4710 C.3   1 <1>  -0.2400 
 13 N        4.7750     2.2130     0.8270 N.pl3 1 <1>  -0.8380 
 14 C        6.0570     2.6160     0.5830 C.2   1 <1>   0.4790 
 15 N        7.1060     1.7950     0.9040 N.pl3 1 <1>  -0.3220 
 16 C        6.4090     3.8240     0.0200 C.2   1 <1>  -0.1240 
 17 N        7.1340     0.5490     1.4920 N.2   1 <1>  -0.2600 
 18 C        8.3660     2.2120     0.6890 C.cat 1 <1>   0.9620 
 19 C        7.7410     4.1300    -0.1630 C.2   1 <1>   0.3750 
 20 C        5.5200     4.9370    -0.4960 C.3   1 <1>  -0.0220 
 21 C        8.3820     0.2730     1.5980 C.2   1 <1>   0.5030 
 22 N        8.7520     3.3640     0.1580 N.2   1 <1>  -0.6120 
 23 N        9.1760     1.2630     1.1150 N.pl3 1 <1>  -0.7000 
 24 C        7.9080     5.4850    -0.8010 C.3   1 <1>  -0.0990 
 25 C        6.4860     5.8640    -1.2530 C.3   1 <1>  -0.1600 
 26 H       -0.5840     1.2900     0.4690 H     1 <1>   0.3700 
 27 H        1.5870     1.4080     1.0330 H     1 <1>   0.0800 
 28 H       -2.0900     1.2720    -1.5300 H     1 <1>   0.0800 
 29 H       -1.5140     2.8760    -1.8900 H     1 <1>   0.0800 
 30 H        1.8340     3.7810     1.4620 H     1 <1>   0.0800 
 31 H        2.8040     3.9860     0.0430 H     1 <1>   0.0800 
 32 H        3.3130     1.7740    -1.4210 H     1 <1>   0.0800 
 33 H        2.5800     0.2930    -0.8910 H     1 <1>   0.0800 
 34 H       -2.9570     2.0700     0.6490 H     1 <1>   0.0800 
 35 H        3.5570     2.4310     2.5230 H     1 <1>   0.0800 
 36 H        4.2730     3.9210     1.9760 H     1 <1>   0.0800 
 37 H        4.9800     0.4260    -0.2920 H     1 <1>   0.0800 
 38 H        3.9750     0.2880     1.1320 H     1 <1>   0.0800 
 39 H       -3.9540     3.6980    -1.7010 H     1 <1>   0.0800 
 40 H       -4.8420     3.3790    -0.2310 H     1 <1>   0.0800 
 41 H       -4.4460     2.0670    -1.3090 H     1 <1>   0.0800 
 42 H       -2.0840     4.8190    -0.3030 H     1 <1>   0.0800 
 43 H       -1.4200     3.9620     1.0640 H     1 <1>   0.0800 
 44 H       -3.0710     4.5140     1.1070 H     1 <1>   0.0800 
 45 H        5.0650     5.4620     0.3270 H     1 <1>   0.0800 
 46 H        4.7550     4.5570    -1.1520 H     1 <1>   0.0800 
 47 H        8.7750    -0.6400     2.0220 H     1 <1>   0.1500 
 48 H       10.1890     1.3320     1.0690 H     1 <1>   0.4500 
 49 H        8.5870     5.4430    -1.6350 H     1 <1>   0.0800 
 50 H        8.2770     6.1830    -0.0700 H     1 <1>   0.0800 
 51 H        6.2700     6.9020    -1.0660 H     1 <1>   0.0800 
 52 H        6.3910     5.6800    -2.3110 H     1 <1>   0.0800 
@<TRIPOS>BOND
  1   1   2  2   
  2   2   3  am  
  3   2   4  1   
  4   3   5  1   
  5   3  26  1   
  6   4   6  1   
  7   4   7  1   
  8   4  27  1   
  9   5   8  1   
 10   5  28  1   
 11   5  29  1   
 12   6   9  1   
 13   6  30  1   
 14   6  31  1   
 15   7  10  1   
 16   7  32  1   
 17   7  33  1   
 18   8  11  1   
 19   8  12  1   
 20   8  34  1   
 21   9  13  1   
 22   9  35  1   
 23   9  36  1   
 24  10  13  1   
 25  10  37  1   
 26  10  38  1   
 27  11  39  1   
 28  11  40  1   
 29  11  41  1   
 30  12  42  1   
 31  12  43  1   
 32  12  44  1   
 33  13  14  1   
 34  14  15  1   
 35  14  16  2   
 36  15  17  1   
 37  15  18  ar  
 38  16  19  1   
 39  16  20  1   
 40  17  21  2   
 41  18  22  1   
 42  18  23  ar  
 43  19  22  2   
 44  19  24  1   
 45  20  25  1   
 46  20  45  1   
 47  20  46  1   
 48  21  23  1   
 49  21  47  1   
 50  23  48  1   
 51  24  25  1   
 52  24  49  1   
 53  24  50  1   
 54  25  51  1   
 55  25  52  1   
@<TRIPOS>SUBSTRUCTURE
  1 ****  13 GROUP 4 **** **** 0

# MOE 2024.06 (io_trps.svl 2023.06)
