@<TRIPOS>MOLECULE
4-(4-Ethoxy-benzoylamino)-piperidine-1-carboxylic acid phenylamide
52 54 1 0 0 
SMALL
USER_CHARGES


@<TRIPOS>ATOM
  1 O        0.3400     0.2160    -0.2970 O.2   1 <1>  -0.5700 
  2 C        0.9030     1.2890    -0.1920 C.2   1 <1>   0.6900 
  3 N        2.0850     1.5180    -0.8540 N.am  1 <1>  -0.6600 
  4 N        0.3970     2.2740     0.6070 N.am  1 <1>  -0.5470 
  5 C        2.6300     2.8680    -1.1670 C.3   1 <1>   0.1400 
  6 C        2.8440     0.3960    -1.4740 C.3   1 <1>   0.1400 
  7 C       -0.8220     2.3860     1.2910 C.ar  1 <1>   0.1170 
  8 C        4.0770     2.9490    -0.6800 C.3   1 <1>  -0.1600 
  9 C        4.3020     0.4540    -1.0100 C.3   1 <1>  -0.1600 
 10 C       -1.9680     1.6950     0.9100 C.ar  1 <1>  -0.1500 
 11 C       -0.9000     3.2400     2.3860 C.ar  1 <1>  -0.1500 
 12 C        4.9110     1.8270    -1.3000 C.3   1 <1>   0.2200 
 13 C       -3.1540     1.8480     1.6050 C.ar  1 <1>  -0.1500 
 14 C       -2.0840     3.3980     3.0840 C.ar  1 <1>  -0.1500 
 15 N        6.2730     1.8780    -0.7440 N.am  1 <1>  -0.7300 
 16 C       -3.2140     2.7010     2.6940 C.ar  1 <1>  -0.1500 
 17 C        7.3340     2.5120    -1.3290 C.2   1 <1>   0.5440 
 18 O        7.1410     3.1170    -2.3660 O.2   1 <1>  -0.5700 
 19 C        8.6490     2.4840    -0.7140 C.ar  1 <1>   0.0860 
 20 C        9.5630     3.5160    -0.9300 C.ar  1 <1>  -0.1500 
 21 C        9.0590     1.4340     0.1140 C.ar  1 <1>  -0.1500 
 22 C       10.8140     3.5110    -0.3410 C.ar  1 <1>  -0.1500 
 23 C       10.3090     1.4220     0.7080 C.ar  1 <1>  -0.1500 
 24 C       11.1980     2.4680     0.4850 C.ar  1 <1>   0.0820 
 25 O       12.4360     2.5380     1.0250 O.3   1 <1>  -0.3620 
 26 C       12.9420     1.5250     1.8620 C.3   1 <1>   0.1200 
 27 C       14.3550     1.9200     2.2800 C.3   1 <1>  -0.2400 
 28 H        1.0810     2.9890     0.8180 H     1 <1>   0.3700 
 29 H        2.0430     3.6460    -0.7130 H     1 <1>   0.0800 
 30 H        2.5980     3.0150    -2.2340 H     1 <1>   0.0800 
 31 H        2.7900     0.4850    -2.5460 H     1 <1>   0.0800 
 32 H        2.4180    -0.5540    -1.1950 H     1 <1>   0.0800 
 33 H        4.0930     2.8780     0.3920 H     1 <1>   0.0800 
 34 H        4.4930     3.8990    -0.9690 H     1 <1>   0.0800 
 35 H        4.8630    -0.3040    -1.5260 H     1 <1>   0.0800 
 36 H        4.3320     0.2470     0.0440 H     1 <1>   0.0800 
 37 H       -1.9370     1.0330     0.0640 H     1 <1>   0.1500 
 38 H       -0.0290     3.7840     2.7000 H     1 <1>   0.1500 
 39 H        4.9560     1.9710    -2.3680 H     1 <1>   0.0800 
 40 H       -4.0290     1.3030     1.2980 H     1 <1>   0.1500 
 41 H       -2.1290     4.0600     3.9300 H     1 <1>   0.1500 
 42 H        6.3740     1.5040     0.1990 H     1 <1>   0.3700 
 43 H       -4.1370     2.8200     3.2350 H     1 <1>   0.1500 
 44 H        9.2830     4.3340    -1.5720 H     1 <1>   0.1500 
 45 H        8.3940     0.6090     0.2900 H     1 <1>   0.1500 
 46 H       11.5030     4.3170    -0.5180 H     1 <1>   0.1500 
 47 H       10.5760     0.5930     1.3370 H     1 <1>   0.1500 
 48 H       12.9530     0.6000     1.3110 H     1 <1>   0.0800 
 49 H       12.3000     1.4410     2.7230 H     1 <1>   0.0800 
 50 H       14.9830     2.0170     1.4130 H     1 <1>   0.0800 
 51 H       14.7710     1.1640     2.9220 H     1 <1>   0.0800 
 52 H       14.3350     2.8520     2.8150 H     1 <1>   0.0800 
@<TRIPOS>BOND
  1   1   2  2   
  2   2   3  am  
  3   2   4  am  
  4   3   5  1   
  5   3   6  1   
  6   4   7  1   
  7   4  28  1   
  8   5   8  1   
  9   5  29  1   
 10   5  30  1   
 11   6   9  1   
 12   6  31  1   
 13   6  32  1   
 14   7  10  ar  
 15   7  11  ar  
 16   8  12  1   
 17   8  33  1   
 18   8  34  1   
 19   9  12  1   
 20   9  35  1   
 21   9  36  1   
 22  10  13  ar  
 23  10  37  1   
 24  11  14  ar  
 25  11  38  1   
 26  12  15  1   
 27  12  39  1   
 28  13  16  ar  
 29  13  40  1   
 30  14  16  ar  
 31  14  41  1   
 32  15  17  am  
 33  15  42  1   
 34  16  43  1   
 35  17  18  2   
 36  17  19  1   
 37  19  20  ar  
 38  19  21  ar  
 39  20  22  ar  
 40  20  44  1   
 41  21  23  ar  
 42  21  45  1   
 43  22  24  ar  
 44  22  46  1   
 45  23  24  ar  
 46  23  47  1   
 47  24  25  1   
 48  25  26  1   
 49  26  27  1   
 50  26  48  1   
 51  26  49  1   
 52  27  50  1   
 53  27  51  1   
 54  27  52  1   
@<TRIPOS>SUBSTRUCTURE
  1 ****   8 GROUP 4 **** **** 0

# MOE 2024.06 (io_trps.svl 2023.06)
