@<TRIPOS>MOLECULE
3-(2-Methanesulfonyl-6,7-dimethoxy-1,2,3,4-tetrahydro-isoquinolin-1-yl)-8-methyl-1H-quinolin-2-one
54 57 1 0 0 
SMALL
USER_CHARGES


@<TRIPOS>ATOM
  1 S       -0.1690    -0.2870     0.2800 S.o2  1 <1>   1.3330 
  2 O       -0.6550    -1.5680     0.7400 O.2   1 <1>  -0.6500 
  3 O        0.3340    -0.1740    -1.0710 O.2   1 <1>  -0.6500 
  4 N       -1.3840     0.8620     0.5180 N.am  1 <1>  -0.8490 
  5 C        1.0980     0.2310     1.4200 C.3   1 <1>  -0.1350 
  6 C       -1.3470     1.9500    -0.4760 C.3   1 <1>   0.5570 
  7 C       -2.7190     0.2860     0.6900 C.3   1 <1>   0.1960 
  8 C       -0.1400     2.8450    -0.2290 C.2   1 <1>  -0.1240 
  9 C       -2.6260     2.8000    -0.5490 C.ar  1 <1>  -0.1440 
 10 C       -3.6890     1.3540     1.1940 C.3   1 <1>  -0.0160 
 11 C       -0.0940     3.6120     0.9810 C.2   1 <1>   0.6160 
 12 C        0.8740     2.9300    -1.1310 C.2   1 <1>  -0.1780 
 13 C       -3.7380     2.5250     0.2330 C.ar  1 <1>  -0.1440 
 14 C       -2.6810     3.8700    -1.4310 C.ar  1 <1>  -0.1500 
 15 O       -0.9170     3.5750     1.8760 O.2   1 <1>  -0.5700 
 16 N        0.9770     4.4310     1.1670 N.am  1 <1>  -0.5470 
 17 C        2.0000     3.7840    -0.9040 C.ar  1 <1>   0.0280 
 18 C       -4.8760     3.3100     0.1390 C.ar  1 <1>  -0.1500 
 19 C       -3.8080     4.6680    -1.5320 C.ar  1 <1>   0.0830 
 20 C        2.0360     4.5520     0.2730 C.ar  1 <1>   0.1170 
 21 C        3.0580     3.8840    -1.8070 C.ar  1 <1>  -0.1500 
 22 C       -4.9330     4.3860    -0.7440 C.ar  1 <1>   0.0830 
 23 O       -3.7180     5.6910    -2.4250 O.3   1 <1>  -0.3630 
 24 C        3.1170     5.4050     0.5210 C.ar  1 <1>  -0.1430 
 25 C        4.1200     4.7230    -1.5560 C.ar  1 <1>  -0.1500 
 26 O       -6.0560     5.1520    -0.8720 O.3   1 <1>  -0.3630 
 27 C       -4.2240     6.9640    -2.0870 C.3   1 <1>   0.0400 
 28 C        4.1480     5.4830    -0.3940 C.ar  1 <1>  -0.1500 
 29 C        3.1700     6.2490     1.7880 C.3   1 <1>  -0.0970 
 30 C       -7.2280     4.8960    -0.1300 C.3   1 <1>   0.0400 
 31 H        1.8980    -0.4830     1.4270 H     1 <1>   0.0800 
 32 H        0.6920     0.3050     2.4090 H     1 <1>   0.0800 
 33 H        1.4970     1.1850     1.1380 H     1 <1>   0.0800 
 34 H       -1.2580     1.5120    -1.4560 H     1 <1>   0.0800 
 35 H       -2.6900    -0.5040     1.4220 H     1 <1>   0.0800 
 36 H       -3.0650    -0.1270    -0.2430 H     1 <1>   0.0800 
 37 H       -3.3640     1.7010     2.1600 H     1 <1>   0.0800 
 38 H       -4.6660     0.9200     1.3010 H     1 <1>   0.0800 
 39 H        0.8710     2.3590    -2.0440 H     1 <1>   0.1500 
 40 H       -1.8400     4.1080    -2.0560 H     1 <1>   0.1500 
 41 H        0.9570     4.9770     2.0250 H     1 <1>   0.3700 
 42 H       -5.7110     3.0660     0.7650 H     1 <1>   0.1500 
 43 H        3.0390     3.2970    -2.7080 H     1 <1>   0.1500 
 44 H        4.9330     4.7950    -2.2580 H     1 <1>   0.1500 
 45 H       -3.7080     7.6970    -2.6780 H     1 <1>   0.0800 
 46 H       -4.0540     7.1450    -1.0400 H     1 <1>   0.0800 
 47 H       -5.2750     6.9900    -2.3110 H     1 <1>   0.0800 
 48 H        4.9880     6.1340    -0.2190 H     1 <1>   0.1500 
 49 H        2.3240     6.9110     1.8250 H     1 <1>   0.0800 
 50 H        4.0650     6.8450     1.8170 H     1 <1>   0.0800 
 51 H        3.1600     5.6130     2.6550 H     1 <1>   0.0800 
 52 H       -7.9680     5.6210    -0.4150 H     1 <1>   0.0800 
 53 H       -7.0060     4.9930     0.9180 H     1 <1>   0.0800 
 54 H       -7.5790     3.9060    -0.3630 H     1 <1>   0.0800 
@<TRIPOS>BOND
  1   1   2  2   
  2   1   3  2   
  3   1   4  am  
  4   1   5  1   
  5   4   6  1   
  6   4   7  1   
  7   5  31  1   
  8   5  32  1   
  9   5  33  1   
 10   6   8  1   
 11   6   9  1   
 12   6  34  1   
 13   7  10  1   
 14   7  35  1   
 15   7  36  1   
 16   8  11  1   
 17   8  12  2   
 18   9  13  ar  
 19   9  14  ar  
 20  10  13  1   
 21  10  37  1   
 22  10  38  1   
 23  11  15  2   
 24  11  16  am  
 25  12  17  1   
 26  12  39  1   
 27  13  18  ar  
 28  14  19  ar  
 29  14  40  1   
 30  16  20  1   
 31  16  41  1   
 32  17  20  ar  
 33  17  21  ar  
 34  18  22  ar  
 35  18  42  1   
 36  19  22  ar  
 37  19  23  1   
 38  20  24  ar  
 39  21  25  ar  
 40  21  43  1   
 41  22  26  1   
 42  23  27  1   
 43  24  28  ar  
 44  24  29  1   
 45  25  28  ar  
 46  25  44  1   
 47  26  30  1   
 48  27  45  1   
 49  27  46  1   
 50  27  47  1   
 51  28  48  1   
 52  29  49  1   
 53  29  50  1   
 54  29  51  1   
 55  30  52  1   
 56  30  53  1   
 57  30  54  1   
@<TRIPOS>SUBSTRUCTURE
  1 ****   8 GROUP 4 **** **** 0

# MOE 2024.06 (io_trps.svl 2023.06)
