@<TRIPOS>MOLECULE
1-(5-Methyl-[1,2,4]triazolo[1,5-a]pyrimidin-7-yl)-piperidine-4-carboxylic acid 2,4-dimethoxy-benzylamide
57 60 1 0 0 
SMALL
USER_CHARGES


@<TRIPOS>ATOM
  1 O       -0.9040    -1.2060    -1.5890 O.2   1 <1>  -0.5700 
  2 C       -0.5920    -1.4790    -0.4540 C.2   1 <1>   0.5690 
  3 N        0.7010    -1.4920    -0.0510 N.am  1 <1>  -0.7300 
  4 C       -1.6730    -1.8560     0.5540 C.3   1 <1>  -0.0190 
  5 C        1.8610    -1.3540    -0.9490 C.3   1 <1>   0.2840 
  6 C       -2.1400    -3.3050     0.3170 C.3   1 <1>  -0.1600 
  7 C       -2.8710    -0.8870     0.4980 C.3   1 <1>  -0.1600 
  8 C        2.6300    -2.6630    -0.9130 C.ar  1 <1>  -0.1440 
  9 C       -3.2820    -3.7080     1.2510 C.3   1 <1>   0.2090 
 10 C       -3.9930    -1.3220     1.4400 C.3   1 <1>   0.2090 
 11 C        3.7190    -2.8450    -0.0640 C.ar  1 <1>   0.0830 
 12 C        2.2220    -3.6990    -1.7380 C.ar  1 <1>  -0.1500 
 13 N       -4.3910    -2.7210     1.1180 N.pl3 1 <1>  -0.8380 
 14 O        4.0730    -1.8030     0.7360 O.3   1 <1>  -0.3630 
 15 C        4.3930    -4.0640    -0.0560 C.ar  1 <1>  -0.1500 
 16 C        2.8930    -4.9070    -1.7260 C.ar  1 <1>  -0.1500 
 17 C       -5.6040    -3.0390     0.5730 C.2   1 <1>   0.4790 
 18 C        5.2370    -1.8370     1.5330 C.3   1 <1>   0.0400 
 19 C        3.9790    -5.0980    -0.8890 C.ar  1 <1>   0.0830 
 20 N       -6.2740    -4.1700     0.9560 N.pl3 1 <1>  -0.3220 
 21 C       -6.2320    -2.2650    -0.3750 C.2   1 <1>  -0.1360 
 22 O        4.5750    -6.3160    -0.9400 O.3   1 <1>  -0.3620 
 23 N       -5.9870    -5.1260     1.9060 N.2   1 <1>  -0.2600 
 24 C       -7.4680    -4.4410     0.4070 C.cat 1 <1>   0.9620 
 25 C       -7.4640    -2.6500    -0.8870 C.2   1 <1>   0.3750 
 26 C        5.6990    -6.6220    -0.1460 C.3   1 <1>   0.0400 
 27 C       -6.9910    -5.9210     1.8770 C.2   1 <1>   0.5030 
 28 N       -8.1010    -3.7310    -0.5140 N.2   1 <1>  -0.6120 
 29 N       -7.9240    -5.5430     0.9670 N.pl3 1 <1>  -0.7000 
 30 C       -8.1430    -1.7980    -1.9400 C.3   1 <1>  -0.1790 
 31 H        0.9570    -1.7980     0.8880 H     1 <1>   0.3700 
 32 H       -1.2470    -1.7980     1.5400 H     1 <1>   0.0800 
 33 H        2.4750    -0.5320    -0.6220 H     1 <1>   0.0800 
 34 H        1.5360    -1.1460    -1.9540 H     1 <1>   0.0800 
 35 H       -1.3110    -3.9770     0.4590 H     1 <1>   0.0800 
 36 H       -2.4710    -3.4130    -0.7020 H     1 <1>   0.0800 
 37 H       -3.2560    -0.8410    -0.5060 H     1 <1>   0.0800 
 38 H       -2.5440     0.1020     0.7640 H     1 <1>   0.0800 
 39 H       -2.9400    -3.7270     2.2730 H     1 <1>   0.0800 
 40 H       -3.6140    -4.6970     0.9870 H     1 <1>   0.0800 
 41 H       -4.8340    -0.6560     1.3480 H     1 <1>   0.0800 
 42 H       -3.6500    -1.2800     2.4610 H     1 <1>   0.0800 
 43 H        1.3760    -3.5650    -2.3910 H     1 <1>   0.1500 
 44 H        5.2300    -4.2110     0.5940 H     1 <1>   0.1500 
 45 H        2.5770    -5.7110    -2.3670 H     1 <1>   0.1500 
 46 H        5.3330    -0.8860     2.0250 H     1 <1>   0.0800 
 47 H        6.0890    -2.0080     0.8990 H     1 <1>   0.0800 
 48 H        5.1370    -2.6180     2.2660 H     1 <1>   0.0800 
 49 H       -5.7580    -1.3700    -0.7290 H     1 <1>   0.1500 
 50 H        5.9950    -7.6330    -0.3630 H     1 <1>   0.0800 
 51 H        5.4280    -6.5360     0.8920 H     1 <1>   0.0800 
 52 H        6.4980    -5.9460    -0.3950 H     1 <1>   0.0800 
 53 H       -7.1010    -6.7970     2.5010 H     1 <1>   0.1500 
 54 H       -8.8200    -5.9620     0.7280 H     1 <1>   0.4500 
 55 H       -7.5460    -0.9420    -2.1970 H     1 <1>   0.0800 
 56 H       -9.0950    -1.4570    -1.5740 H     1 <1>   0.0800 
 57 H       -8.3070    -2.3810    -2.8290 H     1 <1>   0.0800 
@<TRIPOS>BOND
  1   1   2  2   
  2   2   3  am  
  3   2   4  1   
  4   3   5  1   
  5   3  31  1   
  6   4   6  1   
  7   4   7  1   
  8   4  32  1   
  9   5   8  1   
 10   5  33  1   
 11   5  34  1   
 12   6   9  1   
 13   6  35  1   
 14   6  36  1   
 15   7  10  1   
 16   7  37  1   
 17   7  38  1   
 18   8  11  ar  
 19   8  12  ar  
 20   9  13  1   
 21   9  39  1   
 22   9  40  1   
 23  10  13  1   
 24  10  41  1   
 25  10  42  1   
 26  11  14  1   
 27  11  15  ar  
 28  12  16  ar  
 29  12  43  1   
 30  13  17  1   
 31  14  18  1   
 32  15  19  ar  
 33  15  44  1   
 34  16  19  ar  
 35  16  45  1   
 36  17  20  1   
 37  17  21  2   
 38  18  46  1   
 39  18  47  1   
 40  18  48  1   
 41  19  22  1   
 42  20  23  1   
 43  20  24  ar  
 44  21  25  1   
 45  21  49  1   
 46  22  26  1   
 47  23  27  2   
 48  24  28  1   
 49  24  29  ar  
 50  25  28  2   
 51  25  30  1   
 52  26  50  1   
 53  26  51  1   
 54  26  52  1   
 55  27  29  1   
 56  27  53  1   
 57  29  54  1   
 58  30  55  1   
 59  30  56  1   
 60  30  57  1   
@<TRIPOS>SUBSTRUCTURE
  1 ****   6 GROUP 4 **** **** 0

# MOE 2024.06 (io_trps.svl 2023.06)
