@<TRIPOS>MOLECULE
2-(5-Amino-8-benzyl-7-methyl-[1,2,4]triazolo[4,3-c]pyrimidin-3-ylsulfanyl)-1-(2-methyl-piperidin-1-yl)-ethano
55 58 1 0 0 
SMALL
USER_CHARGES


@<TRIPOS>ATOM
  1 S        0.4770     0.5060    -0.2900 S.3   1 <1>  -0.2860 
  2 C        2.0390    -0.1890     0.2720 C.2   1 <1>   0.2420 
  3 C       -0.6380    -0.9780    -0.3580 C.3   1 <1>   0.1310 
  4 N        2.1750    -1.4250     0.6030 N.2   1 <1>  -0.3380 
  5 N        3.1590     0.5300     0.3840 N.pl3 1 <1>   0.2940 
  6 C       -2.0370    -0.5880    -0.8220 C.2   1 <1>   0.5690 
  7 N        3.4480    -1.5710     0.9620 N.2   1 <1>  -0.3380 
  8 C        3.5630     1.8510     0.1760 C.2   1 <1>   0.5090 
  9 C        4.0290    -0.4010     0.8250 C.2   1 <1>   0.1410 
 10 O       -2.1150     0.0670    -1.8350 O.2   1 <1>  -0.5700 
 11 N       -3.1450    -1.0100    -0.1180 N.am  1 <1>  -0.6600 
 12 N        4.7780     2.2450     0.3910 N.2   1 <1>  -0.6210 
 13 N        2.6910     2.7940    -0.2690 N.pl3 1 <1>  -0.8500 
 14 C        5.3680     0.0110     1.0560 C.2   1 <1>  -0.0930 
 15 C       -4.5090    -0.4040    -0.2060 C.3   1 <1>   0.2200 
 16 C       -3.1960    -2.3540     0.5270 C.3   1 <1>   0.1400 
 17 C        5.6870     1.3230     0.8230 C.2   1 <1>   0.0330 
 18 C        6.3570    -1.0480     1.5440 C.3   1 <1>   0.1220 
 19 C       -5.3710    -1.2730    -1.1290 C.3   1 <1>  -0.1600 
 20 C       -4.5290     1.0720    -0.6140 C.3   1 <1>  -0.2400 
 21 C       -4.0480    -3.2880    -0.3430 C.3   1 <1>  -0.1600 
 22 C        7.0710     1.9240     0.9990 C.3   1 <1>  -0.1020 
 23 C        7.2040    -1.5890     0.3980 C.ar  1 <1>  -0.1430 
 24 C       -5.4510    -2.7160    -0.6050 C.3   1 <1>  -0.1600 
 25 C        8.5820    -1.4200     0.3900 C.ar  1 <1>  -0.1500 
 26 C        6.6020    -2.2670    -0.6520 C.ar  1 <1>  -0.1500 
 27 C        9.3430    -1.9120    -0.6560 C.ar  1 <1>  -0.1500 
 28 C        7.3620    -2.7590    -1.6990 C.ar  1 <1>  -0.1500 
 29 C        8.7340    -2.5810    -1.7020 C.ar  1 <1>  -0.1500 
 30 H       -0.6460    -1.3840     0.6340 H     1 <1>   0.0800 
 31 H       -0.1970    -1.6750    -1.0450 H     1 <1>   0.0800 
 32 H        3.0390     3.7370    -0.4510 H     1 <1>   0.4000 
 33 H        1.7210     2.5930    -0.5360 H     1 <1>   0.4000 
 34 H       -4.9380    -0.4460     0.7810 H     1 <1>   0.0800 
 35 H       -3.6320    -2.2630     1.5070 H     1 <1>   0.0800 
 36 H       -2.2160    -2.7810     0.6370 H     1 <1>   0.0800 
 37 H        5.8340    -1.8690     2.0020 H     1 <1>   0.0800 
 38 H        6.9860    -0.6320     2.3080 H     1 <1>   0.0800 
 39 H       -4.9430    -1.2620    -2.1170 H     1 <1>   0.0800 
 40 H       -6.3620    -0.8610    -1.1930 H     1 <1>   0.0800 
 41 H       -4.3060     1.1890    -1.6590 H     1 <1>   0.0800 
 42 H       -3.8200     1.6300    -0.0310 H     1 <1>   0.0800 
 43 H       -5.5080     1.4800    -0.4420 H     1 <1>   0.0800 
 44 H       -4.1340    -4.2460     0.1390 H     1 <1>   0.0800 
 45 H       -3.5440    -3.4400    -1.2820 H     1 <1>   0.0800 
 46 H        7.0320     2.7030     1.7390 H     1 <1>   0.0800 
 47 H        7.3910     2.3560     0.0680 H     1 <1>   0.0800 
 48 H        7.8040     1.2040     1.3000 H     1 <1>   0.0800 
 49 H       -5.9690    -3.3340    -1.3180 H     1 <1>   0.0800 
 50 H       -6.0140    -2.7270     0.3130 H     1 <1>   0.0800 
 51 H        9.0730    -0.9060     1.1970 H     1 <1>   0.1500 
 52 H        5.5360    -2.4160    -0.6610 H     1 <1>   0.1500 
 53 H       10.4100    -1.7740    -0.6560 H     1 <1>   0.1500 
 54 H        6.8850    -3.2820    -2.5090 H     1 <1>   0.1500 
 55 H        9.3250    -2.9630    -2.5160 H     1 <1>   0.1500 
@<TRIPOS>BOND
  1   1   2  1   
  2   1   3  1   
  3   2   4  2   
  4   2   5  1   
  5   3   6  1   
  6   3  30  1   
  7   3  31  1   
  8   4   7  1   
  9   5   8  1   
 10   5   9  1   
 11   6  10  2   
 12   6  11  am  
 13   7   9  2   
 14   8  12  2   
 15   8  13  1   
 16   9  14  1   
 17  11  15  1   
 18  11  16  1   
 19  12  17  1   
 20  13  32  1   
 21  13  33  1   
 22  14  17  2   
 23  14  18  1   
 24  15  19  1   
 25  15  20  1   
 26  15  34  1   
 27  16  21  1   
 28  16  35  1   
 29  16  36  1   
 30  17  22  1   
 31  18  23  1   
 32  18  37  1   
 33  18  38  1   
 34  19  24  1   
 35  19  39  1   
 36  19  40  1   
 37  20  41  1   
 38  20  42  1   
 39  20  43  1   
 40  21  24  1   
 41  21  44  1   
 42  21  45  1   
 43  22  46  1   
 44  22  47  1   
 45  22  48  1   
 46  23  25  ar  
 47  23  26  ar  
 48  24  49  1   
 49  24  50  1   
 50  25  27  ar  
 51  25  51  1   
 52  26  28  ar  
 53  26  52  1   
 54  27  29  ar  
 55  27  53  1   
 56  28  29  ar  
 57  28  54  1   
 58  29  55  1   
@<TRIPOS>SUBSTRUCTURE
  1 ****   2 GROUP 4 **** **** 0

# MOE 2024.06 (io_trps.svl 2023.06)
