@<TRIPOS>MOLECULE
2-(2,4-Dioxo-3-phenyl-3,4-dihydro-2H-thieno[3,2-d]pyrimidin-1-yl)-N-(tetrahydro-
46 49 1 0 0 
SMALL
USER_CHARGES


@<TRIPOS>ATOM
  1 S        1.2330    -0.6200    -3.0110 S.3   1 <1>  -0.0800 
  2 C        2.1690    -1.1650    -1.6120 C.2   1 <1>  -0.0450 
  3 C       -0.0560    -1.7540    -2.6430 C.2   1 <1>  -0.1100 
  4 C        3.4560    -0.6970    -1.2400 C.2   1 <1>   0.7150 
  5 C        1.4880    -2.1210    -0.9390 C.2   1 <1>   0.0630 
  6 C        0.2310    -2.4650    -1.5350 C.2   1 <1>  -0.1500 
  7 O        4.0070     0.2130    -1.8390 O.2   1 <1>  -0.5700 
  8 N        4.0690    -1.3170    -0.1560 N.am  1 <1>  -0.2370 
  9 N        2.0710    -2.6490     0.2100 N.am  1 <1>  -0.4230 
 10 C        3.3580    -2.2680     0.5810 C.2   1 <1>   0.6900 
 11 C        5.4270    -1.0630     0.1380 C.ar  1 <1>   0.1170 
 12 C        1.3870    -3.7430     0.9750 C.3   1 <1>   0.2010 
 13 O        3.8650    -2.7930     1.5570 O.2   1 <1>  -0.5700 
 14 C        5.8370     0.1810     0.6050 C.ar  1 <1>  -0.1500 
 15 C        6.3840    -2.0580    -0.0340 C.ar  1 <1>  -0.1500 
 16 C        1.7870    -5.1190     0.4600 C.2   1 <1>   0.5690 
 17 C        7.1680     0.4260     0.8920 C.ar  1 <1>  -0.1500 
 18 C        7.7160    -1.8170     0.2530 C.ar  1 <1>  -0.1500 
 19 O        0.9360    -5.8490     0.0100 O.2   1 <1>  -0.5700 
 20 N        3.0940    -5.4810     0.5040 N.am  1 <1>  -0.7300 
 21 C        8.1090    -0.5730     0.7160 C.ar  1 <1>  -0.1500 
 22 C        3.6790    -6.6940    -0.1050 C.3   1 <1>   0.1400 
 23 C        5.1490    -6.8420     0.3150 C.3   1 <1>   0.2000 
 24 O        5.8430    -5.6570     0.0800 O.3   1 <1>  -0.5600 
 25 C        5.9280    -7.8900    -0.4670 C.3   1 <1>  -0.1600 
 26 C        7.2100    -5.9110     0.0190 C.3   1 <1>   0.1200 
 27 C        7.3570    -7.3760    -0.3900 C.3   1 <1>  -0.1600 
 28 H       -0.9020    -1.7740    -3.3070 H     1 <1>   0.1500 
 29 H       -0.4040    -3.2290    -1.1240 H     1 <1>   0.1500 
 30 H        0.3220    -3.6330     0.9040 H     1 <1>   0.0800 
 31 H        1.6450    -3.6790     2.0170 H     1 <1>   0.0800 
 32 H        5.1110     0.9630     0.7380 H     1 <1>   0.1500 
 33 H        6.0840    -3.0290    -0.3870 H     1 <1>   0.1500 
 34 H        7.4720     1.3940     1.2510 H     1 <1>   0.1500 
 35 H        8.4450    -2.5960     0.1170 H     1 <1>   0.1500 
 36 H        3.8010    -4.8090     0.8430 H     1 <1>   0.3700 
 37 H        9.1450    -0.3830     0.9400 H     1 <1>   0.1500 
 38 H        3.6140    -6.6130    -1.1760 H     1 <1>   0.0800 
 39 H        3.1170    -7.5590     0.2020 H     1 <1>   0.0800 
 40 H        5.2100    -7.0490     1.3700 H     1 <1>   0.0800 
 41 H        5.5970    -7.9050    -1.4910 H     1 <1>   0.0800 
 42 H        5.8160    -8.8720    -0.0420 H     1 <1>   0.0800 
 43 H        7.6280    -5.7310     0.9950 H     1 <1>   0.0800 
 44 H        7.6490    -5.2420    -0.7000 H     1 <1>   0.0800 
 45 H        7.8620    -7.4660    -1.3350 H     1 <1>   0.0800 
 46 H        7.9200    -7.9050     0.3600 H     1 <1>   0.0800 
@<TRIPOS>BOND
  1   1   2  1   
  2   1   3  1   
  3   2   4  1   
  4   2   5  2   
  5   3   6  2   
  6   3  28  1   
  7   4   7  2   
  8   4   8  am  
  9   5   6  1   
 10   5   9  1   
 11   6  29  1   
 12   8  10  am  
 13   8  11  1   
 14   9  10  am  
 15   9  12  1   
 16  10  13  2   
 17  11  14  ar  
 18  11  15  ar  
 19  12  16  1   
 20  12  30  1   
 21  12  31  1   
 22  14  17  ar  
 23  14  32  1   
 24  15  18  ar  
 25  15  33  1   
 26  16  19  2   
 27  16  20  am  
 28  17  21  ar  
 29  17  34  1   
 30  18  21  ar  
 31  18  35  1   
 32  20  22  1   
 33  20  36  1   
 34  21  37  1   
 35  22  23  1   
 36  22  38  1   
 37  22  39  1   
 38  23  24  1   
 39  23  25  1   
 40  23  40  1   
 41  24  26  1   
 42  25  27  1   
 43  25  41  1   
 44  25  42  1   
 45  26  27  1   
 46  26  43  1   
 47  26  44  1   
 48  27  45  1   
 49  27  46  1   
@<TRIPOS>SUBSTRUCTURE
  1 ****  10 GROUP 4 **** **** 0

# MOE 2024.06 (io_trps.svl 2023.06)
