@<TRIPOS>MOLECULE
ka-03973
37 39 1 0 0 
SMALL
USER_CHARGES


@<TRIPOS>ATOM
  1 O       -0.7700    -0.0020    -1.4880 O.2   1 <1>  -0.5700 
  2 C       -1.6290     0.6920    -0.9060 C.2   1 <1>   0.6160 
  3 N       -2.8510     0.0800    -0.6050 N.am  1 <1>  -0.4770 
  4 C       -1.4050     2.0300    -0.5590 C.2   1 <1>  -0.1240 
  5 C       -3.8880     0.8220    -0.0090 C.ar  1 <1>   0.1170 
  6 C       -3.0500    -1.3480    -0.9740 C.3   1 <1>   0.1400 
  7 C       -2.3920     2.7870     0.0690 C.2   1 <1>  -0.1780 
  8 C       -0.0550     2.6750    -0.8700 C.3   1 <1>  -0.0220 
  9 C       -3.6690     2.1670     0.3400 C.ar  1 <1>   0.0280 
 10 C       -5.1400     0.2430     0.2490 C.ar  1 <1>  -0.1440 
 11 C       -4.1120    -2.0090    -0.0930 C.3   1 <1>  -0.1600 
 12 O       -2.2000     3.9770     0.3960 O.3   1 <1>  -0.8500 
 13 C        0.9350     2.4330     0.2760 C.3   1 <1>  -0.1600 
 14 C       -4.7040     2.8800     0.9410 C.ar  1 <1>  -0.1500 
 15 C       -6.1460     0.9790     0.8450 C.ar  1 <1>  -0.1500 
 16 C       -5.4100    -1.2040    -0.1290 C.3   1 <1>  -0.0170 
 17 C        2.3010     3.0680    -0.0120 C.3   1 <1>  -0.1600 
 18 C       -5.9290     2.3020     1.1940 C.ar  1 <1>  -0.1500 
 19 C        3.2790     2.8180     1.1390 C.3   1 <1>  -0.2400 
 20 H       -2.1240    -1.8840    -0.8620 H     1 <1>   0.0800 
 21 H       -3.3440    -1.3910    -2.0080 H     1 <1>   0.0800 
 22 H       -0.1920     3.7330    -1.0090 H     1 <1>   0.0800 
 23 H        0.3360     2.2780    -1.7880 H     1 <1>   0.0800 
 24 H       -3.7440    -2.0560     0.9170 H     1 <1>   0.0800 
 25 H       -4.2900    -3.0120    -0.4340 H     1 <1>   0.0800 
 26 H        1.0450     1.3730     0.4240 H     1 <1>   0.0800 
 27 H        0.5150     2.8550     1.1730 H     1 <1>   0.0800 
 28 H       -4.5110     3.9060     1.2010 H     1 <1>   0.1500 
 29 H       -7.1060     0.5370     1.0420 H     1 <1>   0.1500 
 30 H       -5.8260    -1.2290    -1.1210 H     1 <1>   0.0800 
 31 H       -6.1210    -1.6390     0.5500 H     1 <1>   0.0800 
 32 H        2.1750     4.1280    -0.1500 H     1 <1>   0.0800 
 33 H        2.7040     2.6550    -0.9210 H     1 <1>   0.0800 
 34 H       -6.7070     2.8780     1.6580 H     1 <1>   0.1500 
 35 H        2.8920     3.2390     2.0510 H     1 <1>   0.0800 
 36 H        4.2280     3.2740     0.9240 H     1 <1>   0.0800 
 37 H        3.4260     1.7610     1.2810 H     1 <1>   0.0800 
@<TRIPOS>BOND
  1   1   2  2   
  2   2   3  am  
  3   2   4  1   
  4   3   5  1   
  5   3   6  1   
  6   4   7  2   
  7   4   8  1   
  8   5   9  ar  
  9   5  10  ar  
 10   6  11  1   
 11   6  20  1   
 12   6  21  1   
 13   7   9  1   
 14   7  12  1   
 15   8  13  1   
 16   8  22  1   
 17   8  23  1   
 18   9  14  ar  
 19  10  15  ar  
 20  10  16  1   
 21  11  16  1   
 22  11  24  1   
 23  11  25  1   
 24  13  17  1   
 25  13  26  1   
 26  13  27  1   
 27  14  18  ar  
 28  14  28  1   
 29  15  18  ar  
 30  15  29  1   
 31  16  30  1   
 32  16  31  1   
 33  17  19  1   
 34  17  32  1   
 35  17  33  1   
 36  18  34  1   
 37  19  35  1   
 38  19  36  1   
 39  19  37  1   
@<TRIPOS>SUBSTRUCTURE
  1 ****   4 GROUP 4 **** **** 0

# MOE 2024.06 (io_trps.svl 2023.06)
