@<TRIPOS>MOLECULE
4-(4-Fluoro-benzoylamino)-piperidine-1-carboxylic acid o-tolylamide
48 50 1 0 0 
SMALL
USER_CHARGES


@<TRIPOS>ATOM
  1 F        1.3970     0.0350     2.5300 F     1 <1>  -0.1900 
  2 C        2.4660     0.0990     1.7870 C.ar  1 <1>   0.1900 
  3 C        2.6350    -0.8250     0.7750 C.ar  1 <1>  -0.1500 
  4 C        3.3940     1.0920     2.0330 C.ar  1 <1>  -0.1500 
  5 C        3.7750    -0.7490    -0.0070 C.ar  1 <1>  -0.1500 
  6 C        4.5270     1.1530     1.2400 C.ar  1 <1>  -0.1500 
  7 C        4.7490     0.2320     0.2080 C.ar  1 <1>   0.0860 
  8 C        5.9420     0.2830    -0.6210 C.2   1 <1>   0.5440 
  9 O        5.9310    -0.1560    -1.7540 O.2   1 <1>  -0.5700 
 10 N        7.1090     0.8040    -0.1370 N.am  1 <1>  -0.7300 
 11 C        8.3640     0.9180    -0.8980 C.3   1 <1>   0.2200 
 12 C        9.2820    -0.2470    -0.5250 C.3   1 <1>  -0.1600 
 13 C        9.0200     2.2630    -0.5840 C.3   1 <1>  -0.1600 
 14 C       10.6390    -0.1160    -1.2180 C.3   1 <1>   0.1400 
 15 C       10.3760     2.3730    -1.2820 C.3   1 <1>   0.1400 
 16 N       11.2290     1.2140    -0.8970 N.am  1 <1>  -0.6600 
 17 C       12.3240     1.3880    -0.0870 C.2   1 <1>   0.6900 
 18 O       12.4680     2.4240     0.5350 O.2   1 <1>  -0.5700 
 19 N       13.2530     0.3890    -0.0220 N.am  1 <1>  -0.5470 
 20 C       14.3870     0.2100     0.7850 C.ar  1 <1>   0.1170 
 21 C       15.4360    -0.5970     0.3360 C.ar  1 <1>  -0.1430 
 22 C       14.4880     0.7980     2.0430 C.ar  1 <1>  -0.1500 
 23 C       16.5480    -0.7960     1.1390 C.ar  1 <1>  -0.1500 
 24 C       15.3910    -1.2650    -1.0330 C.3   1 <1>  -0.0970 
 25 C       15.6000     0.5970     2.8380 C.ar  1 <1>  -0.1500 
 26 C       16.6330    -0.2020     2.3860 C.ar  1 <1>  -0.1500 
 27 H        1.8910    -1.5820     0.6060 H     1 <1>   0.1500 
 28 H        3.2250     1.7980     2.8260 H     1 <1>   0.1500 
 29 H        3.9200    -1.4600    -0.8030 H     1 <1>   0.1500 
 30 H        5.2460     1.9330     1.4200 H     1 <1>   0.1500 
 31 H        7.1850     1.0330     0.8540 H     1 <1>   0.3700 
 32 H        8.1490     0.8720    -1.9540 H     1 <1>   0.0800 
 33 H        8.8210    -1.1720    -0.8240 H     1 <1>   0.0800 
 34 H        9.4370    -0.2710     0.5390 H     1 <1>   0.0800 
 35 H        9.1730     2.3680     0.4750 H     1 <1>   0.0800 
 36 H        8.3850     3.0610    -0.9220 H     1 <1>   0.0800 
 37 H       10.5160    -0.1980    -2.2850 H     1 <1>   0.0800 
 38 H       11.2790    -0.9150    -0.8890 H     1 <1>   0.0800 
 39 H       10.8510     3.3020    -1.0120 H     1 <1>   0.0800 
 40 H       10.2430     2.3710    -2.3500 H     1 <1>   0.0800 
 41 H       13.1720    -0.2640    -0.7890 H     1 <1>   0.3700 
 42 H       13.6900     1.4180     2.4070 H     1 <1>   0.1500 
 43 H       17.3610    -1.4140     0.8020 H     1 <1>   0.1500 
 44 H       15.2380    -0.5250    -1.7990 H     1 <1>   0.0800 
 45 H       14.5910    -1.9830    -1.0670 H     1 <1>   0.0800 
 46 H       16.3130    -1.7770    -1.2420 H     1 <1>   0.0800 
 47 H       15.6600     1.0630     3.8060 H     1 <1>   0.1500 
 48 H       17.5010    -0.3610     3.0030 H     1 <1>   0.1500 
@<TRIPOS>BOND
  1   1   2  1   
  2   2   3  ar  
  3   2   4  ar  
  4   3   5  ar  
  5   3  27  1   
  6   4   6  ar  
  7   4  28  1   
  8   5   7  ar  
  9   5  29  1   
 10   6   7  ar  
 11   6  30  1   
 12   7   8  1   
 13   8   9  2   
 14   8  10  am  
 15  10  11  1   
 16  10  31  1   
 17  11  12  1   
 18  11  13  1   
 19  11  32  1   
 20  12  14  1   
 21  12  33  1   
 22  12  34  1   
 23  13  15  1   
 24  13  35  1   
 25  13  36  1   
 26  14  16  1   
 27  14  37  1   
 28  14  38  1   
 29  15  16  1   
 30  15  39  1   
 31  15  40  1   
 32  16  17  am  
 33  17  18  2   
 34  17  19  am  
 35  19  20  1   
 36  19  41  1   
 37  20  21  ar  
 38  20  22  ar  
 39  21  23  ar  
 40  21  24  1   
 41  22  25  ar  
 42  22  42  1   
 43  23  26  ar  
 44  23  43  1   
 45  24  44  1   
 46  24  45  1   
 47  24  46  1   
 48  25  26  ar  
 49  25  47  1   
 50  26  48  1   
@<TRIPOS>SUBSTRUCTURE
  1 ****  12 GROUP 4 **** **** 0

# MOE 2024.06 (io_trps.svl 2023.06)
