@<TRIPOS>MOLECULE
NONAME
53 56 1 0 0 
SMALL
USER_CHARGES


@<TRIPOS>ATOM
  1 N       -1.0050     0.2790     3.4280 N.2   1 <1>   0.0000 
  2 N       -1.4240    -0.0300     2.2530 N.2   1 <1>  -0.4180 
  3 N       -0.2010     1.3340     3.3780 N.2   1 <1>  -0.3380 
  4 N       -0.8850     0.8400     1.4240 N.pl3 1 <1>   0.3140 
  5 C       -0.1410     1.6620     2.1430 C.2   1 <1>   0.0060 
  6 C       -1.1170     0.8040    -0.0350 C.3   1 <1>   0.2390 
  7 C        0.6670     2.8150     1.5770 C.3   1 <1>   0.2900 
  8 C       -1.7400     2.1030    -0.5350 C.ar  1 <1>  -0.1440 
  9 N        1.5880     2.3500     0.5210 N.3   1 <1>  -0.8100 
 10 C       -2.9350     2.5630    -0.0010 C.ar  1 <1>  -0.1500 
 11 C       -1.1100     2.8390    -1.5270 C.ar  1 <1>  -0.1500 
 12 C        2.2140     3.5030    -0.1620 C.3   1 <1>   0.1100 
 13 C        2.6490     1.4770     1.0840 C.3   1 <1>   0.1100 
 14 C       -3.4900     3.7470    -0.4510 C.ar  1 <1>  -0.1500 
 15 C       -1.6660     4.0230    -1.9790 C.ar  1 <1>  -0.1500 
 16 C        3.1670     3.0700    -1.2930 C.3   1 <1>   0.2090 
 17 C        3.6330     0.9740     0.0090 C.3   1 <1>   0.2090 
 18 C       -2.8560     4.4780    -1.4400 C.ar  1 <1>  -0.1500 
 19 N        4.1800     2.0800    -0.8290 N.pl3 1 <1>  -0.8380 
 20 C        5.4680     2.5410    -0.5550 C.ar  1 <1>   0.1000 
 21 C        6.5190     2.2880    -1.4370 C.ar  1 <1>  -0.1430 
 22 C        5.7240     3.2650     0.6050 C.ar  1 <1>  -0.1500 
 23 C        7.7890     2.7570    -1.1460 C.ar  1 <1>  -0.1500 
 24 C        6.2800     1.4990    -2.7150 C.3   1 <1>  -0.0970 
 25 C        6.9920     3.7340     0.8960 C.ar  1 <1>  -0.1430 
 26 C        8.0270     3.4760     0.0130 C.ar  1 <1>  -0.1500 
 27 C        7.2600     4.5210     2.1660 C.3   1 <1>  -0.0970 
 28 H       -1.7730    -0.0170    -0.2570 H     1 <1>   0.0800 
 29 H       -0.1750     0.6250    -0.5200 H     1 <1>   0.0800 
 30 H        1.2220     3.2890     2.3690 H     1 <1>   0.0800 
 31 H       -0.0160     3.5400     1.1680 H     1 <1>   0.0800 
 32 H       -3.4390     2.0040     0.7710 H     1 <1>   0.1500 
 33 H       -0.1810     2.4960    -1.9510 H     1 <1>   0.1500 
 34 H        2.7680     4.0940     0.5470 H     1 <1>   0.0800 
 35 H        1.4470     4.1290    -0.5840 H     1 <1>   0.0800 
 36 H        2.2030     0.6200     1.5590 H     1 <1>   0.0800 
 37 H        3.2020     2.0120     1.8360 H     1 <1>   0.0800 
 38 H       -4.4170     4.1000    -0.0320 H     1 <1>   0.1500 
 39 H       -1.1750     4.5910    -2.7500 H     1 <1>   0.1500 
 40 H        3.6710     3.9350    -1.6870 H     1 <1>   0.0800 
 41 H        2.5940     2.6310    -2.0890 H     1 <1>   0.0800 
 42 H        3.1250     0.2740    -0.6310 H     1 <1>   0.0800 
 43 H        4.4450     0.4520     0.4860 H     1 <1>   0.0800 
 44 H       -3.2900     5.3990    -1.7910 H     1 <1>   0.1500 
 45 H        4.9150     3.4560     1.2800 H     1 <1>   0.1500 
 46 H        8.6040     2.5660    -1.8200 H     1 <1>   0.1500 
 47 H        5.5650     2.0150    -3.3290 H     1 <1>   0.0800 
 48 H        5.8870     0.5290    -2.4710 H     1 <1>   0.0800 
 49 H        7.1900     1.3730    -3.2730 H     1 <1>   0.0800 
 50 H        9.0190     3.8320     0.2240 H     1 <1>   0.1500 
 51 H        6.3400     4.8050     2.6420 H     1 <1>   0.0800 
 52 H        7.8150     5.4130     1.9350 H     1 <1>   0.0800 
 53 H        7.8330     3.9210     2.8500 H     1 <1>   0.0800 
@<TRIPOS>BOND
  1   1   2  2   
  2   1   3  1   
  3   2   4  1   
  4   3   5  2   
  5   4   5  1   
  6   4   6  1   
  7   5   7  1   
  8   6   8  1   
  9   6  28  1   
 10   6  29  1   
 11   7   9  1   
 12   7  30  1   
 13   7  31  1   
 14   8  10  ar  
 15   8  11  ar  
 16   9  12  1   
 17   9  13  1   
 18  10  14  ar  
 19  10  32  1   
 20  11  15  ar  
 21  11  33  1   
 22  12  16  1   
 23  12  34  1   
 24  12  35  1   
 25  13  17  1   
 26  13  36  1   
 27  13  37  1   
 28  14  18  ar  
 29  14  38  1   
 30  15  18  ar  
 31  15  39  1   
 32  16  19  1   
 33  16  40  1   
 34  16  41  1   
 35  17  19  1   
 36  17  42  1   
 37  17  43  1   
 38  18  44  1   
 39  19  20  1   
 40  20  21  ar  
 41  20  22  ar  
 42  21  23  ar  
 43  21  24  1   
 44  22  25  ar  
 45  22  45  1   
 46  23  26  ar  
 47  23  46  1   
 48  24  47  1   
 49  24  48  1   
 50  24  49  1   
 51  25  26  ar  
 52  25  27  1   
 53  26  50  1   
 54  27  51  1   
 55  27  52  1   
 56  27  53  1   
@<TRIPOS>SUBSTRUCTURE
  1 ****   9 GROUP 4 **** **** 0

# MOE 2024.06 (io_trps.svl 2023.06)
