@<TRIPOS>MOLECULE
1-Pyrazin-2-yl-piperidine-4-carboxylic acid (4-acetylamino-phenyl)-amide
46 48 1 0 0 
SMALL
USER_CHARGES


@<TRIPOS>ATOM
  1 O       -0.3640    -1.7040     1.5840 O.2   1 <1>  -0.5700 
  2 C       -0.5660    -1.9810     0.4260 C.2   1 <1>   0.5690 
  3 N        0.4310    -2.1090    -0.5020 N.am  1 <1>  -0.5470 
  4 C       -2.0030    -2.2080    -0.0430 C.3   1 <1>  -0.0190 
  5 C        1.8220    -1.9480    -0.3810 C.ar  1 <1>   0.1170 
  6 C       -2.7780    -0.8810    -0.1260 C.3   1 <1>  -0.1600 
  7 C       -2.7590    -3.1970     0.8670 C.3   1 <1>  -0.1600 
  8 C        2.6510    -2.5910    -1.2930 C.ar  1 <1>  -0.1500 
  9 C        2.4130    -1.1580     0.6000 C.ar  1 <1>  -0.1500 
 10 C       -4.2220    -1.1020    -0.5830 C.3   1 <1>   0.2090 
 11 C       -4.2010    -3.3990     0.4000 C.3   1 <1>   0.2090 
 12 C        4.0260    -2.4570    -1.2220 C.ar  1 <1>  -0.1500 
 13 C        3.7870    -1.0250     0.6730 C.ar  1 <1>  -0.1500 
 14 N       -4.8840    -2.0850     0.3140 N.pl3 1 <1>  -0.8380 
 15 C        4.6110    -1.6770    -0.2330 C.ar  1 <1>   0.1170 
 16 C       -6.2680    -2.1050     0.3410 C.ar  1 <1>   0.4100 
 17 N        6.0000    -1.5290    -0.1440 N.am  1 <1>  -0.5470 
 18 N       -6.8930    -1.9330    -0.8190 N.ar  1 <1>  -0.6200 
 19 C       -6.9610    -2.3160     1.5450 C.ar  1 <1>   0.1600 
 20 C        6.9800    -2.4620    -0.0530 C.2   1 <1>   0.5690 
 21 C       -8.2080    -1.9880    -0.6950 C.ar  1 <1>   0.1600 
 22 N       -8.2750    -2.3760     1.6690 N.ar  1 <1>  -0.6200 
 23 O        8.1330    -2.1210    -0.0120 O.2   1 <1>  -0.5700 
 24 C        6.6500    -3.9350     0.0170 C.3   1 <1>  -0.1790 
 25 C       -8.8780    -2.2030     0.5020 C.ar  1 <1>   0.1600 
 26 H        0.1240    -2.4010    -1.4260 H     1 <1>   0.3700 
 27 H       -1.9730    -2.6350    -1.0300 H     1 <1>   0.0800 
 28 H       -2.2890    -0.2120    -0.8110 H     1 <1>   0.0800 
 29 H       -2.7920    -0.4080     0.8410 H     1 <1>   0.0800 
 30 H       -2.7740    -2.8240     1.8770 H     1 <1>   0.0800 
 31 H       -2.2510    -4.1440     0.8770 H     1 <1>   0.0800 
 32 H        2.2220    -3.2030    -2.0650 H     1 <1>   0.1500 
 33 H        1.8000    -0.6390     1.3150 H     1 <1>   0.1500 
 34 H       -4.2430    -1.4740    -1.5940 H     1 <1>   0.0800 
 35 H       -4.7620    -0.1700    -0.5550 H     1 <1>   0.0800 
 36 H       -4.7220    -4.0380     1.0930 H     1 <1>   0.0800 
 37 H       -4.2170    -3.8680    -0.5690 H     1 <1>   0.0800 
 38 H        4.6500    -2.9540    -1.9430 H     1 <1>   0.1500 
 39 H        4.2230    -0.4140     1.4430 H     1 <1>   0.1500 
 40 H        6.3560    -0.5750    -0.0760 H     1 <1>   0.3700 
 41 H       -6.3680    -2.4340     2.4320 H     1 <1>   0.1500 
 42 H       -8.7880    -1.8560    -1.5910 H     1 <1>   0.1500 
 43 H        5.7790    -4.0940     0.6250 H     1 <1>   0.0800 
 44 H        7.4760    -4.4670     0.4520 H     1 <1>   0.0800 
 45 H        6.4760    -4.3140    -0.9710 H     1 <1>   0.0800 
 46 H       -9.9530    -2.2320     0.4980 H     1 <1>   0.1500 
@<TRIPOS>BOND
  1   1   2  2   
  2   2   3  am  
  3   2   4  1   
  4   3   5  1   
  5   3  26  1   
  6   4   6  1   
  7   4   7  1   
  8   4  27  1   
  9   5   8  ar  
 10   5   9  ar  
 11   6  10  1   
 12   6  28  1   
 13   6  29  1   
 14   7  11  1   
 15   7  30  1   
 16   7  31  1   
 17   8  12  ar  
 18   8  32  1   
 19   9  13  ar  
 20   9  33  1   
 21  10  14  1   
 22  10  34  1   
 23  10  35  1   
 24  11  14  1   
 25  11  36  1   
 26  11  37  1   
 27  12  15  ar  
 28  12  38  1   
 29  13  15  ar  
 30  13  39  1   
 31  14  16  1   
 32  15  17  1   
 33  16  18  ar  
 34  16  19  ar  
 35  17  20  am  
 36  17  40  1   
 37  18  21  ar  
 38  19  22  ar  
 39  19  41  1   
 40  20  23  2   
 41  20  24  1   
 42  21  25  ar  
 43  21  42  1   
 44  22  25  ar  
 45  24  43  1   
 46  24  44  1   
 47  24  45  1   
 48  25  46  1   
@<TRIPOS>SUBSTRUCTURE
  1 ****   2 GROUP 4 **** **** 0

# MOE 2024.06 (io_trps.svl 2023.06)
