@<TRIPOS>MOLECULE
9562
38 38 1 0 0 
SMALL
USER_CHARGES


@<TRIPOS>ATOM
  1 O        0.0620     0.1150    -0.1350 O.2   1 <1>  -0.5700 
  2 C        0.3870    -1.0420    -0.0180 C.2   1 <1>   0.5690 
  3 N        1.6530    -1.3630    -0.4070 N.am  1 <1>  -0.5470 
  4 C       -0.6390    -2.0720     0.5480 C.3   1 <1>   0.0610 
  5 C        2.3700    -2.5610    -0.4250 C.ar  1 <1>   0.1170 
  6 C       -0.0690    -2.8840     1.7280 C.3   1 <1>  -0.2400 
  7 C       -1.9020    -1.3540     1.0750 C.3   1 <1>  -0.2400 
  8 C       -1.1020    -3.0490    -0.5500 C.3   1 <1>  -0.2400 
  9 C        3.1890    -2.9020     0.6430 C.ar  1 <1>  -0.1500 
 10 C        2.3000    -3.4110    -1.5190 C.ar  1 <1>  -0.1500 
 11 C        3.9110    -4.0820     0.6310 C.ar  1 <1>  -0.1500 
 12 C        3.0190    -4.5920    -1.5350 C.ar  1 <1>  -0.1500 
 13 C        3.8260    -4.9400    -0.4640 C.ar  1 <1>   0.0820 
 14 O        4.4880    -6.1230    -0.5670 O.3   1 <1>  -0.3630 
 15 C        5.3760    -6.5970     0.4210 C.3   1 <1>   0.2000 
 16 C        6.7310    -5.9080     0.2430 C.3   1 <1>  -0.2400 
 17 C        5.4990    -8.1060     0.2220 C.3   1 <1>  -0.2400 
 18 H        2.1590    -0.5430    -0.7440 H     1 <1>   0.3700 
 19 H        0.3530    -2.2230     2.4650 H     1 <1>   0.0800 
 20 H        0.6930    -3.5660     1.4000 H     1 <1>   0.0800 
 21 H       -0.8400    -3.4690     2.1970 H     1 <1>   0.0800 
 22 H       -2.6160    -2.0560     1.4670 H     1 <1>   0.0800 
 23 H       -1.6380    -0.6630     1.8560 H     1 <1>   0.0800 
 24 H       -2.3750    -0.7980     0.2840 H     1 <1>   0.0800 
 25 H       -1.4850    -2.5030    -1.3940 H     1 <1>   0.0800 
 26 H       -0.2890    -3.6650    -0.8830 H     1 <1>   0.0800 
 27 H       -1.8770    -3.6960    -0.1810 H     1 <1>   0.0800 
 28 H        3.2560    -2.2390     1.4860 H     1 <1>   0.1500 
 29 H        1.6810    -3.1450    -2.3580 H     1 <1>   0.1500 
 30 H        4.5300    -4.3130     1.4760 H     1 <1>   0.1500 
 31 H        2.9620    -5.2540    -2.3800 H     1 <1>   0.1500 
 32 H        4.9550    -6.4050     1.3920 H     1 <1>   0.0800 
 33 H        7.1240    -6.1090    -0.7380 H     1 <1>   0.0800 
 34 H        7.4280    -6.2760     0.9730 H     1 <1>   0.0800 
 35 H        6.6380    -4.8450     0.3710 H     1 <1>   0.0800 
 36 H        5.8840    -8.3250    -0.7570 H     1 <1>   0.0800 
 37 H        4.5360    -8.5690     0.3370 H     1 <1>   0.0800 
 38 H        6.1650    -8.5210     0.9560 H     1 <1>   0.0800 
@<TRIPOS>BOND
  1   1   2  2   
  2   2   3  am  
  3   2   4  1   
  4   3   5  1   
  5   3  18  1   
  6   4   6  1   
  7   4   7  1   
  8   4   8  1   
  9   5   9  ar  
 10   5  10  ar  
 11   6  19  1   
 12   6  20  1   
 13   6  21  1   
 14   7  22  1   
 15   7  23  1   
 16   7  24  1   
 17   8  25  1   
 18   8  26  1   
 19   8  27  1   
 20   9  11  ar  
 21   9  28  1   
 22  10  12  ar  
 23  10  29  1   
 24  11  13  ar  
 25  11  30  1   
 26  12  13  ar  
 27  12  31  1   
 28  13  14  1   
 29  14  15  1   
 30  15  16  1   
 31  15  17  1   
 32  15  32  1   
 33  16  33  1   
 34  16  34  1   
 35  16  35  1   
 36  17  36  1   
 37  17  37  1   
 38  17  38  1   
@<TRIPOS>SUBSTRUCTURE
  1 ****   5 GROUP 4 **** **** 0

# MOE 2024.06 (io_trps.svl 2023.06)
