@<TRIPOS>MOLECULE
11576
42 43 1 0 0 
SMALL
USER_CHARGES


@<TRIPOS>ATOM
  1 S       -0.5130     0.1390    -0.4440 S.3   1 <1>  -0.0800 
  2 C        0.8940    -0.8870    -0.1900 C.2   1 <1>   0.1040 
  3 C        0.4370     1.5850    -0.2120 C.2   1 <1>  -0.1400 
  4 N        0.7510    -2.2650    -0.2710 N.am  1 <1>  -0.4940 
  5 C        2.0180    -0.1320     0.0380 C.2   1 <1>  -0.0860 
  6 C        1.7240     1.2870     0.0120 C.2   1 <1>  -0.1810 
  7 C       -0.2220     2.9450    -0.2840 C.3   1 <1>   0.0200 
  8 C       -0.3050    -3.1340    -0.2910 C.2   1 <1>   0.6160 
  9 C        3.3310    -0.6770     0.2800 C.2   1 <1>   0.8060 
 10 C        2.7440     2.4040     0.2160 C.3   1 <1>   0.0210 
 11 C        0.7360     4.0020     0.2980 C.3   1 <1>  -0.0800 
 12 O       -0.0440    -4.2580    -0.6580 O.2   1 <1>  -0.5700 
 13 C       -1.6280    -2.7690     0.1660 C.2   1 <1>  -0.1360 
 14 O        4.2750    -0.0370     0.7060 O.2   1 <1>  -0.5700 
 15 O        3.5290    -1.9800     0.0210 O.3   1 <1>  -0.4300 
 16 C        2.1790     3.7780    -0.2020 C.3   1 <1>  -0.1600 
 17 C        0.2560     5.4190    -0.0410 C.3   1 <1>  -0.2400 
 18 C       -2.8520    -3.2300    -0.1700 C.2   1 <1>  -0.2760 
 19 C        4.7810    -2.6050     0.2320 C.3   1 <1>   0.0400 
 20 C       -4.1210    -2.6940     0.4760 C.3   1 <1>  -0.1020 
 21 C       -3.1390    -4.3070    -1.2090 C.3   1 <1>  -0.1020 
 22 H        1.6250    -2.7820    -0.3930 H     1 <1>   0.3700 
 23 H       -0.4480     3.1630    -1.3130 H     1 <1>   0.0800 
 24 H       -1.1410     2.9380     0.2750 H     1 <1>   0.0800 
 25 H        3.0240     2.4290     1.2550 H     1 <1>   0.0800 
 26 H        3.6280     2.2090    -0.3650 H     1 <1>   0.0800 
 27 H        0.7380     3.8940     1.3700 H     1 <1>   0.0800 
 28 H       -1.5730    -1.9980     0.9100 H     1 <1>   0.1500 
 29 H        2.1890     3.8410    -1.2760 H     1 <1>   0.0800 
 30 H        2.8260     4.5500     0.1780 H     1 <1>   0.0800 
 31 H        0.2560     5.5760    -1.1060 H     1 <1>   0.0800 
 32 H        0.9030     6.1490     0.4120 H     1 <1>   0.0800 
 33 H       -0.7410     5.5740     0.3300 H     1 <1>   0.0800 
 34 H        5.5220    -2.1200    -0.3810 H     1 <1>   0.0800 
 35 H        4.6960    -3.6420    -0.0430 H     1 <1>   0.0800 
 36 H        5.0450    -2.5190     1.2720 H     1 <1>   0.0800 
 37 H       -4.6490    -3.4910     0.9690 H     1 <1>   0.0800 
 38 H       -4.7630    -2.2620    -0.2700 H     1 <1>   0.0800 
 39 H       -3.8930    -1.9370     1.2050 H     1 <1>   0.0800 
 40 H       -3.8230    -3.9330    -1.9500 H     1 <1>   0.0800 
 41 H       -3.5780    -5.1670    -0.7360 H     1 <1>   0.0800 
 42 H       -2.2470    -4.6230    -1.7160 H     1 <1>   0.0800 
@<TRIPOS>BOND
  1   1   2  1   
  2   1   3  1   
  3   2   4  1   
  4   2   5  2   
  5   3   6  2   
  6   3   7  1   
  7   4   8  am  
  8   4  22  1   
  9   5   6  1   
 10   5   9  1   
 11   6  10  1   
 12   7  11  1   
 13   7  23  1   
 14   7  24  1   
 15   8  12  2   
 16   8  13  1   
 17   9  14  2   
 18   9  15  1   
 19  10  16  1   
 20  10  25  1   
 21  10  26  1   
 22  11  16  1   
 23  11  17  1   
 24  11  27  1   
 25  13  18  2   
 26  13  28  1   
 27  15  19  1   
 28  16  29  1   
 29  16  30  1   
 30  17  31  1   
 31  17  32  1   
 32  17  33  1   
 33  18  20  1   
 34  18  21  1   
 35  19  34  1   
 36  19  35  1   
 37  19  36  1   
 38  20  37  1   
 39  20  38  1   
 40  20  39  1   
 41  21  40  1   
 42  21  41  1   
 43  21  42  1   
@<TRIPOS>SUBSTRUCTURE
  1 ****   2 GROUP 4 **** **** 0

# MOE 2024.06 (io_trps.svl 2023.06)
