@<TRIPOS>MOLECULE
NONAME
39 41 1 0 0 
SMALL
USER_CHARGES


@<TRIPOS>ATOM
  1 S       -0.0970    -0.4660    -0.0990 S.3   1 <1>  -0.3320 
  2 C        1.6680    -0.6700     0.1000 C.ar  1 <1>   0.7220 
  3 C       -0.8400    -1.7920     0.9790 C.3   1 <1>   0.1310 
  4 N        2.0570    -1.6680     0.9290 N.ar  1 <1>  -0.3100 
  5 N        2.4140     0.1660    -0.5740 N.ar  1 <1>  -0.5670 
  6 C       -2.3610    -1.7760     0.9390 C.2   1 <1>   0.5690 
  7 N        3.3250    -1.8840     1.1290 N.ar  1 <1>  -0.2560 
  8 C        3.7120    -0.0680    -0.3580 C.ar  1 <1>   0.1050 
  9 O       -2.9550    -2.5930     1.6010 O.2   1 <1>  -0.5700 
 10 N       -3.0110    -0.8610     0.1740 N.am  1 <1>  -0.7300 
 11 C        4.1670    -1.0730     0.4770 C.ar  1 <1>   0.2560 
 12 N        4.7860     0.6000    -0.8880 N.pl3 1 <1>   0.0480 
 13 C       -4.4630    -0.7280     0.0380 C.3   1 <1>   0.2200 
 14 C        5.5860    -1.0220     0.4610 C.ar  1 <1>   0.0000 
 15 C        5.9400     0.0210    -0.3910 C.ar  1 <1>  -0.1520 
 16 C        4.7280     1.7380    -1.8250 C.3   1 <1>   0.0160 
 17 C       -4.8250    -0.9370    -1.4280 C.3   1 <1>  -0.2400 
 18 C       -4.8590     0.6650     0.5150 C.3   1 <1>  -0.2400 
 19 C        6.5790    -1.7700     1.0940 C.ar  1 <1>  -0.1500 
 20 C        7.2830     0.3270    -0.6190 C.ar  1 <1>  -0.1500 
 21 C        7.9030    -1.4660     0.8680 C.ar  1 <1>  -0.1500 
 22 C        8.2540    -0.4190     0.0130 C.ar  1 <1>  -0.1500 
 23 H       -0.4980    -1.6210     1.9830 H     1 <1>   0.0800 
 24 H       -0.4740    -2.7380     0.6250 H     1 <1>   0.0800 
 25 H       -2.4550    -0.1940    -0.3660 H     1 <1>   0.3700 
 26 H       -4.9580    -1.4720     0.6430 H     1 <1>   0.0800 
 27 H        3.7030     1.9800    -2.0420 H     1 <1>   0.0800 
 28 H        5.2320     1.4730    -2.7370 H     1 <1>   0.0800 
 29 H        5.2090     2.5890    -1.3800 H     1 <1>   0.0800 
 30 H       -4.3420    -0.2050    -2.0510 H     1 <1>   0.0800 
 31 H       -5.8880    -0.8500    -1.5570 H     1 <1>   0.0800 
 32 H       -4.5280    -1.9230    -1.7400 H     1 <1>   0.0800 
 33 H       -4.3770     1.4240    -0.0750 H     1 <1>   0.0800 
 34 H       -4.5860     0.7880     1.5470 H     1 <1>   0.0800 
 35 H       -5.9240     0.7900     0.4320 H     1 <1>   0.0800 
 36 H        6.2940    -2.5740     1.7500 H     1 <1>   0.1500 
 37 H        7.5530     1.1340    -1.2770 H     1 <1>   0.1500 
 38 H        8.6790    -2.0350     1.3500 H     1 <1>   0.1500 
 39 H        9.2960    -0.2000    -0.1490 H     1 <1>   0.1500 
@<TRIPOS>BOND
  1   1   2  1   
  2   1   3  1   
  3   2   4  ar  
  4   2   5  ar  
  5   3   6  1   
  6   3  23  1   
  7   3  24  1   
  8   4   7  ar  
  9   5   8  ar  
 10   6   9  2   
 11   6  10  am  
 12   7  11  ar  
 13   8  11  ar  
 14   8  12  1   
 15  10  13  1   
 16  10  25  1   
 17  11  14  1   
 18  12  15  1   
 19  12  16  1   
 20  13  17  1   
 21  13  18  1   
 22  13  26  1   
 23  14  15  ar  
 24  14  19  ar  
 25  15  20  ar  
 26  16  27  1   
 27  16  28  1   
 28  16  29  1   
 29  17  30  1   
 30  17  31  1   
 31  17  32  1   
 32  18  33  1   
 33  18  34  1   
 34  18  35  1   
 35  19  21  ar  
 36  19  36  1   
 37  20  22  ar  
 38  20  37  1   
 39  21  22  ar  
 40  21  38  1   
 41  22  39  1   
@<TRIPOS>SUBSTRUCTURE
  1 ****   2 GROUP 4 **** **** 0

# MOE 2024.06 (io_trps.svl 2023.06)
