@<TRIPOS>MOLECULE
NONAME
43 45 1 0 0 
SMALL
USER_CHARGES


@<TRIPOS>ATOM
  1 F        1.3700    -2.6640     0.2560 F     1 <1>  -0.1900 
  2 C        0.1280    -2.8630    -0.0820 C.ar  1 <1>   0.1900 
  3 C       -0.6750    -3.6280     0.7410 C.ar  1 <1>  -0.1500 
  4 C       -0.3470    -2.3070    -1.2520 C.ar  1 <1>  -0.1500 
  5 C       -1.9950    -3.8350     0.3790 C.ar  1 <1>  -0.1500 
  6 C       -1.6690    -2.5220    -1.5980 C.ar  1 <1>  -0.1500 
  7 C       -2.5300    -3.2780    -0.7920 C.ar  1 <1>   0.0860 
  8 C       -3.9090    -3.4600    -1.1980 C.2   1 <1>   0.4230 
  9 O       -4.2500    -3.4520    -2.3530 O.2   1 <1>  -0.5700 
 10 C       -5.0220    -3.6570    -0.1600 C.3   1 <1>  -0.0190 
 11 C       -5.5910    -5.0860    -0.2480 C.3   1 <1>  -0.1600 
 12 C       -6.1490    -2.6240    -0.3650 C.3   1 <1>  -0.1600 
 13 C       -6.8050    -5.2910     0.6570 C.3   1 <1>   0.3430 
 14 C       -7.3440    -2.8770     0.5510 C.3   1 <1>   0.3430 
 15 N       -7.8380    -4.2680     0.3420 N.4   1 <1>  -0.9590 
 16 C       -9.1070    -4.5220     1.0800 C.3   1 <1>   0.4860 
 17 C      -10.1730    -3.5850     0.5500 C.ar  1 <1>  -0.1430 
 18 C      -10.6030    -2.5120     1.3180 C.ar  1 <1>  -0.1500 
 19 C      -10.7240    -3.7870    -0.7090 C.ar  1 <1>  -0.1500 
 20 C      -11.5620    -1.6440     0.8280 C.ar  1 <1>  -0.1500 
 21 C      -11.6830    -2.9180    -1.1970 C.ar  1 <1>  -0.1500 
 22 C      -12.1000    -1.8450    -0.4300 C.ar  1 <1>  -0.1500 
 23 H       -0.2640    -4.0520     1.6400 H     1 <1>   0.1500 
 24 H        0.3070    -1.7220    -1.8750 H     1 <1>   0.1500 
 25 H       -2.6030    -4.4480     1.0180 H     1 <1>   0.1500 
 26 H       -2.0480    -2.0970    -2.5130 H     1 <1>   0.1500 
 27 H       -4.6230    -3.5020     0.8260 H     1 <1>   0.0800 
 28 H       -4.8270    -5.7940     0.0230 H     1 <1>   0.0800 
 29 H       -5.8740    -5.3030    -1.2650 H     1 <1>   0.0800 
 30 H       -6.4900    -2.6410    -1.3860 H     1 <1>   0.0800 
 31 H       -5.7660    -1.6350    -0.1770 H     1 <1>   0.0800 
 32 H       -6.5060    -5.2030     1.6890 H     1 <1>   0.0800 
 33 H       -7.2030    -6.2810     0.5010 H     1 <1>   0.0800 
 34 H       -8.1230    -2.1660     0.3180 H     1 <1>   0.0800 
 35 H       -7.0540    -2.7380     1.5800 H     1 <1>   0.0800 
 36 H       -8.0690    -4.3400    -0.6580 H     1 <1>   0.4500 
 37 H       -8.9650    -4.3600     2.1350 H     1 <1>   0.0800 
 38 H       -9.4270    -5.5410     0.9300 H     1 <1>   0.0800 
 39 H      -10.2040    -2.3370     2.3030 H     1 <1>   0.1500 
 40 H      -10.4230    -4.6190    -1.3230 H     1 <1>   0.1500 
 41 H      -11.8960    -0.8110     1.4240 H     1 <1>   0.1500 
 42 H      -12.1100    -3.0730    -2.1730 H     1 <1>   0.1500 
 43 H      -12.8480    -1.1690    -0.8110 H     1 <1>   0.1500 
@<TRIPOS>BOND
  1   1   2  1   
  2   2   3  ar  
  3   2   4  ar  
  4   3   5  ar  
  5   3  23  1   
  6   4   6  ar  
  7   4  24  1   
  8   5   7  ar  
  9   5  25  1   
 10   6   7  ar  
 11   6  26  1   
 12   7   8  1   
 13   8   9  2   
 14   8  10  1   
 15  10  11  1   
 16  10  12  1   
 17  10  27  1   
 18  11  13  1   
 19  11  28  1   
 20  11  29  1   
 21  12  14  1   
 22  12  30  1   
 23  12  31  1   
 24  13  15  1   
 25  13  32  1   
 26  13  33  1   
 27  14  15  1   
 28  14  34  1   
 29  14  35  1   
 30  15  16  1   
 31  15  36  1   
 32  16  17  1   
 33  16  37  1   
 34  16  38  1   
 35  17  18  ar  
 36  17  19  ar  
 37  18  20  ar  
 38  18  39  1   
 39  19  21  ar  
 40  19  40  1   
 41  20  22  ar  
 42  20  41  1   
 43  21  22  ar  
 44  21  42  1   
 45  22  43  1   
@<TRIPOS>SUBSTRUCTURE
  1 ****  12 GROUP 4 **** **** 0

# MOE 2024.06 (io_trps.svl 2023.06)
