@<TRIPOS>MOLECULE
2-(2-Mercapto-benzoimidazol-1-yl)-1-pyrrolidin-1-yl-ethanone
33 35 1 0 0 
SMALL
USER_CHARGES


@<TRIPOS>ATOM
  1 S        0.0200    -1.1600    -0.0230 S.2   1 <1>  -0.3800 
  2 C       -1.5840    -0.8820     0.0620 C.2   1 <1>   0.5000 
  3 N       -2.1320     0.0600     0.8420 N.am  1 <1>  -0.5470 
  4 N       -2.5450    -1.5520    -0.6090 N.am  1 <1>  -0.4770 
  5 C       -3.5020     0.0050     0.6790 C.ar  1 <1>   0.1170 
  6 C       -3.7660    -1.0050    -0.2320 C.ar  1 <1>   0.1170 
  7 C       -2.3600    -2.6690    -1.5820 C.3   1 <1>   0.2010 
  8 C       -4.5300     0.7480     1.2450 C.ar  1 <1>  -0.1500 
  9 C       -5.0760    -1.2970    -0.5970 C.ar  1 <1>  -0.1500 
 10 C       -3.0680    -3.9630    -1.1780 C.2   1 <1>   0.5690 
 11 C       -5.8320     0.4570     0.8810 C.ar  1 <1>  -0.1500 
 12 C       -6.1030    -0.5600    -0.0360 C.ar  1 <1>  -0.1500 
 13 O       -4.0000    -4.3290    -1.8590 O.2   1 <1>  -0.5700 
 14 N       -2.6480    -4.6960    -0.0990 N.am  1 <1>  -0.6600 
 15 C       -1.5470    -4.3440     0.8260 C.3   1 <1>   0.1400 
 16 C       -3.2670    -5.9830     0.2760 C.3   1 <1>   0.1400 
 17 C       -1.5750    -5.4260     1.9010 C.3   1 <1>  -0.1600 
 18 C       -2.2800    -6.6130     1.2500 C.3   1 <1>  -0.1600 
 19 H       -1.6090     0.6970     1.4410 H     1 <1>   0.3700 
 20 H       -1.3140    -2.8790    -1.7050 H     1 <1>   0.0800 
 21 H       -2.7440    -2.3550    -2.5350 H     1 <1>   0.0800 
 22 H       -4.3080     1.5280     1.9490 H     1 <1>   0.1500 
 23 H       -5.2800    -2.0830    -1.3020 H     1 <1>   0.1500 
 24 H       -6.6480     1.0170     1.3050 H     1 <1>   0.1500 
 25 H       -7.1230    -0.7730    -0.3060 H     1 <1>   0.1500 
 26 H       -1.7030    -3.3730     1.2610 H     1 <1>   0.0800 
 27 H       -0.6110    -4.3630     0.2940 H     1 <1>   0.0800 
 28 H       -3.4270    -6.6030    -0.5910 H     1 <1>   0.0800 
 29 H       -4.2090    -5.7890     0.7610 H     1 <1>   0.0800 
 30 H       -2.1550    -5.0710     2.7350 H     1 <1>   0.0800 
 31 H       -0.5860    -5.6730     2.2450 H     1 <1>   0.0800 
 32 H       -1.5700    -7.2010     0.6950 H     1 <1>   0.0800 
 33 H       -2.7740    -7.2440     1.9680 H     1 <1>   0.0800 
@<TRIPOS>BOND
  1   1   2  2   
  2   2   3  am  
  3   2   4  am  
  4   3   5  1   
  5   3  19  1   
  6   4   6  1   
  7   4   7  1   
  8   5   6  ar  
  9   5   8  ar  
 10   6   9  ar  
 11   7  10  1   
 12   7  20  1   
 13   7  21  1   
 14   8  11  ar  
 15   8  22  1   
 16   9  12  ar  
 17   9  23  1   
 18  10  13  2   
 19  10  14  am  
 20  11  12  ar  
 21  11  24  1   
 22  12  25  1   
 23  14  15  1   
 24  14  16  1   
 25  15  17  1   
 26  15  26  1   
 27  15  27  1   
 28  16  18  1   
 29  16  28  1   
 30  16  29  1   
 31  17  18  1   
 32  17  30  1   
 33  17  31  1   
 34  18  32  1   
 35  18  33  1   
@<TRIPOS>SUBSTRUCTURE
  1 ****   4 GROUP 4 **** **** 0

# MOE 2024.06 (io_trps.svl 2023.06)
