@<TRIPOS>MOLECULE
N-Cyclohexyl-2-[4-(3-methoxy-phenyl)-5-pyridin-4-yl-4H-[1,2,4]triazol-3-ylsulfanyl]-N-methyl-acetamide
58 61 1 0 0 
SMALL
USER_CHARGES


@<TRIPOS>ATOM
  1 S        0.1150    -0.0020    -0.6360 S.3   1 <1>  -0.2860 
  2 C       -1.3980     0.9390    -0.4150 C.2   1 <1>   0.2420 
  3 C        1.3190     1.2710    -1.2540 C.3   1 <1>   0.1310 
  4 N       -1.4590     2.2120    -0.5770 N.2   1 <1>  -0.3380 
  5 N       -2.5590     0.3730    -0.0720 N.pl3 1 <1>   0.3260 
  6 C        2.7300     0.7020    -1.2970 C.2   1 <1>   0.5690 
  7 N       -2.7240     2.5430    -0.3380 N.2   1 <1>  -0.3380 
  8 C       -2.8490    -1.0020     0.1290 C.ar  1 <1>  -0.0230 
  9 C       -3.3800     1.4540    -0.0360 C.2   1 <1>   0.1330 
 10 O        3.2200     0.5600    -2.3930 O.2   1 <1>  -0.5700 
 11 N        3.4150     0.3850    -0.1430 N.am  1 <1>  -0.6600 
 12 C       -3.7310    -1.6650    -0.7150 C.ar  1 <1>  -0.1500 
 13 C       -2.2660    -1.7050     1.1780 C.ar  1 <1>  -0.1500 
 14 C       -4.7910     1.4200     0.2750 C.ar  1 <1>   0.0530 
 15 C        4.7590    -0.2680    -0.2310 C.3   1 <1>   0.2200 
 16 C        2.8620     0.6200     1.2270 C.3   1 <1>   0.0600 
 17 C       -4.0340    -3.0010    -0.5200 C.ar  1 <1>   0.0830 
 18 C       -2.5640    -3.0410     1.3800 C.ar  1 <1>  -0.1500 
 19 C       -5.6810     2.2890    -0.3420 C.ar  1 <1>  -0.1500 
 20 C       -5.3750     0.5570     1.1940 C.ar  1 <1>  -0.1500 
 21 C        4.8270    -1.5520     0.6120 C.3   1 <1>  -0.1600 
 22 C        5.8670     0.7200     0.1610 C.3   1 <1>  -0.1600 
 23 O       -4.9060    -3.5580    -1.3950 O.3   1 <1>  -0.3630 
 24 C       -3.4460    -3.6920     0.5360 C.ar  1 <1>  -0.1500 
 25 C       -7.0290     2.2460    -0.0440 C.ar  1 <1>   0.1600 
 26 C       -6.7380     0.5890     1.4200 C.ar  1 <1>   0.1600 
 27 C        6.2110    -2.2080     0.4970 C.3   1 <1>  -0.1600 
 28 C        7.2510     0.0640     0.0550 C.3   1 <1>  -0.1600 
 29 C       -5.2630    -4.9200    -1.3090 C.3   1 <1>   0.0400 
 30 N       -7.5820     1.4120     0.8210 N.ar  1 <1>  -0.6200 
 31 C        7.3230    -1.2250     0.8870 C.3   1 <1>  -0.1600 
 32 H        1.2640     2.1250    -0.6070 H     1 <1>   0.0800 
 33 H        0.9980     1.5490    -2.2400 H     1 <1>   0.0800 
 34 H       -4.1950    -1.1480    -1.5370 H     1 <1>   0.1500 
 35 H       -1.5740    -1.2120     1.8400 H     1 <1>   0.1500 
 36 H        4.9410    -0.5600    -1.2520 H     1 <1>   0.0800 
 37 H        2.3370    -0.2600     1.5570 H     1 <1>   0.0800 
 38 H        2.1850     1.4540     1.2350 H     1 <1>   0.0800 
 39 H        3.6530     0.8330     1.9230 H     1 <1>   0.0800 
 40 H       -2.1060    -3.5780     2.1940 H     1 <1>   0.1500 
 41 H       -5.3170     3.0030    -1.0590 H     1 <1>   0.1500 
 42 H       -4.7780    -0.1450     1.7450 H     1 <1>   0.1500 
 43 H        4.0760    -2.2410     0.2680 H     1 <1>   0.0800 
 44 H        4.6450    -1.3310     1.6480 H     1 <1>   0.0800 
 45 H        5.7220     1.0600     1.1700 H     1 <1>   0.0800 
 46 H        5.8260     1.5710    -0.4960 H     1 <1>   0.0800 
 47 H       -3.6610    -4.7290     0.7130 H     1 <1>   0.1500 
 48 H       -7.6900     2.9340    -0.5440 H     1 <1>   0.1500 
 49 H       -7.1600    -0.0980     2.1340 H     1 <1>   0.1500 
 50 H        6.3660    -2.5360    -0.5170 H     1 <1>   0.0800 
 51 H        6.2540    -3.0750     1.1330 H     1 <1>   0.0800 
 52 H        8.0050     0.7550     0.3910 H     1 <1>   0.0800 
 53 H        7.4550    -0.1680    -0.9770 H     1 <1>   0.0800 
 54 H       -5.9510    -5.1350    -2.1070 H     1 <1>   0.0800 
 55 H       -5.7380    -5.0980    -0.3610 H     1 <1>   0.0800 
 56 H       -4.3780    -5.5210    -1.4180 H     1 <1>   0.0800 
 57 H        8.2820    -1.6920     0.7430 H     1 <1>   0.0800 
 58 H        7.2310    -0.9790     1.9320 H     1 <1>   0.0800 
@<TRIPOS>BOND
  1   1   2  1   
  2   1   3  1   
  3   2   4  2   
  4   2   5  1   
  5   3   6  1   
  6   3  32  1   
  7   3  33  1   
  8   4   7  1   
  9   5   8  1   
 10   5   9  1   
 11   6  10  2   
 12   6  11  am  
 13   7   9  2   
 14   8  12  ar  
 15   8  13  ar  
 16   9  14  1   
 17  11  15  1   
 18  11  16  1   
 19  12  17  ar  
 20  12  34  1   
 21  13  18  ar  
 22  13  35  1   
 23  14  19  ar  
 24  14  20  ar  
 25  15  21  1   
 26  15  22  1   
 27  15  36  1   
 28  16  37  1   
 29  16  38  1   
 30  16  39  1   
 31  17  23  1   
 32  17  24  ar  
 33  18  24  ar  
 34  18  40  1   
 35  19  25  ar  
 36  19  41  1   
 37  20  26  ar  
 38  20  42  1   
 39  21  27  1   
 40  21  43  1   
 41  21  44  1   
 42  22  28  1   
 43  22  45  1   
 44  22  46  1   
 45  23  29  1   
 46  24  47  1   
 47  25  30  ar  
 48  25  48  1   
 49  26  30  ar  
 50  26  49  1   
 51  27  31  1   
 52  27  50  1   
 53  27  51  1   
 54  28  31  1   
 55  28  52  1   
 56  28  53  1   
 57  29  54  1   
 58  29  55  1   
 59  29  56  1   
 60  31  57  1   
 61  31  58  1   
@<TRIPOS>SUBSTRUCTURE
  1 ****   1 GROUP 4 **** **** 0

# MOE 2024.06 (io_trps.svl 2023.06)
