@<TRIPOS>MOLECULE
NONAME
45 48 1 0 0 
SMALL
USER_CHARGES


@<TRIPOS>ATOM
  1 S        0.0360     0.1280     0.7820 S.3   1 <1>  -0.3320 
  2 C       -1.6590     0.7090     0.6990 C.ar  1 <1>   0.4120 
  3 C        0.9310     1.4530     1.7310 C.3   1 <1>   0.1310 
  4 N       -1.8730     1.8730     1.2240 N.ar  1 <1>  -0.6200 
  5 C       -2.6310    -0.1150     0.0920 C.ar  1 <1>  -0.1430 
  6 C        2.4300     1.1900     1.7600 C.2   1 <1>   0.5690 
  7 C       -3.1430     2.3310     1.1830 C.ar  1 <1>   0.3100 
  8 C       -3.9310     0.3210     0.0670 C.ar  1 <1>  -0.1440 
  9 C       -2.2180    -1.4650    -0.5020 C.3   1 <1>  -0.0160 
 10 O        2.9310     0.8740     2.8150 O.2   1 <1>  -0.5700 
 11 N        3.1890     1.3430     0.6300 N.am  1 <1>  -0.6600 
 12 C       -4.2140     1.5980     0.6090 C.ar  1 <1>   0.0000 
 13 C       -3.3920     3.6000     1.7410 C.ar  1 <1>  -0.1500 
 14 C       -5.0590    -0.5270    -0.5270 C.3   1 <1>  -0.0170 
 15 C       -3.2900    -2.0780    -1.4070 C.3   1 <1>  -0.1600 
 16 C        4.6450     1.0900     0.6130 C.3   1 <1>   0.1400 
 17 C        2.6920     1.6940    -0.7190 C.3   1 <1>   0.1400 
 18 C       -5.4970     2.1940     0.6070 C.ar  1 <1>  -0.1500 
 19 C       -4.6440     4.1550     1.7380 C.ar  1 <1>  -0.1500 
 20 C       -4.6620    -1.9910    -0.7410 C.3   1 <1>  -0.1600 
 21 C        5.0210     1.0760    -0.8650 C.3   1 <1>  -0.1600 
 22 C        3.9520     1.9290    -1.5440 C.3   1 <1>  -0.1600 
 23 C       -5.6830     3.4290     1.1600 C.ar  1 <1>   0.1900 
 24 F       -6.8730     3.9650     1.1540 F     1 <1>  -0.1900 
 25 H        0.5290     1.4500     2.7270 H     1 <1>   0.0800 
 26 H        0.7210     2.3920     1.2580 H     1 <1>   0.0800 
 27 H       -2.0070    -2.1420     0.3080 H     1 <1>   0.0800 
 28 H       -1.3200    -1.3560    -1.0840 H     1 <1>   0.0800 
 29 H       -2.5600     4.1240     2.1740 H     1 <1>   0.1500 
 30 H       -5.3480    -0.0970    -1.4700 H     1 <1>   0.0800 
 31 H       -5.9140    -0.5120     0.1260 H     1 <1>   0.0800 
 32 H       -3.0440    -3.1050    -1.6130 H     1 <1>   0.0800 
 33 H       -3.3130    -1.5470    -2.3440 H     1 <1>   0.0800 
 34 H        4.8770     0.1540     1.0940 H     1 <1>   0.0800 
 35 H        5.1450     1.8930     1.1270 H     1 <1>   0.0800 
 36 H        2.0690     2.5710    -0.6920 H     1 <1>   0.0800 
 37 H        2.1370     0.8620    -1.1180 H     1 <1>   0.0800 
 38 H       -6.3380     1.6900     0.1710 H     1 <1>   0.1500 
 39 H       -4.8440     5.1230     2.1620 H     1 <1>   0.1500 
 40 H       -5.4010    -2.4800    -1.3510 H     1 <1>   0.0800 
 41 H       -4.6280    -2.4940     0.2110 H     1 <1>   0.0800 
 42 H        4.9670     0.0640    -1.2270 H     1 <1>   0.0800 
 43 H        6.0150     1.4540    -1.0270 H     1 <1>   0.0800 
 44 H        4.2220     2.9690    -1.4820 H     1 <1>   0.0800 
 45 H        3.8100     1.6640    -2.5760 H     1 <1>   0.0800 
@<TRIPOS>BOND
  1   1   2  1   
  2   1   3  1   
  3   2   4  ar  
  4   2   5  ar  
  5   3   6  1   
  6   3  25  1   
  7   3  26  1   
  8   4   7  ar  
  9   5   8  ar  
 10   5   9  1   
 11   6  10  2   
 12   6  11  am  
 13   7  12  ar  
 14   7  13  ar  
 15   8  12  ar  
 16   8  14  1   
 17   9  15  1   
 18   9  27  1   
 19   9  28  1   
 20  11  16  1   
 21  11  17  1   
 22  12  18  ar  
 23  13  19  ar  
 24  13  29  1   
 25  14  20  1   
 26  14  30  1   
 27  14  31  1   
 28  15  20  1   
 29  15  32  1   
 30  15  33  1   
 31  16  21  1   
 32  16  34  1   
 33  16  35  1   
 34  17  22  1   
 35  17  36  1   
 36  17  37  1   
 37  18  23  ar  
 38  18  38  1   
 39  19  23  ar  
 40  19  39  1   
 41  20  40  1   
 42  20  41  1   
 43  21  22  1   
 44  21  42  1   
 45  21  43  1   
 46  22  44  1   
 47  22  45  1   
 48  23  24  1   
@<TRIPOS>SUBSTRUCTURE
  1 ****   2 GROUP 4 **** **** 0

# MOE 2024.06 (io_trps.svl 2023.06)
