@<TRIPOS>MOLECULE
NONAME
42 44 1 0 0 
SMALL
USER_CHARGES


@<TRIPOS>ATOM
  1 CL      -0.8160    -0.8460     2.0060 Cl    1 <1>  -0.1770 
  2 C       -0.9090    -2.1270     0.8200 C.ar  1 <1>   0.1770 
  3 C       -1.8250    -2.0590    -0.2210 C.ar  1 <1>  -0.1440 
  4 C       -0.0530    -3.2040     0.9580 C.ar  1 <1>  -0.1500 
  5 C       -1.8780    -3.1100    -1.1260 C.ar  1 <1>  -0.1500 
  6 C       -2.7660    -0.8810    -0.3940 C.3   1 <1>   0.2840 
  7 C       -0.1110    -4.2430     0.0450 C.ar  1 <1>  -0.1500 
  8 C       -1.0260    -4.1950    -0.9940 C.ar  1 <1>  -0.1500 
  9 N       -4.0680    -1.2380     0.2000 N.am  1 <1>  -0.7300 
 10 C       -5.2020    -1.4490    -0.5130 C.2   1 <1>   0.5690 
 11 O       -5.2380    -1.2720    -1.7070 O.2   1 <1>  -0.5700 
 12 C       -6.4390    -1.9440     0.2330 C.3   1 <1>  -0.0190 
 13 C       -6.4790    -3.4820     0.2650 C.3   1 <1>  -0.1600 
 14 C       -7.7520    -1.4030    -0.3660 C.3   1 <1>  -0.1600 
 15 C       -7.7060    -4.0070     1.0150 C.3   1 <1>   0.2090 
 16 C       -8.9700    -1.9220     0.3980 C.3   1 <1>   0.2090 
 17 N       -8.9400    -3.4110     0.4340 N.pl3 1 <1>  -0.8380 
 18 C      -10.0000    -4.1840     0.0010 C.ar  1 <1>   0.7200 
 19 N      -10.0680    -5.4340     0.4600 N.ar  1 <1>  -0.6200 
 20 N      -10.8690    -3.6160    -0.8350 N.ar  1 <1>  -0.6200 
 21 C      -11.0770    -6.1570     0.0410 C.ar  1 <1>   0.1600 
 22 C      -11.8660    -4.3630    -1.2400 C.ar  1 <1>   0.1600 
 23 C      -12.0200    -5.6620    -0.8250 C.ar  1 <1>  -0.1500 
 24 H        0.6490    -3.2280     1.7720 H     1 <1>   0.1500 
 25 H       -2.5900    -3.0850    -1.9350 H     1 <1>   0.1500 
 26 H       -2.8820    -0.6620    -1.4420 H     1 <1>   0.0800 
 27 H       -2.3820     0.0040     0.0830 H     1 <1>   0.0800 
 28 H        0.5510    -5.0860     0.1430 H     1 <1>   0.1500 
 29 H       -1.0760    -5.0030    -1.7040 H     1 <1>   0.1500 
 30 H       -4.0340    -1.4670     1.1920 H     1 <1>   0.3700 
 31 H       -6.3730    -1.5890     1.2460 H     1 <1>   0.0800 
 32 H       -5.5900    -3.8630     0.7340 H     1 <1>   0.0800 
 33 H       -6.5050    -3.8620    -0.7420 H     1 <1>   0.0800 
 34 H       -7.8400    -1.7080    -1.3950 H     1 <1>   0.0800 
 35 H       -7.7470    -0.3290    -0.3430 H     1 <1>   0.0800 
 36 H       -7.6480    -3.7410     2.0560 H     1 <1>   0.0800 
 37 H       -7.7200    -5.0810     0.9460 H     1 <1>   0.0800 
 38 H       -9.8680    -1.5540    -0.0680 H     1 <1>   0.0800 
 39 H       -8.9540    -1.5520     1.4090 H     1 <1>   0.0800 
 40 H      -11.1530    -7.1700     0.3970 H     1 <1>   0.1500 
 41 H      -12.5780    -3.9270    -1.9190 H     1 <1>   0.1500 
 42 H      -12.8410    -6.2650    -1.1630 H     1 <1>   0.1500 
@<TRIPOS>BOND
  1   1   2  1   
  2   2   3  ar  
  3   2   4  ar  
  4   3   5  ar  
  5   3   6  1   
  6   4   7  ar  
  7   4  24  1   
  8   5   8  ar  
  9   5  25  1   
 10   6   9  1   
 11   6  26  1   
 12   6  27  1   
 13   7   8  ar  
 14   7  28  1   
 15   8  29  1   
 16   9  10  am  
 17   9  30  1   
 18  10  11  2   
 19  10  12  1   
 20  12  13  1   
 21  12  14  1   
 22  12  31  1   
 23  13  15  1   
 24  13  32  1   
 25  13  33  1   
 26  14  16  1   
 27  14  34  1   
 28  14  35  1   
 29  15  17  1   
 30  15  36  1   
 31  15  37  1   
 32  16  17  1   
 33  16  38  1   
 34  16  39  1   
 35  17  18  1   
 36  18  19  ar  
 37  18  20  ar  
 38  19  21  ar  
 39  20  22  ar  
 40  21  23  ar  
 41  21  40  1   
 42  22  23  ar  
 43  22  41  1   
 44  23  42  1   
@<TRIPOS>SUBSTRUCTURE
  1 ****  13 GROUP 4 **** **** 0

# MOE 2024.06 (io_trps.svl 2023.06)
