@<TRIPOS>MOLECULE
NONAME
20 20 1 0 0 
SMALL
USER_CHARGES


@<TRIPOS>ATOM
  1 S        0.2440    -0.0440     0.0070 S.3   1 <1>   0.1810 
  2 N       -1.2300     0.7820     0.0220 N.2   1 <1>  -0.5100 
  3 C       -0.5490    -1.6000    -0.0210 C.2   1 <1>   0.4620 
  4 C       -2.1090    -0.1390     0.0060 C.2   1 <1>   0.5710 
  5 N       -1.8130    -1.4800    -0.0180 N.2   1 <1>  -0.5650 
  6 N        0.1580    -2.7570    -0.0420 N.pl3 1 <1>  -0.8840 
  7 S       -3.8490     0.2880     0.0140 S.3   1 <1>  -0.2850 
  8 C       -4.7250    -1.3400    -0.0160 C.3   1 <1>   0.0700 
  9 C       -6.2250    -1.0690    -0.0100 C.3   1 <1>   0.1200 
 10 O       -6.8910    -2.2910    -0.0320 O.3   1 <1>  -0.5600 
 11 C       -8.2760    -2.1770    -0.0300 C.3   1 <1>   0.0400 
 12 H       -0.3310    -3.6540    -0.0580 H     1 <1>   0.4000 
 13 H        1.1780    -2.7970    -0.0420 H     1 <1>   0.4000 
 14 H       -4.4210    -1.8840     0.8600 H     1 <1>   0.0800 
 15 H       -4.4210    -1.8530    -0.9100 H     1 <1>   0.0800 
 16 H       -6.5050    -0.5050    -0.8840 H     1 <1>   0.0800 
 17 H       -6.5050    -0.5370     0.8830 H     1 <1>   0.0800 
 18 H       -8.6930    -3.1680    -0.0480 H     1 <1>   0.0800 
 19 H       -8.5900    -1.6360    -0.9060 H     1 <1>   0.0800 
 20 H       -8.5900    -1.6680     0.8650 H     1 <1>   0.0800 
@<TRIPOS>BOND
  1   1   2  1   
  2   1   3  1   
  3   2   4  2   
  4   3   5  2   
  5   3   6  1   
  6   4   5  1   
  7   4   7  1   
  8   6  12  1   
  9   6  13  1   
 10   7   8  1   
 11   8   9  1   
 12   8  14  1   
 13   8  15  1   
 14   9  10  1   
 15   9  16  1   
 16   9  17  1   
 17  10  11  1   
 18  11  18  1   
 19  11  19  1   
 20  11  20  1   
@<TRIPOS>SUBSTRUCTURE
  1 ****   4 GROUP 4 **** **** 0

# MOE 2024.06 (io_trps.svl 2023.06)
