@<TRIPOS>MOLECULE
NONAME
66 69 1 0 0 
SMALL
USER_CHARGES


@<TRIPOS>ATOM
  1 O       -3.7350    -2.0870    -2.0390 O.3   1 <1>  -0.5600 
  2 C       -3.5960    -1.8390    -0.6810 C.3   1 <1>   0.2000 
  3 C       -2.4870    -2.1730    -2.6530 C.3   1 <1>   0.1200 
  4 C       -2.3230    -2.5790    -0.2930 C.3   1 <1>  -0.1600 
  5 C       -4.8680    -2.3000     0.0340 C.3   1 <1>   0.0960 
  6 C       -1.4760    -2.4670    -1.5470 C.3   1 <1>  -0.1600 
  7 N       -4.8260    -1.9290     1.4640 N.pl3 1 <1>   0.3140 
  8 N       -4.1890    -2.6610     2.3550 N.2   1 <1>  -0.4180 
  9 C       -5.3540    -0.8980     2.1090 C.2   1 <1>   0.0060 
 10 N       -4.3320    -2.0720     3.4850 N.2   1 <1>   0.0000 
 11 N       -5.0570    -0.9690     3.3520 N.2   1 <1>  -0.3380 
 12 C       -6.2040     0.2090     1.4900 C.3   1 <1>   0.3700 
 13 N       -7.3500    -0.3890     0.7530 N.3   1 <1>  -0.8100 
 14 C       -5.3060     1.0930     0.5950 C.3   1 <1>  -0.1600 
 15 C       -8.2170    -1.1700     1.6850 C.3   1 <1>   0.1100 
 16 C       -8.2010     0.6050     0.0460 C.3   1 <1>   0.1100 
 17 C       -5.6090     2.6060     0.6550 C.3   1 <1>  -0.0800 
 18 C       -9.3970    -1.8540     0.9720 C.3   1 <1>   0.2090 
 19 C       -9.3810    -0.0460    -0.7000 C.3   1 <1>   0.2090 
 20 C       -4.8560     3.3270    -0.4680 C.3   1 <1>  -0.2400 
 21 C       -5.1980     3.2080     2.0070 C.3   1 <1>  -0.2400 
 22 N      -10.2140    -0.8590     0.2270 N.pl3 1 <1>  -0.8380 
 23 C      -11.4280    -1.3200    -0.2780 C.ar  1 <1>   0.1000 
 24 C      -12.6380    -0.8660     0.2490 C.ar  1 <1>  -0.1430 
 25 C      -11.4520    -2.2440    -1.3180 C.ar  1 <1>  -0.1500 
 26 C      -13.8330    -1.3390    -0.2670 C.ar  1 <1>  -0.1500 
 27 C      -12.6500     0.1440     1.3860 C.3   1 <1>  -0.0970 
 28 C      -12.6460    -2.7160    -1.8340 C.ar  1 <1>  -0.1430 
 29 C      -13.8390    -2.2580    -1.3010 C.ar  1 <1>  -0.1500 
 30 C      -12.6620    -3.7240    -2.9680 C.3   1 <1>  -0.0970 
 31 H       -3.4590    -0.7770    -0.5700 H     1 <1>   0.0800 
 32 H       -2.2810    -1.2330    -3.1360 H     1 <1>   0.0800 
 33 H       -2.5250    -2.9630    -3.3840 H     1 <1>   0.0800 
 34 H       -2.5470    -3.6120    -0.0870 H     1 <1>   0.0800 
 35 H       -1.8500    -2.1420     0.5700 H     1 <1>   0.0800 
 36 H       -4.9610    -3.3670    -0.0380 H     1 <1>   0.0800 
 37 H       -5.7210    -1.8480    -0.4300 H     1 <1>   0.0800 
 38 H       -0.7810    -1.6480    -1.4690 H     1 <1>   0.0800 
 39 H       -0.9280    -3.3720    -1.7440 H     1 <1>   0.0800 
 40 H       -6.5920     0.8040     2.2990 H     1 <1>   0.0800 
 41 H       -5.3680     0.7380    -0.4180 H     1 <1>   0.0800 
 42 H       -4.2830     0.9690     0.9040 H     1 <1>   0.0800 
 43 H       -8.6110    -0.5200     2.4470 H     1 <1>   0.0800 
 44 H       -7.6450    -1.9390     2.1740 H     1 <1>   0.0800 
 45 H       -7.6170     1.1320    -0.6860 H     1 <1>   0.0800 
 46 H       -8.5920     1.3190     0.7490 H     1 <1>   0.0800 
 47 H       -6.6600     2.7810     0.5150 H     1 <1>   0.0800 
 48 H      -10.0190    -2.3470     1.6980 H     1 <1>   0.0800 
 49 H       -9.0200    -2.5960     0.2910 H     1 <1>   0.0800 
 50 H       -9.0010    -0.6710    -1.4890 H     1 <1>   0.0800 
 51 H       -9.9940     0.7200    -1.1420 H     1 <1>   0.0800 
 52 H       -3.7940     3.1910    -0.3640 H     1 <1>   0.0800 
 53 H       -5.0690     4.3820    -0.4440 H     1 <1>   0.0800 
 54 H       -5.1580     2.9470    -1.4280 H     1 <1>   0.0800 
 55 H       -5.3900     4.2660     2.0150 H     1 <1>   0.0800 
 56 H       -4.1480     3.0540     2.1890 H     1 <1>   0.0800 
 57 H       -5.7510     2.7680     2.8160 H     1 <1>   0.0800 
 58 H      -10.5190    -2.5910    -1.7180 H     1 <1>   0.1500 
 59 H      -14.7690    -0.9950     0.1340 H     1 <1>   0.1500 
 60 H      -12.1320    -0.2640     2.2350 H     1 <1>   0.0800 
 61 H      -13.6540     0.3910     1.6780 H     1 <1>   0.0800 
 62 H      -12.1480     1.0410     1.0760 H     1 <1>   0.0800 
 63 H      -14.7760    -2.6150    -1.6900 H     1 <1>   0.1500 
 64 H      -11.6730    -3.8770    -3.3600 H     1 <1>   0.0800 
 65 H      -13.2940    -3.3710    -3.7630 H     1 <1>   0.0800 
 66 H      -13.0420    -4.6650    -2.6120 H     1 <1>   0.0800 
@<TRIPOS>BOND
  1   1   2  1   
  2   1   3  1   
  3   2   4  1   
  4   2   5  1   
  5   2  31  1   
  6   3   6  1   
  7   3  32  1   
  8   3  33  1   
  9   4   6  1   
 10   4  34  1   
 11   4  35  1   
 12   5   7  1   
 13   5  36  1   
 14   5  37  1   
 15   6  38  1   
 16   6  39  1   
 17   7   8  1   
 18   7   9  1   
 19   8  10  2   
 20   9  11  2   
 21   9  12  1   
 22  10  11  1   
 23  12  13  1   
 24  12  14  1   
 25  12  40  1   
 26  13  15  1   
 27  13  16  1   
 28  14  17  1   
 29  14  41  1   
 30  14  42  1   
 31  15  18  1   
 32  15  43  1   
 33  15  44  1   
 34  16  19  1   
 35  16  45  1   
 36  16  46  1   
 37  17  20  1   
 38  17  21  1   
 39  17  47  1   
 40  18  22  1   
 41  18  48  1   
 42  18  49  1   
 43  19  22  1   
 44  19  50  1   
 45  19  51  1   
 46  20  52  1   
 47  20  53  1   
 48  20  54  1   
 49  21  55  1   
 50  21  56  1   
 51  21  57  1   
 52  22  23  1   
 53  23  24  ar  
 54  23  25  ar  
 55  24  26  ar  
 56  24  27  1   
 57  25  28  ar  
 58  25  58  1   
 59  26  29  ar  
 60  26  59  1   
 61  27  60  1   
 62  27  61  1   
 63  27  62  1   
 64  28  29  ar  
 65  28  30  1   
 66  29  63  1   
 67  30  64  1   
 68  30  65  1   
 69  30  66  1   
@<TRIPOS>SUBSTRUCTURE
  1 ****  13 GROUP 4 **** **** 0

# MOE 2024.06 (io_trps.svl 2023.06)
