@<TRIPOS>MOLECULE
1-(4-Methyl-pyrimidin-2-yl)-piperidine-3-carboxylic acid (benzo[1,3]dioxol-5-ylmethyl)-amide
48 51 1 0 0 
SMALL
USER_CHARGES


@<TRIPOS>ATOM
  1 O       -0.4800     0.8490     2.7710 O.2   1 <1>  -0.5700 
  2 C       -0.4850     1.7950     2.0200 C.2   1 <1>   0.5690 
  3 N       -1.6070     2.1620     1.3570 N.am  1 <1>  -0.7300 
  4 C        0.7890     2.5940     1.8050 C.3   1 <1>  -0.0190 
  5 C       -2.8870     1.4440     1.4340 C.3   1 <1>   0.2840 
  6 C        1.8870     1.6690     1.2750 C.3   1 <1>   0.2090 
  7 C        1.2500     3.3040     3.0960 C.3   1 <1>  -0.1600 
  8 C       -3.6890     1.7800     0.1900 C.ar  1 <1>  -0.1440 
  9 N        3.1320     2.4610     1.0590 N.pl3 1 <1>  -0.8380 
 10 C        2.5900     4.0280     2.8760 C.3   1 <1>  -0.1600 
 11 C       -4.6870     2.7480     0.2430 C.ar  1 <1>  -0.1500 
 12 C       -3.4170     1.1210    -1.0100 C.ar  1 <1>  -0.1500 
 13 C        3.5970     2.7880    -0.1980 C.ar  1 <1>   0.7200 
 14 C        3.6620     3.0980     2.2940 C.3   1 <1>   0.2090 
 15 C       -5.3880     3.0250    -0.9140 C.ar  1 <1>   0.0820 
 16 C       -4.1340     1.4140    -2.1640 C.ar  1 <1>  -0.1500 
 17 N        4.8520     3.2250    -0.2860 N.ar  1 <1>  -0.6200 
 18 N        2.7470     2.6450    -1.2150 N.ar  1 <1>  -0.6200 
 19 O       -6.3770     3.9060    -1.0920 O.3   1 <1>  -0.3620 
 20 C       -5.1200     2.3760    -2.0840 C.ar  1 <1>   0.0820 
 21 C        5.2880     3.5330    -1.4800 C.ar  1 <1>   0.1670 
 22 C        3.2070     2.9610    -2.4000 C.ar  1 <1>   0.1600 
 23 C       -6.7690     3.8090    -2.4610 C.3   1 <1>   0.4000 
 24 O       -5.9290     2.8190    -3.0520 O.3   1 <1>  -0.3630 
 25 C        4.4880     3.4160    -2.5910 C.ar  1 <1>  -0.1500 
 26 C        6.7150     4.0250    -1.5860 C.3   1 <1>  -0.0970 
 27 H       -1.5950     2.9360     0.6910 H     1 <1>   0.3700 
 28 H        0.6030     3.3350     1.0500 H     1 <1>   0.0800 
 29 H       -3.4160     1.7500     2.3200 H     1 <1>   0.0800 
 30 H       -2.7100     0.3830     1.4920 H     1 <1>   0.0800 
 31 H        1.5630     1.1930     0.3650 H     1 <1>   0.0800 
 32 H        2.0870     0.8910     1.9930 H     1 <1>   0.0800 
 33 H        1.3670     2.5740     3.8790 H     1 <1>   0.0800 
 34 H        0.5000     4.0100     3.4110 H     1 <1>   0.0800 
 35 H        2.9410     4.4310     3.8090 H     1 <1>   0.0800 
 36 H        2.4500     4.8500     2.1960 H     1 <1>   0.0800 
 37 H       -4.9220     3.2770     1.1490 H     1 <1>   0.1500 
 38 H       -2.6410     0.3760    -1.0470 H     1 <1>   0.1500 
 39 H        4.5550     3.6630     2.0930 H     1 <1>   0.0800 
 40 H        3.9100     2.3290     3.0050 H     1 <1>   0.0800 
 41 H       -3.9360     0.9140    -3.0950 H     1 <1>   0.1500 
 42 H        2.5440     2.8540    -3.2420 H     1 <1>   0.1500 
 43 H       -6.6140     4.7540    -2.9490 H     1 <1>   0.0800 
 44 H       -7.7960     3.4930    -2.5200 H     1 <1>   0.0800 
 45 H        4.8430     3.6680    -3.5720 H     1 <1>   0.1500 
 46 H        6.8330     4.9140    -0.9930 H     1 <1>   0.0800 
 47 H        6.9740     4.2480    -2.6040 H     1 <1>   0.0800 
 48 H        7.3820     3.2700    -1.2120 H     1 <1>   0.0800 
@<TRIPOS>BOND
  1   1   2  2   
  2   2   3  am  
  3   2   4  1   
  4   3   5  1   
  5   3  27  1   
  6   4   6  1   
  7   4   7  1   
  8   4  28  1   
  9   5   8  1   
 10   5  29  1   
 11   5  30  1   
 12   6   9  1   
 13   6  31  1   
 14   6  32  1   
 15   7  10  1   
 16   7  33  1   
 17   7  34  1   
 18   8  11  ar  
 19   8  12  ar  
 20   9  13  1   
 21   9  14  1   
 22  10  14  1   
 23  10  35  1   
 24  10  36  1   
 25  11  15  ar  
 26  11  37  1   
 27  12  16  ar  
 28  12  38  1   
 29  13  17  ar  
 30  13  18  ar  
 31  14  39  1   
 32  14  40  1   
 33  15  19  1   
 34  15  20  ar  
 35  16  20  ar  
 36  16  41  1   
 37  17  21  ar  
 38  18  22  ar  
 39  19  23  1   
 40  20  24  1   
 41  21  25  ar  
 42  21  26  1   
 43  22  25  ar  
 44  22  42  1   
 45  23  24  1   
 46  23  43  1   
 47  23  44  1   
 48  25  45  1   
 49  26  46  1   
 50  26  47  1   
 51  26  48  1   
@<TRIPOS>SUBSTRUCTURE
  1 ****   3 GROUP 4 **** **** 0

# MOE 2024.06 (io_trps.svl 2023.06)
