@<TRIPOS>MOLECULE
[1,2,3]Thiadiazole-4-carboxylic acid (cyclohexylcarbamoyl-pyridin-4-yl-methyl)-(3,5-dimethyl-phenyl)-amide
59 62 1 0 0 
SMALL
USER_CHARGES


@<TRIPOS>ATOM
  1 S       -1.4920     0.3850    -2.8810 S.3   1 <1>   0.1810 
  2 N       -1.3590     0.3630    -1.1930 N.2   1 <1>  -0.2210 
  3 C       -3.2030     0.5270    -2.8230 C.2   1 <1>  -0.1100 
  4 N       -2.4920     0.4560    -0.6540 N.2   1 <1>  -0.2270 
  5 C       -3.5720     0.5540    -1.5310 C.2   1 <1>   0.1410 
  6 C       -4.9310     0.6460    -1.0300 C.2   1 <1>   0.7160 
  7 O       -5.8760     0.4710    -1.7800 O.2   1 <1>  -0.5700 
  8 N       -5.1920     0.9370     0.2900 N.am  1 <1>  -0.4770 
  9 C       -4.8790     2.1770     0.8510 C.ar  1 <1>   0.1170 
 10 C       -6.0300     0.0120     1.1130 C.3   1 <1>   0.4250 
 11 C       -3.7970     2.3180     1.7100 C.ar  1 <1>  -0.1500 
 12 C       -5.6590     3.2880     0.5590 C.ar  1 <1>  -0.1500 
 13 C       -5.6960    -1.4420     0.7520 C.ar  1 <1>  -0.1440 
 14 C       -7.5330     0.3570     1.0660 C.2   1 <1>   0.5690 
 15 C       -3.4950     3.5470     2.2690 C.ar  1 <1>  -0.1440 
 16 C       -5.3720     4.5200     1.1170 C.ar  1 <1>  -0.1440 
 17 C       -6.5880    -2.3170     0.1560 C.ar  1 <1>  -0.1500 
 18 C       -4.4350    -1.9520     1.0030 C.ar  1 <1>  -0.1500 
 19 O       -8.1710     0.3130     2.0930 O.2   1 <1>  -0.5700 
 20 N       -8.1250     0.7000    -0.1130 N.am  1 <1>  -0.7300 
 21 C       -4.2880     4.6440     1.9710 C.ar  1 <1>  -0.1500 
 22 C       -2.3080     3.6990     3.2020 C.3   1 <1>  -0.0970 
 23 C       -6.2300     5.7320     0.8020 C.3   1 <1>  -0.0970 
 24 C       -6.1880    -3.6070    -0.1480 C.ar  1 <1>   0.1600 
 25 C       -4.1350    -3.2580     0.6570 C.ar  1 <1>   0.1600 
 26 C       -9.5240     1.0990    -0.3030 C.3   1 <1>   0.2200 
 27 N       -4.9830    -4.0980     0.0880 N.ar  1 <1>  -0.6200 
 28 C      -10.1440     0.2110    -1.3860 C.3   1 <1>  -0.1600 
 29 C       -9.5600     2.5770    -0.7040 C.3   1 <1>  -0.1600 
 30 C      -11.5750     0.6570    -1.7170 C.3   1 <1>  -0.1600 
 31 C      -10.9910     3.0270    -1.0340 C.3   1 <1>  -0.1600 
 32 C      -11.6160     2.1380    -2.1180 C.3   1 <1>  -0.1600 
 33 H       -3.7600     0.5700    -3.7410 H     1 <1>   0.1500 
 34 H       -5.7340     0.1470     2.1380 H     1 <1>   0.0800 
 35 H       -3.1870     1.4610     1.9320 H     1 <1>   0.1500 
 36 H       -6.4970     3.1790    -0.1050 H     1 <1>   0.1500 
 37 H       -7.5940    -2.0210    -0.0830 H     1 <1>   0.1500 
 38 H       -3.6750    -1.3430     1.4590 H     1 <1>   0.1500 
 39 H       -7.5440     0.7110    -0.9650 H     1 <1>   0.3700 
 40 H       -4.0590     5.6010     2.4060 H     1 <1>   0.1500 
 41 H       -1.6030     2.9000     3.0530 H     1 <1>   0.0800 
 42 H       -2.6420     3.6810     4.2240 H     1 <1>   0.0800 
 43 H       -1.8060     4.6310     3.0160 H     1 <1>   0.0800 
 44 H       -7.1490     5.4390     0.3270 H     1 <1>   0.0800 
 45 H       -5.6970     6.3940     0.1440 H     1 <1>   0.0800 
 46 H       -6.4690     6.2600     1.7080 H     1 <1>   0.0800 
 47 H       -6.8990    -4.2710    -0.6100 H     1 <1>   0.1500 
 48 H       -3.1450    -3.6300     0.8580 H     1 <1>   0.1500 
 49 H      -10.0690     0.9680     0.6180 H     1 <1>   0.0800 
 50 H      -10.1600    -0.8080    -1.0430 H     1 <1>   0.0800 
 51 H       -9.5460     0.2630    -2.2790 H     1 <1>   0.0800 
 52 H       -8.9370     2.7310    -1.5670 H     1 <1>   0.0800 
 53 H       -9.1790     3.1730     0.1070 H     1 <1>   0.0800 
 54 H      -12.2040     0.5040    -0.8560 H     1 <1>   0.0800 
 55 H      -11.9650     0.0550    -2.5200 H     1 <1>   0.0800 
 56 H      -10.9800     4.0510    -1.3690 H     1 <1>   0.0800 
 57 H      -11.5940     2.9790    -0.1430 H     1 <1>   0.0800 
 58 H      -12.6360     2.4380    -2.2860 H     1 <1>   0.0800 
 59 H      -11.0780     2.2720    -3.0420 H     1 <1>   0.0800 
@<TRIPOS>BOND
  1   1   2  1   
  2   1   3  1   
  3   2   4  2   
  4   3   5  2   
  5   3  33  1   
  6   4   5  1   
  7   5   6  1   
  8   6   7  2   
  9   6   8  am  
 10   8   9  1   
 11   8  10  1   
 12   9  11  ar  
 13   9  12  ar  
 14  10  13  1   
 15  10  14  1   
 16  10  34  1   
 17  11  15  ar  
 18  11  35  1   
 19  12  16  ar  
 20  12  36  1   
 21  13  17  ar  
 22  13  18  ar  
 23  14  19  2   
 24  14  20  am  
 25  15  21  ar  
 26  15  22  1   
 27  16  21  ar  
 28  16  23  1   
 29  17  24  ar  
 30  17  37  1   
 31  18  25  ar  
 32  18  38  1   
 33  20  26  1   
 34  20  39  1   
 35  21  40  1   
 36  22  41  1   
 37  22  42  1   
 38  22  43  1   
 39  23  44  1   
 40  23  45  1   
 41  23  46  1   
 42  24  27  ar  
 43  24  47  1   
 44  25  27  ar  
 45  25  48  1   
 46  26  28  1   
 47  26  29  1   
 48  26  49  1   
 49  28  30  1   
 50  28  50  1   
 51  28  51  1   
 52  29  31  1   
 53  29  52  1   
 54  29  53  1   
 55  30  32  1   
 56  30  54  1   
 57  30  55  1   
 58  31  32  1   
 59  31  56  1   
 60  31  57  1   
 61  32  58  1   
 62  32  59  1   
@<TRIPOS>SUBSTRUCTURE
  1 ****   8 GROUP 4 **** **** 0

# MOE 2024.06 (io_trps.svl 2023.06)
