@<TRIPOS>MOLECULE
2-[3-(4-Fluoro-phenyl)-6-oxo-6H-pyridazin-1-yl]-N-(3-methoxy-propyl)-acetamide
41 42 1 0 0 
SMALL
USER_CHARGES


@<TRIPOS>ATOM
  1 F        1.0310    -0.1880     0.4360 F     1 <1>  -0.1900 
  2 C        1.6530    -1.3350     0.4360 C.ar  1 <1>   0.1900 
  3 C        2.4090    -1.6850     1.5370 C.ar  1 <1>  -0.1500 
  4 C        1.5350    -2.1600    -0.6650 C.ar  1 <1>  -0.1500 
  5 C        3.0650    -2.9040     1.5310 C.ar  1 <1>  -0.1500 
  6 C        2.1970    -3.3750    -0.6540 C.ar  1 <1>  -0.1500 
  7 C        2.9680    -3.7780     0.4410 C.ar  1 <1>   0.0860 
  8 C        3.6450    -5.0560     0.4350 C.2   1 <1>   0.3490 
  9 N        4.3210    -5.4230    -0.6240 N.2   1 <1>  -0.5120 
 10 C        3.5630    -5.8920     1.5880 C.2   1 <1>  -0.1360 
 11 N        4.9640    -6.6370    -0.5930 N.am  1 <1>  -0.2980 
 12 C        4.1980    -7.0900     1.6190 C.2   1 <1>  -0.1360 
 13 C        4.9420    -7.5080     0.4920 C.2   1 <1>   0.6160 
 14 C        5.7900    -6.9950    -1.7900 C.3   1 <1>   0.2010 
 15 O        5.5290    -8.5810     0.4740 O.2   1 <1>  -0.5700 
 16 C        7.1760    -6.3600    -1.7440 C.2   1 <1>   0.5690 
 17 O        8.1140    -6.9430    -2.2340 O.2   1 <1>  -0.5700 
 18 N        7.3120    -5.1350    -1.1720 N.am  1 <1>  -0.7300 
 19 C        8.5720    -4.4070    -0.9480 C.3   1 <1>   0.1400 
 20 C        8.5520    -3.8190     0.4610 C.3   1 <1>  -0.1600 
 21 C        9.8520    -3.0780     0.7600 C.3   1 <1>   0.1200 
 22 O        9.7370    -2.5230     2.0270 O.3   1 <1>  -0.5600 
 23 C       10.8680    -1.8320     2.4460 C.3   1 <1>   0.0400 
 24 H        2.4820    -1.0130     2.3740 H     1 <1>   0.1500 
 25 H        0.9410    -1.8530    -1.5070 H     1 <1>   0.1500 
 26 H        3.6670    -3.1770     2.3800 H     1 <1>   0.1500 
 27 H        2.1200    -4.0290    -1.5070 H     1 <1>   0.1500 
 28 H        2.9810    -5.5490     2.4240 H     1 <1>   0.1500 
 29 H        4.1690    -7.7570     2.4600 H     1 <1>   0.1500 
 30 H        5.2880    -6.6500    -2.6740 H     1 <1>   0.0800 
 31 H        5.8970    -8.0620    -1.8650 H     1 <1>   0.0800 
 32 H        6.4570    -4.7140    -0.7890 H     1 <1>   0.3700 
 33 H        8.6620    -3.6220    -1.6810 H     1 <1>   0.0800 
 34 H        9.4050    -5.0820    -1.0610 H     1 <1>   0.0800 
 35 H        8.4340    -4.6140     1.1760 H     1 <1>   0.0800 
 36 H        7.7310    -3.1310     0.5490 H     1 <1>   0.0800 
 37 H       10.0120    -2.2840     0.0500 H     1 <1>   0.0800 
 38 H       10.6880    -3.7580     0.7520 H     1 <1>   0.0800 
 39 H       10.6760    -1.4430     3.4310 H     1 <1>   0.0800 
 40 H       11.0610    -1.0200     1.7670 H     1 <1>   0.0800 
 41 H       11.7050    -2.5070     2.4800 H     1 <1>   0.0800 
@<TRIPOS>BOND
  1   1   2  1   
  2   2   3  ar  
  3   2   4  ar  
  4   3   5  ar  
  5   3  24  1   
  6   4   6  ar  
  7   4  25  1   
  8   5   7  ar  
  9   5  26  1   
 10   6   7  ar  
 11   6  27  1   
 12   7   8  1   
 13   8   9  2   
 14   8  10  1   
 15   9  11  1   
 16  10  12  2   
 17  10  28  1   
 18  11  13  am  
 19  11  14  1   
 20  12  13  1   
 21  12  29  1   
 22  13  15  2   
 23  14  16  1   
 24  14  30  1   
 25  14  31  1   
 26  16  17  2   
 27  16  18  am  
 28  18  19  1   
 29  18  32  1   
 30  19  20  1   
 31  19  33  1   
 32  19  34  1   
 33  20  21  1   
 34  20  35  1   
 35  20  36  1   
 36  21  22  1   
 37  21  37  1   
 38  21  38  1   
 39  22  23  1   
 40  23  39  1   
 41  23  40  1   
 42  23  41  1   
@<TRIPOS>SUBSTRUCTURE
  1 ****   9 GROUP 4 **** **** 0

# MOE 2024.06 (io_trps.svl 2023.06)
