@<TRIPOS>MOLECULE
NONAME
34 35 1 0 0 
SMALL
USER_CHARGES


@<TRIPOS>ATOM
  1 O       -2.4060     0.6430    -1.3750 O.2   1 <1>  -0.5700 
  2 C       -3.1120     1.2960    -0.6300 C.2   1 <1>   0.7800 
  3 O       -4.4250     1.0760    -0.5870 O.3   1 <1>  -0.4300 
  4 N       -2.6100     2.2610     0.1920 N.am  1 <1>  -0.6600 
  5 C       -5.0040    -0.0080    -1.2780 C.3   1 <1>   0.2640 
  6 C       -1.1640     2.6630     0.2090 C.3   1 <1>   0.2810 
  7 C       -3.4510     3.2560     0.8870 C.3   1 <1>   0.1400 
  8 C       -4.7790    -1.2850    -0.4790 C.ar  1 <1>  -0.1440 
  9 C       -0.1780     1.6100     0.7820 C.2   1 <1>   0.5690 
 10 C       -1.1640     3.9850     0.9950 C.3   1 <1>  -0.1600 
 11 C       -2.5940     4.5120     0.9160 C.3   1 <1>  -0.1600 
 12 C       -5.5210    -1.5310     0.6660 C.ar  1 <1>  -0.1500 
 13 C       -3.8300    -2.2100    -0.8860 C.ar  1 <1>  -0.1500 
 14 O        0.7720     1.9570     1.4420 O.2   1 <1>  -0.5700 
 15 N       -0.3460     0.2970     0.5280 N.am  1 <1>  -0.8000 
 16 C       -5.3200    -2.6910     1.3940 C.ar  1 <1>  -0.1500 
 17 C       -3.6280    -3.3710    -0.1600 C.ar  1 <1>  -0.1500 
 18 C       -4.3740    -3.6130     0.9800 C.ar  1 <1>  -0.1500 
 19 H       -6.0570     0.1890    -1.3690 H     1 <1>   0.0800 
 20 H       -4.5780    -0.0720    -2.2640 H     1 <1>   0.0800 
 21 H       -0.8680     2.8650    -0.8050 H     1 <1>   0.0800 
 22 H       -4.3810     3.4240     0.3700 H     1 <1>   0.0800 
 23 H       -3.6490     2.9090     1.8870 H     1 <1>   0.0800 
 24 H       -0.9190     3.7910     2.0250 H     1 <1>   0.0800 
 25 H       -0.4440     4.6780     0.5990 H     1 <1>   0.0800 
 26 H       -2.7360     5.0580    -0.0010 H     1 <1>   0.0800 
 27 H       -2.8430     5.1490     1.7470 H     1 <1>   0.0800 
 28 H       -6.2540    -0.8170     0.9970 H     1 <1>   0.1500 
 29 H       -3.2410    -2.0260    -1.7680 H     1 <1>   0.1500 
 30 H        0.3020    -0.3970     0.8960 H     1 <1>   0.3700 
 31 H       -1.0930    -0.0340    -0.0970 H     1 <1>   0.3700 
 32 H       -5.8980    -2.8760     2.2820 H     1 <1>   0.1500 
 33 H       -2.8900    -4.0840    -0.4820 H     1 <1>   0.1500 
 34 H       -4.2170    -4.5150     1.5450 H     1 <1>   0.1500 
@<TRIPOS>BOND
  1   1   2  2   
  2   2   3  1   
  3   2   4  am  
  4   3   5  1   
  5   4   6  1   
  6   4   7  1   
  7   5   8  1   
  8   5  19  1   
  9   5  20  1   
 10   6   9  1   
 11   6  10  1   
 12   6  21  1   
 13   7  11  1   
 14   7  22  1   
 15   7  23  1   
 16   8  12  ar  
 17   8  13  ar  
 18   9  14  2   
 19   9  15  am  
 20  10  11  1   
 21  10  24  1   
 22  10  25  1   
 23  11  26  1   
 24  11  27  1   
 25  12  16  ar  
 26  12  28  1   
 27  13  17  ar  
 28  13  29  1   
 29  15  30  1   
 30  15  31  1   
 31  16  18  ar  
 32  16  32  1   
 33  17  18  ar  
 34  17  33  1   
 35  18  34  1   
@<TRIPOS>SUBSTRUCTURE
  1 ****   2 GROUP 4 **** **** 0

# MOE 2024.06 (io_trps.svl 2023.06)
