@<TRIPOS>MOLECULE
2-(3-Ethyl-2,4-dioxo-3,4-dihydro-2H-thieno[3,2-d]pyrimidin-1-yl)-N-(2,4,6-trimet
47 49 1 0 0 
SMALL
USER_CHARGES


@<TRIPOS>ATOM
  1 S        1.6890    -0.8870     3.0220 S.3   1 <1>  -0.0800 
  2 C        2.6220    -1.2450     1.5620 C.2   1 <1>  -0.0450 
  3 C        0.6970    -2.3170     2.7880 C.2   1 <1>  -0.1100 
  4 C        3.7200    -0.4940     1.0680 C.2   1 <1>   0.7150 
  5 C        2.1500    -2.3670     0.9700 C.2   1 <1>   0.0630 
  6 C        1.0660    -2.9820     1.6760 C.2   1 <1>  -0.1500 
  7 O        4.1130     0.5290     1.6030 O.2   1 <1>  -0.5700 
  8 N        4.3520    -0.9840    -0.0650 N.am  1 <1>  -0.4200 
  9 N        2.7610    -2.7910    -0.2100 N.am  1 <1>  -0.4230 
 10 C        3.9010    -2.1480    -0.6720 C.2   1 <1>   0.6900 
 11 C        5.5250    -0.2580    -0.6270 C.3   1 <1>   0.1400 
 12 C        2.2520    -3.9980    -0.9390 C.3   1 <1>   0.2010 
 13 O        4.5250    -2.6380    -1.6000 O.2   1 <1>  -0.5700 
 14 C        5.0570     0.7500    -1.6770 C.3   1 <1>  -0.2400 
 15 C        2.9510    -5.2660    -0.4750 C.2   1 <1>   0.5690 
 16 O        2.3030    -6.0920     0.1210 O.2   1 <1>  -0.5700 
 17 N        4.2850    -5.3890    -0.7440 N.am  1 <1>  -0.5470 
 18 C        5.2020    -6.3150    -0.2290 C.ar  1 <1>   0.1170 
 19 C        6.2210    -5.8580     0.6090 C.ar  1 <1>  -0.1430 
 20 C        5.1390    -7.6740    -0.5510 C.ar  1 <1>  -0.1430 
 21 C        7.1500    -6.7490     1.1190 C.ar  1 <1>  -0.1500 
 22 C        6.3300    -4.3840     0.9870 C.3   1 <1>  -0.0970 
 23 C        6.0750    -8.5480    -0.0250 C.ar  1 <1>  -0.1500 
 24 C        4.0650    -8.2340    -1.4750 C.3   1 <1>  -0.0970 
 25 C        7.0820    -8.0950     0.8100 C.ar  1 <1>  -0.1430 
 26 C        8.1010    -9.0670     1.3760 C.3   1 <1>  -0.0970 
 27 H       -0.0660    -2.5140     3.5210 H     1 <1>   0.1500 
 28 H        0.6120    -3.8970     1.3380 H     1 <1>   0.1500 
 29 H        6.2120    -0.9580    -1.0730 H     1 <1>   0.0800 
 30 H        6.0540     0.2540     0.1600 H     1 <1>   0.0800 
 31 H        2.4120    -3.8790    -1.9950 H     1 <1>   0.0800 
 32 H        1.1940    -4.1000    -0.7870 H     1 <1>   0.0800 
 33 H        4.5550     0.2460    -2.4840 H     1 <1>   0.0800 
 34 H        5.9070     1.2720    -2.0790 H     1 <1>   0.0800 
 35 H        4.3950     1.4720    -1.2330 H     1 <1>   0.0800 
 36 H        4.7140    -4.5670    -1.1850 H     1 <1>   0.3700 
 37 H        7.9340    -6.3970     1.7650 H     1 <1>   0.1500 
 38 H        6.5340    -3.7950     0.1120 H     1 <1>   0.0800 
 39 H        7.1230    -4.2250     1.6960 H     1 <1>   0.0800 
 40 H        5.4100    -4.0520     1.4320 H     1 <1>   0.0800 
 41 H        6.0230    -9.5940    -0.2670 H     1 <1>   0.1500 
 42 H        3.1480    -8.3600    -0.9300 H     1 <1>   0.0800 
 43 H        4.3610    -9.1880    -1.8720 H     1 <1>   0.0800 
 44 H        3.8930    -7.5680    -2.3010 H     1 <1>   0.0800 
 45 H        8.4730    -8.7140     2.3200 H     1 <1>   0.0800 
 46 H        8.9250    -9.1680     0.6920 H     1 <1>   0.0800 
 47 H        7.6540   -10.0330     1.5270 H     1 <1>   0.0800 
@<TRIPOS>BOND
  1   1   2  1   
  2   1   3  1   
  3   2   4  1   
  4   2   5  2   
  5   3   6  2   
  6   3  27  1   
  7   4   7  2   
  8   4   8  am  
  9   5   6  1   
 10   5   9  1   
 11   6  28  1   
 12   8  10  am  
 13   8  11  1   
 14   9  10  am  
 15   9  12  1   
 16  10  13  2   
 17  11  14  1   
 18  11  29  1   
 19  11  30  1   
 20  12  15  1   
 21  12  31  1   
 22  12  32  1   
 23  14  33  1   
 24  14  34  1   
 25  14  35  1   
 26  15  16  2   
 27  15  17  am  
 28  17  18  1   
 29  17  36  1   
 30  18  19  ar  
 31  18  20  ar  
 32  19  21  ar  
 33  19  22  1   
 34  20  23  ar  
 35  20  24  1   
 36  21  25  ar  
 37  21  37  1   
 38  22  38  1   
 39  22  39  1   
 40  22  40  1   
 41  23  25  ar  
 42  23  41  1   
 43  24  42  1   
 44  24  43  1   
 45  24  44  1   
 46  25  26  1   
 47  26  45  1   
 48  26  46  1   
 49  26  47  1   
@<TRIPOS>SUBSTRUCTURE
  1 ****  17 GROUP 4 **** **** 0

# MOE 2024.06 (io_trps.svl 2023.06)
