@<TRIPOS>MOLECULE
NONAME
52 56 1 0 0 
SMALL
USER_CHARGES


@<TRIPOS>ATOM
  1 O       -2.4990    -1.4290    -2.1320 O.2   1 <1>  -0.5700 
  2 C       -2.2130    -1.9110    -1.0520 C.2   1 <1>   0.6950 
  3 N       -2.1270    -3.2780    -0.9740 N.2   1 <1>  -0.6610 
  4 C       -1.9620    -1.0720     0.0930 C.ar  1 <1>   0.0860 
  5 C       -1.8150    -3.8210     0.1440 C.2   1 <1>   0.4390 
  6 C       -1.6240    -1.7100     1.2850 C.ar  1 <1>   0.1000 
  7 C       -2.0200     0.3260     0.0820 C.ar  1 <1>  -0.1500 
  8 N       -1.5730    -3.0890     1.2690 N.pl3 1 <1>  -0.5500 
  9 C       -1.7060    -5.3500     0.2680 C.3   1 <1>  -0.0190 
 10 C       -1.3380    -0.9700     2.4290 C.ar  1 <1>  -0.1500 
 11 C       -1.7430     1.0570     1.2180 C.ar  1 <1>  -0.1500 
 12 C       -0.2870    -5.8960     0.6500 C.3   1 <1>  -0.0190 
 13 C       -2.0050    -6.1090    -1.0510 C.3   1 <1>   0.0580 
 14 C       -1.3990     0.4060     2.3970 C.ar  1 <1>  -0.1500 
 15 C        0.7470    -4.8270     0.9740 C.2   1 <1>   0.5690 
 16 C        0.0730    -6.8200    -0.5360 C.3   1 <1>   0.0580 
 17 C       -2.0900    -7.5840    -0.7030 C.2   1 <1>  -0.2880 
 18 C       -0.6240    -6.1180    -1.7010 C.3   1 <1>  -0.1600 
 19 O        0.8140    -4.4550     2.1220 O.2   1 <1>  -0.5700 
 20 N        1.5080    -4.2730    -0.0030 N.am  1 <1>  -0.7300 
 21 C       -0.8630    -8.0060    -0.4090 C.2   1 <1>  -0.2880 
 22 C        2.3940    -3.1000     0.1830 C.3   1 <1>   0.1400 
 23 C        3.8480    -3.5510     0.2920 C.3   1 <1>  -0.0170 
 24 C        4.7500    -2.3420     0.4760 C.ar  1 <1>  -0.1430 
 25 C        4.9550    -1.8150     1.7410 C.ar  1 <1>  -0.1500 
 26 C        5.3670    -1.7500    -0.6160 C.ar  1 <1>  -0.1500 
 27 C        5.7670    -0.7080     1.9150 C.ar  1 <1>  -0.1500 
 28 C        6.1790    -0.6430    -0.4440 C.ar  1 <1>  -0.1500 
 29 C        6.3790    -0.1210     0.8220 C.ar  1 <1>  -0.1500 
 30 H       -2.2840     0.8260    -0.8340 H     1 <1>   0.1500 
 31 H       -1.1350    -3.5650     2.0690 H     1 <1>   0.4000 
 32 H       -2.4220    -5.6600     1.0080 H     1 <1>   0.0800 
 33 H       -1.0690    -1.4790     3.3380 H     1 <1>   0.1500 
 34 H       -1.7910     2.1330     1.1970 H     1 <1>   0.1500 
 35 H       -0.3770    -6.5070     1.5310 H     1 <1>   0.0800 
 36 H       -2.8040    -5.7390    -1.6720 H     1 <1>   0.0800 
 37 H       -1.1800     0.9830     3.2800 H     1 <1>   0.1500 
 38 H        1.1110    -7.0660    -0.6800 H     1 <1>   0.0800 
 39 H       -3.0360    -8.0990    -0.7130 H     1 <1>   0.1500 
 40 H       -0.2560    -5.1300    -1.9130 H     1 <1>   0.0800 
 41 H       -0.6090    -6.7120    -2.6000 H     1 <1>   0.0800 
 42 H        1.3860    -4.5800    -0.9700 H     1 <1>   0.3700 
 43 H       -0.4990    -8.9730    -0.1040 H     1 <1>   0.1500 
 44 H        2.1150    -2.5700     1.0800 H     1 <1>   0.0800 
 45 H        2.2770    -2.4270    -0.6490 H     1 <1>   0.0800 
 46 H        4.1330    -4.0860    -0.5960 H     1 <1>   0.0800 
 47 H        3.9560    -4.2100     1.1360 H     1 <1>   0.0800 
 48 H        4.4810    -2.2650     2.5970 H     1 <1>   0.1500 
 49 H        5.2190    -2.1460    -1.6050 H     1 <1>   0.1500 
 50 H        5.9220    -0.3040     2.9000 H     1 <1>   0.1500 
 51 H        6.6560    -0.1870    -1.2940 H     1 <1>   0.1500 
 52 H        7.0110     0.7400     0.9570 H     1 <1>   0.1500 
@<TRIPOS>BOND
  1   1   2  2   
  2   2   3  1   
  3   2   4  1   
  4   3   5  2   
  5   4   6  ar  
  6   4   7  ar  
  7   5   8  1   
  8   5   9  1   
  9   6   8  1   
 10   6  10  ar  
 11   7  11  ar  
 12   7  30  1   
 13   8  31  1   
 14   9  12  1   
 15   9  13  1   
 16   9  32  1   
 17  10  14  ar  
 18  10  33  1   
 19  11  14  ar  
 20  11  34  1   
 21  12  15  1   
 22  12  16  1   
 23  12  35  1   
 24  13  17  1   
 25  13  18  1   
 26  13  36  1   
 27  14  37  1   
 28  15  19  2   
 29  15  20  am  
 30  16  18  1   
 31  16  21  1   
 32  16  38  1   
 33  17  21  2   
 34  17  39  1   
 35  18  40  1   
 36  18  41  1   
 37  20  22  1   
 38  20  42  1   
 39  21  43  1   
 40  22  23  1   
 41  22  44  1   
 42  22  45  1   
 43  23  24  1   
 44  23  46  1   
 45  23  47  1   
 46  24  25  ar  
 47  24  26  ar  
 48  25  27  ar  
 49  25  48  1   
 50  26  28  ar  
 51  26  49  1   
 52  27  29  ar  
 53  27  50  1   
 54  28  29  ar  
 55  28  51  1   
 56  29  52  1   
@<TRIPOS>SUBSTRUCTURE
  1 ****  20 GROUP 4 **** **** 0

# MOE 2024.06 (io_trps.svl 2023.06)
