@<TRIPOS>MOLECULE
3-(2-Methyl-benzoylamino)-9-aza-bicyclo[3.3.1]nonane-9-carboxylic acid (2-fluoro-phenyl)-amide
55 58 1 0 0 
SMALL
USER_CHARGES


@<TRIPOS>ATOM
  1 F        2.1690    -0.0070    -0.7010 F     1 <1>  -0.1900 
  2 C        3.4670    -0.1280    -0.8310 C.ar  1 <1>   0.1900 
  3 C        4.1840     0.8650    -1.4990 C.ar  1 <1>   0.1170 
  4 C        4.0680    -1.2480    -0.2910 C.ar  1 <1>  -0.1500 
  5 N        3.5800     2.0080    -2.0380 N.am  1 <1>  -0.5470 
  6 C        5.5570     0.6830    -1.6260 C.ar  1 <1>  -0.1500 
  7 C        5.4390    -1.3990    -0.4230 C.ar  1 <1>  -0.1500 
  8 C        3.8900     3.2940    -1.7380 C.2   1 <1>   0.6900 
  9 C        6.1770    -0.4350    -1.0920 C.ar  1 <1>  -0.1500 
 10 O        4.1730     4.0220    -2.6680 O.2   1 <1>  -0.5700 
 11 N        3.9090     3.7600    -0.4490 N.am  1 <1>  -0.6600 
 12 C        3.2660     3.1710     0.7470 C.3   1 <1>   0.2200 
 13 C        4.1940     5.1330    -0.0900 C.3   1 <1>   0.2200 
 14 C        4.3960     2.5100     1.5210 C.3   1 <1>  -0.1600 
 15 C        1.7750     3.2890     0.4810 C.3   1 <1>  -0.1600 
 16 C        5.1880     5.0210     1.1280 C.3   1 <1>  -0.1600 
 17 C        2.7720     5.7640     0.1690 C.3   1 <1>  -0.1600 
 18 C        5.5780     3.5480     1.5560 C.3   1 <1>   0.2200 
 19 C        1.5330     4.7780     0.0180 C.3   1 <1>  -0.1600 
 20 N        6.5880     3.0770     0.5980 N.am  1 <1>  -0.7300 
 21 C        7.8550     2.6550     0.8720 C.2   1 <1>   0.5440 
 22 O        8.2710     2.7560     2.0100 O.2   1 <1>  -0.5700 
 23 C        8.6630     2.1000    -0.2010 C.ar  1 <1>   0.0860 
 24 C        9.3810     0.9000    -0.0850 C.ar  1 <1>  -0.1430 
 25 C        8.7180     2.7710    -1.4240 C.ar  1 <1>  -0.1500 
 26 C       10.1140     0.4150    -1.1560 C.ar  1 <1>  -0.1500 
 27 C        9.3680     0.0960     1.2100 C.3   1 <1>  -0.0970 
 28 C        9.4460     2.2810    -2.4910 C.ar  1 <1>  -0.1500 
 29 C       10.1470     1.0990    -2.3570 C.ar  1 <1>  -0.1500 
 30 H        3.4750    -1.9850     0.2200 H     1 <1>   0.1500 
 31 H        3.3350     1.9320    -3.0230 H     1 <1>   0.3700 
 32 H        6.1440     1.4180    -2.1480 H     1 <1>   0.1500 
 33 H        5.9300    -2.2630    -0.0090 H     1 <1>   0.1500 
 34 H        7.2420    -0.5560    -1.2020 H     1 <1>   0.1500 
 35 H        3.1670     3.8970     1.5340 H     1 <1>   0.0800 
 36 H        4.6790     5.6370    -0.9090 H     1 <1>   0.0800 
 37 H        4.6900     1.5720     1.0900 H     1 <1>   0.0800 
 38 H        4.0640     2.3170     2.5250 H     1 <1>   0.0800 
 39 H        1.2290     3.0850     1.3860 H     1 <1>   0.0800 
 40 H        1.4570     2.5850    -0.2680 H     1 <1>   0.0800 
 41 H        4.7480     5.5070     1.9790 H     1 <1>   0.0800 
 42 H        6.0830     5.5720     0.9060 H     1 <1>   0.0800 
 43 H        2.6400     6.5850    -0.5120 H     1 <1>   0.0800 
 44 H        2.7540     6.1910     1.1550 H     1 <1>   0.0800 
 45 H        6.0160     3.5630     2.5410 H     1 <1>   0.0800 
 46 H        0.6770     5.1860     0.5260 H     1 <1>   0.0800 
 47 H        1.2840     4.7440    -1.0300 H     1 <1>   0.0800 
 48 H        6.2050     2.9620    -0.3420 H     1 <1>   0.3700 
 49 H        8.1830     3.6980    -1.5380 H     1 <1>   0.1500 
 50 H       10.6690    -0.5020    -1.0640 H     1 <1>   0.1500 
 51 H        8.3570    -0.0480     1.5490 H     1 <1>   0.0800 
 52 H        9.9120     0.6260     1.9720 H     1 <1>   0.0800 
 53 H        9.8210    -0.8690     1.0770 H     1 <1>   0.0800 
 54 H        9.4690     2.8200    -3.4230 H     1 <1>   0.1500 
 55 H       10.7190     0.7130    -3.1840 H     1 <1>   0.1500 
@<TRIPOS>BOND
  1   1   2  1   
  2   2   3  ar  
  3   2   4  ar  
  4   3   5  1   
  5   3   6  ar  
  6   4   7  ar  
  7   4  30  1   
  8   5   8  am  
  9   5  31  1   
 10   6   9  ar  
 11   6  32  1   
 12   7   9  ar  
 13   7  33  1   
 14   8  10  2   
 15   8  11  am  
 16   9  34  1   
 17  11  12  1   
 18  11  13  1   
 19  12  14  1   
 20  12  15  1   
 21  12  35  1   
 22  13  16  1   
 23  13  17  1   
 24  13  36  1   
 25  14  18  1   
 26  14  37  1   
 27  14  38  1   
 28  15  19  1   
 29  15  39  1   
 30  15  40  1   
 31  16  18  1   
 32  16  41  1   
 33  16  42  1   
 34  17  19  1   
 35  17  43  1   
 36  17  44  1   
 37  18  20  1   
 38  18  45  1   
 39  19  46  1   
 40  19  47  1   
 41  20  21  am  
 42  20  48  1   
 43  21  22  2   
 44  21  23  1   
 45  23  24  ar  
 46  23  25  ar  
 47  24  26  ar  
 48  24  27  1   
 49  25  28  ar  
 50  25  49  1   
 51  26  29  ar  
 52  26  50  1   
 53  27  51  1   
 54  27  52  1   
 55  27  53  1   
 56  28  29  ar  
 57  28  54  1   
 58  29  55  1   
@<TRIPOS>SUBSTRUCTURE
  1 ****  20 GROUP 4 **** **** 0

# MOE 2024.06 (io_trps.svl 2023.06)
