@<TRIPOS>MOLECULE
NONAME
36 38 1 0 0 
SMALL
USER_CHARGES


@<TRIPOS>ATOM
  1 N        0.2290     0.2730    -0.3510 N.ar  1 <1>  -0.6200 
  2 C        0.9610     1.3710    -0.1630 C.ar  1 <1>   0.7200 
  3 C       -0.9020     0.1970     0.3020 C.ar  1 <1>   0.1660 
  4 N        0.6430     2.3910     0.6340 N.ar  1 <1>  -0.6200 
  5 N        2.1520     1.4560    -0.8540 N.pl3 1 <1>  -0.8380 
  6 C       -1.3150     1.2000     1.1470 C.ar  1 <1>  -0.1500 
  7 C       -1.7370    -1.0460     0.0870 C.3   1 <1>  -0.0970 
  8 C       -0.4920     2.2900     1.2790 C.ar  1 <1>   0.1600 
  9 C        3.0190     2.6790    -0.8410 C.3   1 <1>   0.2090 
 10 C        2.8890     0.2400    -1.3350 C.3   1 <1>   0.2090 
 11 C        4.3080     2.4420    -0.0320 C.3   1 <1>   0.2090 
 12 C        4.1940     0.0210    -0.5450 C.3   1 <1>   0.2090 
 13 N        5.0570     1.2480    -0.5340 N.pl3 1 <1>  -0.8380 
 14 C        6.3760     1.1210    -0.1430 C.ar  1 <1>   0.4100 
 15 N        6.6740     0.1430     0.7070 N.ar  1 <1>  -0.6200 
 16 C        7.3270     2.0100    -0.6400 C.ar  1 <1>  -0.1500 
 17 C        7.9420     0.0580     1.0710 C.ar  1 <1>   0.1600 
 18 C        8.6430     1.9100    -0.2530 C.ar  1 <1>  -0.1500 
 19 C        8.9500     0.8980     0.6320 C.ar  1 <1>  -0.1500 
 20 H       -2.2420     1.1390     1.6840 H     1 <1>   0.1500 
 21 H       -1.9880    -1.1330    -0.9540 H     1 <1>   0.0800 
 22 H       -2.6430    -1.0090     0.6630 H     1 <1>   0.0800 
 23 H       -1.1720    -1.9120     0.3800 H     1 <1>   0.0800 
 24 H       -0.7750     3.1000     1.9300 H     1 <1>   0.1500 
 25 H        2.4960     3.5270    -0.4360 H     1 <1>   0.0800 
 26 H        3.2860     2.9240    -1.8530 H     1 <1>   0.0800 
 27 H        3.1290     0.3690    -2.3750 H     1 <1>   0.0800 
 28 H        2.2840    -0.6440    -1.2510 H     1 <1>   0.0800 
 29 H        4.0480     2.2880     1.0010 H     1 <1>   0.0800 
 30 H        4.9310     3.3160    -0.0920 H     1 <1>   0.0800 
 31 H        4.7420    -0.7950    -0.9830 H     1 <1>   0.0800 
 32 H        3.9490    -0.2500     0.4670 H     1 <1>   0.0800 
 33 H        7.0120     2.7650    -1.3330 H     1 <1>   0.1500 
 34 H        8.1920    -0.7300     1.7600 H     1 <1>   0.1500 
 35 H        9.3960     2.5840    -0.6230 H     1 <1>   0.1500 
 36 H        9.9590     0.7610     0.9770 H     1 <1>   0.1500 
@<TRIPOS>BOND
  1   1   2  ar  
  2   1   3  ar  
  3   2   4  ar  
  4   2   5  1   
  5   3   6  ar  
  6   3   7  1   
  7   4   8  ar  
  8   5   9  1   
  9   5  10  1   
 10   6   8  ar  
 11   6  20  1   
 12   7  21  1   
 13   7  22  1   
 14   7  23  1   
 15   8  24  1   
 16   9  11  1   
 17   9  25  1   
 18   9  26  1   
 19  10  12  1   
 20  10  27  1   
 21  10  28  1   
 22  11  13  1   
 23  11  29  1   
 24  11  30  1   
 25  12  13  1   
 26  12  31  1   
 27  12  32  1   
 28  13  14  1   
 29  14  15  ar  
 30  14  16  ar  
 31  15  17  ar  
 32  16  18  ar  
 33  16  33  1   
 34  17  19  ar  
 35  17  34  1   
 36  18  19  ar  
 37  18  35  1   
 38  19  36  1   
@<TRIPOS>SUBSTRUCTURE
  1 ****  12 GROUP 4 **** **** 0

# MOE 2024.06 (io_trps.svl 2023.06)
