@<TRIPOS>MOLECULE
N-(3-Ethyl-phenyl)-2-[3-(3-methoxy-propyl)-2,4-dioxo-3,4-dihydro-2H-thieno[3,2-d
51 53 1 0 0 
SMALL
USER_CHARGES


@<TRIPOS>ATOM
  1 S        0.4830    -1.1010     2.5180 S.3   1 <1>  -0.0800 
  2 C        1.9610    -1.2860     1.5640 C.2   1 <1>  -0.0450 
  3 C       -0.2390    -2.5040     1.7480 C.2   1 <1>  -0.1100 
  4 C        3.1210    -0.4730     1.6530 C.2   1 <1>   0.7150 
  5 C        1.8440    -2.3410     0.7230 C.2   1 <1>   0.0630 
  6 C        0.5990    -3.0390     0.8390 C.2   1 <1>  -0.1500 
  7 O        3.1950     0.4920     2.3950 O.2   1 <1>  -0.5700 
  8 N        4.1950    -0.8280     0.8510 N.am  1 <1>  -0.4200 
  9 N        2.9160    -2.6260    -0.1230 N.am  1 <1>  -0.4230 
 10 C        4.1080    -1.9240     0.0050 C.2   1 <1>   0.6900 
 11 C        5.4440    -0.0180     0.8860 C.3   1 <1>   0.1400 
 12 C        2.8090    -3.7080    -1.1530 C.3   1 <1>   0.2010 
 13 O        5.0880    -2.2960    -0.6210 O.2   1 <1>  -0.5700 
 14 C        5.4120     1.0350    -0.2250 C.3   1 <1>  -0.1600 
 15 C        3.3400    -5.0400    -0.6420 C.2   1 <1>   0.5690 
 16 C        6.6810     1.8820    -0.2090 C.3   1 <1>   0.1200 
 17 O        2.5630    -5.9580    -0.5420 O.2   1 <1>  -0.5700 
 18 N        4.6720    -5.1150    -0.3340 N.am  1 <1>  -0.5470 
 19 O        6.6040     2.7670    -1.2730 O.3   1 <1>  -0.5600 
 20 C        5.4780    -6.1440     0.1750 C.ar  1 <1>   0.1170 
 21 C        7.6930     3.6260    -1.3780 C.3   1 <1>   0.0400 
 22 C        6.8500    -5.9270     0.2380 C.ar  1 <1>  -0.1500 
 23 C        4.9810    -7.3610     0.6290 C.ar  1 <1>  -0.1500 
 24 C        7.7110    -6.8900     0.7380 C.ar  1 <1>  -0.1430 
 25 C        5.8320    -8.3300     1.1280 C.ar  1 <1>  -0.1500 
 26 C        7.1940    -8.0960     1.1830 C.ar  1 <1>  -0.1500 
 27 C        9.2080    -6.6320     0.7960 C.3   1 <1>  -0.0170 
 28 C        9.8900    -7.1330    -0.4790 C.3   1 <1>  -0.2400 
 29 H       -1.2270    -2.7880     2.0660 H     1 <1>   0.1500 
 30 H        0.3800    -3.9140     0.2530 H     1 <1>   0.1500 
 31 H        6.2970    -0.6620     0.7560 H     1 <1>   0.0800 
 32 H        5.5460     0.4640     1.8440 H     1 <1>   0.0800 
 33 H        3.3650    -3.4290    -2.0290 H     1 <1>   0.0800 
 34 H        1.7850    -3.8270    -1.4540 H     1 <1>   0.0800 
 35 H        4.5640     1.6810    -0.0840 H     1 <1>   0.0800 
 36 H        5.3370     0.5470    -1.1810 H     1 <1>   0.0800 
 37 H        7.5560     1.2660    -0.3370 H     1 <1>   0.0800 
 38 H        6.7540     2.4450     0.7070 H     1 <1>   0.0800 
 39 H        5.1740    -4.2290    -0.4800 H     1 <1>   0.3700 
 40 H        7.5340     4.2630    -2.2300 H     1 <1>   0.0800 
 41 H        8.5890     3.0480    -1.5200 H     1 <1>   0.0800 
 42 H        7.7620     4.2240    -0.4860 H     1 <1>   0.0800 
 43 H        7.2490    -4.9930    -0.1110 H     1 <1>   0.1500 
 44 H        3.9270    -7.5630     0.5990 H     1 <1>   0.1500 
 45 H        5.4320    -9.2660     1.4740 H     1 <1>   0.1500 
 46 H        7.8490    -8.8560     1.5710 H     1 <1>   0.1500 
 47 H        9.6290    -7.1330     1.6510 H     1 <1>   0.0800 
 48 H        9.3920    -5.5790     0.9130 H     1 <1>   0.0800 
 49 H        9.7270    -8.1900    -0.5960 H     1 <1>   0.0800 
 50 H       10.9480    -6.9480    -0.4330 H     1 <1>   0.0800 
 51 H        9.4860    -6.6270    -1.3380 H     1 <1>   0.0800 
@<TRIPOS>BOND
  1   1   2  1   
  2   1   3  1   
  3   2   4  1   
  4   2   5  2   
  5   3   6  2   
  6   3  29  1   
  7   4   7  2   
  8   4   8  am  
  9   5   6  1   
 10   5   9  1   
 11   6  30  1   
 12   8  10  am  
 13   8  11  1   
 14   9  10  am  
 15   9  12  1   
 16  10  13  2   
 17  11  14  1   
 18  11  31  1   
 19  11  32  1   
 20  12  15  1   
 21  12  33  1   
 22  12  34  1   
 23  14  16  1   
 24  14  35  1   
 25  14  36  1   
 26  15  17  2   
 27  15  18  am  
 28  16  19  1   
 29  16  37  1   
 30  16  38  1   
 31  18  20  1   
 32  18  39  1   
 33  19  21  1   
 34  20  22  ar  
 35  20  23  ar  
 36  21  40  1   
 37  21  41  1   
 38  21  42  1   
 39  22  24  ar  
 40  22  43  1   
 41  23  25  ar  
 42  23  44  1   
 43  24  26  ar  
 44  24  27  1   
 45  25  26  ar  
 46  25  45  1   
 47  26  46  1   
 48  27  28  1   
 49  27  47  1   
 50  27  48  1   
 51  28  49  1   
 52  28  50  1   
 53  28  51  1   
@<TRIPOS>SUBSTRUCTURE
  1 ****  10 GROUP 4 **** **** 0

# MOE 2024.06 (io_trps.svl 2023.06)
