@<TRIPOS>MOLECULE
NONAME
56 59 1 0 0 
SMALL
USER_CHARGES


@<TRIPOS>ATOM
  1 O       -0.4940     0.3520     0.8980 O.2   1 <1>  -0.5700 
  2 C       -0.3630     1.4930     0.4970 C.2   1 <1>   0.6900 
  3 N       -1.4470     2.2710     0.2060 N.am  1 <1>  -0.6600 
  4 N        0.8820     2.0130     0.3610 N.am  1 <1>  -0.7300 
  5 C       -1.4400     3.3820    -0.7910 C.3   1 <1>   0.1400 
  6 C       -2.8260     1.8590     0.6110 C.3   1 <1>   0.1400 
  7 C        2.0840     1.3150     0.8340 C.3   1 <1>   0.2200 
  8 C       -2.4140     3.0810    -1.9450 C.3   1 <1>   0.1200 
  9 C       -3.7120     1.6420    -0.6250 C.3   1 <1>   0.1200 
 10 C        3.2160     2.3250     1.0740 C.3   1 <1>  -0.1600 
 11 C        2.4760     0.2290    -0.1840 C.3   1 <1>  -0.1600 
 12 O       -3.6860     2.7720    -1.4520 O.3   1 <1>  -0.5600 
 13 C        4.5810     1.6290     1.1880 C.3   1 <1>   0.4230 
 14 C        3.9040    -0.2800     0.0430 C.3   1 <1>   0.4230 
 15 N        4.7810     0.8970    -0.0790 N.4   1 <1>  -0.9590 
 16 C        4.5780     0.5170     2.2430 C.3   1 <1>  -0.1600 
 17 C        4.1280    -0.7440     1.4870 C.3   1 <1>  -0.1600 
 18 C        6.2050     0.5500    -0.3390 C.3   1 <1>   0.4860 
 19 C        6.9820     1.8390    -0.5140 C.ar  1 <1>  -0.1440 
 20 C        7.8330     2.2850     0.4880 C.ar  1 <1>  -0.1500 
 21 C        6.8410     2.5890    -1.6730 C.ar  1 <1>  -0.1500 
 22 C        8.5240     3.4760     0.3420 C.ar  1 <1>  -0.1500 
 23 C        7.5310     3.7790    -1.8180 C.ar  1 <1>  -0.1500 
 24 C        8.3710     4.2320    -0.8150 C.ar  1 <1>   0.0820 
 25 O        9.0040     5.4090    -1.0380 O.3   1 <1>  -0.3630 
 26 C        9.9430     5.9290    -0.1230 C.3   1 <1>   0.0400 
 27 H        0.9180     3.0300     0.3470 H     1 <1>   0.3700 
 28 H       -0.4560     3.5260    -1.1980 H     1 <1>   0.0800 
 29 H       -1.7420     4.2950    -0.3060 H     1 <1>   0.0800 
 30 H       -3.2580     2.6310     1.2230 H     1 <1>   0.0800 
 31 H       -2.8000     0.9550     1.1940 H     1 <1>   0.0800 
 32 H        1.8460     0.8360     1.7720 H     1 <1>   0.0800 
 33 H       -2.0610     2.2510    -2.5320 H     1 <1>   0.0800 
 34 H       -2.5110     3.9400    -2.5840 H     1 <1>   0.0800 
 35 H       -4.7310     1.4750    -0.3270 H     1 <1>   0.0800 
 36 H       -3.3710     0.7900    -1.1880 H     1 <1>   0.0800 
 37 H        3.0190     2.8650     1.9840 H     1 <1>   0.0800 
 38 H        3.2610     3.0390     0.2700 H     1 <1>   0.0800 
 39 H        2.3920     0.6110    -1.1860 H     1 <1>   0.0800 
 40 H        1.7920    -0.5960    -0.0940 H     1 <1>   0.0800 
 41 H        5.3590     2.3560     1.3660 H     1 <1>   0.0800 
 42 H        4.1500    -1.0490    -0.6740 H     1 <1>   0.0800 
 43 H        4.4630     1.4940    -0.8480 H     1 <1>   0.4500 
 44 H        3.9260     0.7510     3.0680 H     1 <1>   0.0800 
 45 H        5.5710     0.3850     2.6340 H     1 <1>   0.0800 
 46 H        4.9000    -1.4930     1.5130 H     1 <1>   0.0800 
 47 H        3.2340    -1.1750     1.9080 H     1 <1>   0.0800 
 48 H        6.2860    -0.0400    -1.2370 H     1 <1>   0.0800 
 49 H        6.6110    -0.0170     0.4820 H     1 <1>   0.0800 
 50 H        7.9720     1.7150     1.3910 H     1 <1>   0.1500 
 51 H        6.2030     2.2630    -2.4760 H     1 <1>   0.1500 
 52 H        9.1750     3.8000     1.1320 H     1 <1>   0.1500 
 53 H        7.4290     4.3690    -2.7120 H     1 <1>   0.1500 
 54 H       10.3290     6.8480    -0.5270 H     1 <1>   0.0800 
 55 H       10.7430     5.2200    -0.0010 H     1 <1>   0.0800 
 56 H        9.4510     6.1220     0.8140 H     1 <1>   0.0800 
@<TRIPOS>BOND
  1   1   2  2   
  2   2   3  am  
  3   2   4  am  
  4   3   5  1   
  5   3   6  1   
  6   4   7  1   
  7   4  27  1   
  8   5   8  1   
  9   5  28  1   
 10   5  29  1   
 11   6   9  1   
 12   6  30  1   
 13   6  31  1   
 14   7  10  1   
 15   7  11  1   
 16   7  32  1   
 17   8  12  1   
 18   8  33  1   
 19   8  34  1   
 20   9  12  1   
 21   9  35  1   
 22   9  36  1   
 23  10  13  1   
 24  10  37  1   
 25  10  38  1   
 26  11  14  1   
 27  11  39  1   
 28  11  40  1   
 29  13  15  1   
 30  13  16  1   
 31  13  41  1   
 32  14  15  1   
 33  14  17  1   
 34  14  42  1   
 35  15  18  1   
 36  15  43  1   
 37  16  17  1   
 38  16  44  1   
 39  16  45  1   
 40  17  46  1   
 41  17  47  1   
 42  18  19  1   
 43  18  48  1   
 44  18  49  1   
 45  19  20  ar  
 46  19  21  ar  
 47  20  22  ar  
 48  20  50  1   
 49  21  23  ar  
 50  21  51  1   
 51  22  24  ar  
 52  22  52  1   
 53  23  24  ar  
 54  23  53  1   
 55  24  25  1   
 56  25  26  1   
 57  26  54  1   
 58  26  55  1   
 59  26  56  1   
@<TRIPOS>SUBSTRUCTURE
  1 ****  10 GROUP 4 **** **** 0

# MOE 2024.06 (io_trps.svl 2023.06)
