@<TRIPOS>MOLECULE
(3-Oxo-2,3-dihydro-benzo[1,4]oxazin-4-yl)-acetic acid cyclopentylcarbamoylmethyl ester
44 46 1 0 0 
SMALL
USER_CHARGES


@<TRIPOS>ATOM
  1 O        2.2580    -0.6060     0.6720 O.2   1 <1>  -0.5700 
  2 C        1.6310    -1.6090     0.4210 C.2   1 <1>   0.5690 
  3 N        2.0990    -2.8710     0.7000 N.am  1 <1>  -0.4770 
  4 C        0.2480    -1.4650    -0.2020 C.3   1 <1>   0.1810 
  5 C        1.3180    -4.0000     0.3490 C.ar  1 <1>   0.1170 
  6 C        3.5100    -3.0220     1.1980 C.3   1 <1>   0.2010 
  7 O       -0.1330    -2.6020    -0.9680 O.3   1 <1>  -0.3630 
  8 C        0.2180    -3.8290    -0.5030 C.ar  1 <1>   0.0830 
  9 C        1.5920    -5.2880     0.8060 C.ar  1 <1>  -0.1500 
 10 C        4.4740    -3.5030     0.1190 C.2   1 <1>   0.6590 
 11 C       -0.5510    -4.9080    -0.9020 C.ar  1 <1>  -0.1500 
 12 C        0.8170    -6.3650     0.4110 C.ar  1 <1>  -0.1500 
 13 O        5.1250    -2.7380    -0.5480 O.2   1 <1>  -0.5700 
 14 O        4.5810    -4.8190    -0.0240 O.3   1 <1>  -0.4300 
 15 C       -0.2530    -6.1790    -0.4460 C.ar  1 <1>  -0.1500 
 16 C        5.4530    -5.4210    -0.9770 C.3   1 <1>   0.1810 
 17 C        6.9090    -5.3980    -0.5180 C.2   1 <1>   0.5690 
 18 O        7.4630    -6.4420    -0.2660 O.2   1 <1>  -0.5700 
 19 N        7.5410    -4.2040    -0.4100 N.am  1 <1>  -0.7300 
 20 C        8.9130    -3.9760     0.0640 C.3   1 <1>   0.2200 
 21 C        8.8480    -3.1920     1.3680 C.3   1 <1>  -0.1600 
 22 C        9.5990    -3.0070    -0.8900 C.3   1 <1>  -0.1600 
 23 C        8.6150    -1.7320     0.9610 C.3   1 <1>  -0.1600 
 24 C        9.1090    -1.6100    -0.4860 C.3   1 <1>  -0.1600 
 25 H        0.2290    -0.6100    -0.8520 H     1 <1>   0.0800 
 26 H       -0.4810    -1.3340     0.5750 H     1 <1>   0.0800 
 27 H        3.5310    -3.7070     2.0230 H     1 <1>   0.0800 
 28 H        3.8760    -2.0820     1.5670 H     1 <1>   0.0800 
 29 H        2.4100    -5.4750     1.4740 H     1 <1>   0.1500 
 30 H       -1.3820    -4.7480    -1.5660 H     1 <1>   0.1500 
 31 H        1.0460    -7.3540     0.7720 H     1 <1>   0.1500 
 32 H       -0.8520    -7.0180    -0.7560 H     1 <1>   0.1500 
 33 H        5.3520    -4.9050    -1.9150 H     1 <1>   0.0800 
 34 H        5.1390    -6.4400    -1.1050 H     1 <1>   0.0800 
 35 H        7.0030    -3.3440    -0.5830 H     1 <1>   0.3700 
 36 H        9.4440    -4.9090     0.1650 H     1 <1>   0.0800 
 37 H        9.8020    -3.2710     1.8600 H     1 <1>   0.0800 
 38 H        8.0880    -3.5670     2.0310 H     1 <1>   0.0800 
 39 H        9.3960    -3.2380    -1.9210 H     1 <1>   0.0800 
 40 H       10.6610    -3.0650    -0.7280 H     1 <1>   0.0800 
 41 H        9.1410    -1.0600     1.6170 H     1 <1>   0.0800 
 42 H        7.5630    -1.5050     1.0010 H     1 <1>   0.0800 
 43 H        8.2930    -1.3100    -1.1210 H     1 <1>   0.0800 
 44 H        9.9010    -0.8860    -0.5730 H     1 <1>   0.0800 
@<TRIPOS>BOND
  1   1   2  2   
  2   2   3  am  
  3   2   4  1   
  4   3   5  1   
  5   3   6  1   
  6   4   7  1   
  7   4  25  1   
  8   4  26  1   
  9   5   8  ar  
 10   5   9  ar  
 11   6  10  1   
 12   6  27  1   
 13   6  28  1   
 14   7   8  1   
 15   8  11  ar  
 16   9  12  ar  
 17   9  29  1   
 18  10  13  2   
 19  10  14  1   
 20  11  15  ar  
 21  11  30  1   
 22  12  15  ar  
 23  12  31  1   
 24  14  16  1   
 25  15  32  1   
 26  16  17  1   
 27  16  33  1   
 28  16  34  1   
 29  17  18  2   
 30  17  19  am  
 31  19  20  1   
 32  19  35  1   
 33  20  21  1   
 34  20  22  1   
 35  20  36  1   
 36  21  23  1   
 37  21  37  1   
 38  21  38  1   
 39  22  24  1   
 40  22  39  1   
 41  22  40  1   
 42  23  24  1   
 43  23  41  1   
 44  23  42  1   
 45  24  43  1   
 46  24  44  1   
@<TRIPOS>SUBSTRUCTURE
  1 ****  10 GROUP 4 **** **** 0

# MOE 2024.06 (io_trps.svl 2023.06)
