@<TRIPOS>MOLECULE
ka-04356
16 15 1 0 0 
SMALL
USER_CHARGES


@<TRIPOS>ATOM
  1 O        1.5030    -0.8080    -1.7010 O.co2 1 <1>  -0.9000 
  2 C        1.4050    -0.8310    -0.4650 C.2   1 <1>   0.9060 
  3 O        1.2790     0.2310     0.1670 O.co2 1 <1>  -0.9000 
  4 C        1.2380    -2.1270     0.2720 C.3   1 <1>  -0.2920 
  5 C        2.5420    -2.8720     0.2120 C.2   1 <1>   0.9060 
  6 C        0.0500    -2.9570    -0.2530 C.3   1 <1>  -0.0220 
  7 O        2.6440    -3.8960    -0.4840 O.co2 1 <1>  -0.9000 
  8 O        3.4480    -2.5690     1.0010 O.co2 1 <1>  -0.9000 
  9 C       -1.2850    -2.2840     0.0340 C.2   1 <1>  -0.2880 
 10 C       -2.2900    -2.8300     0.7260 C.2   1 <1>  -0.3000 
 11 H        1.0660    -1.8950     1.3020 H     1 <1>   0.0800 
 12 H        0.0730    -3.9290     0.2050 H     1 <1>   0.0800 
 13 H        0.1650    -3.0950    -1.3150 H     1 <1>   0.0800 
 14 H       -1.3280    -1.2910    -0.3880 H     1 <1>   0.1500 
 15 H       -3.2210    -2.3300     0.9190 H     1 <1>   0.1500 
 16 H       -2.2530    -3.8150     1.1530 H     1 <1>   0.1500 
@<TRIPOS>BOND
  1   1   2  ar  
  2   2   3  ar  
  3   2   4  1   
  4   4   5  1   
  5   4   6  1   
  6   4  11  1   
  7   5   7  ar  
  8   5   8  ar  
  9   6   9  1   
 10   6  12  1   
 11   6  13  1   
 12   9  10  2   
 13   9  14  1   
 14  10  15  1   
 15  10  16  1   
@<TRIPOS>SUBSTRUCTURE
  1 ****   4 GROUP 4 **** **** 0

# MOE 2024.06 (io_trps.svl 2023.06)
