@<TRIPOS>MOLECULE
NONAME
57 59 1 0 0 
SMALL
USER_CHARGES


@<TRIPOS>ATOM
  1 S       -1.4240     4.6030     2.2500 S.3   1 <1>  -0.3710 
  2 C       -1.1880     4.1600     0.5630 C.2   1 <1>   0.6500 
  3 C       -2.9290     3.5860     2.5020 C.3   1 <1>   0.0700 
  4 O       -0.2750     4.5610    -0.0950 O.2   1 <1>  -0.5700 
  5 C       -2.2700     3.2020     0.1280 C.3   1 <1>  -0.0990 
  6 C       -2.8450     2.5210     1.3920 C.3   1 <1>  -0.0190 
  7 C       -4.1860     1.8380     1.1230 C.2   1 <1>   0.5690 
  8 O       -5.1320     2.1650     1.8000 O.2   1 <1>  -0.5700 
  9 N       -4.3110     0.8950     0.1360 N.am  1 <1>  -0.6600 
 10 C       -3.2610    -0.1540    -0.0840 C.3   1 <1>   0.2200 
 11 C       -5.5820     0.8290    -0.6930 C.3   1 <1>   0.4250 
 12 C       -2.7140    -0.1560    -1.5130 C.3   1 <1>  -0.1600 
 13 C       -3.7930    -1.5680     0.1440 C.3   1 <1>  -0.1600 
 14 C       -5.9550     2.2370    -1.1630 C.ar  1 <1>  -0.1440 
 15 C       -6.7520     0.0470    -0.0490 C.2   1 <1>   0.5690 
 16 C       -3.3630    -1.3290    -2.2600 C.3   1 <1>  -0.1600 
 17 C       -4.1530    -2.1400    -1.2290 C.3   1 <1>  -0.1600 
 18 C       -5.2890     2.7710    -2.2570 C.ar  1 <1>   0.1600 
 19 C       -6.9170     3.0140    -0.5410 C.ar  1 <1>  -0.1500 
 20 O       -7.4120    -0.6750    -0.7620 O.2   1 <1>  -0.5700 
 21 N       -7.0010     0.1700     1.2860 N.am  1 <1>  -0.7300 
 22 N       -5.4820     3.9790    -2.7580 N.ar  1 <1>  -0.6200 
 23 C       -7.1400     4.2730    -1.0540 C.ar  1 <1>  -0.1500 
 24 C       -8.0210    -0.4610     2.1210 C.3   1 <1>   0.3000 
 25 C       -6.4070     4.7010    -2.1460 C.ar  1 <1>   0.1600 
 26 C       -7.8390    -1.9780     2.0950 C.3   1 <1>  -0.2400 
 27 C       -7.7990     0.0630     3.5370 C.3   1 <1>  -0.2400 
 28 C       -9.4090    -0.0540     1.6290 C.3   1 <1>  -0.2400 
 29 H       -3.7750     4.2400     2.3780 H     1 <1>   0.0800 
 30 H       -2.9090     3.1680     3.4930 H     1 <1>   0.0800 
 31 H       -1.8600     2.4840    -0.5560 H     1 <1>   0.0800 
 32 H       -3.0350     3.7660    -0.3750 H     1 <1>   0.0800 
 33 H       -2.1430     1.7840     1.7350 H     1 <1>   0.0800 
 34 H       -2.4480     0.0060     0.6010 H     1 <1>   0.0800 
 35 H       -5.3600     0.2870    -1.5900 H     1 <1>   0.0800 
 36 H       -1.6540    -0.3350    -1.4680 H     1 <1>   0.0800 
 37 H       -2.8710     0.7800    -2.0160 H     1 <1>   0.0800 
 38 H       -4.6180    -1.5990     0.8350 H     1 <1>   0.0800 
 39 H       -2.9950    -2.1630     0.5510 H     1 <1>   0.0800 
 40 H       -2.6030    -1.9430    -2.7130 H     1 <1>   0.0800 
 41 H       -4.0190    -0.9760    -3.0370 H     1 <1>   0.0800 
 42 H       -5.2090    -2.0350    -1.4100 H     1 <1>   0.0800 
 43 H       -3.9100    -3.1880    -1.2860 H     1 <1>   0.0800 
 44 H       -4.5460     2.1720    -2.7540 H     1 <1>   0.1500 
 45 H       -7.4720     2.6680     0.3140 H     1 <1>   0.1500 
 46 H       -6.4110     0.8440     1.7940 H     1 <1>   0.3700 
 47 H       -7.8760     4.9190    -0.6110 H     1 <1>   0.1500 
 48 H       -6.5890     5.6880    -2.5370 H     1 <1>   0.1500 
 49 H       -8.0150    -2.3640     1.1080 H     1 <1>   0.0800 
 50 H       -8.5390    -2.4450     2.7630 H     1 <1>   0.0800 
 51 H       -6.8440    -2.2430     2.4020 H     1 <1>   0.0800 
 52 H       -6.8180    -0.2020     3.8890 H     1 <1>   0.0800 
 53 H       -8.5230    -0.3630     4.2070 H     1 <1>   0.0800 
 54 H       -7.9050     1.1330     3.5650 H     1 <1>   0.0800 
 55 H       -9.5060     1.0160     1.6160 H     1 <1>   0.0800 
 56 H      -10.1640    -0.4570     2.2790 H     1 <1>   0.0800 
 57 H       -9.5870    -0.4340     0.6390 H     1 <1>   0.0800 
@<TRIPOS>BOND
  1   1   2  1   
  2   1   3  1   
  3   2   4  2   
  4   2   5  1   
  5   3   6  1   
  6   3  29  1   
  7   3  30  1   
  8   5   6  1   
  9   5  31  1   
 10   5  32  1   
 11   6   7  1   
 12   6  33  1   
 13   7   8  2   
 14   7   9  am  
 15   9  10  1   
 16   9  11  1   
 17  10  12  1   
 18  10  13  1   
 19  10  34  1   
 20  11  14  1   
 21  11  15  1   
 22  11  35  1   
 23  12  16  1   
 24  12  36  1   
 25  12  37  1   
 26  13  17  1   
 27  13  38  1   
 28  13  39  1   
 29  14  18  ar  
 30  14  19  ar  
 31  15  20  2   
 32  15  21  am  
 33  16  17  1   
 34  16  40  1   
 35  16  41  1   
 36  17  42  1   
 37  17  43  1   
 38  18  22  ar  
 39  18  44  1   
 40  19  23  ar  
 41  19  45  1   
 42  21  24  1   
 43  21  46  1   
 44  22  25  ar  
 45  23  25  ar  
 46  23  47  1   
 47  24  26  1   
 48  24  27  1   
 49  24  28  1   
 50  25  48  1   
 51  26  49  1   
 52  26  50  1   
 53  26  51  1   
 54  27  52  1   
 55  27  53  1   
 56  27  54  1   
 57  28  55  1   
 58  28  56  1   
 59  28  57  1   
@<TRIPOS>SUBSTRUCTURE
  1 ****   9 GROUP 4 **** **** 0

# MOE 2024.06 (io_trps.svl 2023.06)
