@<TRIPOS>MOLECULE
3-Methyl-1-(2-oxo-2-piperidin-1-yl-ethyl)-1H-thieno[3,2-d]pyrimidine-2,4-dione
38 40 1 0 0 
SMALL
USER_CHARGES


@<TRIPOS>ATOM
  1 S        2.2460    -0.4140    -2.9160 S.3   1 <1>  -0.0800 
  2 C        2.7130    -1.1030    -1.3550 C.2   1 <1>  -0.0450 
  3 C        0.9540    -1.5880    -3.0920 C.2   1 <1>  -0.1100 
  4 C        3.7670    -0.6420    -0.5270 C.2   1 <1>   0.7150 
  5 C        1.9110    -2.1490    -1.0430 C.2   1 <1>   0.0630 
  6 C        0.9110    -2.4190    -2.0330 C.2   1 <1>  -0.1500 
  7 O        4.4750     0.3070    -0.8230 O.2   1 <1>  -0.5700 
  8 N        3.9670    -1.3200     0.6640 N.am  1 <1>  -0.4200 
  9 N        2.1380    -2.8180     0.1630 N.am  1 <1>  -0.4230 
 10 C        3.1430    -2.3810     1.0210 C.2   1 <1>   0.6900 
 11 C        5.0480    -0.8720     1.5940 C.3   1 <1>   0.0600 
 12 C        1.2980    -4.0100     0.5310 C.3   1 <1>   0.2010 
 13 O        3.3090    -2.9340     2.0940 O.2   1 <1>  -0.5700 
 14 C        1.5480    -5.2320    -0.3560 C.2   1 <1>   0.5690 
 15 O        0.6450    -5.5630    -1.0910 O.2   1 <1>  -0.5700 
 16 N        2.7320    -5.9310    -0.3230 N.am  1 <1>  -0.6600 
 17 C        3.8090    -5.6840     0.6860 C.3   1 <1>   0.1400 
 18 C        2.9910    -7.0020    -1.3350 C.3   1 <1>   0.1400 
 19 C        4.7000    -6.9170     0.8590 C.3   1 <1>  -0.1600 
 20 C        4.4810    -7.0530    -1.6870 C.3   1 <1>  -0.1600 
 21 C        5.3630    -7.3480    -0.4610 C.3   1 <1>  -0.1600 
 22 H        0.3530    -1.5340    -3.9830 H     1 <1>   0.1500 
 23 H        0.2000    -3.2180    -1.9220 H     1 <1>   0.1500 
 24 H        4.6550    -0.1320     2.2680 H     1 <1>   0.0800 
 25 H        5.8680    -0.4460     1.0430 H     1 <1>   0.0800 
 26 H        5.4230    -1.7040     2.1650 H     1 <1>   0.0800 
 27 H        0.2640    -3.7340     0.4400 H     1 <1>   0.0800 
 28 H        1.4530    -4.2910     1.5550 H     1 <1>   0.0800 
 29 H        3.3710    -5.4390     1.6380 H     1 <1>   0.0800 
 30 H        4.4100    -4.8530     0.3600 H     1 <1>   0.0800 
 31 H        2.4210    -6.8090    -2.2280 H     1 <1>   0.0800 
 32 H        2.6740    -7.9490    -0.9330 H     1 <1>   0.0800 
 33 H        4.0930    -7.7210     1.2370 H     1 <1>   0.0800 
 34 H        5.4590    -6.7140     1.5940 H     1 <1>   0.0800 
 35 H        4.7550    -6.1030    -2.1100 H     1 <1>   0.0800 
 36 H        4.6480    -7.8020    -2.4410 H     1 <1>   0.0800 
 37 H        5.5750    -8.4020    -0.4110 H     1 <1>   0.0800 
 38 H        6.3010    -6.8330    -0.5810 H     1 <1>   0.0800 
@<TRIPOS>BOND
  1   1   2  1   
  2   1   3  1   
  3   2   4  1   
  4   2   5  2   
  5   3   6  2   
  6   3  22  1   
  7   4   7  2   
  8   4   8  am  
  9   5   6  1   
 10   5   9  1   
 11   6  23  1   
 12   8  10  am  
 13   8  11  1   
 14   9  10  am  
 15   9  12  1   
 16  10  13  2   
 17  11  24  1   
 18  11  25  1   
 19  11  26  1   
 20  12  14  1   
 21  12  27  1   
 22  12  28  1   
 23  14  15  2   
 24  14  16  am  
 25  16  17  1   
 26  16  18  1   
 27  17  19  1   
 28  17  29  1   
 29  17  30  1   
 30  18  20  1   
 31  18  31  1   
 32  18  32  1   
 33  19  21  1   
 34  19  33  1   
 35  19  34  1   
 36  20  21  1   
 37  20  35  1   
 38  20  36  1   
 39  21  37  1   
 40  21  38  1   
@<TRIPOS>SUBSTRUCTURE
  1 ****   9 GROUP 4 **** **** 0

# MOE 2024.06 (io_trps.svl 2023.06)
