@<TRIPOS>MOLECULE
NONAME
62 64 1 0 0 
SMALL
USER_CHARGES


@<TRIPOS>ATOM
  1 N        0.6640    -1.1160     1.6790 N.2   1 <1>   0.0000 
  2 N        1.4400    -1.6030     0.7880 N.2   1 <1>  -0.4180 
  3 N       -0.4080    -1.8690     1.8150 N.2   1 <1>  -0.3380 
  4 N        0.8790    -2.7040     0.3170 N.pl3 1 <1>   0.3140 
  5 C       -0.2750    -2.8350     0.9820 C.2   1 <1>   0.0060 
  6 C        1.6060    -3.4950    -0.7610 C.3   1 <1>   0.2560 
  7 C       -1.3330    -3.9300     0.8380 C.3   1 <1>   0.6030 
  8 C        0.7380    -4.5610    -1.4530 C.3   1 <1>  -0.2400 
  9 C        2.1040    -2.5360    -1.8620 C.3   1 <1>  -0.2400 
 10 C        2.8230    -4.1960    -0.1330 C.3   1 <1>  -0.2400 
 11 N       -2.6890    -3.3390     0.5830 N.4   1 <1>  -0.9590 
 12 C       -1.3530    -4.8930     2.0570 C.3   1 <1>  -0.0800 
 13 C       -2.7380    -2.4690    -0.6500 C.3   1 <1>   0.3430 
 14 C       -3.3110    -2.5920     1.7430 C.3   1 <1>   0.3430 
 15 C        0.0000    -5.5970     2.2620 C.3   1 <1>  -0.2400 
 16 C       -2.4490    -5.9740     1.9430 C.3   1 <1>  -0.2400 
 17 C       -4.1590    -1.9150    -0.9250 C.3   1 <1>   0.2090 
 18 C       -4.8110    -2.3120     1.4870 C.3   1 <1>   0.2090 
 19 N       -5.1480    -2.4840     0.0400 N.pl3 1 <1>  -0.8380 
 20 C       -6.4850    -2.6180    -0.3280 C.ar  1 <1>   0.1000 
 21 C       -7.3210    -1.5320    -0.6100 C.ar  1 <1>  -0.1430 
 22 C       -7.0040    -3.9050    -0.4120 C.ar  1 <1>  -0.1500 
 23 C       -8.6370    -1.7650    -0.9750 C.ar  1 <1>  -0.1500 
 24 C       -6.8460    -0.0870    -0.5320 C.3   1 <1>  -0.0970 
 25 C       -8.3180    -4.1330    -0.7740 C.ar  1 <1>  -0.1430 
 26 C       -9.1350    -3.0530    -1.0570 C.ar  1 <1>  -0.1500 
 27 C       -8.8760    -5.5420    -0.8650 C.3   1 <1>  -0.0970 
 28 H       -1.0940    -4.5290    -0.0170 H     1 <1>   0.0800 
 29 H       -0.1530    -4.1270    -1.8700 H     1 <1>   0.0800 
 30 H        0.4980    -5.3670    -0.7860 H     1 <1>   0.0800 
 31 H        1.2890    -5.0010    -2.2680 H     1 <1>   0.0800 
 32 H        1.2820    -2.0020    -2.3040 H     1 <1>   0.0800 
 33 H        2.6110    -3.0780    -2.6400 H     1 <1>   0.0800 
 34 H        2.8040    -1.8210    -1.4630 H     1 <1>   0.0800 
 35 H        2.5200    -4.8920     0.6270 H     1 <1>   0.0800 
 36 H        3.4880    -3.4730     0.3090 H     1 <1>   0.0800 
 37 H        3.3760    -4.7360    -0.8810 H     1 <1>   0.0800 
 38 H       -3.3600    -4.0960     0.3940 H     1 <1>   0.4500 
 39 H       -1.5300    -4.3160     2.9480 H     1 <1>   0.0800 
 40 H       -2.4220    -3.0350    -1.5100 H     1 <1>   0.0800 
 41 H       -2.0610    -1.6370    -0.5390 H     1 <1>   0.0800 
 42 H       -2.8030    -1.6520     1.8850 H     1 <1>   0.0800 
 43 H       -3.2170    -3.1520     2.6570 H     1 <1>   0.0800 
 44 H        0.2580    -6.2110     1.4180 H     1 <1>   0.0800 
 45 H       -0.0420    -6.2320     3.1320 H     1 <1>   0.0800 
 46 H        0.7870    -4.8820     2.4320 H     1 <1>   0.0800 
 47 H       -2.4020    -6.6370     2.7910 H     1 <1>   0.0800 
 48 H       -3.4350    -5.5450     1.9330 H     1 <1>   0.0800 
 49 H       -2.3170    -6.5650     1.0530 H     1 <1>   0.0800 
 50 H       -4.4580    -2.1540    -1.9320 H     1 <1>   0.0800 
 51 H       -4.1420    -0.8430    -0.8340 H     1 <1>   0.0800 
 52 H       -5.0570    -1.3150     1.8090 H     1 <1>   0.0800 
 53 H       -5.4080    -2.9960     2.0660 H     1 <1>   0.0800 
 54 H       -6.3600    -4.7330    -0.1920 H     1 <1>   0.1500 
 55 H       -9.2920    -0.9420    -1.2000 H     1 <1>   0.1500 
 56 H       -6.2850     0.1600    -1.4140 H     1 <1>   0.0800 
 57 H       -6.2320     0.0640     0.3350 H     1 <1>   0.0800 
 58 H       -7.6830     0.5850    -0.4640 H     1 <1>   0.0800 
 59 H      -10.1600    -3.2110    -1.3420 H     1 <1>   0.1500 
 60 H       -8.1240    -6.2710    -0.6240 H     1 <1>   0.0800 
 61 H       -9.2290    -5.7310    -1.8630 H     1 <1>   0.0800 
 62 H       -9.6960    -5.6550    -0.1790 H     1 <1>   0.0800 
@<TRIPOS>BOND
  1   1   2  2   
  2   1   3  1   
  3   2   4  1   
  4   3   5  2   
  5   4   5  1   
  6   4   6  1   
  7   5   7  1   
  8   6   8  1   
  9   6   9  1   
 10   6  10  1   
 11   7  11  1   
 12   7  12  1   
 13   7  28  1   
 14   8  29  1   
 15   8  30  1   
 16   8  31  1   
 17   9  32  1   
 18   9  33  1   
 19   9  34  1   
 20  10  35  1   
 21  10  36  1   
 22  10  37  1   
 23  11  13  1   
 24  11  14  1   
 25  11  38  1   
 26  12  15  1   
 27  12  16  1   
 28  12  39  1   
 29  13  17  1   
 30  13  40  1   
 31  13  41  1   
 32  14  18  1   
 33  14  42  1   
 34  14  43  1   
 35  15  44  1   
 36  15  45  1   
 37  15  46  1   
 38  16  47  1   
 39  16  48  1   
 40  16  49  1   
 41  17  19  1   
 42  17  50  1   
 43  17  51  1   
 44  18  19  1   
 45  18  52  1   
 46  18  53  1   
 47  19  20  1   
 48  20  21  ar  
 49  20  22  ar  
 50  21  23  ar  
 51  21  24  1   
 52  22  25  ar  
 53  22  54  1   
 54  23  26  ar  
 55  23  55  1   
 56  24  56  1   
 57  24  57  1   
 58  24  58  1   
 59  25  26  ar  
 60  25  27  1   
 61  26  59  1   
 62  27  60  1   
 63  27  61  1   
 64  27  62  1   
@<TRIPOS>SUBSTRUCTURE
  1 ****  11 GROUP 4 **** **** 0

# MOE 2024.06 (io_trps.svl 2023.06)
