@<TRIPOS>MOLECULE
N-[2-(4-Phenyl-piperazin-1-yl)-phenyl]-propionamide
46 48 1 0 0 
SMALL
USER_CHARGES


@<TRIPOS>ATOM
  1 O       -0.2530     0.3150    -0.2490 O.2   1 <1>  -0.5700 
  2 C       -1.4560     0.3860    -0.1770 C.2   1 <1>   0.5690 
  3 N       -2.2970    -0.6670    -0.3720 N.am  1 <1>  -0.5470 
  4 C       -2.0860     1.7300     0.1460 C.3   1 <1>  -0.0990 
  5 C       -2.1110    -2.0270    -0.6630 C.ar  1 <1>   0.1170 
  6 C       -2.9290     1.7120     1.4330 C.3   1 <1>  -0.2400 
  7 C       -3.2630    -2.8270    -0.6550 C.ar  1 <1>   0.1000 
  8 C       -0.8800    -2.5980    -0.9520 C.ar  1 <1>  -0.1500 
  9 N       -4.5150    -2.2540    -0.3600 N.pl3 1 <1>  -0.8380 
 10 C       -3.1450    -4.1830    -0.9350 C.ar  1 <1>  -0.1500 
 11 C       -0.7790    -3.9510    -1.2310 C.ar  1 <1>  -0.1500 
 12 C       -5.5260    -2.3070    -1.4650 C.3   1 <1>   0.2090 
 13 C       -5.1190    -2.6880     0.9420 C.3   1 <1>   0.2090 
 14 C       -1.9130    -4.7440    -1.2220 C.ar  1 <1>  -0.1500 
 15 C       -6.7820    -1.4780    -1.1290 C.3   1 <1>   0.2090 
 16 C       -6.3730    -1.8630     1.2930 C.3   1 <1>   0.2090 
 17 N       -7.3760    -1.8790     0.1840 N.pl3 1 <1>  -0.8380 
 18 C       -8.6230    -1.3440     0.4800 C.ar  1 <1>   0.1000 
 19 C       -8.7980     0.0140     0.7200 C.ar  1 <1>  -0.1500 
 20 C       -9.7300    -2.1800     0.5390 C.ar  1 <1>  -0.1500 
 21 C      -10.0500     0.5240     1.0130 C.ar  1 <1>  -0.1500 
 22 C      -10.9840    -1.6760     0.8320 C.ar  1 <1>  -0.1500 
 23 C      -11.1460    -0.3210     1.0690 C.ar  1 <1>  -0.1500 
 24 H       -3.2950    -0.4910    -0.2360 H     1 <1>   0.3700 
 25 H       -2.6960     2.0300    -0.6860 H     1 <1>   0.0800 
 26 H       -1.2990     2.4560     0.2510 H     1 <1>   0.0800 
 27 H       -3.7580     1.0340     1.3380 H     1 <1>   0.0800 
 28 H       -3.3110     2.6970     1.6360 H     1 <1>   0.0800 
 29 H       -2.3210     1.4020     2.2650 H     1 <1>   0.0800 
 30 H        0.0070    -1.9920    -0.9620 H     1 <1>   0.1500 
 31 H       -4.0220    -4.8020    -0.9280 H     1 <1>   0.1500 
 32 H        0.1820    -4.3810    -1.4530 H     1 <1>   0.1500 
 33 H       -5.8230    -3.3270    -1.6360 H     1 <1>   0.0800 
 34 H       -5.0820    -1.9330    -2.3700 H     1 <1>   0.0800 
 35 H       -4.3890    -2.5800     1.7250 H     1 <1>   0.0800 
 36 H       -5.3940    -3.7270     0.8840 H     1 <1>   0.0800 
 37 H       -1.8350    -5.7950    -1.4380 H     1 <1>   0.1500 
 38 H       -7.5160    -1.6140    -1.9040 H     1 <1>   0.0800 
 39 H       -6.5160    -0.4360    -1.1000 H     1 <1>   0.0800 
 40 H       -6.0790    -0.8490     1.4970 H     1 <1>   0.0800 
 41 H       -6.8250    -2.2650     2.1830 H     1 <1>   0.0800 
 42 H       -7.9490     0.6690     0.6760 H     1 <1>   0.1500 
 43 H       -9.5930    -3.2290     0.3530 H     1 <1>   0.1500 
 44 H      -10.1750     1.5770     1.1970 H     1 <1>   0.1500 
 45 H      -11.8330    -2.3350     0.8740 H     1 <1>   0.1500 
 46 H      -12.1210     0.0730     1.2970 H     1 <1>   0.1500 
@<TRIPOS>BOND
  1   1   2  2   
  2   2   3  am  
  3   2   4  1   
  4   3   5  1   
  5   3  24  1   
  6   4   6  1   
  7   4  25  1   
  8   4  26  1   
  9   5   7  ar  
 10   5   8  ar  
 11   6  27  1   
 12   6  28  1   
 13   6  29  1   
 14   7   9  1   
 15   7  10  ar  
 16   8  11  ar  
 17   8  30  1   
 18   9  12  1   
 19   9  13  1   
 20  10  14  ar  
 21  10  31  1   
 22  11  14  ar  
 23  11  32  1   
 24  12  15  1   
 25  12  33  1   
 26  12  34  1   
 27  13  16  1   
 28  13  35  1   
 29  13  36  1   
 30  14  37  1   
 31  15  17  1   
 32  15  38  1   
 33  15  39  1   
 34  16  17  1   
 35  16  40  1   
 36  16  41  1   
 37  17  18  1   
 38  18  19  ar  
 39  18  20  ar  
 40  19  21  ar  
 41  19  42  1   
 42  20  22  ar  
 43  20  43  1   
 44  21  23  ar  
 45  21  44  1   
 46  22  23  ar  
 47  22  45  1   
 48  23  46  1   
@<TRIPOS>SUBSTRUCTURE
  1 ****   9 GROUP 4 **** **** 0

# MOE 2024.06 (io_trps.svl 2023.06)
