@<TRIPOS>MOLECULE
1-{4-[2-(4-Chloro-phenyl)-5,6-dimethyl-pyrazolo[1,5-a]pyrimidin-7-yl]-piperazin-1-yl}-ethanone
50 53 1 0 0 
SMALL
USER_CHARGES


@<TRIPOS>ATOM
  1 CL      -1.2070    -0.5970    -0.1020 Cl    1 <1>  -0.1770 
  2 C       -2.4930     0.5800    -0.0570 C.ar  1 <1>   0.1770 
  3 C       -2.2500     1.8340     0.4680 C.ar  1 <1>  -0.1500 
  4 C       -3.7410     0.2430    -0.5470 C.ar  1 <1>  -0.1500 
  5 C       -3.2750     2.7640     0.5020 C.ar  1 <1>  -0.1500 
  6 C       -4.7570     1.1820    -0.5080 C.ar  1 <1>  -0.1500 
  7 C       -4.5480     2.4600     0.0130 C.ar  1 <1>   0.0540 
  8 C       -5.6200     3.4330     0.0460 C.2   1 <1>   0.2350 
  9 N       -6.8820     3.1290     0.2300 N.2   1 <1>  -0.7070 
 10 C       -5.4570     4.8100    -0.1210 C.2   1 <1>  -0.1500 
 11 N       -7.5640     4.3130     0.2160 N.pl3 1 <1>   0.5610 
 12 C       -6.6920     5.3410    -0.0240 C.2   1 <1>  -0.0680 
 13 C       -8.9440     4.5260     0.3080 C.cat 1 <1>   0.3950 
 14 N       -7.1770     6.6360    -0.1440 N.pl3 1 <1>  -0.5840 
 15 N       -9.7740     3.4530     0.4300 N.pl3 1 <1>  -0.0920 
 16 C       -9.3870     5.8750     0.2330 C.2   1 <1>  -0.1240 
 17 C       -8.4890     6.8990    -0.0210 C.2   1 <1>  -0.0380 
 18 C      -10.9940     3.2790    -0.4220 C.3   1 <1>   0.1860 
 19 C       -9.4850     2.2510     1.2880 C.3   1 <1>   0.1860 
 20 C      -10.8550     6.2440     0.4950 C.3   1 <1>  -0.1020 
 21 C       -8.8580     8.3690    -0.1720 C.3   1 <1>  -0.1020 
 22 C      -10.8810     2.0050    -1.2690 C.3   1 <1>   0.1400 
 23 C       -9.3670     0.9760     0.4420 C.3   1 <1>   0.1400 
 24 N      -10.5950     0.8320    -0.3920 N.am  1 <1>  -0.6600 
 25 C      -11.4690    -0.2250    -0.3360 C.2   1 <1>   0.5690 
 26 O      -12.5470    -0.1760    -0.8720 O.2   1 <1>  -0.5700 
 27 C      -11.1200    -1.4860     0.4200 C.3   1 <1>  -0.1790 
 28 H       -1.2720     2.0720     0.8450 H     1 <1>   0.1500 
 29 H       -3.9060    -0.7390    -0.9510 H     1 <1>   0.1500 
 30 H       -3.0820     3.7370     0.9190 H     1 <1>   0.1500 
 31 H       -5.7280     0.9250    -0.8910 H     1 <1>   0.1500 
 32 H       -4.5270     5.3170    -0.3050 H     1 <1>   0.1500 
 33 H       -6.5020     7.3950    -0.3260 H     1 <1>   0.4000 
 34 H      -11.1110     4.1140    -1.0890 H     1 <1>   0.0800 
 35 H      -11.8680     3.2140     0.2020 H     1 <1>   0.0800 
 36 H      -10.2940     2.1250     1.9870 H     1 <1>   0.0800 
 37 H       -8.5910     2.3940     1.8680 H     1 <1>   0.0800 
 38 H      -11.3530     5.5170     1.1100 H     1 <1>   0.0800 
 39 H      -11.3890     6.3560    -0.4320 H     1 <1>   0.0800 
 40 H      -10.9210     7.1750     1.0320 H     1 <1>   0.0800 
 41 H       -8.2000     8.8510    -0.8730 H     1 <1>   0.0800 
 42 H       -8.7670     8.8690     0.7770 H     1 <1>   0.0800 
 43 H       -9.8600     8.4970    -0.5390 H     1 <1>   0.0800 
 44 H      -10.0890     2.1090    -1.9920 H     1 <1>   0.0800 
 45 H      -11.7970     1.8600    -1.8180 H     1 <1>   0.0800 
 46 H       -9.2390     0.1310     1.0950 H     1 <1>   0.0800 
 47 H       -8.5020     1.0290    -0.1970 H     1 <1>   0.0800 
 48 H      -11.1200    -1.2950     1.4760 H     1 <1>   0.0800 
 49 H      -10.1580    -1.8480     0.1100 H     1 <1>   0.0800 
 50 H      -11.8520    -2.2450     0.2090 H     1 <1>   0.0800 
@<TRIPOS>BOND
  1   1   2  1   
  2   2   3  ar  
  3   2   4  ar  
  4   3   5  ar  
  5   3  28  1   
  6   4   6  ar  
  7   4  29  1   
  8   5   7  ar  
  9   5  30  1   
 10   6   7  ar  
 11   6  31  1   
 12   7   8  1   
 13   8   9  2   
 14   8  10  1   
 15   9  11  1   
 16  10  12  2   
 17  10  32  1   
 18  11  12  1   
 19  11  13  ar  
 20  12  14  1   
 21  13  15  ar  
 22  13  16  1   
 23  14  17  1   
 24  14  33  1   
 25  15  18  1   
 26  15  19  1   
 27  16  17  2   
 28  16  20  1   
 29  17  21  1   
 30  18  22  1   
 31  18  34  1   
 32  18  35  1   
 33  19  23  1   
 34  19  36  1   
 35  19  37  1   
 36  20  38  1   
 37  20  39  1   
 38  20  40  1   
 39  21  41  1   
 40  21  42  1   
 41  21  43  1   
 42  22  24  1   
 43  22  44  1   
 44  22  45  1   
 45  23  24  1   
 46  23  46  1   
 47  23  47  1   
 48  24  25  am  
 49  25  26  2   
 50  25  27  1   
 51  27  48  1   
 52  27  49  1   
 53  27  50  1   
@<TRIPOS>SUBSTRUCTURE
  1 ****   9 GROUP 4 **** **** 0

# MOE 2024.06 (io_trps.svl 2023.06)
