@<TRIPOS>MOLECULE
NONAME
56 59 1 0 0 
SMALL
USER_CHARGES


@<TRIPOS>ATOM
  1 CL      -0.4690     2.0090    -2.8480 Cl    1 <1>  -0.1770 
  2 C       -1.3090     2.5020    -1.3990 C.ar  1 <1>   0.1770 
  3 C       -2.6760     2.6760    -1.4360 C.ar  1 <1>  -0.1500 
  4 C       -0.5880     2.7090    -0.2390 C.ar  1 <1>  -0.1500 
  5 C       -3.3570     3.0680    -0.2890 C.ar  1 <1>   0.1000 
  6 C       -1.2590     3.1000     0.9080 C.ar  1 <1>  -0.1500 
  7 N       -4.7380     3.2470    -0.3200 N.pl3 1 <1>  -0.8380 
  8 C       -2.6340     3.2800     0.8880 C.ar  1 <1>  -0.1430 
  9 C       -5.2350     4.4030    -1.1130 C.3   1 <1>   0.2090 
 10 C       -5.5590     2.0370    -0.5960 C.3   1 <1>   0.2090 
 11 C       -3.3530     3.7110     2.1590 C.3   1 <1>  -0.0970 
 12 C       -6.7290     4.6610    -0.8430 C.3   1 <1>   0.1100 
 13 C       -7.0450     2.3130    -0.3090 C.3   1 <1>   0.1100 
 14 N       -7.5840     3.4700    -1.0800 N.3   1 <1>  -0.8100 
 15 C       -9.0510     3.6750    -0.8500 C.3   1 <1>   0.3700 
 16 C       -9.7940     2.3620    -1.1500 C.2   1 <1>   0.0060 
 17 C       -9.6350     4.8780    -1.6660 C.3   1 <1>  -0.0800 
 18 N       -9.7790     1.7230    -2.2640 N.2   1 <1>  -0.3380 
 19 N      -10.5310     1.6930    -0.2750 N.pl3 1 <1>   0.3140 
 20 C       -9.5990     6.2080    -0.8780 C.3   1 <1>  -0.2400 
 21 C      -11.0960     4.6970    -2.1340 C.3   1 <1>  -0.2400 
 22 N      -10.5280     0.6450    -2.0770 N.2   1 <1>   0.0000 
 23 N      -10.9810     0.6120    -0.8780 N.2   1 <1>  -0.4180 
 24 C      -10.8080     1.9360     1.1530 C.3   1 <1>   0.2760 
 25 C      -11.7890     3.0770     1.3370 C.2   1 <1>  -0.0400 
 26 O      -11.3220     4.2940     1.5320 O.3   1 <1>  -0.2800 
 27 C      -13.1390     3.0790     1.3500 C.2   1 <1>  -0.1500 
 28 C      -12.3570     5.0990     1.6740 C.2   1 <1>  -0.0100 
 29 C      -13.5130     4.4100     1.5700 C.2   1 <1>  -0.1500 
 30 H       -3.2110     2.5090    -2.3500 H     1 <1>   0.1500 
 31 H        0.4770     2.5660    -0.2360 H     1 <1>   0.1500 
 32 H       -0.7030     3.2630     1.8140 H     1 <1>   0.1500 
 33 H       -5.0950     4.2090    -2.1620 H     1 <1>   0.0800 
 34 H       -4.6660     5.2790    -0.8550 H     1 <1>   0.0800 
 35 H       -5.2170     1.2270     0.0230 H     1 <1>   0.0800 
 36 H       -5.4490     1.7450    -1.6260 H     1 <1>   0.0800 
 37 H       -3.8570     4.6450     1.9890 H     1 <1>   0.0800 
 38 H       -2.6670     3.8310     2.9770 H     1 <1>   0.0800 
 39 H       -4.0860     2.9710     2.4260 H     1 <1>   0.0800 
 40 H       -7.0260     5.4530    -1.5050 H     1 <1>   0.0800 
 41 H       -6.8430     4.9960     0.1730 H     1 <1>   0.0800 
 42 H       -7.1620     2.4920     0.7450 H     1 <1>   0.0800 
 43 H       -7.5810     1.4150    -0.5620 H     1 <1>   0.0800 
 44 H       -9.1840     3.9020     0.1920 H     1 <1>   0.0800 
 45 H       -9.0410     4.9810    -2.5580 H     1 <1>   0.0800 
 46 H      -10.2870     6.1730    -0.0540 H     1 <1>   0.0800 
 47 H       -9.8870     7.0220    -1.5190 H     1 <1>   0.0800 
 48 H       -8.6300     6.4340    -0.4830 H     1 <1>   0.0800 
 49 H      -11.7460     4.4920    -1.3020 H     1 <1>   0.0800 
 50 H      -11.1770     3.8940    -2.8450 H     1 <1>   0.0800 
 51 H      -11.4460     5.5870    -2.6260 H     1 <1>   0.0800 
 52 H       -9.8880     2.1480     1.6640 H     1 <1>   0.0800 
 53 H      -11.2300     1.0390     1.5690 H     1 <1>   0.0800 
 54 H      -13.8220     2.2560     1.2210 H     1 <1>   0.1500 
 55 H      -12.1840     6.1470     1.8450 H     1 <1>   0.1500 
 56 H      -14.5240     4.7740     1.6370 H     1 <1>   0.1500 
@<TRIPOS>BOND
  1   1   2  1   
  2   2   3  ar  
  3   2   4  ar  
  4   3   5  ar  
  5   3  30  1   
  6   4   6  ar  
  7   4  31  1   
  8   5   7  1   
  9   5   8  ar  
 10   6   8  ar  
 11   6  32  1   
 12   7   9  1   
 13   7  10  1   
 14   8  11  1   
 15   9  12  1   
 16   9  33  1   
 17   9  34  1   
 18  10  13  1   
 19  10  35  1   
 20  10  36  1   
 21  11  37  1   
 22  11  38  1   
 23  11  39  1   
 24  12  14  1   
 25  12  40  1   
 26  12  41  1   
 27  13  14  1   
 28  13  42  1   
 29  13  43  1   
 30  14  15  1   
 31  15  16  1   
 32  15  17  1   
 33  15  44  1   
 34  16  18  2   
 35  16  19  1   
 36  17  20  1   
 37  17  21  1   
 38  17  45  1   
 39  18  22  1   
 40  19  23  1   
 41  19  24  1   
 42  20  46  1   
 43  20  47  1   
 44  20  48  1   
 45  21  49  1   
 46  21  50  1   
 47  21  51  1   
 48  22  23  2   
 49  24  25  1   
 50  24  52  1   
 51  24  53  1   
 52  25  26  1   
 53  25  27  2   
 54  26  28  1   
 55  27  29  1   
 56  27  54  1   
 57  28  29  2   
 58  28  55  1   
 59  29  56  1   
@<TRIPOS>SUBSTRUCTURE
  1 ****  14 GROUP 4 **** **** 0

# MOE 2024.06 (io_trps.svl 2023.06)
