@<TRIPOS>MOLECULE
NONAME
48 50 1 0 0 
SMALL
USER_CHARGES


@<TRIPOS>ATOM
  1 O       -0.0360     1.6940    -2.0830 O.2   1 <1>  -0.5700 
  2 C       -0.9340     2.0040    -1.3310 C.2   1 <1>   0.5690 
  3 N       -0.8110     3.0270    -0.4260 N.am  1 <1>  -0.4770 
  4 C       -2.2350     1.2040    -1.3530 C.3   1 <1>   0.1810 
  5 C       -1.8470     3.2690     0.5030 C.ar  1 <1>   0.1170 
  6 C        0.3630     3.9540    -0.5270 C.3   1 <1>   0.2010 
  7 O       -3.3400     1.9290    -0.8210 O.3   1 <1>  -0.3630 
  8 C       -3.1140     2.7210     0.2610 C.ar  1 <1>   0.0830 
  9 C       -1.6670     4.0250     1.6580 C.ar  1 <1>  -0.1500 
 10 C        1.6080     3.3990     0.1590 C.2   1 <1>   0.5690 
 11 C       -4.1710     2.9680     1.1190 C.ar  1 <1>  -0.1500 
 12 C       -2.7240     4.2630     2.5210 C.ar  1 <1>  -0.1500 
 13 O        2.1090     4.0100     1.0740 O.2   1 <1>  -0.5700 
 14 N        2.1440     2.2320    -0.2900 N.am  1 <1>  -0.7300 
 15 C       -3.9780     3.7410     2.2500 C.ar  1 <1>  -0.1500 
 16 C        3.2780     1.5350     0.3350 C.3   1 <1>   0.1400 
 17 C        4.5750     2.1610    -0.1760 C.3   1 <1>  -0.1600 
 18 C        5.7680     1.6600     0.6310 C.3   1 <1>   0.3430 
 19 N        6.9870     2.4320     0.2730 N.4   1 <1>  -0.9590 
 20 C        7.4790     2.2070    -1.1310 C.3   1 <1>   0.3430 
 21 C        8.1050     2.2410     1.2570 C.3   1 <1>   0.3430 
 22 C        8.7900     2.9800    -1.4070 C.3   1 <1>   0.1200 
 23 C        9.3400     3.0930     0.8800 C.3   1 <1>   0.1200 
 24 O        9.1360     3.7930    -0.3190 O.3   1 <1>  -0.5600 
 25 H       -2.1150     0.3130    -0.7660 H     1 <1>   0.0800 
 26 H       -2.4780     0.9320    -2.3630 H     1 <1>   0.0800 
 27 H        0.1180     4.9100    -0.1020 H     1 <1>   0.0800 
 28 H        0.5940     4.1180    -1.5630 H     1 <1>   0.0800 
 29 H       -0.7030     4.4320     1.9030 H     1 <1>   0.1500 
 30 H       -5.1370     2.5510     0.9010 H     1 <1>   0.1500 
 31 H       -2.5700     4.8540     3.4070 H     1 <1>   0.1500 
 32 H        1.6410     1.7440    -1.0500 H     1 <1>   0.3700 
 33 H       -4.7990     3.9320     2.9200 H     1 <1>   0.1500 
 34 H        3.2320     0.4850     0.0980 H     1 <1>   0.0800 
 35 H        3.2030     1.6500     1.4050 H     1 <1>   0.0800 
 36 H        4.5040     3.2290    -0.0630 H     1 <1>   0.0800 
 37 H        4.6880     1.9170    -1.2170 H     1 <1>   0.0800 
 38 H        5.9230     0.6080     0.4530 H     1 <1>   0.0800 
 39 H        5.5550     1.7980     1.6800 H     1 <1>   0.0800 
 40 H        6.7680     3.4400     0.3190 H     1 <1>   0.4500 
 41 H        6.7330     2.5310    -1.8380 H     1 <1>   0.0800 
 42 H        7.6510     1.1570    -1.3010 H     1 <1>   0.0800 
 43 H        8.3940     1.2040     1.2890 H     1 <1>   0.0800 
 44 H        7.7790     2.5180     2.2460 H     1 <1>   0.0800 
 45 H        8.6720     3.6150    -2.2680 H     1 <1>   0.0800 
 46 H        9.6020     2.3000    -1.6010 H     1 <1>   0.0800 
 47 H       10.2130     2.4720     0.7720 H     1 <1>   0.0800 
 48 H        9.5390     3.8180     1.6500 H     1 <1>   0.0800 
@<TRIPOS>BOND
  1   1   2  2   
  2   2   3  am  
  3   2   4  1   
  4   3   5  1   
  5   3   6  1   
  6   4   7  1   
  7   4  25  1   
  8   4  26  1   
  9   5   8  ar  
 10   5   9  ar  
 11   6  10  1   
 12   6  27  1   
 13   6  28  1   
 14   7   8  1   
 15   8  11  ar  
 16   9  12  ar  
 17   9  29  1   
 18  10  13  2   
 19  10  14  am  
 20  11  15  ar  
 21  11  30  1   
 22  12  15  ar  
 23  12  31  1   
 24  14  16  1   
 25  14  32  1   
 26  15  33  1   
 27  16  17  1   
 28  16  34  1   
 29  16  35  1   
 30  17  18  1   
 31  17  36  1   
 32  17  37  1   
 33  18  19  1   
 34  18  38  1   
 35  18  39  1   
 36  19  20  1   
 37  19  21  1   
 38  19  40  1   
 39  20  22  1   
 40  20  41  1   
 41  20  42  1   
 42  21  23  1   
 43  21  43  1   
 44  21  44  1   
 45  22  24  1   
 46  22  45  1   
 47  22  46  1   
 48  23  24  1   
 49  23  47  1   
 50  23  48  1   
@<TRIPOS>SUBSTRUCTURE
  1 ****  10 GROUP 4 **** **** 0

# MOE 2024.06 (io_trps.svl 2023.06)
