@<TRIPOS>MOLECULE
[1,2,3]Thiadiazole-4-carboxylic acid (3-acetyl-phenyl)-cyclopentylcarbamoylmethyl-amide
46 48 1 0 0 
SMALL
USER_CHARGES


@<TRIPOS>ATOM
  1 S       -3.8320    -0.0760     4.1040 S.3   1 <1>   0.1810 
  2 N       -4.7830     1.1500     3.4280 N.2   1 <1>  -0.2210 
  3 C       -4.0140    -1.0840     2.7240 C.2   1 <1>  -0.1100 
  4 N       -5.1860     0.8240     2.2820 N.2   1 <1>  -0.2270 
  5 C       -4.7750    -0.4290     1.8300 C.2   1 <1>   0.1410 
  6 C       -5.1930    -0.9440     0.5370 C.2   1 <1>   0.7160 
  7 O       -5.3720    -2.1450     0.4200 O.2   1 <1>  -0.5700 
  8 N       -5.4140    -0.1400    -0.5730 N.am  1 <1>  -0.4770 
  9 C       -5.0080     1.1970    -0.6770 C.ar  1 <1>   0.1170 
 10 C       -6.2680    -0.6630    -1.6910 C.3   1 <1>   0.2010 
 11 C       -5.9470     2.2190    -0.7040 C.ar  1 <1>  -0.1500 
 12 C       -3.6600     1.5180    -0.7530 C.ar  1 <1>  -0.1500 
 13 C       -7.7400    -0.7080    -1.2910 C.2   1 <1>   0.5690 
 14 C       -5.5840     3.5620    -0.8080 C.ar  1 <1>   0.0860 
 15 C       -3.2670     2.8380    -0.8560 C.ar  1 <1>  -0.1500 
 16 O       -8.5070     0.0890    -1.7770 O.2   1 <1>  -0.5700 
 17 N       -8.1270    -1.6100    -0.3560 N.am  1 <1>  -0.7300 
 18 C       -6.5550     4.6410    -0.8390 C.2   1 <1>   0.4230 
 19 C       -4.2180     3.8410    -0.8840 C.ar  1 <1>  -0.1500 
 20 C       -9.4170    -1.6200     0.3430 C.3   1 <1>   0.2200 
 21 O       -6.2530     5.7930    -1.0090 O.2   1 <1>  -0.5700 
 22 C       -8.0320     4.3480    -0.6520 C.3   1 <1>  -0.1790 
 23 C       -9.2510    -0.8830     1.6670 C.3   1 <1>  -0.1600 
 24 C       -9.7200    -3.0480     0.7770 C.3   1 <1>  -0.1600 
 25 C       -8.5980    -1.8870     2.6240 C.3   1 <1>  -0.1600 
 26 C       -8.8890    -3.2780     2.0460 C.3   1 <1>  -0.1600 
 27 H       -3.5490    -2.0520     2.7170 H     1 <1>   0.1500 
 28 H       -5.9470    -1.6510    -1.9650 H     1 <1>   0.0800 
 29 H       -6.1630    -0.0300    -2.5530 H     1 <1>   0.0800 
 30 H       -6.9850     1.9500    -0.6340 H     1 <1>   0.1500 
 31 H       -2.9210     0.7370    -0.7340 H     1 <1>   0.1500 
 32 H       -2.2210     3.0880    -0.9140 H     1 <1>   0.1500 
 33 H       -7.4130    -2.2100     0.0770 H     1 <1>   0.3700 
 34 H       -3.8990     4.8670    -0.9640 H     1 <1>   0.1500 
 35 H      -10.1900    -1.1950    -0.2770 H     1 <1>   0.0800 
 36 H       -8.1940     3.8530     0.2870 H     1 <1>   0.0800 
 37 H       -8.3900     3.7290    -1.4540 H     1 <1>   0.0800 
 38 H       -8.5900     5.2670    -0.6550 H     1 <1>   0.0800 
 39 H      -10.2280    -0.6290     2.0390 H     1 <1>   0.0800 
 40 H       -8.6790     0.0230     1.5620 H     1 <1>   0.0800 
 41 H       -9.5060    -3.7640     0.0030 H     1 <1>   0.0800 
 42 H      -10.7640    -3.1130     1.0270 H     1 <1>   0.0800 
 43 H       -8.9960    -1.7820     3.6190 H     1 <1>   0.0800 
 44 H       -7.5340    -1.7230     2.6580 H     1 <1>   0.0800 
 45 H       -7.9620    -3.7650     1.7940 H     1 <1>   0.0800 
 46 H       -9.4230    -3.8940     2.7490 H     1 <1>   0.0800 
@<TRIPOS>BOND
  1   1   2  1   
  2   1   3  1   
  3   2   4  2   
  4   3   5  2   
  5   3  27  1   
  6   4   5  1   
  7   5   6  1   
  8   6   7  2   
  9   6   8  am  
 10   8   9  1   
 11   8  10  1   
 12   9  11  ar  
 13   9  12  ar  
 14  10  13  1   
 15  10  28  1   
 16  10  29  1   
 17  11  14  ar  
 18  11  30  1   
 19  12  15  ar  
 20  12  31  1   
 21  13  16  2   
 22  13  17  am  
 23  14  18  1   
 24  14  19  ar  
 25  15  19  ar  
 26  15  32  1   
 27  17  20  1   
 28  17  33  1   
 29  18  21  2   
 30  18  22  1   
 31  19  34  1   
 32  20  23  1   
 33  20  24  1   
 34  20  35  1   
 35  22  36  1   
 36  22  37  1   
 37  22  38  1   
 38  23  25  1   
 39  23  39  1   
 40  23  40  1   
 41  24  26  1   
 42  24  41  1   
 43  24  42  1   
 44  25  26  1   
 45  25  43  1   
 46  25  44  1   
 47  26  45  1   
 48  26  46  1   
@<TRIPOS>SUBSTRUCTURE
  1 ****   8 GROUP 4 **** **** 0

# MOE 2024.06 (io_trps.svl 2023.06)
