@<TRIPOS>MOLECULE
NONAME
53 56 1 0 0 
SMALL
USER_CHARGES


@<TRIPOS>ATOM
  1 CL      -2.0100     0.2830    -2.3420 Cl    1 <1>  -0.1770 
  2 C       -2.3030    -0.0040    -0.6420 C.ar  1 <1>   0.1770 
  3 C       -1.9770     0.9520     0.3100 C.ar  1 <1>  -0.1440 
  4 C       -2.8700    -1.2150    -0.2880 C.ar  1 <1>  -0.1500 
  5 C       -2.2260     0.6580     1.6450 C.ar  1 <1>  -0.1500 
  6 C       -1.3600     2.3010    -0.0680 C.3   1 <1>   0.5140 
  7 C       -3.1190    -1.4890     1.0450 C.ar  1 <1>  -0.1500 
  8 C       -2.7940    -0.5510     2.0100 C.ar  1 <1>  -0.1500 
  9 N        0.0470     2.3810     0.4050 N.3   1 <1>  -0.8100 
 10 C       -2.2650     3.4100     0.4880 C.2   1 <1>   0.0060 
 11 C        0.8690     1.2280    -0.0570 C.3   1 <1>   0.1100 
 12 C        0.6990     3.6460    -0.0360 C.3   1 <1>   0.1100 
 13 N       -2.0460     4.1550     1.5110 N.2   1 <1>  -0.3380 
 14 N       -3.4460     3.7170    -0.0320 N.pl3 1 <1>   0.3140 
 15 C        2.3290     1.3060     0.4250 C.3   1 <1>   0.2090 
 16 C        2.1480     3.7670     0.4670 C.3   1 <1>   0.2090 
 17 N       -3.1030     4.9470     1.6200 N.2   1 <1>   0.0000 
 18 N       -3.9550     4.6910     0.6970 N.2   1 <1>  -0.4180 
 19 C       -4.1710     3.1140    -1.1910 C.3   1 <1>   0.1760 
 20 N        2.9510     2.5960     0.0140 N.pl3 1 <1>  -0.8380 
 21 C       -4.6960     4.1960    -2.1470 C.3   1 <1>  -0.2400 
 22 C       -5.3190     2.2220    -0.6970 C.3   1 <1>  -0.2400 
 23 C        4.3530     2.6590    -0.0450 C.ar  1 <1>   0.1000 
 24 C        5.0970     1.9860    -1.0210 C.ar  1 <1>   0.1900 
 25 C        5.0770     3.4020     0.8850 C.ar  1 <1>  -0.1500 
 26 F        4.4780     1.2650    -1.9280 F     1 <1>  -0.1900 
 27 C        6.4750     2.0410    -1.0890 C.ar  1 <1>  -0.1500 
 28 C        6.4600     3.4700     0.8330 C.ar  1 <1>  -0.1500 
 29 C        7.1630     2.7930    -0.1510 C.ar  1 <1>  -0.1500 
 30 H       -3.1130    -1.9360    -1.0490 H     1 <1>   0.1500 
 31 H       -1.9710     1.3790     2.4070 H     1 <1>   0.1500 
 32 H       -1.3380     2.4090    -1.1370 H     1 <1>   0.0800 
 33 H       -3.5600    -2.4280     1.3330 H     1 <1>   0.1500 
 34 H       -2.9830    -0.7600     3.0490 H     1 <1>   0.1500 
 35 H        0.8670     1.1820    -1.1320 H     1 <1>   0.0800 
 36 H        0.4570     0.3080     0.3190 H     1 <1>   0.0800 
 37 H        0.1550     4.4960     0.3320 H     1 <1>   0.0800 
 38 H        0.7080     3.6980    -1.1110 H     1 <1>   0.0800 
 39 H        2.8870     0.4850     0.0120 H     1 <1>   0.0800 
 40 H        2.3540     1.2240     1.4980 H     1 <1>   0.0800 
 41 H        2.1430     3.8130     1.5420 H     1 <1>   0.0800 
 42 H        2.5860     4.6720     0.0850 H     1 <1>   0.0800 
 43 H       -3.4820     2.5030    -1.7410 H     1 <1>   0.0800 
 44 H       -5.4280     4.8140    -1.6550 H     1 <1>   0.0800 
 45 H       -5.1600     3.7390    -3.0030 H     1 <1>   0.0800 
 46 H       -3.8870     4.8160    -2.4890 H     1 <1>   0.0800 
 47 H       -6.0470     2.8090    -0.1610 H     1 <1>   0.0800 
 48 H       -4.9440     1.4530    -0.0450 H     1 <1>   0.0800 
 49 H       -5.8080     1.7510    -1.5300 H     1 <1>   0.0800 
 50 H        4.5550     3.9270     1.6630 H     1 <1>   0.1500 
 51 H        6.9970     1.5070    -1.8620 H     1 <1>   0.1500 
 52 H        6.9940     4.0520     1.5640 H     1 <1>   0.1500 
 53 H        8.2370     2.8510    -0.1860 H     1 <1>   0.1500 
@<TRIPOS>BOND
  1   1   2  1   
  2   2   3  ar  
  3   2   4  ar  
  4   3   5  ar  
  5   3   6  1   
  6   4   7  ar  
  7   4  30  1   
  8   5   8  ar  
  9   5  31  1   
 10   6   9  1   
 11   6  10  1   
 12   6  32  1   
 13   7   8  ar  
 14   7  33  1   
 15   8  34  1   
 16   9  11  1   
 17   9  12  1   
 18  10  13  2   
 19  10  14  1   
 20  11  15  1   
 21  11  35  1   
 22  11  36  1   
 23  12  16  1   
 24  12  37  1   
 25  12  38  1   
 26  13  17  1   
 27  14  18  1   
 28  14  19  1   
 29  15  20  1   
 30  15  39  1   
 31  15  40  1   
 32  16  20  1   
 33  16  41  1   
 34  16  42  1   
 35  17  18  2   
 36  19  21  1   
 37  19  22  1   
 38  19  43  1   
 39  20  23  1   
 40  21  44  1   
 41  21  45  1   
 42  21  46  1   
 43  22  47  1   
 44  22  48  1   
 45  22  49  1   
 46  23  24  ar  
 47  23  25  ar  
 48  24  26  1   
 49  24  27  ar  
 50  25  28  ar  
 51  25  50  1   
 52  27  29  ar  
 53  27  51  1   
 54  28  29  ar  
 55  28  52  1   
 56  29  53  1   
@<TRIPOS>SUBSTRUCTURE
  1 ****   9 GROUP 4 **** **** 0

# MOE 2024.06 (io_trps.svl 2023.06)
