@<TRIPOS>MOLECULE
NONAME
52 54 1 0 0 
SMALL
USER_CHARGES


@<TRIPOS>ATOM
  1 CL      -2.8470    -2.1800     3.5440 Cl    1 <1>  -0.1770 
  2 C       -3.9200    -1.7760     2.2280 C.ar  1 <1>   0.1770 
  3 C       -5.2870    -1.8390     2.4200 C.ar  1 <1>  -0.1500 
  4 C       -3.3890    -1.3960     1.0100 C.ar  1 <1>  -0.1500 
  5 C       -6.1340    -1.5170     1.3740 C.ar  1 <1>  -0.1500 
  6 C       -4.2440    -1.0770    -0.0310 C.ar  1 <1>  -0.1500 
  7 C       -5.6260    -1.1350     0.1330 C.ar  1 <1>   0.1170 
  8 N       -6.4410    -0.7890    -0.9570 N.am  1 <1>  -0.5470 
  9 C       -7.7380    -1.1190    -1.2430 C.2   1 <1>   0.5690 
 10 O       -8.4330    -1.8110    -0.5350 O.2   1 <1>  -0.5700 
 11 C       -8.3730    -0.5810    -2.5130 C.3   1 <1>   0.1310 
 12 S       -9.2210     1.0470    -2.1960 S.3   1 <1>  -0.3220 
 13 C      -10.5540     0.7450    -1.0670 C.cat 1 <1>   0.8920 
 14 N      -10.7250    -0.3690    -0.3820 N.pl3 1 <1>  -0.7000 
 15 N      -11.4960     1.6340    -0.8030 N.pl3 1 <1>  -0.7640 
 16 C      -11.8350    -0.2020     0.3800 C.2   1 <1>   0.4260 
 17 C      -12.3440     1.0310     0.1360 C.2   1 <1>   0.2770 
 18 C      -11.6570     3.0080    -1.3410 C.3   1 <1>   0.3540 
 19 N      -12.3850    -1.0980     1.2750 N.am  1 <1>  -0.4360 
 20 C      -13.5370     1.4260     0.8290 C.2   1 <1>   0.7030 
 21 C      -11.0430     4.0120    -0.3620 C.3   1 <1>  -0.1600 
 22 C      -13.5470    -0.7290     1.9370 C.2   1 <1>   0.6900 
 23 C      -11.7510    -2.4300     1.5140 C.3   1 <1>   0.0600 
 24 O      -14.0320     2.5270     0.6570 O.2   1 <1>  -0.5700 
 25 N      -14.1180     0.5180     1.7050 N.am  1 <1>  -0.4200 
 26 C      -11.1810     5.4510    -0.8750 C.3   1 <1>  -0.1600 
 27 O      -14.0670    -1.4980     2.7200 O.2   1 <1>  -0.5700 
 28 C      -15.3690     0.8850     2.4430 C.3   1 <1>   0.0600 
 29 C      -10.5640     6.4460     0.1110 C.3   1 <1>  -0.2400 
 30 H       -5.6760    -2.1360     3.3780 H     1 <1>   0.1500 
 31 H       -2.3210    -1.3550     0.8850 H     1 <1>   0.1500 
 32 H       -7.1930    -1.5640     1.5390 H     1 <1>   0.1500 
 33 H       -3.8260    -0.7850    -0.9770 H     1 <1>   0.1500 
 34 H       -5.9550    -0.2340    -1.6630 H     1 <1>   0.3700 
 35 H       -9.1150    -1.2640    -2.8860 H     1 <1>   0.0800 
 36 H       -7.6320    -0.4090    -3.2720 H     1 <1>   0.0800 
 37 H      -10.0760    -1.1700    -0.3650 H     1 <1>   0.4500 
 38 H      -12.7030     3.2250    -1.4800 H     1 <1>   0.0800 
 39 H      -11.1710     3.0910    -2.2990 H     1 <1>   0.0800 
 40 H      -10.0000     3.7860    -0.2240 H     1 <1>   0.0800 
 41 H      -11.5420     3.9340     0.5890 H     1 <1>   0.0800 
 42 H      -10.6780    -2.3450     1.5020 H     1 <1>   0.0800 
 43 H      -12.0620    -3.1220     0.7510 H     1 <1>   0.0800 
 44 H      -12.0430    -2.8230     2.4730 H     1 <1>   0.0800 
 45 H      -12.2220     5.6930    -1.0100 H     1 <1>   0.0800 
 46 H      -10.6880     5.5530    -1.8280 H     1 <1>   0.0800 
 47 H      -15.1200     1.1960     3.4420 H     1 <1>   0.0800 
 48 H      -16.0290     0.0350     2.4990 H     1 <1>   0.0800 
 49 H      -15.8940     1.6840     1.9480 H     1 <1>   0.0800 
 50 H      -11.0560     6.3860     1.0670 H     1 <1>   0.0800 
 51 H      -10.6730     7.4500    -0.2620 H     1 <1>   0.0800 
 52 H       -9.5160     6.2470     0.2480 H     1 <1>   0.0800 
@<TRIPOS>BOND
  1   1   2  1   
  2   2   3  ar  
  3   2   4  ar  
  4   3   5  ar  
  5   3  30  1   
  6   4   6  ar  
  7   4  31  1   
  8   5   7  ar  
  9   5  32  1   
 10   6   7  ar  
 11   6  33  1   
 12   7   8  1   
 13   8   9  am  
 14   8  34  1   
 15   9  10  2   
 16   9  11  1   
 17  11  12  1   
 18  11  35  1   
 19  11  36  1   
 20  12  13  1   
 21  13  14  ar  
 22  13  15  ar  
 23  14  16  1   
 24  14  37  1   
 25  15  17  1   
 26  15  18  1   
 27  16  17  2   
 28  16  19  1   
 29  17  20  1   
 30  18  21  1   
 31  18  38  1   
 32  18  39  1   
 33  19  22  am  
 34  19  23  1   
 35  20  24  2   
 36  20  25  am  
 37  21  26  1   
 38  21  40  1   
 39  21  41  1   
 40  22  25  am  
 41  22  27  2   
 42  23  42  1   
 43  23  43  1   
 44  23  44  1   
 45  25  28  1   
 46  26  29  1   
 47  26  45  1   
 48  26  46  1   
 49  28  47  1   
 50  28  48  1   
 51  28  49  1   
 52  29  50  1   
 53  29  51  1   
 54  29  52  1   
@<TRIPOS>SUBSTRUCTURE
  1 ****  14 GROUP 4 **** **** 0

# MOE 2024.06 (io_trps.svl 2023.06)
