@<TRIPOS>MOLECULE
3-(Cyclopropanecarbonyl-amino)-9-aza-bicyclo[3.3.1]nonane-9-carboxylic acid (3-acetyl-phenyl)-amide
54 57 1 0 0 
SMALL
USER_CHARGES


@<TRIPOS>ATOM
  1 O       -0.1870     0.6600    -0.1900 O.2   1 <1>  -0.5700 
  2 C       -0.4900    -0.5010     0.0120 C.2   1 <1>   0.6900 
  3 N       -1.6070    -1.0360    -0.5680 N.am  1 <1>  -0.6600 
  4 N        0.2560    -1.2980     0.8320 N.am  1 <1>  -0.5470 
  5 C       -2.5120    -0.3210    -1.4320 C.3   1 <1>   0.2200 
  6 C       -2.0490    -2.4440    -0.6020 C.3   1 <1>   0.2200 
  7 C        1.4500    -1.0620     1.5260 C.ar  1 <1>   0.1170 
  8 C       -3.9130    -0.5050    -0.7380 C.3   1 <1>  -0.1600 
  9 C       -2.2850    -0.9790    -2.8470 C.3   1 <1>  -0.1600 
 10 C       -2.9020    -2.5750     0.6430 C.3   1 <1>  -0.1600 
 11 C       -1.1470    -3.0880    -1.6400 C.3   1 <1>  -0.1600 
 12 C        2.3840    -0.1200     1.1140 C.ar  1 <1>  -0.1500 
 13 C        1.7190    -1.8120     2.6630 C.ar  1 <1>  -0.1500 
 14 C       -3.8970    -1.3560     0.6010 C.3   1 <1>   0.2200 
 15 C       -1.2050    -2.1440    -2.9030 C.3   1 <1>  -0.1600 
 16 C        3.5740     0.1100     1.8080 C.ar  1 <1>   0.0860 
 17 C        2.8900    -1.6170     3.3690 C.ar  1 <1>  -0.1500 
 18 N       -5.2620    -1.8320     0.8810 N.am  1 <1>  -0.7300 
 19 C        4.5490     1.1020     1.3960 C.2   1 <1>   0.4230 
 20 C        3.8020    -0.6690     2.9450 C.ar  1 <1>  -0.1500 
 21 C       -5.7740    -2.0100     2.1230 C.2   1 <1>   0.6300 
 22 O        5.6260     1.2230     1.9190 O.2   1 <1>  -0.5700 
 23 C        4.2380     2.0580     0.2590 C.3   1 <1>  -0.1790 
 24 O       -5.1190    -1.8410     3.1220 O.2   1 <1>  -0.5700 
 25 C       -7.2220    -2.4550     2.2450 C.3   1 <1>  -0.1000 
 26 C       -8.3120    -1.8710     1.3900 C.3   1 <1>  -0.2000 
 27 C       -8.2480    -1.5400     2.8480 C.3   1 <1>  -0.2000 
 28 H       -0.2030    -2.1810     1.0240 H     1 <1>   0.3700 
 29 H       -2.2510     0.7250    -1.4650 H     1 <1>   0.0800 
 30 H       -2.9100    -2.5840    -1.2340 H     1 <1>   0.0800 
 31 H       -4.5880    -0.9550    -1.4410 H     1 <1>   0.0800 
 32 H       -4.3030     0.4710    -0.5120 H     1 <1>   0.0800 
 33 H       -1.9920    -0.2050    -3.5350 H     1 <1>   0.0800 
 34 H       -3.2220    -1.3590    -3.2110 H     1 <1>   0.0800 
 35 H       -2.3000    -2.5410     1.5330 H     1 <1>   0.0800 
 36 H       -3.4320    -3.5110     0.6220 H     1 <1>   0.0800 
 37 H       -1.5230    -4.0650    -1.8890 H     1 <1>   0.0800 
 38 H       -0.1410    -3.1930    -1.2740 H     1 <1>   0.0800 
 39 H        2.1760     0.4420     0.2250 H     1 <1>   0.1500 
 40 H        1.0110    -2.5460     3.0010 H     1 <1>   0.1500 
 41 H       -3.6010    -0.6870     1.3940 H     1 <1>   0.0800 
 42 H       -0.2390    -1.6750    -2.9910 H     1 <1>   0.0800 
 43 H       -1.3460    -2.7310    -3.7950 H     1 <1>   0.0800 
 44 H        3.0930    -2.2010     4.2510 H     1 <1>   0.1500 
 45 H       -5.8580    -2.0100     0.0750 H     1 <1>   0.3700 
 46 H        4.7110    -0.5230     3.5030 H     1 <1>   0.1500 
 47 H        4.1730     1.5170    -0.6660 H     1 <1>   0.0800 
 48 H        5.0190     2.7920     0.1750 H     1 <1>   0.0800 
 49 H        3.3100     2.5670     0.4470 H     1 <1>   0.0800 
 50 H       -7.2880    -3.4950     2.5100 H     1 <1>   0.1000 
 51 H       -9.1020    -2.5160     1.0440 H     1 <1>   0.1000 
 52 H       -8.0820    -1.0870     0.6900 H     1 <1>   0.1000 
 53 H       -7.9310    -0.5570     3.1510 H     1 <1>   0.1000 
 54 H       -8.9780    -1.9620     3.5160 H     1 <1>   0.1000 
@<TRIPOS>BOND
  1   1   2  2   
  2   2   3  am  
  3   2   4  am  
  4   3   5  1   
  5   3   6  1   
  6   4   7  1   
  7   4  28  1   
  8   5   8  1   
  9   5   9  1   
 10   5  29  1   
 11   6  10  1   
 12   6  11  1   
 13   6  30  1   
 14   7  12  ar  
 15   7  13  ar  
 16   8  14  1   
 17   8  31  1   
 18   8  32  1   
 19   9  15  1   
 20   9  33  1   
 21   9  34  1   
 22  10  14  1   
 23  10  35  1   
 24  10  36  1   
 25  11  15  1   
 26  11  37  1   
 27  11  38  1   
 28  12  16  ar  
 29  12  39  1   
 30  13  17  ar  
 31  13  40  1   
 32  14  18  1   
 33  14  41  1   
 34  15  42  1   
 35  15  43  1   
 36  16  19  1   
 37  16  20  ar  
 38  17  20  ar  
 39  17  44  1   
 40  18  21  am  
 41  18  45  1   
 42  19  22  2   
 43  19  23  1   
 44  20  46  1   
 45  21  24  2   
 46  21  25  1   
 47  23  47  1   
 48  23  48  1   
 49  23  49  1   
 50  25  26  1   
 51  25  27  1   
 52  25  50  1   
 53  26  27  1   
 54  26  51  1   
 55  26  52  1   
 56  27  53  1   
 57  27  54  1   
@<TRIPOS>SUBSTRUCTURE
  1 ****   2 GROUP 4 **** **** 0

# MOE 2024.06 (io_trps.svl 2023.06)
