@<TRIPOS>MOLECULE
NONAME
46 48 1 0 0 
SMALL
USER_CHARGES


@<TRIPOS>ATOM
  1 O        1.3530    -1.8630    -0.8190 O.2   1 <1>  -0.5700 
  2 C        0.7190    -2.3420     0.1020 C.2   1 <1>   0.5440 
  3 N        1.3560    -2.4710     1.3090 N.am  1 <1>  -0.7300 
  4 C       -0.6650    -2.7500    -0.0750 C.ar  1 <1>   0.0860 
  5 C        2.7280    -1.9760     1.6180 C.3   1 <1>   0.1400 
  6 C       -1.2630    -3.7300     0.7210 C.ar  1 <1>  -0.1500 
  7 C       -1.4590    -2.1750    -1.0670 C.ar  1 <1>  -0.1500 
  8 C        3.7780    -2.5650     0.6480 C.3   1 <1>   0.3430 
  9 C       -2.5830    -4.1040     0.5450 C.ar  1 <1>  -0.1500 
 10 C       -2.7780    -2.5440    -1.2490 C.ar  1 <1>  -0.1500 
 11 N        4.7680    -1.5540     0.1480 N.4   1 <1>  -0.9590 
 12 C       -3.3680    -3.5130    -0.4420 C.ar  1 <1>  -0.0230 
 13 C        4.1070    -0.5320    -0.7140 C.3   1 <1>   0.3430 
 14 C        5.8350    -2.2390    -0.6290 C.3   1 <1>   0.3430 
 15 N       -4.7320    -3.8850    -0.6290 N.pl3 1 <1>   0.5930 
 16 C        4.6950     0.8570    -0.4570 C.3   1 <1>  -0.1600 
 17 C        7.1300    -1.4240    -0.6430 C.3   1 <1>  -0.1600 
 18 N       -5.3700    -3.8870    -1.7910 N.2   1 <1>  -0.4180 
 19 C       -5.6200    -4.2820     0.2730 C.2   1 <1>   0.0360 
 20 C        6.2200     0.9420    -0.2710 C.3   1 <1>  -0.1600 
 21 C        7.0190     0.0100    -1.1920 C.3   1 <1>  -0.1600 
 22 N       -6.5720    -4.2740    -1.5630 N.2   1 <1>   0.0000 
 23 N       -6.7480    -4.5260    -0.2710 N.2   1 <1>  -0.3380 
 24 H        0.7820    -2.7070     2.1240 H     1 <1>   0.3700 
 25 H        2.9830    -2.2590     2.6240 H     1 <1>   0.0800 
 26 H        2.7170    -0.9020     1.5620 H     1 <1>   0.0800 
 27 H       -0.6850    -4.2190     1.4860 H     1 <1>   0.1500 
 28 H       -1.0300    -1.4240    -1.7090 H     1 <1>   0.1500 
 29 H        3.2660    -2.9940    -0.1980 H     1 <1>   0.0800 
 30 H        4.2990    -3.3600     1.1540 H     1 <1>   0.0800 
 31 H       -2.9960    -4.8700     1.1790 H     1 <1>   0.1500 
 32 H       -3.3550    -2.0740    -2.0300 H     1 <1>   0.1500 
 33 H        5.2090    -1.0630     0.9350 H     1 <1>   0.4500 
 34 H        3.0500    -0.4910    -0.5160 H     1 <1>   0.0800 
 35 H        4.2310    -0.7950    -1.7530 H     1 <1>   0.0800 
 36 H        5.4990    -2.4090    -1.6390 H     1 <1>   0.0800 
 37 H        6.0460    -3.2000    -0.1860 H     1 <1>   0.0800 
 38 H        4.2130     1.2850     0.4050 H     1 <1>   0.0800 
 39 H        4.4180     1.4740    -1.2940 H     1 <1>   0.0800 
 40 H        7.8360    -1.9570    -1.2560 H     1 <1>   0.0800 
 41 H        7.5470    -1.4010     0.3490 H     1 <1>   0.0800 
 42 H       -5.3980    -4.3720     1.3180 H     1 <1>   0.1500 
 43 H        6.4810     0.7460     0.7550 H     1 <1>   0.0800 
 44 H        6.5180     1.9590    -0.4710 H     1 <1>   0.0800 
 45 H        6.6030     0.0100    -2.1870 H     1 <1>   0.0800 
 46 H        8.0180     0.4050    -1.2720 H     1 <1>   0.0800 
@<TRIPOS>BOND
  1   1   2  2   
  2   2   3  am  
  3   2   4  1   
  4   3   5  1   
  5   3  24  1   
  6   4   6  ar  
  7   4   7  ar  
  8   5   8  1   
  9   5  25  1   
 10   5  26  1   
 11   6   9  ar  
 12   6  27  1   
 13   7  10  ar  
 14   7  28  1   
 15   8  11  1   
 16   8  29  1   
 17   8  30  1   
 18   9  12  ar  
 19   9  31  1   
 20  10  12  ar  
 21  10  32  1   
 22  11  13  1   
 23  11  14  1   
 24  11  33  1   
 25  12  15  1   
 26  13  16  1   
 27  13  34  1   
 28  13  35  1   
 29  14  17  1   
 30  14  36  1   
 31  14  37  1   
 32  15  18  1   
 33  15  19  1   
 34  16  20  1   
 35  16  38  1   
 36  16  39  1   
 37  17  21  1   
 38  17  40  1   
 39  17  41  1   
 40  18  22  2   
 41  19  23  2   
 42  19  42  1   
 43  20  21  1   
 44  20  43  1   
 45  20  44  1   
 46  21  45  1   
 47  21  46  1   
 48  22  23  1   
@<TRIPOS>SUBSTRUCTURE
  1 ****   2 GROUP 4 **** **** 0

# MOE 2024.06 (io_trps.svl 2023.06)
