@<TRIPOS>MOLECULE
ka-04911
23 23 1 0 0 
SMALL
USER_CHARGES


@<TRIPOS>ATOM
  1 O        0.3100     0.2650    -0.1180 O.2   1 <1>  -0.5700 
  2 C        1.3730     0.8580    -0.0280 C.2   1 <1>   0.6900 
  3 N        1.4040     2.2500     0.0040 N.am  1 <1>  -0.4690 
  4 N        2.5510     0.1390     0.0390 N.am  1 <1>  -0.4200 
  5 C        2.6140     2.9280     0.0290 C.2   1 <1>   0.2090 
  6 C        0.1130     3.0060     0.0250 C.3   1 <1>   0.0600 
  7 C        3.7620     0.8040     0.0690 C.2   1 <1>   0.6160 
  8 C        2.5260    -1.3530     0.0300 C.3   1 <1>   0.0600 
  9 N        2.5770     4.2990     0.0070 N.pl3 1 <1>  -0.8690 
 10 C        3.7670     2.2070     0.0620 C.2   1 <1>  -0.1360 
 11 O        4.8090     0.1700     0.0950 O.2   1 <1>  -0.5700 
 12 C        3.7370     5.2210     0.0970 C.3   1 <1>   0.1290 
 13 H       -0.7270     2.3510     0.1730 H     1 <1>   0.0800 
 14 H       -0.0140     3.5210    -0.9100 H     1 <1>   0.0800 
 15 H        0.1250     3.7170     0.8320 H     1 <1>   0.0800 
 16 H        1.6060    -1.7180     0.4520 H     1 <1>   0.0800 
 17 H        3.3430    -1.7440     0.6100 H     1 <1>   0.0800 
 18 H        2.6130    -1.7040    -0.9830 H     1 <1>   0.0800 
 19 H        1.6720     4.7540    -0.1410 H     1 <1>   0.4000 
 20 H        4.7280     2.6750     0.0780 H     1 <1>   0.1500 
 21 H        4.4700     4.8340     0.7830 H     1 <1>   0.0800 
 22 H        3.4100     6.1830     0.4520 H     1 <1>   0.0800 
 23 H        4.1850     5.3380    -0.8750 H     1 <1>   0.0800 
@<TRIPOS>BOND
  1   1   2  2   
  2   2   3  am  
  3   2   4  am  
  4   3   5  1   
  5   3   6  1   
  6   4   7  am  
  7   4   8  1   
  8   5   9  1   
  9   5  10  2   
 10   6  13  1   
 11   6  14  1   
 12   6  15  1   
 13   7  10  1   
 14   7  11  2   
 15   8  16  1   
 16   8  17  1   
 17   8  18  1   
 18   9  12  1   
 19   9  19  1   
 20  10  20  1   
 21  12  21  1   
 22  12  22  1   
 23  12  23  1   
@<TRIPOS>SUBSTRUCTURE
  1 ****   3 GROUP 4 **** **** 0

# MOE 2024.06 (io_trps.svl 2023.06)
