@<TRIPOS>MOLECULE
NONAME
38 41 1 0 0 
SMALL
USER_CHARGES


@<TRIPOS>ATOM
  1 BR      -0.2840     0.6040    -1.6960 Br    1 <1>  -0.1110 
  2 C       -1.4630     1.7350    -0.6740 C.ar  1 <1>   0.1110 
  3 C       -2.7970     1.7790    -1.0070 C.ar  1 <1>  -0.1500 
  4 C       -0.9160     2.4720     0.3760 C.ar  1 <1>  -0.1500 
  5 C       -3.6300     2.6060    -0.2510 C.ar  1 <1>   0.0000 
  6 C       -1.7370     3.2890     1.1230 C.ar  1 <1>  -0.1500 
  7 C       -5.0200     2.9020    -0.2970 C.ar  1 <1>   0.2560 
  8 C       -3.0950     3.3500     0.8020 C.ar  1 <1>  -0.1520 
  9 N       -5.9900     2.4630    -1.1070 N.ar  1 <1>  -0.2560 
 10 C       -5.2760     3.8050     0.7180 C.ar  1 <1>   0.1050 
 11 N       -4.1160     4.0770     1.3830 N.pl3 1 <1>   0.0330 
 12 N       -7.1800     2.9420    -0.8800 N.ar  1 <1>  -0.3100 
 13 N       -6.4860     4.3030     0.9690 N.ar  1 <1>  -0.5670 
 14 C       -7.3700     3.8270     0.1300 C.ar  1 <1>   0.7220 
 15 S       -9.0430     4.4090     0.3510 S.3   1 <1>  -0.3320 
 16 C      -10.0030     3.5820    -1.0110 C.3   1 <1>   0.1310 
 17 C      -11.4750     3.9630    -0.9480 C.2   1 <1>   0.5690 
 18 O      -11.9090     4.6190    -1.8660 O.2   1 <1>  -0.5700 
 19 N      -12.2820     3.5610     0.0900 N.am  1 <1>  -0.6600 
 20 C      -11.8540     2.7390     1.2630 C.3   1 <1>   0.1400 
 21 C      -13.7140     3.9800     0.1680 C.3   1 <1>   0.1400 
 22 C      -12.8650     1.6110     1.5370 C.3   1 <1>   0.1200 
 23 C      -14.6160     2.7790     0.5000 C.3   1 <1>   0.1200 
 24 O      -14.1620     2.1220     1.6500 O.3   1 <1>  -0.5600 
 25 H       -3.1940     1.2000    -1.8220 H     1 <1>   0.1500 
 26 H        0.1360     2.3930     0.5860 H     1 <1>   0.1500 
 27 H       -1.3430     3.8700     1.9390 H     1 <1>   0.1500 
 28 H       -4.0410     4.7190     2.1760 H     1 <1>   0.2700 
 29 H       -9.8790     2.5210    -0.9090 H     1 <1>   0.0800 
 30 H       -9.5760     3.9110    -1.9410 H     1 <1>   0.0800 
 31 H      -11.7900     3.3720     2.1310 H     1 <1>   0.0800 
 32 H      -10.8860     2.3040     1.0990 H     1 <1>   0.0800 
 33 H      -14.0350     4.4140    -0.7620 H     1 <1>   0.0800 
 34 H      -13.8220     4.7260     0.9360 H     1 <1>   0.0800 
 35 H      -12.6260     1.1170     2.4620 H     1 <1>   0.0800 
 36 H      -12.8490     0.8860     0.7430 H     1 <1>   0.0800 
 37 H      -14.6280     2.0800    -0.3170 H     1 <1>   0.0800 
 38 H      -15.6210     3.1120     0.6860 H     1 <1>   0.0800 
@<TRIPOS>BOND
  1   1   2  1   
  2   2   3  ar  
  3   2   4  ar  
  4   3   5  ar  
  5   3  25  1   
  6   4   6  ar  
  7   4  26  1   
  8   5   7  1   
  9   5   8  ar  
 10   6   8  ar  
 11   6  27  1   
 12   7   9  ar  
 13   7  10  ar  
 14   8  11  1   
 15   9  12  ar  
 16  10  11  1   
 17  10  13  ar  
 18  11  28  1   
 19  12  14  ar  
 20  13  14  ar  
 21  14  15  1   
 22  15  16  1   
 23  16  17  1   
 24  16  29  1   
 25  16  30  1   
 26  17  18  2   
 27  17  19  am  
 28  19  20  1   
 29  19  21  1   
 30  20  22  1   
 31  20  31  1   
 32  20  32  1   
 33  21  23  1   
 34  21  33  1   
 35  21  34  1   
 36  22  24  1   
 37  22  35  1   
 38  22  36  1   
 39  23  24  1   
 40  23  37  1   
 41  23  38  1   
@<TRIPOS>SUBSTRUCTURE
  1 ****  14 GROUP 4 **** **** 0

# MOE 2024.06 (io_trps.svl 2023.06)
