@<TRIPOS>MOLECULE
2-[2-(1,3-Dicyclohexyl-ureido)-acetylamino]-4,5-dimethyl-thiophene-3-carboxylic acid amide
64 66 1 0 0 
SMALL
USER_CHARGES


@<TRIPOS>ATOM
  1 S        1.9610    -3.4110    -1.6250 S.3   1 <1>  -0.0800 
  2 C        1.7300    -2.1720    -0.4050 C.2   1 <1>   0.1040 
  3 C        0.5010    -2.9380    -2.4760 C.2   1 <1>  -0.1400 
  4 N        2.6630    -1.9920     0.6080 N.am  1 <1>  -0.4940 
  5 C        0.5810    -1.4730    -0.6450 C.2   1 <1>  -0.0860 
  6 C       -0.1010    -1.9140    -1.8410 C.2   1 <1>  -0.1810 
  7 C        0.1960    -3.7360    -3.7290 C.3   1 <1>  -0.0600 
  8 C        3.8570    -2.5980     0.9010 C.2   1 <1>   0.5690 
  9 C        0.1060    -0.4250     0.2160 C.2   1 <1>   0.7160 
 10 C       -1.3880    -1.2360    -2.2940 C.3   1 <1>  -0.0590 
 11 O        4.3280    -3.5240     0.2860 O.2   1 <1>  -0.5700 
 12 C        4.6550    -2.0360     2.0710 C.3   1 <1>   0.2010 
 13 O       -0.2520     0.6620    -0.1840 O.2   1 <1>  -0.5700 
 14 N        0.0390    -0.6190     1.5520 N.am  1 <1>  -0.8000 
 15 N        5.2820    -0.7070     1.7440 N.am  1 <1>  -0.6600 
 16 C        6.4650    -0.6820     1.0490 C.2   1 <1>   0.6900 
 17 C        4.6330     0.5940     2.1120 C.3   1 <1>   0.2200 
 18 O        7.1720     0.3080     1.0620 O.2   1 <1>  -0.5700 
 19 N        6.8270    -1.7670     0.3190 N.am  1 <1>  -0.7300 
 20 C        3.6020     0.4850     3.2500 C.3   1 <1>  -0.1600 
 21 C        4.0030     1.2330     0.8620 C.3   1 <1>  -0.1600 
 22 C        7.9910    -1.8400    -0.5720 C.3   1 <1>   0.2200 
 23 C        2.9910     1.8550     3.5750 C.3   1 <1>  -0.1600 
 24 C        3.3690     2.5940     1.1840 C.3   1 <1>  -0.1600 
 25 C        7.5110    -1.6760    -2.0180 C.3   1 <1>  -0.1600 
 26 C        8.6810    -3.1910    -0.3660 C.3   1 <1>  -0.1600 
 27 C        2.3550     2.4850     2.3290 C.3   1 <1>  -0.1600 
 28 C        8.6660    -1.8630    -3.0120 C.3   1 <1>  -0.1600 
 29 C        9.8390    -3.3820    -1.3560 C.3   1 <1>  -0.1600 
 30 C        9.3610    -3.2160    -2.8050 C.3   1 <1>  -0.1600 
 31 H        2.4910    -1.1630     1.1790 H     1 <1>   0.3700 
 32 H        0.0710    -4.7740    -3.4780 H     1 <1>   0.0800 
 33 H        1.0110    -3.6450    -4.4240 H     1 <1>   0.0800 
 34 H       -0.7000    -3.3870    -4.2050 H     1 <1>   0.0800 
 35 H       -1.8020    -1.7170    -3.1590 H     1 <1>   0.0800 
 36 H       -1.1920    -0.2080    -2.5420 H     1 <1>   0.0800 
 37 H       -2.1200    -1.2680    -1.5070 H     1 <1>   0.0800 
 38 H        5.4380    -2.7360     2.3060 H     1 <1>   0.0800 
 39 H        4.0340    -1.9810     2.9420 H     1 <1>   0.0800 
 40 H       -0.4360     0.1030     2.0950 H     1 <1>   0.3700 
 41 H       -0.0190    -1.5650     1.9260 H     1 <1>   0.3700 
 42 H        5.4090     1.2590     2.4560 H     1 <1>   0.0800 
 43 H        6.1210    -2.4870     0.1450 H     1 <1>   0.3700 
 44 H        4.0840     0.1000     4.1310 H     1 <1>   0.0800 
 45 H        2.8000    -0.1710     2.9690 H     1 <1>   0.0800 
 46 H        3.2490     0.5920     0.4500 H     1 <1>   0.0800 
 47 H        4.7640     1.3780     0.1140 H     1 <1>   0.0800 
 48 H        8.6840    -1.0490    -0.3340 H     1 <1>   0.0800 
 49 H        3.7600     2.5090     3.9510 H     1 <1>   0.0800 
 50 H        2.2460     1.7470     4.3450 H     1 <1>   0.0800 
 51 H        2.8800     2.9790     0.3050 H     1 <1>   0.0800 
 52 H        4.1450     3.2890     1.4590 H     1 <1>   0.0800 
 53 H        7.0910    -0.6930    -2.1400 H     1 <1>   0.0800 
 54 H        6.7460    -2.4030    -2.2270 H     1 <1>   0.0800 
 55 H        7.9660    -3.9840    -0.5060 H     1 <1>   0.0800 
 56 H        9.0590    -3.2460     0.6400 H     1 <1>   0.0800 
 57 H        1.9840     3.4660     2.5710 H     1 <1>   0.0800 
 58 H        1.5190     1.8900     2.0060 H     1 <1>   0.0800 
 59 H        9.3820    -1.0700    -2.8780 H     1 <1>   0.0800 
 60 H        8.2890    -1.8000    -4.0180 H     1 <1>   0.0800 
 61 H       10.2670    -4.3610    -1.2270 H     1 <1>   0.0800 
 62 H       10.6070    -2.6560    -1.1490 H     1 <1>   0.0800 
 63 H       10.2010    -3.2960    -3.4740 H     1 <1>   0.0800 
 64 H        8.6720    -4.0090    -3.0450 H     1 <1>   0.0800 
@<TRIPOS>BOND
  1   1   2  1   
  2   1   3  1   
  3   2   4  1   
  4   2   5  2   
  5   3   6  2   
  6   3   7  1   
  7   4   8  am  
  8   4  31  1   
  9   5   6  1   
 10   5   9  1   
 11   6  10  1   
 12   7  32  1   
 13   7  33  1   
 14   7  34  1   
 15   8  11  2   
 16   8  12  1   
 17   9  13  2   
 18   9  14  am  
 19  10  35  1   
 20  10  36  1   
 21  10  37  1   
 22  12  15  1   
 23  12  38  1   
 24  12  39  1   
 25  14  40  1   
 26  14  41  1   
 27  15  16  am  
 28  15  17  1   
 29  16  18  2   
 30  16  19  am  
 31  17  20  1   
 32  17  21  1   
 33  17  42  1   
 34  19  22  1   
 35  19  43  1   
 36  20  23  1   
 37  20  44  1   
 38  20  45  1   
 39  21  24  1   
 40  21  46  1   
 41  21  47  1   
 42  22  25  1   
 43  22  26  1   
 44  22  48  1   
 45  23  27  1   
 46  23  49  1   
 47  23  50  1   
 48  24  27  1   
 49  24  51  1   
 50  24  52  1   
 51  25  28  1   
 52  25  53  1   
 53  25  54  1   
 54  26  29  1   
 55  26  55  1   
 56  26  56  1   
 57  27  57  1   
 58  27  58  1   
 59  28  30  1   
 60  28  59  1   
 61  28  60  1   
 62  29  30  1   
 63  29  61  1   
 64  29  62  1   
 65  30  63  1   
 66  30  64  1   
@<TRIPOS>SUBSTRUCTURE
  1 ****   4 GROUP 4 **** **** 0

# MOE 2024.06 (io_trps.svl 2023.06)
