@<TRIPOS>MOLECULE
ka-04377
36 38 1 0 0 
SMALL
USER_CHARGES


@<TRIPOS>ATOM
  1 O       -0.7260    -0.0220     1.6900 O.2   1 <1>  -0.5700 
  2 C       -1.6600     0.6630     1.2980 C.2   1 <1>   0.6160 
  3 N       -2.7690     0.0800     0.7120 N.am  1 <1>  -0.4770 
  4 C       -1.6150     2.0720     1.4170 C.2   1 <1>  -0.1360 
  5 C       -3.8220     0.8650     0.2020 C.ar  1 <1>   0.1170 
  6 C       -2.8060    -1.4060     0.5920 C.3   1 <1>   0.1400 
  7 C       -2.6130     2.8580     0.9410 C.2   1 <1>   0.0480 
  8 C       -3.7660     2.2680     0.3190 C.ar  1 <1>   0.0280 
  9 C       -4.9330     0.2760    -0.4200 C.ar  1 <1>  -0.1440 
 10 C       -4.2440    -1.9250     0.5470 C.3   1 <1>  -0.1600 
 11 O       -2.5750     4.2080     1.0220 O.3   1 <1>  -0.2270 
 12 C       -4.8260     3.0310    -0.1790 C.ar  1 <1>  -0.1500 
 13 C       -5.9610     1.0570    -0.9060 C.ar  1 <1>  -0.1500 
 14 C       -5.0230    -1.2340    -0.5710 C.3   1 <1>  -0.0170 
 15 C       -1.4480     4.9330     1.0340 C.2   1 <1>   0.7800 
 16 C       -5.9090     2.4370    -0.7840 C.ar  1 <1>  -0.1500 
 17 O       -1.3510     5.7970     1.8810 O.2   1 <1>  -0.5700 
 18 N       -0.4490     4.6930     0.1100 N.am  1 <1>  -0.6600 
 19 C       -0.6640     3.9750    -1.1780 C.3   1 <1>   0.0600 
 20 C        0.9020     5.2980     0.2650 C.3   1 <1>   0.0600 
 21 H       -0.7440     2.4700     1.9020 H     1 <1>   0.1500 
 22 H       -2.3010    -1.8540     1.4320 H     1 <1>   0.0800 
 23 H       -2.2830    -1.6900    -0.3040 H     1 <1>   0.0800 
 24 H       -4.7170    -1.7320     1.4940 H     1 <1>   0.0800 
 25 H       -4.2380    -2.9880     0.3870 H     1 <1>   0.0800 
 26 H       -4.8000     4.1020    -0.0880 H     1 <1>   0.1500 
 27 H       -6.8130     0.6060    -1.3850 H     1 <1>   0.1500 
 28 H       -4.6130    -1.5130    -1.5260 H     1 <1>   0.0800 
 29 H       -6.0500    -1.5520    -0.5390 H     1 <1>   0.0800 
 30 H       -6.7190     3.0370    -1.1640 H     1 <1>   0.1500 
 31 H       -1.7140     3.8770    -1.3900 H     1 <1>   0.0800 
 32 H       -0.2220     2.9950    -1.1260 H     1 <1>   0.0800 
 33 H       -0.2080     4.5240    -1.9840 H     1 <1>   0.0800 
 34 H        1.0270     5.7000     1.2570 H     1 <1>   0.0800 
 35 H        1.0280     6.0930    -0.4480 H     1 <1>   0.0800 
 36 H        1.6580     4.5490     0.1030 H     1 <1>   0.0800 
@<TRIPOS>BOND
  1   1   2  2   
  2   2   3  am  
  3   2   4  1   
  4   3   5  1   
  5   3   6  1   
  6   4   7  2   
  7   4  21  1   
  8   5   8  ar  
  9   5   9  ar  
 10   6  10  1   
 11   6  22  1   
 12   6  23  1   
 13   7   8  1   
 14   7  11  1   
 15   8  12  ar  
 16   9  13  ar  
 17   9  14  1   
 18  10  14  1   
 19  10  24  1   
 20  10  25  1   
 21  11  15  1   
 22  12  16  ar  
 23  12  26  1   
 24  13  16  ar  
 25  13  27  1   
 26  14  28  1   
 27  14  29  1   
 28  15  17  2   
 29  15  18  am  
 30  16  30  1   
 31  18  19  1   
 32  18  20  1   
 33  19  31  1   
 34  19  32  1   
 35  19  33  1   
 36  20  34  1   
 37  20  35  1   
 38  20  36  1   
@<TRIPOS>SUBSTRUCTURE
  1 ****   8 GROUP 4 **** **** 0

# MOE 2024.06 (io_trps.svl 2023.06)
