@<TRIPOS>MOLECULE
NONAME
48 50 1 0 0 
SMALL
USER_CHARGES


@<TRIPOS>ATOM
  1 O        0.2780     0.2080     1.4230 O.2   1 <1>  -0.5700 
  2 C        1.2670     0.8100     1.0640 C.2   1 <1>   0.5690 
  3 N        1.2280     2.1450     0.7520 N.am  1 <1>  -0.4770 
  4 C        2.5860     0.0580     0.9030 C.3   1 <1>   0.1810 
  5 C        2.3730     2.7700     0.2110 C.ar  1 <1>   0.1170 
  6 C        0.0230     2.9500     1.1330 C.3   1 <1>   0.2010 
  7 O        3.7210     0.9180     0.9400 O.3   1 <1>  -0.3630 
  8 C        3.6140     2.1360     0.3420 C.ar  1 <1>   0.0830 
  9 C        2.3240     3.9910    -0.4570 C.ar  1 <1>  -0.1500 
 10 C       -1.1030     2.8300     0.1080 C.2   1 <1>   0.5690 
 11 C        4.7660     2.7290    -0.1360 C.ar  1 <1>  -0.1500 
 12 C        3.4780     4.5850    -0.9460 C.ar  1 <1>  -0.1440 
 13 O       -1.5050     3.8200    -0.4570 O.2   1 <1>  -0.5700 
 14 N       -1.6530     1.6080    -0.1350 N.am  1 <1>  -0.7300 
 15 C        4.6990     3.9530    -0.7790 C.ar  1 <1>  -0.1500 
 16 C        3.4110     5.9200    -1.6660 C.3   1 <1>  -0.0970 
 17 C       -2.4190     1.2150    -1.3530 C.3   1 <1>   0.1400 
 18 C       -3.5430     2.1880    -1.7800 C.3   1 <1>   0.3430 
 19 N       -4.6700     2.3010    -0.7930 N.4   1 <1>  -0.9590 
 20 C       -5.9230     2.8360    -1.4190 C.3   1 <1>   0.3430 
 21 C       -4.3110     3.1260     0.4120 C.3   1 <1>   0.3430 
 22 C       -7.0790     2.9170    -0.3950 C.3   1 <1>   0.1200 
 23 C       -5.5360     3.4040     1.3130 C.3   1 <1>   0.1200 
 24 O       -6.6390     2.6400     0.9080 O.3   1 <1>  -0.5600 
 25 H        2.5930    -0.4520    -0.0420 H     1 <1>   0.0800 
 26 H        2.6950    -0.6610     1.6940 H     1 <1>   0.0800 
 27 H        0.2920     3.9830     1.2540 H     1 <1>   0.0800 
 28 H       -0.3430     2.6050     2.0840 H     1 <1>   0.0800 
 29 H        1.3840     4.4870    -0.6100 H     1 <1>   0.1500 
 30 H        5.7110     2.2310    -0.0100 H     1 <1>   0.1500 
 31 H       -1.2000     0.8200     0.3650 H     1 <1>   0.3700 
 32 H        5.6010     4.4070    -1.1520 H     1 <1>   0.1500 
 33 H        3.4260     5.7600    -2.7300 H     1 <1>   0.0800 
 34 H        4.2520     6.5320    -1.3950 H     1 <1>   0.0800 
 35 H        2.5110     6.4490    -1.4090 H     1 <1>   0.0800 
 36 H       -2.8400     0.2360    -1.2000 H     1 <1>   0.0800 
 37 H       -1.7190     1.1350    -2.1680 H     1 <1>   0.0800 
 38 H       -3.9390     1.8300    -2.7160 H     1 <1>   0.0800 
 39 H       -3.1180     3.1610    -1.9660 H     1 <1>   0.0800 
 40 H       -4.9130     1.3730    -0.4180 H     1 <1>   0.4500 
 41 H       -6.2270     2.2110    -2.2430 H     1 <1>   0.0800 
 42 H       -5.7390     3.8230    -1.8120 H     1 <1>   0.0800 
 43 H       -3.8780     4.0640     0.1050 H     1 <1>   0.0800 
 44 H       -3.5690     2.6090     0.9960 H     1 <1>   0.0800 
 45 H       -7.8410     2.1960    -0.6380 H     1 <1>   0.0800 
 46 H       -7.5280     3.8950    -0.4060 H     1 <1>   0.0800 
 47 H       -5.8060     4.4460     1.2780 H     1 <1>   0.0800 
 48 H       -5.3110     3.1490     2.3340 H     1 <1>   0.0800 
@<TRIPOS>BOND
  1   1   2  2   
  2   2   3  am  
  3   2   4  1   
  4   3   5  1   
  5   3   6  1   
  6   4   7  1   
  7   4  25  1   
  8   4  26  1   
  9   5   8  ar  
 10   5   9  ar  
 11   6  10  1   
 12   6  27  1   
 13   6  28  1   
 14   7   8  1   
 15   8  11  ar  
 16   9  12  ar  
 17   9  29  1   
 18  10  13  2   
 19  10  14  am  
 20  11  15  ar  
 21  11  30  1   
 22  12  15  ar  
 23  12  16  1   
 24  14  17  1   
 25  14  31  1   
 26  15  32  1   
 27  16  33  1   
 28  16  34  1   
 29  16  35  1   
 30  17  18  1   
 31  17  36  1   
 32  17  37  1   
 33  18  19  1   
 34  18  38  1   
 35  18  39  1   
 36  19  20  1   
 37  19  21  1   
 38  19  40  1   
 39  20  22  1   
 40  20  41  1   
 41  20  42  1   
 42  21  23  1   
 43  21  43  1   
 44  21  44  1   
 45  22  24  1   
 46  22  45  1   
 47  22  46  1   
 48  23  24  1   
 49  23  47  1   
 50  23  48  1   
@<TRIPOS>SUBSTRUCTURE
  1 ****  10 GROUP 4 **** **** 0

# MOE 2024.06 (io_trps.svl 2023.06)
