@<TRIPOS>MOLECULE
4-(4-Methoxy-benzoylamino)-piperidine-1-carboxylic acid (4-chloro-phenyl)-amide
49 51 1 0 0 
SMALL
USER_CHARGES


@<TRIPOS>ATOM
  1 CL       1.0090     2.4750     1.9900 Cl    1 <1>  -0.1770 
  2 C        2.5680     1.8600     1.4970 C.ar  1 <1>   0.1770 
  3 C        3.6340     2.7320     1.3730 C.ar  1 <1>  -0.1500 
  4 C        2.7160     0.5110     1.2360 C.ar  1 <1>  -0.1500 
  5 C        4.8670     2.2410     0.9820 C.ar  1 <1>  -0.1500 
  6 C        3.9530     0.0300     0.8440 C.ar  1 <1>  -0.1500 
  7 C        5.0450     0.8860     0.7150 C.ar  1 <1>   0.1170 
  8 N        6.3100     0.4380     0.3080 N.am  1 <1>  -0.5470 
  9 C        6.9070    -0.7860     0.4090 C.2   1 <1>   0.6900 
 10 O        6.3930    -1.6790     1.0550 O.2   1 <1>  -0.5700 
 11 N        8.1200    -0.9840    -0.2050 N.am  1 <1>  -0.6600 
 12 C        8.6340    -0.1730    -1.3440 C.3   1 <1>   0.1400 
 13 C        8.9530    -2.1780     0.1160 C.3   1 <1>   0.1400 
 14 C       10.0490     0.3060    -1.0210 C.3   1 <1>  -0.1600 
 15 C       10.3800    -1.7290     0.4380 C.3   1 <1>  -0.1600 
 16 C       10.9540    -0.8850    -0.7010 C.3   1 <1>   0.2200 
 17 N       12.2830    -0.3860    -0.3110 N.am  1 <1>  -0.7300 
 18 C       13.3620    -0.2940    -1.1470 C.2   1 <1>   0.5440 
 19 O       13.2200    -0.6250    -2.3080 O.2   1 <1>  -0.5700 
 20 C       14.6440     0.1790    -0.6580 C.ar  1 <1>   0.0860 
 21 C       15.8350    -0.2330    -1.2590 C.ar  1 <1>  -0.1500 
 22 C       14.7500     1.0570     0.4250 C.ar  1 <1>  -0.1500 
 23 C       17.0650     0.1960    -0.7990 C.ar  1 <1>  -0.1500 
 24 C       15.9770     1.4910     0.8930 C.ar  1 <1>  -0.1500 
 25 C       17.1500     1.0580     0.2820 C.ar  1 <1>   0.0830 
 26 O       18.3880     1.4300     0.6750 O.3   1 <1>  -0.3620 
 27 C       18.5920     2.3170     1.7520 C.3   1 <1>   0.0400 
 28 H        3.4930     3.7770     1.5820 H     1 <1>   0.1500 
 29 H        1.8750    -0.1510     1.3390 H     1 <1>   0.1500 
 30 H        5.6980     2.9160     0.8880 H     1 <1>   0.1500 
 31 H        4.0680    -1.0190     0.6370 H     1 <1>   0.1500 
 32 H        6.9500     1.1550    -0.0090 H     1 <1>   0.3700 
 33 H        7.9970     0.6690    -1.5480 H     1 <1>   0.0800 
 34 H        8.6530    -0.7900    -2.2270 H     1 <1>   0.0800 
 35 H        8.9530    -2.8440    -0.7300 H     1 <1>   0.0800 
 36 H        8.5480    -2.7110     0.9600 H     1 <1>   0.0800 
 37 H       10.0130     0.9820    -0.1850 H     1 <1>   0.0800 
 38 H       10.4460     0.8320    -1.8720 H     1 <1>   0.0800 
 39 H       10.9950    -2.5990     0.5850 H     1 <1>   0.0800 
 40 H       10.3620    -1.1630     1.3510 H     1 <1>   0.0800 
 41 H       11.0460    -1.5020    -1.5810 H     1 <1>   0.0800 
 42 H       12.3980    -0.1780     0.6790 H     1 <1>   0.3700 
 43 H       15.7870    -0.9010    -2.1030 H     1 <1>   0.1500 
 44 H       13.8570     1.4150     0.9040 H     1 <1>   0.1500 
 45 H       17.9710    -0.1350    -1.2750 H     1 <1>   0.1500 
 46 H       16.0060     2.1650     1.7280 H     1 <1>   0.1500 
 47 H       19.6510     2.4630     1.8690 H     1 <1>   0.0800 
 48 H       18.1830     1.8820     2.6460 H     1 <1>   0.0800 
 49 H       18.1170     3.2560     1.5260 H     1 <1>   0.0800 
@<TRIPOS>BOND
  1   1   2  1   
  2   2   3  ar  
  3   2   4  ar  
  4   3   5  ar  
  5   3  28  1   
  6   4   6  ar  
  7   4  29  1   
  8   5   7  ar  
  9   5  30  1   
 10   6   7  ar  
 11   6  31  1   
 12   7   8  1   
 13   8   9  am  
 14   8  32  1   
 15   9  10  2   
 16   9  11  am  
 17  11  12  1   
 18  11  13  1   
 19  12  14  1   
 20  12  33  1   
 21  12  34  1   
 22  13  15  1   
 23  13  35  1   
 24  13  36  1   
 25  14  16  1   
 26  14  37  1   
 27  14  38  1   
 28  15  16  1   
 29  15  39  1   
 30  15  40  1   
 31  16  17  1   
 32  16  41  1   
 33  17  18  am  
 34  17  42  1   
 35  18  19  2   
 36  18  20  1   
 37  20  21  ar  
 38  20  22  ar  
 39  21  23  ar  
 40  21  43  1   
 41  22  24  ar  
 42  22  44  1   
 43  23  25  ar  
 44  23  45  1   
 45  24  25  ar  
 46  24  46  1   
 47  25  26  1   
 48  26  27  1   
 49  27  47  1   
 50  27  48  1   
 51  27  49  1   
@<TRIPOS>SUBSTRUCTURE
  1 ****  14 GROUP 4 **** **** 0

# MOE 2024.06 (io_trps.svl 2023.06)
