@<TRIPOS>MOLECULE
10039
51 52 1 0 0 
SMALL
USER_CHARGES


@<TRIPOS>ATOM
  1 O        1.6050     0.1990     0.8900 O.2   1 <1>  -0.5700 
  2 C        2.2210    -0.7270     0.4120 C.2   1 <1>   0.6340 
  3 O        3.5040    -0.5070     0.1110 O.3   1 <1>  -0.4300 
  4 C        1.6240    -2.0280     0.1990 C.ar  1 <1>   0.0860 
  5 C        4.4850    -1.5180     0.1760 C.3   1 <1>   0.1200 
  6 C        1.7670    -2.7250    -1.0030 C.ar  1 <1>  -0.1500 
  7 C        0.8630    -2.6370     1.1980 C.ar  1 <1>  -0.1500 
  8 C        5.8580    -0.8480     0.1470 C.3   1 <1>  -0.1600 
  9 C        1.2080    -3.9750    -1.1840 C.ar  1 <1>  -0.1500 
 10 C        0.3020    -3.8870     1.0180 C.ar  1 <1>  -0.1500 
 11 C        6.9860    -1.8830     0.2160 C.3   1 <1>  -0.2400 
 12 C        0.4720    -4.5850    -0.1720 C.ar  1 <1>   0.1170 
 13 N       -0.1120    -5.8480    -0.3000 N.am  1 <1>  -0.5470 
 14 C        0.0970    -6.8760    -1.1820 C.2   1 <1>   0.5690 
 15 O        0.9180    -6.8460    -2.0660 O.2   1 <1>  -0.5700 
 16 C       -0.7530    -8.1300    -1.0280 C.3   1 <1>   0.1810 
 17 O       -1.5850    -8.0390     0.1210 O.3   1 <1>  -0.3630 
 18 C       -2.4260    -9.0800     0.3090 C.ar  1 <1>   0.0830 
 19 C       -3.6830    -9.0820    -0.2970 C.ar  1 <1>  -0.1430 
 20 C       -2.0120   -10.1360     1.1160 C.ar  1 <1>  -0.1430 
 21 C       -4.5140   -10.1860    -0.1220 C.ar  1 <1>  -0.1430 
 22 C       -4.1480    -7.8940    -1.1390 C.3   1 <1>  -0.0970 
 23 C       -2.8550   -11.2190     1.2850 C.ar  1 <1>  -0.1500 
 24 C       -0.6590   -10.1250     1.8150 C.3   1 <1>  -0.0970 
 25 C       -4.0910   -11.2440     0.6680 C.ar  1 <1>  -0.1500 
 26 C       -5.8890   -10.2740    -0.7720 C.3   1 <1>  -0.0970 
 27 H        4.3700    -2.1730    -0.6700 H     1 <1>   0.0800 
 28 H        4.3520    -2.0710     1.0910 H     1 <1>   0.0800 
 29 H        2.3200    -2.2740    -1.8080 H     1 <1>   0.1500 
 30 H        0.7150    -2.1120     2.1260 H     1 <1>   0.1500 
 31 H        5.9410    -0.1760     0.9850 H     1 <1>   0.0800 
 32 H        5.9550    -0.2780    -0.7600 H     1 <1>   0.0800 
 33 H        1.3430    -4.4750    -2.1260 H     1 <1>   0.1500 
 34 H       -0.2730    -4.3270     1.8120 H     1 <1>   0.1500 
 35 H        6.9200    -2.4530     1.1270 H     1 <1>   0.0800 
 36 H        7.9400    -1.3870     0.1940 H     1 <1>   0.0800 
 37 H        6.9330    -2.5570    -0.6210 H     1 <1>   0.0800 
 38 H       -0.8080    -6.0870     0.4100 H     1 <1>   0.3700 
 39 H       -0.1170    -8.9890    -0.9220 H     1 <1>   0.0800 
 40 H       -1.3760    -8.2520    -1.8950 H     1 <1>   0.0800 
 41 H       -4.0530    -8.1280    -2.1830 H     1 <1>   0.0800 
 42 H       -3.5740    -7.0100    -0.9310 H     1 <1>   0.0800 
 43 H       -5.1740    -7.6590    -0.9260 H     1 <1>   0.0800 
 44 H       -2.5560   -12.0500     1.8980 H     1 <1>   0.1500 
 45 H       -0.4760    -9.1610     2.2540 H     1 <1>   0.0800 
 46 H        0.1210   -10.3420     1.1090 H     1 <1>   0.0800 
 47 H       -0.6280   -10.8600     2.5980 H     1 <1>   0.0800 
 48 H       -4.7270   -12.0990     0.8130 H     1 <1>   0.1500 
 49 H       -6.5590    -9.5730    -0.3080 H     1 <1>   0.0800 
 50 H       -6.3030   -11.2600    -0.6650 H     1 <1>   0.0800 
 51 H       -5.8200   -10.0550    -1.8220 H     1 <1>   0.0800 
@<TRIPOS>BOND
  1   1   2  2   
  2   2   3  1   
  3   2   4  1   
  4   3   5  1   
  5   4   6  ar  
  6   4   7  ar  
  7   5   8  1   
  8   5  27  1   
  9   5  28  1   
 10   6   9  ar  
 11   6  29  1   
 12   7  10  ar  
 13   7  30  1   
 14   8  11  1   
 15   8  31  1   
 16   8  32  1   
 17   9  12  ar  
 18   9  33  1   
 19  10  12  ar  
 20  10  34  1   
 21  11  35  1   
 22  11  36  1   
 23  11  37  1   
 24  12  13  1   
 25  13  14  am  
 26  13  38  1   
 27  14  15  2   
 28  14  16  1   
 29  16  17  1   
 30  16  39  1   
 31  16  40  1   
 32  17  18  1   
 33  18  19  ar  
 34  18  20  ar  
 35  19  21  ar  
 36  19  22  1   
 37  20  23  ar  
 38  20  24  1   
 39  21  25  ar  
 40  21  26  1   
 41  22  41  1   
 42  22  42  1   
 43  22  43  1   
 44  23  25  ar  
 45  23  44  1   
 46  24  45  1   
 47  24  46  1   
 48  24  47  1   
 49  25  48  1   
 50  26  49  1   
 51  26  50  1   
 52  26  51  1   
@<TRIPOS>SUBSTRUCTURE
  1 ****  13 GROUP 4 **** **** 0

# MOE 2024.06 (io_trps.svl 2023.06)
