@<TRIPOS>MOLECULE
Pyrrolidine-1,2-dicarboxylic acid 2-o-tolylamide 1-p-tolylamide
48 50 1 0 0 
SMALL
USER_CHARGES


@<TRIPOS>ATOM
  1 O        3.6260    -1.1890    -1.9790 O.2   1 <1>  -0.5700 
  2 C        3.7060    -0.1970    -1.2830 C.2   1 <1>   0.6900 
  3 N        4.2070    -0.2880    -0.0130 N.am  1 <1>  -0.6600 
  4 N        3.2720     0.9750    -1.8170 N.am  1 <1>  -0.5470 
  5 C        4.6570    -1.5950     0.5780 C.3   1 <1>   0.2810 
  6 C        4.8750     0.8470     0.6680 C.3   1 <1>   0.1400 
  7 C        2.6550     2.0710    -1.2040 C.ar  1 <1>   0.1170 
  8 C        3.5190    -2.5670     0.9780 C.2   1 <1>   0.5690 
  9 C        5.5620    -1.1800     1.7490 C.3   1 <1>  -0.1600 
 10 C        6.0520     0.2200     1.4010 C.3   1 <1>  -0.1600 
 11 C        2.8250     3.3410    -1.7380 C.ar  1 <1>  -0.1500 
 12 C        1.8570     1.9240    -0.0750 C.ar  1 <1>  -0.1500 
 13 O        3.6040    -3.1800     2.0180 O.2   1 <1>  -0.5700 
 14 N        2.4710    -2.7240     0.1100 N.am  1 <1>  -0.5470 
 15 C        2.2240     4.4400    -1.1530 C.ar  1 <1>  -0.1500 
 16 C        1.2560     3.0230     0.5130 C.ar  1 <1>  -0.1500 
 17 C        1.2770    -3.4640     0.1650 C.ar  1 <1>   0.1170 
 18 C        1.4390     4.2880    -0.0210 C.ar  1 <1>  -0.1440 
 19 C        0.5560    -3.6900    -1.0100 C.ar  1 <1>  -0.1440 
 20 C        0.7750    -3.9690     1.3610 C.ar  1 <1>  -0.1500 
 21 C        0.7780     5.4950     0.6210 C.3   1 <1>  -0.0970 
 22 C       -0.6290    -4.4090    -0.9690 C.ar  1 <1>  -0.1500 
 23 C        1.0440    -3.1600    -2.3530 C.3   1 <1>  -0.0970 
 24 C       -0.4060    -4.6860     1.3950 C.ar  1 <1>  -0.1500 
 25 C       -1.1110    -4.9080     0.2270 C.ar  1 <1>  -0.1500 
 26 H        3.1600     0.9120    -2.8260 H     1 <1>   0.3700 
 27 H        5.2640    -2.0960    -0.1560 H     1 <1>   0.0800 
 28 H        4.1900     1.2900     1.3710 H     1 <1>   0.0800 
 29 H        5.2040     1.5950    -0.0350 H     1 <1>   0.0800 
 30 H        6.3670    -1.8790     1.8910 H     1 <1>   0.0800 
 31 H        4.9830    -1.1350     2.6550 H     1 <1>   0.0800 
 32 H        6.3280     0.7870     2.2720 H     1 <1>   0.0800 
 33 H        6.8940     0.1630     0.7340 H     1 <1>   0.0800 
 34 H        3.4350     3.4710    -2.6140 H     1 <1>   0.1500 
 35 H        1.7020     0.9460     0.3450 H     1 <1>   0.1500 
 36 H        2.6170    -2.2350    -0.7820 H     1 <1>   0.3700 
 37 H        2.3690     5.4170    -1.5810 H     1 <1>   0.1500 
 38 H        0.6430     2.8880     1.3860 H     1 <1>   0.1500 
 39 H        1.3030    -3.8010     2.2810 H     1 <1>   0.1500 
 40 H        1.3800     6.3740     0.4770 H     1 <1>   0.0800 
 41 H        0.6540     5.3390     1.6780 H     1 <1>   0.0800 
 42 H       -0.1880     5.6590     0.1790 H     1 <1>   0.0800 
 43 H       -1.1880    -4.5880    -1.8710 H     1 <1>   0.1500 
 44 H        2.0480    -3.4960    -2.5430 H     1 <1>   0.0800 
 45 H        1.0300    -2.0840    -2.3500 H     1 <1>   0.0800 
 46 H        0.4190    -3.5040    -3.1570 H     1 <1>   0.0800 
 47 H       -0.7750    -5.0700     2.3300 H     1 <1>   0.1500 
 48 H       -2.0300    -5.4670     0.2490 H     1 <1>   0.1500 
@<TRIPOS>BOND
  1   1   2  2   
  2   2   3  am  
  3   2   4  am  
  4   3   5  1   
  5   3   6  1   
  6   4   7  1   
  7   4  26  1   
  8   5   8  1   
  9   5   9  1   
 10   5  27  1   
 11   6  10  1   
 12   6  28  1   
 13   6  29  1   
 14   7  11  ar  
 15   7  12  ar  
 16   8  13  2   
 17   8  14  am  
 18   9  10  1   
 19   9  30  1   
 20   9  31  1   
 21  10  32  1   
 22  10  33  1   
 23  11  15  ar  
 24  11  34  1   
 25  12  16  ar  
 26  12  35  1   
 27  14  17  1   
 28  14  36  1   
 29  15  18  ar  
 30  15  37  1   
 31  16  18  ar  
 32  16  38  1   
 33  17  19  ar  
 34  17  20  ar  
 35  18  21  1   
 36  19  22  ar  
 37  19  23  1   
 38  20  24  ar  
 39  20  39  1   
 40  21  40  1   
 41  21  41  1   
 42  21  42  1   
 43  22  25  ar  
 44  22  43  1   
 45  23  44  1   
 46  23  45  1   
 47  23  46  1   
 48  24  25  ar  
 49  24  47  1   
 50  25  48  1   
@<TRIPOS>SUBSTRUCTURE
  1 ****   2 GROUP 4 **** **** 0

# MOE 2024.06 (io_trps.svl 2023.06)
