@<TRIPOS>MOLECULE
NONAME
37 37 1 0 0 
SMALL
USER_CHARGES


@<TRIPOS>ATOM
  1 N       -0.2290     0.3110     0.5390 N.ar  1 <1>  -0.6200 
  2 C        0.0280     1.6070     0.3190 C.ar  1 <1>   0.4100 
  3 C        0.7560    -0.5340     0.3910 C.ar  1 <1>   0.5280 
  4 N       -0.9700     2.4850     0.5030 N.pl3 1 <1>  -0.8690 
  5 C        1.2950     2.0340    -0.0850 C.ar  1 <1>  -0.1500 
  6 N        2.0020    -0.1700     0.0140 N.ar  1 <1>  -0.1790 
  7 C        0.4940    -2.0110     0.6530 C.3   1 <1>  -0.0160 
  8 C       -2.3060     2.1900     1.0850 C.3   1 <1>   0.2090 
  9 C        2.2960     1.1220    -0.2370 C.ar  1 <1>   0.2180 
 10 C        0.5410    -2.8520    -0.6340 C.3   1 <1>  -0.1600 
 11 C       -3.1930     1.4620     0.0570 C.3   1 <1>   0.3430 
 12 C        3.7050     1.4950    -0.6670 C.3   1 <1>  -0.0970 
 13 C        0.2600    -4.3310    -0.3410 C.3   1 <1>  -0.1600 
 14 N       -4.5580     1.1530     0.5870 N.4   1 <1>  -0.8530 
 15 C        0.3160    -5.1640    -1.6240 C.3   1 <1>  -0.2400 
 16 H       -0.7820     3.4870     0.3620 H     1 <1>   0.4000 
 17 H        1.4580     3.0820    -0.2640 H     1 <1>   0.1500 
 18 H        2.7180    -0.8910    -0.0820 H     1 <1>   0.4570 
 19 H       -0.4760    -2.1190     1.1060 H     1 <1>   0.0800 
 20 H        1.2160    -2.3810     1.3600 H     1 <1>   0.0800 
 21 H       -2.7650     3.1170     1.3830 H     1 <1>   0.0800 
 22 H       -2.1740     1.5730     1.9580 H     1 <1>   0.0800 
 23 H        1.5070    -2.7710    -1.1030 H     1 <1>   0.0800 
 24 H       -0.1970    -2.4860    -1.3280 H     1 <1>   0.0800 
 25 H       -2.7010     0.5450    -0.2250 H     1 <1>   0.0800 
 26 H       -3.2790     2.0800    -0.8220 H     1 <1>   0.0800 
 27 H        3.7820     2.5560    -0.8290 H     1 <1>   0.0800 
 28 H        3.9630     0.9980    -1.5860 H     1 <1>   0.0800 
 29 H        4.4170     1.2210     0.0920 H     1 <1>   0.0800 
 30 H       -0.7160    -4.4410     0.1020 H     1 <1>   0.0800 
 31 H        0.9860    -4.7170     0.3560 H     1 <1>   0.0800 
 32 H       -4.5120     0.5460     1.4150 H     1 <1>   0.4500 
 33 H       -5.1150     0.6600    -0.1230 H     1 <1>   0.4500 
 34 H       -5.0710     2.0060     0.8390 H     1 <1>   0.4500 
 35 H       -0.4190    -4.8230    -2.3330 H     1 <1>   0.0800 
 36 H        0.1140    -6.1970    -1.4000 H     1 <1>   0.0800 
 37 H        1.2900    -5.1030    -2.0780 H     1 <1>   0.0800 
@<TRIPOS>BOND
  1   1   2  ar  
  2   1   3  ar  
  3   2   4  1   
  4   2   5  ar  
  5   3   6  ar  
  6   3   7  1   
  7   4   8  1   
  8   4  16  1   
  9   5   9  ar  
 10   5  17  1   
 11   6   9  ar  
 12   6  18  1   
 13   7  10  1   
 14   7  19  1   
 15   7  20  1   
 16   8  11  1   
 17   8  21  1   
 18   8  22  1   
 19   9  12  1   
 20  10  13  1   
 21  10  23  1   
 22  10  24  1   
 23  11  14  1   
 24  11  25  1   
 25  11  26  1   
 26  12  27  1   
 27  12  28  1   
 28  12  29  1   
 29  13  15  1   
 30  13  30  1   
 31  13  31  1   
 32  14  32  1   
 33  14  33  1   
 34  14  34  1   
 35  15  35  1   
 36  15  36  1   
 37  15  37  1   
@<TRIPOS>SUBSTRUCTURE
  1 ****   1 GROUP 4 **** **** 0

# MOE 2024.06 (io_trps.svl 2023.06)
