@<TRIPOS>MOLECULE
2-Chloro-N-(4-methyl-benzyl)-acetamide
25 25 1 0 0 
SMALL
USER_CHARGES


@<TRIPOS>ATOM
  1 CL      -2.8740     0.5350    -1.5860 Cl    1 <1>  -0.2900 
  2 C       -1.8180    -0.1090    -0.3240 C.3   1 <1>   0.1910 
  3 C       -2.4630    -1.2800     0.4060 C.2   1 <1>   0.5690 
  4 O       -1.8370    -1.8240     1.2830 O.2   1 <1>  -0.5700 
  5 N       -3.7100    -1.6940     0.0700 N.am  1 <1>  -0.7300 
  6 C       -4.4460    -2.7790     0.7340 C.3   1 <1>   0.2840 
  7 C       -5.9160    -2.6280     0.3890 C.ar  1 <1>  -0.1430 
  8 C       -6.7270    -1.7910     1.1390 C.ar  1 <1>  -0.1500 
  9 C       -6.4610    -3.3160    -0.6840 C.ar  1 <1>  -0.1500 
 10 C       -8.0670    -1.6480     0.8230 C.ar  1 <1>  -0.1500 
 11 C       -7.8010    -3.1720    -0.9990 C.ar  1 <1>  -0.1500 
 12 C       -8.6120    -2.3390    -0.2470 C.ar  1 <1>  -0.1430 
 13 C      -10.0810    -2.1790    -0.5940 C.3   1 <1>  -0.0970 
 14 H       -1.6140     0.6860     0.3670 H     1 <1>   0.0800 
 15 H       -0.9060    -0.4270    -0.7930 H     1 <1>   0.0800 
 16 H       -4.2360    -1.2030    -0.6600 H     1 <1>   0.3700 
 17 H       -4.3010    -2.7220     1.7990 H     1 <1>   0.0800 
 18 H       -4.0740    -3.7280     0.3890 H     1 <1>   0.0800 
 19 H       -6.3170    -1.2450     1.9710 H     1 <1>   0.1500 
 20 H       -5.8450    -3.9660    -1.2800 H     1 <1>   0.1500 
 21 H       -8.6830    -0.9940     1.4140 H     1 <1>   0.1500 
 22 H       -8.2100    -3.7120    -1.8350 H     1 <1>   0.1500 
 23 H      -10.2030    -1.3680    -1.2880 H     1 <1>   0.0800 
 24 H      -10.6550    -1.9710     0.2910 H     1 <1>   0.0800 
 25 H      -10.4610    -3.0800    -1.0410 H     1 <1>   0.0800 
@<TRIPOS>BOND
  1   1   2  1   
  2   2   3  1   
  3   2  14  1   
  4   2  15  1   
  5   3   4  2   
  6   3   5  am  
  7   5   6  1   
  8   5  16  1   
  9   6   7  1   
 10   6  17  1   
 11   6  18  1   
 12   7   8  ar  
 13   7   9  ar  
 14   8  10  ar  
 15   8  19  1   
 16   9  11  ar  
 17   9  20  1   
 18  10  12  ar  
 19  10  21  1   
 20  11  12  ar  
 21  11  22  1   
 22  12  13  1   
 23  13  23  1   
 24  13  24  1   
 25  13  25  1   
@<TRIPOS>SUBSTRUCTURE
  1 ****   7 GROUP 4 **** **** 0

# MOE 2024.06 (io_trps.svl 2023.06)
