@<TRIPOS>MOLECULE
4-(4-Fluoro-benzoyl)-piperidine-1-carboxylic acid m-tolylamide
46 48 1 0 0 
SMALL
USER_CHARGES


@<TRIPOS>ATOM
  1 F        1.2430    -3.8800     0.1720 F     1 <1>  -0.1900 
  2 C       -0.0220    -3.6270     0.3510 C.ar  1 <1>   0.1900 
  3 C       -0.3920    -2.4390     0.9460 C.ar  1 <1>  -0.1500 
  4 C       -0.9550    -4.5580    -0.0580 C.ar  1 <1>  -0.1500 
  5 C       -1.7390    -2.1820     1.1290 C.ar  1 <1>  -0.1500 
  6 C       -2.2980    -4.2850     0.1340 C.ar  1 <1>  -0.1500 
  7 C       -2.7290    -3.0870     0.7250 C.ar  1 <1>   0.0860 
  8 C       -4.1260    -2.7580     0.9370 C.2   1 <1>   0.4230 
  9 O       -4.4730    -1.9380     1.7500 O.2   1 <1>  -0.5700 
 10 C       -5.2230    -3.4450     0.1110 C.3   1 <1>  -0.0190 
 11 C       -6.3380    -2.4610    -0.3020 C.3   1 <1>  -0.1600 
 12 C       -5.8340    -4.6300     0.8840 C.3   1 <1>  -0.1600 
 13 C       -7.4400    -3.1650    -1.0970 C.3   1 <1>   0.1400 
 14 C       -6.9530    -5.3150     0.0930 C.3   1 <1>   0.1400 
 15 N       -7.9680    -4.3040    -0.3010 N.am  1 <1>  -0.6600 
 16 C       -9.3030    -4.5250    -0.0730 C.2   1 <1>   0.6900 
 17 O       -9.7150    -5.6560     0.1040 O.2   1 <1>  -0.5700 
 18 N      -10.1370    -3.4460    -0.0160 N.am  1 <1>  -0.5470 
 19 C      -11.5330    -3.3480     0.0660 C.ar  1 <1>   0.1170 
 20 C      -12.0940    -2.1820     0.5750 C.ar  1 <1>  -0.1500 
 21 C      -12.3860    -4.3600    -0.3610 C.ar  1 <1>  -0.1500 
 22 C      -13.4670    -2.0230     0.6630 C.ar  1 <1>  -0.1430 
 23 C      -13.7580    -4.2100    -0.2770 C.ar  1 <1>  -0.1500 
 24 C      -14.2990    -3.0430     0.2330 C.ar  1 <1>  -0.1500 
 25 C      -14.0680    -0.7460     1.2230 C.3   1 <1>  -0.0970 
 26 H        0.3590    -1.7350     1.2590 H     1 <1>   0.1500 
 27 H       -0.6280    -5.4770    -0.5130 H     1 <1>   0.1500 
 28 H       -2.0370    -1.2580     1.5970 H     1 <1>   0.1500 
 29 H       -3.0110    -5.0260    -0.1770 H     1 <1>   0.1500 
 30 H       -4.7880    -3.8160    -0.7980 H     1 <1>   0.0800 
 31 H       -5.9200    -1.6690    -0.8970 H     1 <1>   0.0800 
 32 H       -6.7770    -2.0130     0.5740 H     1 <1>   0.0800 
 33 H       -6.2390    -4.2790     1.8180 H     1 <1>   0.0800 
 34 H       -5.0740    -5.3550     1.1160 H     1 <1>   0.0800 
 35 H       -7.0380    -3.5460    -2.0200 H     1 <1>   0.0800 
 36 H       -8.2210    -2.4670    -1.3440 H     1 <1>   0.0800 
 37 H       -7.4030    -6.0820     0.7020 H     1 <1>   0.0800 
 38 H       -6.5580    -5.7800    -0.7930 H     1 <1>   0.0800 
 39 H       -9.6300    -2.5810     0.1240 H     1 <1>   0.3700 
 40 H      -11.4460    -1.3930     0.9090 H     1 <1>   0.1500 
 41 H      -11.9790    -5.2700    -0.7630 H     1 <1>   0.1500 
 42 H      -14.4040    -5.0040    -0.6100 H     1 <1>   0.1500 
 43 H      -15.3670    -2.9340     0.2950 H     1 <1>   0.1500 
 44 H      -13.3180    -0.1480     1.7070 H     1 <1>   0.0800 
 45 H      -14.8300    -0.9830     1.9430 H     1 <1>   0.0800 
 46 H      -14.5080    -0.1720     0.4270 H     1 <1>   0.0800 
@<TRIPOS>BOND
  1   1   2  1   
  2   2   3  ar  
  3   2   4  ar  
  4   3   5  ar  
  5   3  26  1   
  6   4   6  ar  
  7   4  27  1   
  8   5   7  ar  
  9   5  28  1   
 10   6   7  ar  
 11   6  29  1   
 12   7   8  1   
 13   8   9  2   
 14   8  10  1   
 15  10  11  1   
 16  10  12  1   
 17  10  30  1   
 18  11  13  1   
 19  11  31  1   
 20  11  32  1   
 21  12  14  1   
 22  12  33  1   
 23  12  34  1   
 24  13  15  1   
 25  13  35  1   
 26  13  36  1   
 27  14  15  1   
 28  14  37  1   
 29  14  38  1   
 30  15  16  am  
 31  16  17  2   
 32  16  18  am  
 33  18  19  1   
 34  18  39  1   
 35  19  20  ar  
 36  19  21  ar  
 37  20  22  ar  
 38  20  40  1   
 39  21  23  ar  
 40  21  41  1   
 41  22  24  ar  
 42  22  25  1   
 43  23  24  ar  
 44  23  42  1   
 45  24  43  1   
 46  25  44  1   
 47  25  45  1   
 48  25  46  1   
@<TRIPOS>SUBSTRUCTURE
  1 ****  11 GROUP 4 **** **** 0

# MOE 2024.06 (io_trps.svl 2023.06)
