@<TRIPOS>MOLECULE
1-(4-Methoxy-6-methyl-pyrimidin-2-yl)-piperidine-4-carboxylic acid (pyridin-3-ylmethyl)-amide
48 50 1 0 0 
SMALL
USER_CHARGES


@<TRIPOS>ATOM
  1 O       -0.6560     0.9660     1.8440 O.2   1 <1>  -0.5700 
  2 C       -0.6480     1.4130     0.7230 C.2   1 <1>   0.5690 
  3 N        0.5110     1.7940     0.1310 N.am  1 <1>  -0.7300 
  4 C       -1.9470     1.5620    -0.0740 C.3   1 <1>  -0.0190 
  5 C        1.8160     1.8480     0.8120 C.3   1 <1>   0.2840 
  6 C       -2.2160     3.0360    -0.4380 C.3   1 <1>  -0.1600 
  7 C       -3.1730     0.9830     0.6610 C.3   1 <1>  -0.1600 
  8 C        2.4960     3.1420     0.4160 C.ar  1 <1>  -0.1440 
  9 C       -3.4990     3.1890    -1.2550 C.3   1 <1>   0.2090 
 10 C       -4.4650     1.1560    -0.1390 C.3   1 <1>   0.2090 
 11 C        3.5810     3.1390    -0.4490 C.ar  1 <1>   0.1600 
 12 C        2.0410     4.3500     0.9080 C.ar  1 <1>  -0.1500 
 13 N       -4.6330     2.5890    -0.5070 N.pl3 1 <1>  -0.8380 
 14 N        4.2300     4.2180    -0.8540 N.ar  1 <1>  -0.6200 
 15 C        2.7080     5.4850     0.4980 C.ar  1 <1>  -0.1500 
 16 C       -5.8150     3.2710    -0.2880 C.ar  1 <1>   0.7200 
 17 C        3.7800     5.3650    -0.3700 C.ar  1 <1>   0.1600 
 18 N       -6.9040     2.5390    -0.0900 N.ar  1 <1>  -0.6200 
 19 N       -5.7560     4.6010    -0.2980 N.ar  1 <1>  -0.6200 
 20 C       -8.0130     3.1980     0.1200 C.ar  1 <1>   0.3930 
 21 C       -6.8760     5.2420    -0.0850 C.ar  1 <1>   0.1670 
 22 O       -9.1020     2.4300     0.3200 O.3   1 <1>  -0.3630 
 23 C       -8.0550     4.5780     0.1330 C.ar  1 <1>  -0.1500 
 24 C       -6.8090     6.7540    -0.0910 C.3   1 <1>  -0.0970 
 25 C      -10.3860     2.9630     0.5550 C.3   1 <1>   0.0400 
 26 H        0.5000     2.2130    -0.7980 H     1 <1>   0.3700 
 27 H       -1.8200     1.0060    -0.9850 H     1 <1>   0.0800 
 28 H        2.4080     0.9980     0.5190 H     1 <1>   0.0800 
 29 H        1.6810     1.8150     1.8810 H     1 <1>   0.0800 
 30 H       -1.3980     3.4380    -1.0060 H     1 <1>   0.0800 
 31 H       -2.3110     3.6210     0.4610 H     1 <1>   0.0800 
 32 H       -3.2940     1.4770     1.6100 H     1 <1>   0.0800 
 33 H       -3.0190    -0.0630     0.8580 H     1 <1>   0.0800 
 34 H       -3.3980     2.6780    -2.1970 H     1 <1>   0.0800 
 35 H       -3.6690     4.2300    -1.4650 H     1 <1>   0.0800 
 36 H       -5.2900     0.8070     0.4580 H     1 <1>   0.0800 
 37 H       -4.4310     0.5650    -1.0380 H     1 <1>   0.0800 
 38 H        3.9370     2.1980    -0.8330 H     1 <1>   0.1500 
 39 H        1.2010     4.4030     1.5800 H     1 <1>   0.1500 
 40 H        2.4020     6.4540     0.8480 H     1 <1>   0.1500 
 41 H        4.2940     6.2580    -0.6820 H     1 <1>   0.1500 
 42 H       -8.9610     5.1190     0.3060 H     1 <1>   0.1500 
 43 H       -6.4650     7.0940    -1.0520 H     1 <1>   0.0800 
 44 H       -6.1150     7.0840     0.6600 H     1 <1>   0.0800 
 45 H       -7.7710     7.1870     0.1080 H     1 <1>   0.0800 
 46 H      -11.0690     2.1420     0.6790 H     1 <1>   0.0800 
 47 H      -10.6790     3.5570    -0.2920 H     1 <1>   0.0800 
 48 H      -10.3600     3.5540     1.4540 H     1 <1>   0.0800 
@<TRIPOS>BOND
  1   1   2  2   
  2   2   3  am  
  3   2   4  1   
  4   3   5  1   
  5   3  26  1   
  6   4   6  1   
  7   4   7  1   
  8   4  27  1   
  9   5   8  1   
 10   5  28  1   
 11   5  29  1   
 12   6   9  1   
 13   6  30  1   
 14   6  31  1   
 15   7  10  1   
 16   7  32  1   
 17   7  33  1   
 18   8  11  ar  
 19   8  12  ar  
 20   9  13  1   
 21   9  34  1   
 22   9  35  1   
 23  10  13  1   
 24  10  36  1   
 25  10  37  1   
 26  11  14  ar  
 27  11  38  1   
 28  12  15  ar  
 29  12  39  1   
 30  13  16  1   
 31  14  17  ar  
 32  15  17  ar  
 33  15  40  1   
 34  16  18  ar  
 35  16  19  ar  
 36  17  41  1   
 37  18  20  ar  
 38  19  21  ar  
 39  20  22  1   
 40  20  23  ar  
 41  21  23  ar  
 42  21  24  1   
 43  22  25  1   
 44  23  42  1   
 45  24  43  1   
 46  24  44  1   
 47  24  45  1   
 48  25  46  1   
 49  25  47  1   
 50  25  48  1   
@<TRIPOS>SUBSTRUCTURE
  1 ****   6 GROUP 4 **** **** 0

# MOE 2024.06 (io_trps.svl 2023.06)
