@<TRIPOS>MOLECULE
8730
45 46 1 0 0 
SMALL
USER_CHARGES


@<TRIPOS>ATOM
  1 O        0.5820    -4.7950    -1.8260 O.2   1 <1>  -0.5700 
  2 C        0.0080    -4.1030    -1.0190 C.2   1 <1>   0.5690 
  3 N        0.6420    -3.4120    -0.0260 N.am  1 <1>  -0.5470 
  4 C       -1.5060    -3.9840    -1.1180 C.3   1 <1>   0.1810 
  5 C        2.0120    -3.2280     0.2100 C.ar  1 <1>   0.1170 
  6 O       -1.9910    -2.9470    -0.2740 O.3   1 <1>  -0.3630 
  7 C        2.8540    -4.2920     0.5450 C.ar  1 <1>  -0.1430 
  8 C        2.5410    -1.9370     0.1350 C.ar  1 <1>  -0.1430 
  9 C       -3.3170    -2.6590    -0.1770 C.ar  1 <1>   0.0830 
 10 C        4.1970    -4.0570     0.7860 C.ar  1 <1>  -0.1500 
 11 C        2.3400    -5.7220     0.6640 C.3   1 <1>  -0.0970 
 12 C        3.8860    -1.7250     0.3850 C.ar  1 <1>  -0.1500 
 13 C        1.6630    -0.7460    -0.2290 C.3   1 <1>  -0.0970 
 14 C       -3.6990    -1.6460     0.7030 C.ar  1 <1>  -0.1430 
 15 C       -4.2800    -3.3410    -0.9170 C.ar  1 <1>  -0.1500 
 16 C        4.7210    -2.7790     0.7100 C.ar  1 <1>  -0.1430 
 17 C       -5.0500    -1.3330     0.8450 C.ar  1 <1>  -0.1430 
 18 C       -2.6120    -0.9120     1.4920 C.3   1 <1>  -0.0970 
 19 C       -5.6150    -3.0190    -0.7770 C.ar  1 <1>  -0.1500 
 20 C        6.1960    -2.5380     0.9750 C.3   1 <1>  -0.0970 
 21 C       -5.9950    -2.0220     0.1010 C.ar  1 <1>  -0.1500 
 22 C       -5.5440    -0.2530     1.7990 C.3   1 <1>  -0.0970 
 23 H        0.0220    -2.7970     0.5030 H     1 <1>   0.3700 
 24 H       -1.9550    -4.9120    -0.8140 H     1 <1>   0.0800 
 25 H       -1.7770    -3.7540    -2.1310 H     1 <1>   0.0800 
 26 H        4.8460    -4.8780     1.0340 H     1 <1>   0.1500 
 27 H        2.2500    -6.1560    -0.3150 H     1 <1>   0.0800 
 28 H        1.3790    -5.7400     1.1440 H     1 <1>   0.0800 
 29 H        3.0140    -6.3250     1.2440 H     1 <1>   0.0800 
 30 H        4.2940    -0.7320     0.3230 H     1 <1>   0.1500 
 31 H        0.9240    -0.5850     0.5340 H     1 <1>   0.0800 
 32 H        1.1670    -0.9290    -1.1660 H     1 <1>   0.0800 
 33 H        2.2480     0.1500    -0.3290 H     1 <1>   0.0800 
 34 H       -4.0190    -4.1200    -1.6060 H     1 <1>   0.1500 
 35 H       -2.2290    -1.5590     2.2600 H     1 <1>   0.0800 
 36 H       -2.9690    -0.0110     1.9510 H     1 <1>   0.0800 
 37 H       -1.8060    -0.6380     0.8370 H     1 <1>   0.0800 
 38 H       -6.3610    -3.5440    -1.3480 H     1 <1>   0.1500 
 39 H        6.7490    -2.6400     0.0590 H     1 <1>   0.0800 
 40 H        6.5700    -3.2500     1.6890 H     1 <1>   0.0800 
 41 H        6.3510    -1.5500     1.3680 H     1 <1>   0.0800 
 42 H       -7.0400    -1.7870     0.1990 H     1 <1>   0.1500 
 43 H       -5.1790    -0.4430     2.7920 H     1 <1>   0.0800 
 44 H       -6.6180    -0.2310     1.8380 H     1 <1>   0.0800 
 45 H       -5.1990     0.7110     1.4720 H     1 <1>   0.0800 
@<TRIPOS>BOND
  1   1   2  2   
  2   2   3  am  
  3   2   4  1   
  4   3   5  1   
  5   3  23  1   
  6   4   6  1   
  7   4  24  1   
  8   4  25  1   
  9   5   7  ar  
 10   5   8  ar  
 11   6   9  1   
 12   7  10  ar  
 13   7  11  1   
 14   8  12  ar  
 15   8  13  1   
 16   9  14  ar  
 17   9  15  ar  
 18  10  16  ar  
 19  10  26  1   
 20  11  27  1   
 21  11  28  1   
 22  11  29  1   
 23  12  16  ar  
 24  12  30  1   
 25  13  31  1   
 26  13  32  1   
 27  13  33  1   
 28  14  17  ar  
 29  14  18  1   
 30  15  19  ar  
 31  15  34  1   
 32  16  20  1   
 33  17  21  ar  
 34  17  22  1   
 35  18  35  1   
 36  18  36  1   
 37  18  37  1   
 38  19  21  ar  
 39  19  38  1   
 40  20  39  1   
 41  20  40  1   
 42  20  41  1   
 43  21  42  1   
 44  22  43  1   
 45  22  44  1   
 46  22  45  1   
@<TRIPOS>SUBSTRUCTURE
  1 ****   3 GROUP 4 **** **** 0

# MOE 2024.06 (io_trps.svl 2023.06)
