@<TRIPOS>MOLECULE
NONAME
43 44 1 0 0 
SMALL
USER_CHARGES


@<TRIPOS>ATOM
  1 S        0.1690     0.1580    -0.0900 S.3   1 <1>  -0.0800 
  2 C       -1.4000     0.7730     0.3260 C.ar  1 <1>   0.3480 
  3 C        0.7520     1.7670    -0.5560 C.2   1 <1>  -0.0450 
  4 N       -2.3560    -0.0180     0.8460 N.ar  1 <1>  -0.1260 
  5 C       -1.5260     2.1200     0.0620 C.ar  1 <1>   0.0000 
  6 C       -0.2440     2.6810    -0.3420 C.2   1 <1>   0.1250 
  7 C        2.1030     1.8260    -1.0410 C.2   1 <1>   0.8050 
  8 C       -3.5600     0.5280     1.1340 C.ar  1 <1>   0.2110 
  9 C       -2.8310     2.6680     0.2270 C.ar  1 <1>   0.1000 
 10 N        0.0150     4.0220    -0.4850 N.2   1 <1>  -0.5750 
 11 O        2.6030     0.8800    -1.6140 O.2   1 <1>  -0.5700 
 12 O        2.9010     2.8840    -0.8690 O.3   1 <1>  -0.4300 
 13 C       -3.7990     1.8440     0.8360 C.ar  1 <1>  -0.1500 
 14 N       -3.2300     3.8860    -0.2350 N.pl3 1 <1>  -0.8380 
 15 C       -0.4170     4.8460     0.3900 C.2   1 <1>   0.4400 
 16 C        2.9130     3.6720     0.3000 C.3   1 <1>   0.1200 
 17 C       -2.8170     4.4110    -1.5740 C.3   1 <1>   0.1290 
 18 C       -4.2500     4.7490     0.4290 C.3   1 <1>   0.1290 
 19 N       -0.1870     6.1960     0.3420 N.pl3 1 <1>  -0.7880 
 20 C        4.3620     3.8150     0.7530 C.3   1 <1>  -0.2400 
 21 C       -0.7220     7.1070     1.3840 C.3   1 <1>   0.1290 
 22 C        0.5780     6.8530    -0.7570 C.3   1 <1>   0.1290 
 23 H       -2.1500    -1.0070     1.0180 H     1 <1>   0.4570 
 24 H       -4.3220    -0.0920     1.5810 H     1 <1>   0.1500 
 25 H       -4.7720     2.2530     1.0380 H     1 <1>   0.1500 
 26 H       -0.9870     4.4940     1.2330 H     1 <1>   0.0600 
 27 H        2.4980     4.6350     0.0590 H     1 <1>   0.0800 
 28 H        2.3220     3.2010     1.0660 H     1 <1>   0.0800 
 29 H       -3.6860     4.5570    -2.1920 H     1 <1>   0.0800 
 30 H       -2.1610     3.7200    -2.0720 H     1 <1>   0.0800 
 31 H       -2.3090     5.3530    -1.4630 H     1 <1>   0.0800 
 32 H       -3.9310     5.7770     0.3980 H     1 <1>   0.0800 
 33 H       -4.3730     4.4680     1.4600 H     1 <1>   0.0800 
 34 H       -5.1940     4.6610    -0.0810 H     1 <1>   0.0800 
 35 H        4.9450     4.2860    -0.0190 H     1 <1>   0.0800 
 36 H        4.7790     2.8490     0.9770 H     1 <1>   0.0800 
 37 H        4.4090     4.4240     1.6370 H     1 <1>   0.0800 
 38 H        0.0890     7.6170     1.8740 H     1 <1>   0.0800 
 39 H       -1.2790     6.5530     2.1200 H     1 <1>   0.0800 
 40 H       -1.3750     7.8340     0.9320 H     1 <1>   0.0800 
 41 H       -0.0500     7.5650    -1.2620 H     1 <1>   0.0800 
 42 H        0.9220     6.1300    -1.4770 H     1 <1>   0.0800 
 43 H        1.4330     7.3630    -0.3500 H     1 <1>   0.0800 
@<TRIPOS>BOND
  1   1   2  1   
  2   1   3  1   
  3   2   4  ar  
  4   2   5  ar  
  5   3   6  2   
  6   3   7  1   
  7   4   8  ar  
  8   4  23  1   
  9   5   6  1   
 10   5   9  ar  
 11   6  10  1   
 12   7  11  2   
 13   7  12  1   
 14   8  13  ar  
 15   8  24  1   
 16   9  13  ar  
 17   9  14  1   
 18  10  15  2   
 19  12  16  1   
 20  13  25  1   
 21  14  17  1   
 22  14  18  1   
 23  15  19  1   
 24  15  26  1   
 25  16  20  1   
 26  16  27  1   
 27  16  28  1   
 28  17  29  1   
 29  17  30  1   
 30  17  31  1   
 31  18  32  1   
 32  18  33  1   
 33  18  34  1   
 34  19  21  1   
 35  19  22  1   
 36  20  35  1   
 37  20  36  1   
 38  20  37  1   
 39  21  38  1   
 40  21  39  1   
 41  21  40  1   
 42  22  41  1   
 43  22  42  1   
 44  22  43  1   
@<TRIPOS>SUBSTRUCTURE
  1 ****   6 GROUP 4 **** **** 0

# MOE 2024.06 (io_trps.svl 2023.06)
