@<TRIPOS>MOLECULE
NONAME
50 52 1 0 0 
SMALL
USER_CHARGES


@<TRIPOS>ATOM
  1 S       -0.3240     0.0990     0.8860 S.o2  1 <1>   1.4470 
  2 O       -0.6400     0.1560     2.2980 O.2   1 <1>  -0.6500 
  3 O        0.8860    -0.5680     0.4590 O.2   1 <1>  -0.6500 
  4 N       -1.6190    -0.6970     0.1330 N.am  1 <1>  -0.8490 
  5 C       -0.3790     1.7600     0.1550 C.ar  1 <1>  -0.0090 
  6 C       -2.9200    -0.1550     0.5560 C.3   1 <1>   0.1960 
  7 C       -1.5580    -2.1410     0.3790 C.3   1 <1>   0.1960 
  8 C       -0.1020     1.9520    -1.1930 C.ar  1 <1>  -0.1500 
  9 C       -0.7180     2.8750     0.9140 C.ar  1 <1>  -0.1500 
 10 C       -4.0550    -0.7810    -0.2650 C.3   1 <1>  -0.0190 
 11 C       -2.6460    -2.8640    -0.4240 C.3   1 <1>  -0.1600 
 12 C       -0.1590     3.2100    -1.7680 C.ar  1 <1>  -0.1500 
 13 C       -0.7780     4.1370     0.3490 C.ar  1 <1>  -0.1500 
 14 C       -5.3980    -0.1930     0.1400 C.2   1 <1>   0.5690 
 15 C       -4.0440    -2.3130    -0.1100 C.3   1 <1>  -0.1600 
 16 C       -0.4980     4.3050    -0.9950 C.ar  1 <1>  -0.1500 
 17 O       -5.5900     0.1230     1.2890 O.2   1 <1>  -0.5700 
 18 N       -6.3590    -0.0510    -0.8100 N.am  1 <1>  -0.7300 
 19 C       -7.7040     0.5210    -0.5630 C.3   1 <1>   0.1400 
 20 C       -8.7070    -0.5980    -0.2860 C.3   1 <1>  -0.0170 
 21 C      -10.0890    -0.0130    -0.0430 C.ar  1 <1>  -0.1430 
 22 C      -11.0280     0.0290    -1.0630 C.ar  1 <1>  -0.1500 
 23 C      -10.4180     0.4900     1.2060 C.ar  1 <1>  -0.1500 
 24 C      -12.2830     0.5680    -0.8350 C.ar  1 <1>  -0.1500 
 25 C      -11.6720     1.0300     1.4350 C.ar  1 <1>  -0.1500 
 26 C      -12.6050     1.0690     0.4140 C.ar  1 <1>  -0.1500 
 27 H       -2.9390     0.9120     0.4110 H     1 <1>   0.0800 
 28 H       -3.0770    -0.3500     1.6060 H     1 <1>   0.0800 
 29 H       -1.6810    -2.3370     1.4330 H     1 <1>   0.0800 
 30 H       -0.5970    -2.5230     0.0770 H     1 <1>   0.0800 
 31 H        0.1630     1.1010    -1.7990 H     1 <1>   0.1500 
 32 H       -0.9380     2.7550     1.9630 H     1 <1>   0.1500 
 33 H       -3.8810    -0.5310    -1.2960 H     1 <1>   0.0800 
 34 H       -2.6130    -3.9150    -0.1980 H     1 <1>   0.0800 
 35 H       -2.4330    -2.7470    -1.4720 H     1 <1>   0.0800 
 36 H        0.0620     3.3360    -2.8140 H     1 <1>   0.1500 
 37 H       -1.0420     4.9870     0.9540 H     1 <1>   0.1500 
 38 H       -4.7720    -2.7580    -0.7670 H     1 <1>   0.0800 
 39 H       -4.3090    -2.5670     0.9030 H     1 <1>   0.0800 
 40 H       -0.5430     5.2860    -1.4380 H     1 <1>   0.1500 
 41 H       -6.1770    -0.3610    -1.7660 H     1 <1>   0.3700 
 42 H       -8.0170     1.0930    -1.4190 H     1 <1>   0.0800 
 43 H       -7.6650     1.1840     0.2860 H     1 <1>   0.0800 
 44 H       -8.3970    -1.1480     0.5860 H     1 <1>   0.0800 
 45 H       -8.7400    -1.2750    -1.1200 H     1 <1>   0.0800 
 46 H      -10.7910    -0.3580    -2.0380 H     1 <1>   0.1500 
 47 H       -9.6970     0.4640     2.0050 H     1 <1>   0.1500 
 48 H      -13.0080     0.5980    -1.6290 H     1 <1>   0.1500 
 49 H      -11.9200     1.4180     2.4070 H     1 <1>   0.1500 
 50 H      -13.5800     1.4880     0.5920 H     1 <1>   0.1500 
@<TRIPOS>BOND
  1   1   2  2   
  2   1   3  2   
  3   1   4  am  
  4   1   5  1   
  5   4   6  1   
  6   4   7  1   
  7   5   8  ar  
  8   5   9  ar  
  9   6  10  1   
 10   6  27  1   
 11   6  28  1   
 12   7  11  1   
 13   7  29  1   
 14   7  30  1   
 15   8  12  ar  
 16   8  31  1   
 17   9  13  ar  
 18   9  32  1   
 19  10  14  1   
 20  10  15  1   
 21  10  33  1   
 22  11  15  1   
 23  11  34  1   
 24  11  35  1   
 25  12  16  ar  
 26  12  36  1   
 27  13  16  ar  
 28  13  37  1   
 29  14  17  2   
 30  14  18  am  
 31  15  38  1   
 32  15  39  1   
 33  16  40  1   
 34  18  19  1   
 35  18  41  1   
 36  19  20  1   
 37  19  42  1   
 38  19  43  1   
 39  20  21  1   
 40  20  44  1   
 41  20  45  1   
 42  21  22  ar  
 43  21  23  ar  
 44  22  24  ar  
 45  22  46  1   
 46  23  25  ar  
 47  23  47  1   
 48  24  26  ar  
 49  24  48  1   
 50  25  26  ar  
 51  25  49  1   
 52  26  50  1   
@<TRIPOS>SUBSTRUCTURE
  1 ****  14 GROUP 4 **** **** 0

# MOE 2024.06 (io_trps.svl 2023.06)
