@<TRIPOS>MOLECULE
NONAME
42 45 1 0 0 
SMALL
USER_CHARGES


@<TRIPOS>ATOM
  1 CL      -1.0320    -0.9120    -2.0780 Cl    1 <1>  -0.1770 
  2 C       -0.3960    -2.1570    -1.0350 C.ar  1 <1>   0.1770 
  3 C       -0.7040    -2.1370     0.3120 C.ar  1 <1>  -0.1500 
  4 C        0.4030    -3.1480    -1.5710 C.ar  1 <1>  -0.1500 
  5 C       -0.1990    -3.1270     1.1380 C.ar  1 <1>  -0.1500 
  6 C        0.9050    -4.1360    -0.7400 C.ar  1 <1>  -0.1500 
  7 C        0.6120    -4.1300     0.6200 C.ar  1 <1>  -0.1430 
  8 C        1.1450    -5.2210     1.5450 C.3   1 <1>   0.4320 
  9 S        2.9450    -5.3720     1.2540 S.3   1 <1>  -0.4600 
 10 C        0.3500    -6.4960     1.3530 C.2   1 <1>  -0.1240 
 11 C        3.3560    -7.1400     1.3950 C.3   1 <1>   0.1310 
 12 C       -0.8890    -6.6000     1.9790 C.2   1 <1>   0.6160 
 13 C        0.5350    -7.6390     0.6220 C.2   1 <1>   0.2090 
 14 C        2.9310    -7.8730     0.1350 C.2   1 <1>   0.5690 
 15 O       -1.3950    -5.8380     2.8140 O.2   1 <1>  -0.5700 
 16 N       -1.4640    -7.7560     1.5950 N.am  1 <1>  -0.4100 
 17 N       -0.5500    -8.4510     0.7420 N.pl3 1 <1>  -0.4890 
 18 N        1.6150    -8.0150    -0.1530 N.am  1 <1>  -0.5390 
 19 O        3.7590    -8.3650    -0.5890 O.2   1 <1>  -0.5700 
 20 C       -1.0660    -9.3390    -0.3470 C.3   1 <1>   0.2890 
 21 C       -2.4620    -9.8940    -0.0590 C.3   1 <1>  -0.1600 
 22 C       -0.1870   -10.5820    -0.5370 C.3   1 <1>  -0.1600 
 23 C       -2.5340   -11.1790    -0.8770 C.3   1 <1>  -0.1600 
 24 C       -1.1300   -11.7710    -0.7690 C.3   1 <1>  -0.1600 
 25 H       -1.3320    -1.3580     0.7050 H     1 <1>   0.1500 
 26 H        0.6290    -3.1430    -2.6220 H     1 <1>   0.1500 
 27 H       -0.4490    -3.1160     2.1860 H     1 <1>   0.1500 
 28 H        1.5270    -4.9090    -1.1600 H     1 <1>   0.1500 
 29 H        1.0590    -4.9030     2.5700 H     1 <1>   0.0800 
 30 H        2.8640    -7.5320     2.2650 H     1 <1>   0.0800 
 31 H        4.4220    -7.2040     1.5160 H     1 <1>   0.0800 
 32 H       -2.0180    -8.2550     2.2960 H     1 <1>   0.3700 
 33 H        1.4380    -8.6380    -0.9370 H     1 <1>   0.3700 
 34 H       -1.1010    -8.7830    -1.2690 H     1 <1>   0.0800 
 35 H       -3.2340    -9.1980    -0.3380 H     1 <1>   0.0800 
 36 H       -2.5520   -10.1480     0.9820 H     1 <1>   0.0800 
 37 H        0.4110   -10.7650     0.3390 H     1 <1>   0.0800 
 38 H        0.4590   -10.4520    -1.3870 H     1 <1>   0.0800 
 39 H       -2.7480   -10.9420    -1.9050 H     1 <1>   0.0800 
 40 H       -3.2870   -11.8540    -0.5070 H     1 <1>   0.0800 
 41 H       -1.0850   -12.4320     0.0800 H     1 <1>   0.0800 
 42 H       -0.8690   -12.3260    -1.6540 H     1 <1>   0.0800 
@<TRIPOS>BOND
  1   1   2  1   
  2   2   3  ar  
  3   2   4  ar  
  4   3   5  ar  
  5   3  25  1   
  6   4   6  ar  
  7   4  26  1   
  8   5   7  ar  
  9   5  27  1   
 10   6   7  ar  
 11   6  28  1   
 12   7   8  1   
 13   8   9  1   
 14   8  10  1   
 15   8  29  1   
 16   9  11  1   
 17  10  12  1   
 18  10  13  2   
 19  11  14  1   
 20  11  30  1   
 21  11  31  1   
 22  12  15  2   
 23  12  16  am  
 24  13  17  1   
 25  13  18  1   
 26  14  18  am  
 27  14  19  2   
 28  16  17  1   
 29  16  32  1   
 30  17  20  1   
 31  18  33  1   
 32  20  21  1   
 33  20  22  1   
 34  20  34  1   
 35  21  23  1   
 36  21  35  1   
 37  21  36  1   
 38  22  24  1   
 39  22  37  1   
 40  22  38  1   
 41  23  24  1   
 42  23  39  1   
 43  23  40  1   
 44  24  41  1   
 45  24  42  1   
@<TRIPOS>SUBSTRUCTURE
  1 ****  10 GROUP 4 **** **** 0

# MOE 2024.06 (io_trps.svl 2023.06)
