@<TRIPOS>MOLECULE
NONAME
35 36 1 0 0 
SMALL
USER_CHARGES


@<TRIPOS>ATOM
  1 O        0.4410    -0.2940    -0.6420 O.3   1 <1>  -0.5600 
  2 C        1.1630     0.6110     0.1510 C.3   1 <1>   0.1200 
  3 C        0.2600    -1.5560    -0.0560 C.3   1 <1>   0.1200 
  4 C        2.5470     0.0400     0.5400 C.3   1 <1>   0.3430 
  5 C        1.6190    -2.2210     0.2690 C.3   1 <1>   0.3430 
  6 N        2.7690    -1.3170    -0.0690 N.4   1 <1>  -0.9590 
  7 C        4.0960    -1.9220     0.2710 C.3   1 <1>   0.3430 
  8 C        5.1850    -1.6220    -0.7750 C.3   1 <1>   0.0630 
  9 C        6.4620    -2.3260    -0.3350 C.ar  1 <1>  -0.1440 
 10 C        5.4520    -0.1260    -1.0140 C.3   1 <1>  -0.2400 
 11 C        6.9600    -3.3850    -1.0810 C.ar  1 <1>  -0.1500 
 12 C        7.1380    -1.9350     0.8140 C.ar  1 <1>  -0.1500 
 13 C        8.1090    -4.0460    -0.6830 C.ar  1 <1>  -0.1500 
 14 C        8.2870    -2.5960     1.2120 C.ar  1 <1>  -0.1500 
 15 C        8.7730    -3.6530     0.4640 C.ar  1 <1>  -0.1500 
 16 H        0.5830     0.8380     1.0300 H     1 <1>   0.0800 
 17 H        1.2820     1.5180    -0.4160 H     1 <1>   0.0800 
 18 H       -0.2950    -2.1640    -0.7500 H     1 <1>   0.0800 
 19 H       -0.3320    -1.4400     0.8360 H     1 <1>   0.0800 
 20 H        2.6070    -0.0260     1.6140 H     1 <1>   0.0800 
 21 H        3.3110     0.7270     0.2170 H     1 <1>   0.0800 
 22 H        1.6980    -3.1410    -0.2880 H     1 <1>   0.0800 
 23 H        1.6410    -2.4740     1.3160 H     1 <1>   0.0800 
 24 H        2.7030    -1.1730    -1.0890 H     1 <1>   0.4500 
 25 H        3.9960    -2.9940     0.3320 H     1 <1>   0.0800 
 26 H        4.4220    -1.5740     1.2360 H     1 <1>   0.0800 
 27 H        4.8720    -2.0540    -1.7100 H     1 <1>   0.0800 
 28 H        5.6660     0.3850    -0.0930 H     1 <1>   0.0800 
 29 H        4.6150     0.3450    -1.4960 H     1 <1>   0.0800 
 30 H        6.3060    -0.0150    -1.6620 H     1 <1>   0.0800 
 31 H        6.4670    -3.7090    -1.9810 H     1 <1>   0.1500 
 32 H        6.7890    -1.1130     1.4130 H     1 <1>   0.1500 
 33 H        8.4900    -4.8660    -1.2680 H     1 <1>   0.1500 
 34 H        8.8080    -2.2890     2.1030 H     1 <1>   0.1500 
 35 H        9.6670    -4.1670     0.7730 H     1 <1>   0.1500 
@<TRIPOS>BOND
  1   1   2  1   
  2   1   3  1   
  3   2   4  1   
  4   2  16  1   
  5   2  17  1   
  6   3   5  1   
  7   3  18  1   
  8   3  19  1   
  9   4   6  1   
 10   4  20  1   
 11   4  21  1   
 12   5   6  1   
 13   5  22  1   
 14   5  23  1   
 15   6   7  1   
 16   6  24  1   
 17   7   8  1   
 18   7  25  1   
 19   7  26  1   
 20   8   9  1   
 21   8  10  1   
 22   8  27  1   
 23   9  11  ar  
 24   9  12  ar  
 25  10  28  1   
 26  10  29  1   
 27  10  30  1   
 28  11  13  ar  
 29  11  31  1   
 30  12  14  ar  
 31  12  32  1   
 32  13  15  ar  
 33  13  33  1   
 34  14  15  ar  
 35  14  34  1   
 36  15  35  1   
@<TRIPOS>SUBSTRUCTURE
  1 ****   7 GROUP 4 **** **** 0

# MOE 2024.06 (io_trps.svl 2023.06)
