@<TRIPOS>MOLECULE
NONAME
48 50 1 0 0 
SMALL
USER_CHARGES


@<TRIPOS>ATOM
  1 O        1.0800    -2.1520     1.9880 O.2   1 <1>  -0.5700 
  2 C        0.3130    -2.0250     1.0630 C.2   1 <1>   0.5690 
  3 N        0.6570    -1.5550    -0.1700 N.am  1 <1>  -0.5470 
  4 C       -1.1600    -2.3870     1.2550 C.3   1 <1>   0.1710 
  5 C        1.8680    -1.0540    -0.6760 C.ar  1 <1>   0.1170 
  6 N       -2.0820    -1.5440     0.4390 N.3   1 <1>  -0.8100 
  7 C        3.0570    -1.7930    -0.6440 C.ar  1 <1>  -0.1430 
  8 C        1.8720     0.2160    -1.2610 C.ar  1 <1>  -0.1430 
  9 C       -2.2140    -0.1890     1.0330 C.3   1 <1>   0.1100 
 10 C       -3.4230    -2.1600     0.3290 C.3   1 <1>   0.1100 
 11 C        4.2200    -1.2490    -1.1610 C.ar  1 <1>  -0.1500 
 12 C        3.1310    -3.2020    -0.0670 C.3   1 <1>  -0.0970 
 13 C        3.0450     0.7400    -1.7770 C.ar  1 <1>  -0.1500 
 14 C        0.6030     1.0580    -1.3390 C.3   1 <1>  -0.0970 
 15 C       -3.1510     0.7150     0.2100 C.3   1 <1>   0.2090 
 16 C       -4.3890    -1.2980    -0.5090 C.3   1 <1>   0.2090 
 17 C        4.2190     0.0130    -1.7250 C.ar  1 <1>  -0.1500 
 18 N       -4.4930     0.0840     0.0400 N.pl3 1 <1>  -0.8380 
 19 C       -5.5100     0.8660    -0.4720 C.ar  1 <1>   0.4100 
 20 N       -5.1800     1.7990    -1.3580 N.ar  1 <1>  -0.6200 
 21 C       -6.8180     0.6400    -0.0530 C.ar  1 <1>  -0.1500 
 22 C       -6.1800     2.5190    -1.8380 C.ar  1 <1>   0.1600 
 23 C       -7.8490     1.3950    -0.5610 C.ar  1 <1>  -0.1500 
 24 C       -7.5090     2.3630    -1.4830 C.ar  1 <1>  -0.1500 
 25 H       -0.1730    -1.3580    -0.7350 H     1 <1>   0.3700 
 26 H       -1.4100    -2.3070     2.2990 H     1 <1>   0.0800 
 27 H       -1.2700    -3.4170     0.9670 H     1 <1>   0.0800 
 28 H       -1.2480     0.2780     1.0950 H     1 <1>   0.0800 
 29 H       -2.6080    -0.2650     2.0330 H     1 <1>   0.0800 
 30 H       -3.8450    -2.2960     1.3100 H     1 <1>   0.0800 
 31 H       -3.3350    -3.1260    -0.1360 H     1 <1>   0.0800 
 32 H        5.1400    -1.8060    -1.1290 H     1 <1>   0.1500 
 33 H        3.2620    -3.1510     0.9990 H     1 <1>   0.0800 
 34 H        3.9590    -3.7430    -0.4870 H     1 <1>   0.0800 
 35 H        2.2330    -3.7500    -0.2830 H     1 <1>   0.0800 
 36 H        3.0570     1.7190    -2.2220 H     1 <1>   0.1500 
 37 H       -0.1830     0.5080    -1.8240 H     1 <1>   0.0800 
 38 H        0.7720     1.9620    -1.8960 H     1 <1>   0.0800 
 39 H        0.2880     1.3270    -0.3480 H     1 <1>   0.0800 
 40 H       -2.7140     0.8950    -0.7570 H     1 <1>   0.0800 
 41 H       -3.2660     1.6630     0.7070 H     1 <1>   0.0800 
 42 H       -5.3620    -1.7570    -0.5170 H     1 <1>   0.0800 
 43 H       -4.0330    -1.2490    -1.5230 H     1 <1>   0.0800 
 44 H        5.1290     0.4260    -2.1230 H     1 <1>   0.1500 
 45 H       -7.0010    -0.1270     0.6730 H     1 <1>   0.1500 
 46 H       -5.9270     3.2780    -2.5580 H     1 <1>   0.1500 
 47 H       -8.8690     1.2420    -0.2540 H     1 <1>   0.1500 
 48 H       -8.2640     2.9900    -1.9210 H     1 <1>   0.1500 
@<TRIPOS>BOND
  1   1   2  2   
  2   2   3  am  
  3   2   4  1   
  4   3   5  1   
  5   3  25  1   
  6   4   6  1   
  7   4  26  1   
  8   4  27  1   
  9   5   7  ar  
 10   5   8  ar  
 11   6   9  1   
 12   6  10  1   
 13   7  11  ar  
 14   7  12  1   
 15   8  13  ar  
 16   8  14  1   
 17   9  15  1   
 18   9  28  1   
 19   9  29  1   
 20  10  16  1   
 21  10  30  1   
 22  10  31  1   
 23  11  17  ar  
 24  11  32  1   
 25  12  33  1   
 26  12  34  1   
 27  12  35  1   
 28  13  17  ar  
 29  13  36  1   
 30  14  37  1   
 31  14  38  1   
 32  14  39  1   
 33  15  18  1   
 34  15  40  1   
 35  15  41  1   
 36  16  18  1   
 37  16  42  1   
 38  16  43  1   
 39  17  44  1   
 40  18  19  1   
 41  19  20  ar  
 42  19  21  ar  
 43  20  22  ar  
 44  21  23  ar  
 45  21  45  1   
 46  22  24  ar  
 47  22  46  1   
 48  23  24  ar  
 49  23  47  1   
 50  24  48  1   
@<TRIPOS>SUBSTRUCTURE
  1 ****   6 GROUP 4 **** **** 0

# MOE 2024.06 (io_trps.svl 2023.06)
