@<TRIPOS>MOLECULE
NONAME
41 43 1 0 0 
SMALL
USER_CHARGES


@<TRIPOS>ATOM
  1 O        0.5710    -1.0680     2.3160 O.2   1 <1>  -0.5700 
  2 C        1.4310    -0.9420     1.4740 C.2   1 <1>   0.5690 
  3 N        1.3670    -1.6120     0.2720 N.am  1 <1>  -0.6600 
  4 C        2.6010    -0.0250     1.8130 C.3   1 <1>   0.0440 
  5 C        0.2250    -2.5240    -0.0110 C.3   1 <1>   0.1400 
  6 C        2.2840    -1.3540    -0.8750 C.3   1 <1>   0.1400 
  7 C        2.5740     1.3310     1.1000 C.ar  1 <1>  -0.1440 
  8 C        0.4710    -3.8890     0.6290 C.3   1 <1>  -0.2400 
  9 C        3.3660    -2.4280    -0.9390 C.3   1 <1>  -0.2400 
 10 C        3.7940     1.9890     0.7880 C.ar  1 <1>   0.0000 
 11 C        1.3690     1.9090     0.7590 C.ar  1 <1>  -0.1500 
 12 C        3.6820     3.2020     0.1000 C.ar  1 <1>   0.0000 
 13 C        5.1200     1.5860     1.0810 C.ar  1 <1>  -0.1500 
 14 C        1.3030     3.1360     0.0780 C.ar  1 <1>  -0.1500 
 15 C        2.4660     3.7690    -0.2500 C.ar  1 <1>  -0.1440 
 16 C        4.7740     3.9620    -0.2960 C.ar  1 <1>  -0.1440 
 17 C        6.2060     2.3340     0.6920 C.ar  1 <1>  -0.1500 
 18 C        2.7260     5.0770    -0.9750 C.3   1 <1>  -0.0170 
 19 C        6.0410     3.5400    -0.0100 C.ar  1 <1>  -0.1500 
 20 C        4.2710     5.2000    -1.0170 C.3   1 <1>  -0.0170 
 21 H        3.4950    -0.5630     1.5710 H     1 <1>   0.0800 
 22 H        2.6080     0.1470     2.8730 H     1 <1>   0.0800 
 23 H        0.0910    -2.6360    -1.0730 H     1 <1>   0.0800 
 24 H       -0.6790    -2.0970     0.3930 H     1 <1>   0.0800 
 25 H        2.7460    -0.3880    -0.7820 H     1 <1>   0.0800 
 26 H        1.7220    -1.3430    -1.7940 H     1 <1>   0.0800 
 27 H        1.3590    -4.3440     0.2340 H     1 <1>   0.0800 
 28 H       -0.3630    -4.5360     0.4290 H     1 <1>   0.0800 
 29 H        0.5680    -3.7840     1.6950 H     1 <1>   0.0800 
 30 H        3.8910    -2.4910    -0.0040 H     1 <1>   0.0800 
 31 H        4.0720    -2.1800    -1.7110 H     1 <1>   0.0800 
 32 H        2.9350    -3.3830    -1.1750 H     1 <1>   0.0800 
 33 H        0.4350     1.4330     1.0050 H     1 <1>   0.1500 
 34 H        5.2840     0.6760     1.6250 H     1 <1>   0.1500 
 35 H        0.3440     3.5540    -0.1740 H     1 <1>   0.1500 
 36 H        7.2050     2.0080     0.9230 H     1 <1>   0.1500 
 37 H        2.2920     5.8960    -0.4290 H     1 <1>   0.0800 
 38 H        2.3170     5.0420    -1.9680 H     1 <1>   0.0800 
 39 H        6.9040     4.1100    -0.3050 H     1 <1>   0.1500 
 40 H        4.6270     5.2090    -2.0310 H     1 <1>   0.0800 
 41 H        4.5990     6.0880    -0.5060 H     1 <1>   0.0800 
@<TRIPOS>BOND
  1   1   2  2   
  2   2   3  am  
  3   2   4  1   
  4   3   5  1   
  5   3   6  1   
  6   4   7  1   
  7   4  21  1   
  8   4  22  1   
  9   5   8  1   
 10   5  23  1   
 11   5  24  1   
 12   6   9  1   
 13   6  25  1   
 14   6  26  1   
 15   7  10  ar  
 16   7  11  ar  
 17   8  27  1   
 18   8  28  1   
 19   8  29  1   
 20   9  30  1   
 21   9  31  1   
 22   9  32  1   
 23  10  12  ar  
 24  10  13  ar  
 25  11  14  ar  
 26  11  33  1   
 27  12  15  ar  
 28  12  16  ar  
 29  13  17  ar  
 30  13  34  1   
 31  14  15  ar  
 32  14  35  1   
 33  15  18  1   
 34  16  19  ar  
 35  16  20  1   
 36  17  19  ar  
 37  17  36  1   
 38  18  20  1   
 39  18  37  1   
 40  18  38  1   
 41  19  39  1   
 42  20  40  1   
 43  20  41  1   
@<TRIPOS>SUBSTRUCTURE
  1 ****   7 GROUP 4 **** **** 0

# MOE 2024.06 (io_trps.svl 2023.06)
