@<TRIPOS>MOLECULE
NONAME
43 44 1 0 0 
SMALL
USER_CHARGES


@<TRIPOS>ATOM
  1 O       -6.7310     4.6600     0.7570 O.co2 1 <1>  -0.9000 
  2 C       -7.3070     3.9130    -0.0530 C.2   1 <1>   1.0330 
  3 O       -7.5760     4.3750    -1.1680 O.co2 1 <1>  -0.9000 
  4 C       -7.1490     2.4940     0.1310 C.2   1 <1>  -0.2330 
  5 C       -6.0550     1.7990    -0.4260 C.2   1 <1>  -0.1810 
  6 C       -7.8370     1.5500     0.8200 C.2   1 <1>  -0.0400 
  7 C       -6.1790     0.5140    -0.0330 C.2   1 <1>  -0.0400 
  8 C       -5.0430     2.5160    -1.2930 C.3   1 <1>   0.5240 
  9 O       -7.2530     0.3780     0.7190 O.3   1 <1>  -0.2800 
 10 C       -9.0990     1.6730     1.6440 C.3   1 <1>  -0.0600 
 11 C       -5.3190    -0.7080    -0.3100 C.3   1 <1>   0.0200 
 12 N       -4.4910     3.6500    -0.5140 N.4   1 <1>  -0.9590 
 13 C       -5.8120    -1.5230    -1.5210 C.3   1 <1>  -0.0800 
 14 C       -4.2990     4.8860    -1.3250 C.3   1 <1>   0.3430 
 15 C       -3.3730     3.3350     0.4120 C.3   1 <1>   0.3430 
 16 C       -7.2040    -2.1270    -1.2870 C.3   1 <1>  -0.2400 
 17 C       -4.8170    -2.6450    -1.8460 C.3   1 <1>  -0.2400 
 18 C       -3.8280     6.0450    -0.4270 C.3   1 <1>   0.1200 
 19 C       -2.9630     4.5940     1.2000 C.3   1 <1>   0.1200 
 20 O       -2.7060     5.6580     0.3230 O.3   1 <1>  -0.5600 
 21 H       -5.5600     2.8930    -2.1610 H     1 <1>   0.0800 
 22 H       -4.2610     1.8490    -1.6100 H     1 <1>   0.0800 
 23 H       -9.4470     2.6910     1.6390 H     1 <1>   0.0800 
 24 H       -8.9010     1.3760     2.6570 H     1 <1>   0.0800 
 25 H       -9.8630     1.0390     1.2320 H     1 <1>   0.0800 
 26 H       -5.3000    -1.3270     0.5700 H     1 <1>   0.0800 
 27 H       -4.3140    -0.3800    -0.4970 H     1 <1>   0.0800 
 28 H       -5.2830     3.9400     0.1110 H     1 <1>   0.4500 
 29 H       -5.8700    -0.8660    -2.3720 H     1 <1>   0.0800 
 30 H       -5.2350     5.1600    -1.7870 H     1 <1>   0.0800 
 31 H       -3.5690     4.7180    -2.0970 H     1 <1>   0.0800 
 32 H       -2.5230     2.9790    -0.1450 H     1 <1>   0.0800 
 33 H       -3.6790     2.5650     1.1010 H     1 <1>   0.0800 
 34 H       -7.2070    -2.7490    -0.4100 H     1 <1>   0.0800 
 35 H       -7.5040    -2.7200    -2.1330 H     1 <1>   0.0800 
 36 H       -7.9350    -1.3480    -1.1550 H     1 <1>   0.0800 
 37 H       -4.7370    -3.3310    -1.0210 H     1 <1>   0.0800 
 38 H       -3.8430    -2.2410    -2.0550 H     1 <1>   0.0800 
 39 H       -5.1450    -3.1930    -2.7130 H     1 <1>   0.0800 
 40 H       -4.6170     6.3400     0.2460 H     1 <1>   0.0800 
 41 H       -3.5530     6.8930    -1.0270 H     1 <1>   0.0800 
 42 H       -2.0670     4.4070     1.7640 H     1 <1>   0.0800 
 43 H       -3.7460     4.8870     1.8800 H     1 <1>   0.0800 
@<TRIPOS>BOND
  1   1   2  ar  
  2   2   3  ar  
  3   2   4  1   
  4   4   5  1   
  5   4   6  2   
  6   5   7  2   
  7   5   8  1   
  8   6   9  1   
  9   6  10  1   
 10   7   9  1   
 11   7  11  1   
 12   8  12  1   
 13   8  21  1   
 14   8  22  1   
 15  10  23  1   
 16  10  24  1   
 17  10  25  1   
 18  11  13  1   
 19  11  26  1   
 20  11  27  1   
 21  12  14  1   
 22  12  15  1   
 23  12  28  1   
 24  13  16  1   
 25  13  17  1   
 26  13  29  1   
 27  14  18  1   
 28  14  30  1   
 29  14  31  1   
 30  15  19  1   
 31  15  32  1   
 32  15  33  1   
 33  16  34  1   
 34  16  35  1   
 35  16  36  1   
 36  17  37  1   
 37  17  38  1   
 38  17  39  1   
 39  18  20  1   
 40  18  40  1   
 41  18  41  1   
 42  19  20  1   
 43  19  42  1   
 44  19  43  1   
@<TRIPOS>SUBSTRUCTURE
  1 ****   5 GROUP 4 **** **** 0

# MOE 2024.06 (io_trps.svl 2023.06)
