@<TRIPOS>MOLECULE
NONAME
34 34 1 0 0 
SMALL
USER_CHARGES


@<TRIPOS>ATOM
  1 I        0.4760    -0.2850     0.0050 I     1 <1>  -0.0810 
  2 C       -1.5160    -1.0370     0.0030 C.ar  1 <1>   0.0810 
  3 C       -1.7090    -2.4050     0.0010 C.ar  1 <1>  -0.1500 
  4 C       -2.5650    -0.1360     0.0050 C.ar  1 <1>  -0.1500 
  5 C       -3.0080    -2.8840     0.0000 C.ar  1 <1>  -0.1500 
  6 C       -3.8600    -0.6270     0.0040 C.ar  1 <1>  -0.1500 
  7 C       -4.0840    -2.0050     0.0010 C.ar  1 <1>   0.0830 
  8 O       -5.3200    -2.5670     0.0000 O.3   1 <1>  -0.3630 
  9 C       -6.4850    -1.7810     0.0010 C.3   1 <1>   0.1200 
 10 C       -7.6740    -2.7440    -0.0020 C.3   1 <1>   0.3430 
 11 N       -8.9820    -2.0190    -0.0020 N.4   1 <1>  -0.9060 
 12 C      -10.1320    -2.9550    -0.0040 C.3   1 <1>   0.3430 
 13 C      -11.4270    -2.1470    -0.0050 C.3   1 <1>  -0.1600 
 14 C      -12.6480    -3.0760    -0.0070 C.3   1 <1>  -0.1600 
 15 C      -13.9490    -2.2680    -0.0080 C.3   1 <1>  -0.2400 
 16 H       -0.8700    -3.0790    -0.0010 H     1 <1>   0.1500 
 17 H       -2.3730     0.9230     0.0070 H     1 <1>   0.1500 
 18 H       -3.1890    -3.9440    -0.0020 H     1 <1>   0.1500 
 19 H       -4.6680     0.0790     0.0050 H     1 <1>   0.1500 
 20 H       -6.4750    -1.1720    -0.8860 H     1 <1>   0.0800 
 21 H       -6.4770    -1.1750     0.8900 H     1 <1>   0.0800 
 22 H       -7.6090    -3.3720     0.8720 H     1 <1>   0.0800 
 23 H       -7.6080    -3.3700    -0.8770 H     1 <1>   0.0800 
 24 H       -9.0510    -1.4120    -0.8290 H     1 <1>   0.4500 
 25 H       -9.0520    -1.4140     0.8260 H     1 <1>   0.4500 
 26 H      -10.1000    -3.5860     0.8700 H     1 <1>   0.0800 
 27 H      -10.0980    -3.5840    -0.8810 H     1 <1>   0.0800 
 28 H      -11.4670    -1.5220    -0.8800 H     1 <1>   0.0800 
 29 H      -11.4690    -1.5240     0.8720 H     1 <1>   0.0800 
 30 H      -12.6340    -3.7100     0.8640 H     1 <1>   0.0800 
 31 H      -12.6320    -3.7080    -0.8800 H     1 <1>   0.0800 
 32 H      -14.0130    -1.6460     0.8680 H     1 <1>   0.0800 
 33 H      -14.7950    -2.9340    -0.0090 H     1 <1>   0.0800 
 34 H      -14.0110    -1.6440    -0.8820 H     1 <1>   0.0800 
@<TRIPOS>BOND
  1   1   2  1   
  2   2   3  ar  
  3   2   4  ar  
  4   3   5  ar  
  5   3  16  1   
  6   4   6  ar  
  7   4  17  1   
  8   5   7  ar  
  9   5  18  1   
 10   6   7  ar  
 11   6  19  1   
 12   7   8  1   
 13   8   9  1   
 14   9  10  1   
 15   9  20  1   
 16   9  21  1   
 17  10  11  1   
 18  10  22  1   
 19  10  23  1   
 20  11  12  1   
 21  11  24  1   
 22  11  25  1   
 23  12  13  1   
 24  12  26  1   
 25  12  27  1   
 26  13  14  1   
 27  13  28  1   
 28  13  29  1   
 29  14  15  1   
 30  14  30  1   
 31  14  31  1   
 32  15  32  1   
 33  15  33  1   
 34  15  34  1   
@<TRIPOS>SUBSTRUCTURE
  1 ****   9 GROUP 4 **** **** 0

# MOE 2024.06 (io_trps.svl 2023.06)
