@<TRIPOS>MOLECULE
NONAME
42 44 1 0 0 
SMALL
USER_CHARGES


@<TRIPOS>ATOM
  1 O       -0.5960     0.6940    -1.8980 O.2   1 <1>  -0.5700 
  2 C       -1.5770     0.6340    -1.1900 C.2   1 <1>   0.5690 
  3 N       -1.9740    -0.4650    -0.4800 N.am  1 <1>  -0.4770 
  4 C       -2.5550     1.8050    -0.9310 C.3   1 <1>   0.4850 
  5 C       -3.1030    -0.1600     0.2800 C.ar  1 <1>   0.1170 
  6 C       -1.2300    -1.7400    -0.4290 C.3   1 <1>   0.1400 
  7 O       -3.3220     2.1200    -2.0520 O.3   1 <1>  -0.6800 
  8 C       -3.5000     1.1480     0.0660 C.ar  1 <1>  -0.1430 
  9 C       -1.8840     3.0950    -0.4540 C.3   1 <1>  -0.0990 
 10 C       -3.8140    -0.9700     1.1530 C.ar  1 <1>  -0.1500 
 11 C       -1.9010    -2.7610    -1.3450 C.3   1 <1>  -0.2400 
 12 C       -4.6100     1.6690     0.7070 C.ar  1 <1>  -0.1500 
 13 C       -0.7900     2.8180     0.5540 C.2   1 <1>   0.5950 
 14 C       -4.9240    -0.4530     1.8020 C.ar  1 <1>  -0.1500 
 15 C       -5.3210     0.8590     1.5800 C.ar  1 <1>  -0.1500 
 16 O       -1.0750     2.1840     1.5370 O.2   1 <1>  -0.5700 
 17 C        0.5390     3.3090     0.2950 C.2   1 <1>  -0.0860 
 18 C        0.9800     4.5200    -0.1560 C.2   1 <1>  -0.0400 
 19 C        1.7240     2.5820     0.4620 C.2   1 <1>  -0.1810 
 20 O        2.2890     4.6050    -0.2960 O.3   1 <1>  -0.2800 
 21 C        0.2000     5.7760    -0.4900 C.3   1 <1>  -0.0600 
 22 C        2.7140     3.4120     0.0910 C.2   1 <1>  -0.0100 
 23 C        1.8230     1.1480     0.9490 C.3   1 <1>  -0.0590 
 24 H       -1.2070    -2.1000     0.5850 H     1 <1>   0.0800 
 25 H       -0.2150    -1.5750    -0.7500 H     1 <1>   0.0800 
 26 H       -3.8080     1.3180    -2.3240 H     1 <1>   0.4000 
 27 H       -2.6130     3.7460    -0.0130 H     1 <1>   0.0800 
 28 H       -1.4490     3.5770    -1.3090 H     1 <1>   0.0800 
 29 H       -3.5070    -1.9840     1.3250 H     1 <1>   0.1500 
 30 H       -2.9140    -2.9400    -1.0350 H     1 <1>   0.0800 
 31 H       -1.3620    -3.6900    -1.3080 H     1 <1>   0.0800 
 32 H       -1.8950    -2.4040    -2.3600 H     1 <1>   0.0800 
 33 H       -4.9190     2.6850     0.5330 H     1 <1>   0.1500 
 34 H       -5.4830    -1.0710     2.4840 H     1 <1>   0.1500 
 35 H       -6.1850     1.2500     2.0890 H     1 <1>   0.1500 
 36 H       -0.8290     5.6890    -0.1980 H     1 <1>   0.0800 
 37 H        0.2540     5.9640    -1.5470 H     1 <1>   0.0800 
 38 H        0.6310     6.6120     0.0300 H     1 <1>   0.0800 
 39 H        3.7740     3.2300     0.0690 H     1 <1>   0.1500 
 40 H        1.2760     0.5000     0.2880 H     1 <1>   0.0800 
 41 H        1.4090     1.0660     1.9380 H     1 <1>   0.0800 
 42 H        2.8500     0.8320     0.9740 H     1 <1>   0.0800 
@<TRIPOS>BOND
  1   1   2  2   
  2   2   3  am  
  3   2   4  1   
  4   3   5  1   
  5   3   6  1   
  6   4   7  1   
  7   4   8  1   
  8   4   9  1   
  9   5   8  ar  
 10   5  10  ar  
 11   6  11  1   
 12   6  24  1   
 13   6  25  1   
 14   7  26  1   
 15   8  12  ar  
 16   9  13  1   
 17   9  27  1   
 18   9  28  1   
 19  10  14  ar  
 20  10  29  1   
 21  11  30  1   
 22  11  31  1   
 23  11  32  1   
 24  12  15  ar  
 25  12  33  1   
 26  13  16  2   
 27  13  17  1   
 28  14  15  ar  
 29  14  34  1   
 30  15  35  1   
 31  17  18  2   
 32  17  19  1   
 33  18  20  1   
 34  18  21  1   
 35  19  22  2   
 36  19  23  1   
 37  20  22  1   
 38  21  36  1   
 39  21  37  1   
 40  21  38  1   
 41  22  39  1   
 42  23  40  1   
 43  23  41  1   
 44  23  42  1   
@<TRIPOS>SUBSTRUCTURE
  1 ****  13 GROUP 4 **** **** 0

# MOE 2024.06 (io_trps.svl 2023.06)
