@<TRIPOS>MOLECULE
NONAME
42 46 1 0 0 
SMALL
USER_CHARGES


@<TRIPOS>ATOM
  1 S        1.0240    -1.0620     1.4420 S.3   1 <1>  -0.0800 
  2 C        1.7330     0.5390     1.6120 C.ar  1 <1>   0.2970 
  3 C       -0.3930    -0.3990     0.6370 C.2   1 <1>  -0.1100 
  4 N        2.9090     0.7260     2.1700 N.ar  1 <1>  -0.5670 
  5 C        0.9030     1.5040     1.0870 C.ar  1 <1>   0.0000 
  6 C       -0.3090     0.9410     0.5170 C.2   1 <1>  -0.1810 
  7 C        3.2590     1.9950     2.1890 C.ar  1 <1>   0.4700 
  8 C        1.4060     2.8070     1.2010 C.ar  1 <1>   0.4100 
  9 C       -1.3700     1.8130    -0.1480 C.3   1 <1>   0.3810 
 10 N        2.5890     3.0450     1.7390 N.ar  1 <1>  -0.6200 
 11 N        0.7060     3.9120     0.7830 N.pl3 1 <1>  -0.8380 
 12 O       -2.3130     2.1910     0.8410 O.3   1 <1>  -0.3620 
 13 C       -2.1010     1.1110    -1.3050 C.3   1 <1>   0.1200 
 14 C        1.4080     4.9620    -0.0110 C.3   1 <1>   0.2090 
 15 C       -0.2690     4.5130     1.7390 C.3   1 <1>   0.2090 
 16 C       -3.4730     2.7420     0.4040 C.ar  1 <1>   0.0830 
 17 O       -3.1100     1.9560    -1.8330 O.3   1 <1>  -0.3630 
 18 C        0.3950     5.9300    -0.6490 C.3   1 <1>   0.1200 
 19 C       -1.2030     5.5020     1.0170 C.3   1 <1>   0.1200 
 20 C       -3.8610     2.6430    -0.9340 C.ar  1 <1>   0.0830 
 21 C       -4.2710     3.4210     1.3080 C.ar  1 <1>  -0.1500 
 22 O       -0.4660     6.4690     0.3180 O.3   1 <1>  -0.5600 
 23 C       -5.0300     3.2470    -1.3600 C.ar  1 <1>  -0.1500 
 24 C       -5.4440     4.0200     0.8770 C.ar  1 <1>  -0.1500 
 25 C       -5.8210     3.9360    -0.4540 C.ar  1 <1>  -0.1500 
 26 H       -1.1450    -1.1100     0.3400 H     1 <1>   0.1500 
 27 H        4.2180     2.2090     2.6300 H     1 <1>   0.1500 
 28 H       -0.9270     2.7050    -0.5480 H     1 <1>   0.0800 
 29 H       -2.5730     0.2090    -0.9630 H     1 <1>   0.0800 
 30 H       -1.4160     0.8770    -2.0980 H     1 <1>   0.0800 
 31 H        2.0000     4.4960    -0.7790 H     1 <1>   0.0800 
 32 H        2.0710     5.5160     0.6320 H     1 <1>   0.0800 
 33 H        0.2690     5.0360     2.5110 H     1 <1>   0.0800 
 34 H       -0.8490     3.7380     2.2080 H     1 <1>   0.0800 
 35 H       -0.1970     5.4200    -1.3880 H     1 <1>   0.0800 
 36 H        0.9100     6.7480    -1.1210 H     1 <1>   0.0800 
 37 H       -1.8240     6.0130     1.7290 H     1 <1>   0.0800 
 38 H       -1.8350     4.9840     0.3180 H     1 <1>   0.0800 
 39 H       -3.9730     3.4810     2.3390 H     1 <1>   0.1500 
 40 H       -5.3180     3.1730    -2.3930 H     1 <1>   0.1500 
 41 H       -6.0650     4.5520     1.5780 H     1 <1>   0.1500 
 42 H       -6.7320     4.4040    -0.7860 H     1 <1>   0.1500 
@<TRIPOS>BOND
  1   1   2  1   
  2   1   3  1   
  3   2   4  ar  
  4   2   5  ar  
  5   3   6  2   
  6   3  26  1   
  7   4   7  ar  
  8   5   6  1   
  9   5   8  ar  
 10   6   9  1   
 11   7  10  ar  
 12   7  27  1   
 13   8  10  ar  
 14   8  11  1   
 15   9  12  1   
 16   9  13  1   
 17   9  28  1   
 18  11  14  1   
 19  11  15  1   
 20  12  16  1   
 21  13  17  1   
 22  13  29  1   
 23  13  30  1   
 24  14  18  1   
 25  14  31  1   
 26  14  32  1   
 27  15  19  1   
 28  15  33  1   
 29  15  34  1   
 30  16  20  ar  
 31  16  21  ar  
 32  17  20  1   
 33  18  22  1   
 34  18  35  1   
 35  18  36  1   
 36  19  22  1   
 37  19  37  1   
 38  19  38  1   
 39  20  23  ar  
 40  21  24  ar  
 41  21  39  1   
 42  23  25  ar  
 43  23  40  1   
 44  24  25  ar  
 45  24  41  1   
 46  25  42  1   
@<TRIPOS>SUBSTRUCTURE
  1 ****   9 GROUP 4 **** **** 0

# MOE 2024.06 (io_trps.svl 2023.06)
