@<TRIPOS>MOLECULE
NONAME
38 39 1 0 0 
SMALL
USER_CHARGES


@<TRIPOS>ATOM
  1 CL      -1.2250     0.0160    -2.1340 Cl    1 <1>  -0.1770 
  2 C       -1.5330     1.4810    -1.2280 C.ar  1 <1>   0.1770 
  3 C       -2.8290     1.8870    -0.9290 C.ar  1 <1>  -0.1440 
  4 C       -0.4290     2.2130    -0.8340 C.ar  1 <1>  -0.1500 
  5 C       -3.0090     3.0780    -0.2190 C.ar  1 <1>   0.1170 
  6 C       -4.0400     1.0560    -1.3600 C.3   1 <1>  -0.0960 
  7 C       -0.6090     3.3860    -0.1260 C.ar  1 <1>  -0.1500 
  8 N       -4.3080     3.5300     0.0660 N.am  1 <1>  -0.5470 
  9 C       -1.8900     3.8110     0.1730 C.ar  1 <1>  -0.1500 
 10 C       -4.8000     4.3200     1.0700 C.2   1 <1>   0.5690 
 11 O       -4.1160     4.7840     1.9490 O.2   1 <1>  -0.5700 
 12 C       -6.2870     4.6340     1.0810 C.3   1 <1>   0.1310 
 13 S       -7.2680     3.3020     0.2250 S.3   1 <1>  -0.2860 
 14 C       -8.9320     3.9770     0.2460 C.2   1 <1>   0.2430 
 15 N       -9.2150     5.1410     0.7080 N.2   1 <1>  -0.3380 
 16 N       -9.9900     3.3160    -0.2220 N.pl3 1 <1>   0.0480 
 17 N      -10.5330     5.2830     0.5430 N.2   1 <1>  -0.3380 
 18 C      -10.9780     4.1990    -0.0090 C.2   1 <1>   0.0060 
 19 C      -10.0370     1.9660    -0.8210 C.3   1 <1>   0.0160 
 20 C      -12.4340     3.9330    -0.3790 C.3   1 <1>   0.0200 
 21 C      -13.3470     5.1460    -0.1600 C.3   1 <1>  -0.2400 
 22 H        0.5590     1.8660    -1.0810 H     1 <1>   0.1500 
 23 H       -3.7650     0.0570    -1.6440 H     1 <1>   0.0800 
 24 H       -4.5240     1.5230    -2.1990 H     1 <1>   0.0800 
 25 H       -4.7430     0.9690    -0.5510 H     1 <1>   0.0800 
 26 H        0.2410     3.9670     0.1890 H     1 <1>   0.1500 
 27 H       -5.0310     3.1330    -0.5340 H     1 <1>   0.3700 
 28 H       -2.0160     4.7300     0.7160 H     1 <1>   0.1500 
 29 H       -6.4780     5.5560     0.5660 H     1 <1>   0.0800 
 30 H       -6.6520     4.6990     2.0890 H     1 <1>   0.0800 
 31 H       -9.8030     2.0360    -1.8680 H     1 <1>   0.0800 
 32 H      -11.0180     1.5460    -0.6980 H     1 <1>   0.0800 
 33 H       -9.3200     1.3310    -0.3340 H     1 <1>   0.0800 
 34 H      -12.7990     3.1140     0.2150 H     1 <1>   0.0800 
 35 H      -12.4840     3.6480    -1.4150 H     1 <1>   0.0800 
 36 H      -13.3370     5.4360     0.8760 H     1 <1>   0.0800 
 37 H      -14.3560     4.9100    -0.4440 H     1 <1>   0.0800 
 38 H      -13.0050     5.9780    -0.7510 H     1 <1>   0.0800 
@<TRIPOS>BOND
  1   1   2  1   
  2   2   3  ar  
  3   2   4  ar  
  4   3   5  ar  
  5   3   6  1   
  6   4   7  ar  
  7   4  22  1   
  8   5   8  1   
  9   5   9  ar  
 10   6  23  1   
 11   6  24  1   
 12   6  25  1   
 13   7   9  ar  
 14   7  26  1   
 15   8  10  am  
 16   8  27  1   
 17   9  28  1   
 18  10  11  2   
 19  10  12  1   
 20  12  13  1   
 21  12  29  1   
 22  12  30  1   
 23  13  14  1   
 24  14  15  2   
 25  14  16  1   
 26  15  17  1   
 27  16  18  1   
 28  16  19  1   
 29  17  18  2   
 30  18  20  1   
 31  19  31  1   
 32  19  32  1   
 33  19  33  1   
 34  20  21  1   
 35  20  34  1   
 36  20  35  1   
 37  21  36  1   
 38  21  37  1   
 39  21  38  1   
@<TRIPOS>SUBSTRUCTURE
  1 ****  13 GROUP 4 **** **** 0

# MOE 2024.06 (io_trps.svl 2023.06)
