@<TRIPOS>MOLECULE
NONAME
32 32 1 0 0 
SMALL
USER_CHARGES


@<TRIPOS>ATOM
  1 I        0.3710    -0.9400    -1.0040 I     1 <1>  -0.0810 
  2 C        2.3880    -0.3890    -0.5990 C.ar  1 <1>   0.0810 
  3 C        2.9520     0.6470    -1.3200 C.ar  1 <1>  -0.1500 
  4 C        3.0840    -1.0800     0.3740 C.ar  1 <1>  -0.1500 
  5 C        4.2630     0.9980    -1.0480 C.ar  1 <1>  -0.1500 
  6 C        4.3950    -0.7150     0.6290 C.ar  1 <1>  -0.1500 
  7 C        5.0000     0.3270    -0.0730 C.ar  1 <1>   0.1170 
  8 N        6.3290     0.7220     0.1460 N.am  1 <1>  -0.5470 
  9 C        7.1560     0.5420     1.2200 C.2   1 <1>   0.5690 
 10 O        6.8290    -0.0060     2.2420 O.2   1 <1>  -0.5700 
 11 C        8.5710     1.0780     1.1090 C.3   1 <1>  -0.0990 
 12 C        9.4630     0.1740     0.2410 C.3   1 <1>  -0.1600 
 13 C       10.8910     0.7280     0.1430 C.3   1 <1>  -0.1600 
 14 C       11.7870    -0.1790    -0.7060 C.3   1 <1>  -0.0220 
 15 C       13.1910     0.3910    -0.7830 C.2   1 <1>  -0.2880 
 16 C       14.2860    -0.2160    -0.3180 C.2   1 <1>  -0.3000 
 17 H        2.3820     1.1650    -2.0700 H     1 <1>   0.1500 
 18 H        2.6200    -1.8820     0.9190 H     1 <1>   0.1500 
 19 H        4.7140     1.8030    -1.5980 H     1 <1>   0.1500 
 20 H        4.9460    -1.2510     1.3800 H     1 <1>   0.1500 
 21 H        6.7400     1.2550    -0.6170 H     1 <1>   0.3700 
 22 H        8.9860     1.1440     2.0990 H     1 <1>   0.0800 
 23 H        8.5390     2.0710     0.7010 H     1 <1>   0.0800 
 24 H        9.0420     0.0880    -0.7460 H     1 <1>   0.0800 
 25 H        9.4890    -0.8110     0.6780 H     1 <1>   0.0800 
 26 H       11.3160     0.8100     1.1290 H     1 <1>   0.0800 
 27 H       10.8700     1.7120    -0.2930 H     1 <1>   0.0800 
 28 H       11.3870    -0.2660    -1.7020 H     1 <1>   0.0800 
 29 H       11.8180    -1.1640    -0.2720 H     1 <1>   0.0800 
 30 H       13.2260     1.3560    -1.2600 H     1 <1>   0.1500 
 31 H       15.2760     0.2020    -0.3810 H     1 <1>   0.1500 
 32 H       14.2880    -1.1790     0.1640 H     1 <1>   0.1500 
@<TRIPOS>BOND
  1   1   2  1   
  2   2   3  ar  
  3   2   4  ar  
  4   3   5  ar  
  5   3  17  1   
  6   4   6  ar  
  7   4  18  1   
  8   5   7  ar  
  9   5  19  1   
 10   6   7  ar  
 11   6  20  1   
 12   7   8  1   
 13   8   9  am  
 14   8  21  1   
 15   9  10  2   
 16   9  11  1   
 17  11  12  1   
 18  11  22  1   
 19  11  23  1   
 20  12  13  1   
 21  12  24  1   
 22  12  25  1   
 23  13  14  1   
 24  13  26  1   
 25  13  27  1   
 26  14  15  1   
 27  14  28  1   
 28  14  29  1   
 29  15  16  2   
 30  15  30  1   
 31  16  31  1   
 32  16  32  1   
@<TRIPOS>SUBSTRUCTURE
  1 ****   8 GROUP 4 **** **** 0

# MOE 2024.06 (io_trps.svl 2023.06)
