@<TRIPOS>MOLECULE
NONAME
51 53 1 0 0 
SMALL
USER_CHARGES


@<TRIPOS>ATOM
  1 F        5.2860    -4.2490    -1.6210 F     1 <1>  -0.1900 
  2 C        4.0110    -3.9960    -1.8070 C.ar  1 <1>   0.1900 
  3 C        3.4650    -2.8470    -1.2280 C.ar  1 <1>   0.1170 
  4 C        3.2770    -4.8870    -2.5630 C.ar  1 <1>  -0.1500 
  5 N        4.2880    -1.9860    -0.4800 N.am  1 <1>  -0.5470 
  6 C        2.1070    -2.6070    -1.4340 C.ar  1 <1>  -0.1500 
  7 C        1.9370    -4.6030    -2.7360 C.ar  1 <1>   0.1900 
  8 C        4.0190    -1.0630     0.4880 C.2   1 <1>   0.5690 
  9 C        1.3380    -3.4830    -2.1870 C.ar  1 <1>  -0.1500 
 10 F        1.2070    -5.4240    -3.4450 F     1 <1>  -0.1900 
 11 O        2.9090    -0.7770     0.8630 O.2   1 <1>  -0.5700 
 12 C        5.2280    -0.4020     1.1540 C.3   1 <1>   0.1710 
 13 N        6.4000    -1.3230     1.3070 N.3   1 <1>  -0.8100 
 14 C        7.6310    -0.5790     1.6710 C.3   1 <1>   0.1100 
 15 C        6.1260    -2.3830     2.3160 C.3   1 <1>   0.1100 
 16 C        8.8540    -1.5120     1.8680 C.3   1 <1>   0.3430 
 17 C        7.3200    -3.3540     2.5020 C.3   1 <1>   0.3430 
 18 N        8.4820    -2.9500     1.6480 N.4   1 <1>  -0.9590 
 19 C        9.6350    -3.8850     1.6920 C.3   1 <1>   0.4860 
 20 C       10.6010    -3.4850     0.5960 C.ar  1 <1>  -0.1430 
 21 C       10.2370    -3.6280    -0.7340 C.ar  1 <1>  -0.1500 
 22 C       11.8480    -2.9610     0.9080 C.ar  1 <1>  -0.1500 
 23 C       11.0930    -3.2380    -1.7490 C.ar  1 <1>   0.0830 
 24 C       12.7110    -2.5740    -0.1030 C.ar  1 <1>  -0.1500 
 25 O       10.6410    -3.4030    -3.0150 O.3   1 <1>  -0.3620 
 26 C       12.3380    -2.7070    -1.4280 C.ar  1 <1>  -0.1500 
 27 C       11.4580    -3.1120    -4.1290 C.3   1 <1>   0.0400 
 28 H        3.7220    -5.7620    -2.9980 H     1 <1>   0.1500 
 29 H        5.2910    -2.1510    -0.5930 H     1 <1>   0.3700 
 30 H        1.6430    -1.7330    -1.0110 H     1 <1>   0.1500 
 31 H        0.2900    -3.3000    -2.3470 H     1 <1>   0.1500 
 32 H        4.9290    -0.0200     2.1140 H     1 <1>   0.0800 
 33 H        5.5090     0.4350     0.5390 H     1 <1>   0.0800 
 34 H        7.4680    -0.0210     2.5780 H     1 <1>   0.0800 
 35 H        7.8630     0.1310     0.8950 H     1 <1>   0.0800 
 36 H        5.2630    -2.9560     2.0190 H     1 <1>   0.0800 
 37 H        5.8930    -1.9300     3.2660 H     1 <1>   0.0800 
 38 H        9.2470    -1.3790     2.8620 H     1 <1>   0.0800 
 39 H        9.6250    -1.2220     1.1710 H     1 <1>   0.0800 
 40 H        7.0010    -4.3500     2.2410 H     1 <1>   0.0800 
 41 H        7.6080    -3.3630     3.5400 H     1 <1>   0.0800 
 42 H        8.1170    -2.9540     0.6840 H     1 <1>   0.4500 
 43 H        9.3020    -4.8960     1.5220 H     1 <1>   0.0800 
 44 H       10.1200    -3.8370     2.6530 H     1 <1>   0.0800 
 45 H        9.2860    -4.0460    -1.0170 H     1 <1>   0.1500 
 46 H       12.1640    -2.8490     1.9310 H     1 <1>   0.1500 
 47 H       13.6800    -2.1690     0.1410 H     1 <1>   0.1500 
 48 H       13.0260    -2.3970    -2.1930 H     1 <1>   0.1500 
 49 H       10.9050    -3.3480    -5.0200 H     1 <1>   0.0800 
 50 H       12.3450    -3.7180    -4.0790 H     1 <1>   0.0800 
 51 H       11.7050    -2.0650    -4.1190 H     1 <1>   0.0800 
@<TRIPOS>BOND
  1   1   2  1   
  2   2   3  ar  
  3   2   4  ar  
  4   3   5  1   
  5   3   6  ar  
  6   4   7  ar  
  7   4  28  1   
  8   5   8  am  
  9   5  29  1   
 10   6   9  ar  
 11   6  30  1   
 12   7   9  ar  
 13   7  10  1   
 14   8  11  2   
 15   8  12  1   
 16   9  31  1   
 17  12  13  1   
 18  12  32  1   
 19  12  33  1   
 20  13  14  1   
 21  13  15  1   
 22  14  16  1   
 23  14  34  1   
 24  14  35  1   
 25  15  17  1   
 26  15  36  1   
 27  15  37  1   
 28  16  18  1   
 29  16  38  1   
 30  16  39  1   
 31  17  18  1   
 32  17  40  1   
 33  17  41  1   
 34  18  19  1   
 35  18  42  1   
 36  19  20  1   
 37  19  43  1   
 38  19  44  1   
 39  20  21  ar  
 40  20  22  ar  
 41  21  23  ar  
 42  21  45  1   
 43  22  24  ar  
 44  22  46  1   
 45  23  25  1   
 46  23  26  ar  
 47  24  26  ar  
 48  24  47  1   
 49  25  27  1   
 50  26  48  1   
 51  27  49  1   
 52  27  50  1   
 53  27  51  1   
@<TRIPOS>SUBSTRUCTURE
  1 ****  13 GROUP 4 **** **** 0

# MOE 2024.06 (io_trps.svl 2023.06)
