@<TRIPOS>MOLECULE
NONAME
43 44 1 0 0 
SMALL
USER_CHARGES


@<TRIPOS>ATOM
  1 S        0.0660     0.7220     0.9510 S.o2  1 <1>   1.4470 
  2 O       -1.1240    -0.0840     0.7840 O.2   1 <1>  -0.6500 
  3 O        0.4430     1.0710     2.3040 O.2   1 <1>  -0.6500 
  4 N        1.3210    -0.2600     0.3630 N.am  1 <1>  -0.8490 
  5 C        0.1290     2.2050    -0.1360 C.ar  1 <1>  -0.0090 
  6 C        1.5000    -1.4400     1.2540 C.3   1 <1>   0.2570 
  7 C        1.0820    -0.7060    -1.0190 C.3   1 <1>   0.1160 
  8 C       -0.8860     2.5130    -1.0580 C.ar  1 <1>  -0.1440 
  9 C        1.2310     3.0740    -0.0850 C.ar  1 <1>  -0.1440 
 10 C        2.8010    -2.2130     1.0210 C.2   1 <1>   0.5690 
 11 C       -0.7850     3.6230    -1.8820 C.ar  1 <1>  -0.1500 
 12 C       -2.1510     1.6760    -1.2200 C.3   1 <1>  -0.0970 
 13 C        1.3100     4.1790    -0.9180 C.ar  1 <1>  -0.1500 
 14 C        2.3950     2.8730     0.8830 C.3   1 <1>  -0.0960 
 15 O        2.8150    -3.4100     1.1910 O.2   1 <1>  -0.5700 
 16 N        3.8960    -1.5130     0.6210 N.am  1 <1>  -0.5790 
 17 C        0.3090     4.4600    -1.8220 C.ar  1 <1>  -0.1430 
 18 C        5.2290    -2.0600     0.3410 C.3   1 <1>   0.0490 
 19 C        0.4050     5.6740    -2.7280 C.3   1 <1>  -0.0970 
 20 C        6.4130    -1.2010     0.6350 C.3   1 <1>  -0.2000 
 21 C        6.0080    -1.4650    -0.7840 C.3   1 <1>  -0.2000 
 22 H        0.6680    -2.1140     1.1430 H     1 <1>   0.0800 
 23 H        1.5180    -1.1200     2.2810 H     1 <1>   0.0800 
 24 H        0.9790     0.1450    -1.6720 H     1 <1>   0.0800 
 25 H        0.1820    -1.2980    -1.0780 H     1 <1>   0.0800 
 26 H        1.9080    -1.2980    -1.3750 H     1 <1>   0.0800 
 27 H       -1.5690     3.8500    -2.5830 H     1 <1>   0.1500 
 28 H       -1.9060     0.6790    -1.5360 H     1 <1>   0.0800 
 29 H       -2.8120     2.0980    -1.9560 H     1 <1>   0.0800 
 30 H       -2.6900     1.6320    -0.2900 H     1 <1>   0.0800 
 31 H        2.1590     4.8370    -0.8640 H     1 <1>   0.1500 
 32 H        3.1860     3.5760     0.6930 H     1 <1>   0.0800 
 33 H        2.0640     3.0210     1.8950 H     1 <1>   0.0800 
 34 H        2.8100     1.8870     0.7890 H     1 <1>   0.0800 
 35 H        3.7700    -0.5140     0.4460 H     1 <1>   0.3700 
 36 H        5.3010    -3.1220     0.5190 H     1 <1>   0.1000 
 37 H       -0.1220     5.5010    -3.6490 H     1 <1>   0.0800 
 38 H        1.4320     5.8890    -2.9610 H     1 <1>   0.0800 
 39 H       -0.0260     6.5280    -2.2370 H     1 <1>   0.0800 
 40 H        7.3090    -1.6700     1.0040 H     1 <1>   0.1000 
 41 H        6.2550    -0.2240     1.0550 H     1 <1>   0.1000 
 42 H        5.5690    -0.6690    -1.3590 H     1 <1>   0.1000 
 43 H        6.6300    -2.1120    -1.3780 H     1 <1>   0.1000 
@<TRIPOS>BOND
  1   1   2  2   
  2   1   3  2   
  3   1   4  am  
  4   1   5  1   
  5   4   6  1   
  6   4   7  1   
  7   5   8  ar  
  8   5   9  ar  
  9   6  10  1   
 10   6  22  1   
 11   6  23  1   
 12   7  24  1   
 13   7  25  1   
 14   7  26  1   
 15   8  11  ar  
 16   8  12  1   
 17   9  13  ar  
 18   9  14  1   
 19  10  15  2   
 20  10  16  am  
 21  11  17  ar  
 22  11  27  1   
 23  12  28  1   
 24  12  29  1   
 25  12  30  1   
 26  13  17  ar  
 27  13  31  1   
 28  14  32  1   
 29  14  33  1   
 30  14  34  1   
 31  16  18  1   
 32  16  35  1   
 33  17  19  1   
 34  18  20  1   
 35  18  21  1   
 36  18  36  1   
 37  19  37  1   
 38  19  38  1   
 39  19  39  1   
 40  20  21  1   
 41  20  40  1   
 42  20  41  1   
 43  21  42  1   
 44  21  43  1   
@<TRIPOS>SUBSTRUCTURE
  1 ****   4 GROUP 4 **** **** 0

# MOE 2024.06 (io_trps.svl 2023.06)
