@<TRIPOS>MOLECULE
NONAME
27 28 1 0 0 
SMALL
USER_CHARGES


@<TRIPOS>ATOM
  1 F       -0.7000     3.4780    -1.9670 F     1 <1>  -0.1900 
  2 C       -1.4450     3.1850    -0.9350 C.ar  1 <1>   0.1900 
  3 C       -0.8280     2.9120     0.2690 C.ar  1 <1>  -0.1500 
  4 C       -2.8180     3.1620    -1.0920 C.ar  1 <1>  -0.1500 
  5 C       -1.6560     2.6090     1.3310 C.ar  1 <1>   0.1900 
  6 C       -3.6360     2.8520    -0.0080 C.ar  1 <1>   0.1170 
  7 F       -1.1110     2.3460     2.4890 F     1 <1>  -0.1900 
  8 C       -3.0330     2.5750     1.2190 C.ar  1 <1>  -0.1500 
  9 N       -5.0250     2.8420    -0.2030 N.am  1 <1>  -0.5470 
 10 C       -6.0690     2.3880     0.5570 C.2   1 <1>   0.5690 
 11 O       -5.9370     1.8540     1.6330 O.2   1 <1>  -0.5700 
 12 C       -7.4790     2.5740    -0.0180 C.3   1 <1>   0.2610 
 13 O       -7.4510     3.0950    -1.3230 O.3   1 <1>  -0.5600 
 14 C       -8.3390     3.5710     0.7520 C.3   1 <1>  -0.1600 
 15 C       -8.6850     3.6610    -1.6320 C.3   1 <1>   0.1200 
 16 C       -9.2980     4.1010    -0.3040 C.3   1 <1>  -0.1600 
 17 H        0.2400     2.9330     0.3740 H     1 <1>   0.1500 
 18 H       -3.2430     3.3820    -2.0530 H     1 <1>   0.1500 
 19 H       -3.6200     2.3350     2.0860 H     1 <1>   0.1500 
 20 H       -5.3600     3.2120    -1.0980 H     1 <1>   0.3700 
 21 H       -7.9710     1.6180    -0.0620 H     1 <1>   0.0800 
 22 H       -7.7180     4.3660     1.1270 H     1 <1>   0.0800 
 23 H       -8.8420     3.1000     1.5780 H     1 <1>   0.0800 
 24 H       -9.2890     2.9080    -2.1100 H     1 <1>   0.0800 
 25 H       -8.5280     4.4880    -2.3030 H     1 <1>   0.0800 
 26 H       -9.3820     5.1730    -0.2540 H     1 <1>   0.0800 
 27 H      -10.2780     3.6690    -0.1940 H     1 <1>   0.0800 
@<TRIPOS>BOND
  1   1   2  1   
  2   2   3  ar  
  3   2   4  ar  
  4   3   5  ar  
  5   3  17  1   
  6   4   6  ar  
  7   4  18  1   
  8   5   7  1   
  9   5   8  ar  
 10   6   8  ar  
 11   6   9  1   
 12   8  19  1   
 13   9  10  am  
 14   9  20  1   
 15  10  11  2   
 16  10  12  1   
 17  12  13  1   
 18  12  14  1   
 19  12  21  1   
 20  13  15  1   
 21  14  16  1   
 22  14  22  1   
 23  14  23  1   
 24  15  16  1   
 25  15  24  1   
 26  15  25  1   
 27  16  26  1   
 28  16  27  1   
@<TRIPOS>SUBSTRUCTURE
  1 ****   9 GROUP 4 **** **** 0

# MOE 2024.06 (io_trps.svl 2023.06)
