@<TRIPOS>MOLECULE
NONAME
46 47 1 0 0 
SMALL
USER_CHARGES


@<TRIPOS>ATOM
  1 O        0.7410    -2.8960    -3.3680 O.2   1 <1>  -0.5700 
  2 C       -0.0280    -2.6780    -2.4630 C.2   1 <1>   0.5690 
  3 N        0.3080    -1.8970    -1.4060 N.am  1 <1>  -0.7300 
  4 C       -1.4220    -3.2890    -2.5080 C.3   1 <1>   0.1810 
  5 C        1.6300    -1.3220    -1.1140 C.3   1 <1>   0.2200 
  6 O       -1.8890    -3.5640    -1.1930 O.3   1 <1>  -0.3630 
  7 C        2.1220    -1.9000     0.2350 C.3   1 <1>   0.2000 
  8 C        1.4650     0.2010    -1.1320 C.3   1 <1>  -0.2400 
  9 C       -3.1610    -3.2350    -0.8720 C.ar  1 <1>   0.0820 
 10 O        1.2260    -1.6090     1.2670 O.3   1 <1>  -0.5600 
 11 C        3.4640    -1.4000     0.7540 C.3   1 <1>  -0.1600 
 12 C       -3.4100    -2.5010     0.2870 C.ar  1 <1>  -0.1430 
 13 C       -4.2060    -3.6280    -1.6990 C.ar  1 <1>  -0.1500 
 14 C        1.8520    -1.7270     2.5060 C.3   1 <1>   0.1200 
 15 C        3.3570    -1.6760     2.2440 C.3   1 <1>  -0.1600 
 16 C       -4.7220    -2.1480     0.5760 C.ar  1 <1>  -0.1500 
 17 C       -2.2720    -2.0690     1.2210 C.3   1 <1>   0.0630 
 18 C       -5.5060    -3.2740    -1.3910 C.ar  1 <1>  -0.1500 
 19 C       -5.7620    -2.5300    -0.2540 C.ar  1 <1>  -0.1500 
 20 C       -2.5510    -2.4430     2.6820 C.3   1 <1>  -0.2400 
 21 C       -2.0220    -0.5640     1.0870 C.3   1 <1>  -0.2400 
 22 H       -0.3370    -1.8480    -0.6100 H     1 <1>   0.3700 
 23 H       -1.4020    -4.2120    -3.0560 H     1 <1>   0.0800 
 24 H       -2.0880    -2.5940    -2.9850 H     1 <1>   0.0800 
 25 H        2.3200    -1.6100    -1.8890 H     1 <1>   0.0800 
 26 H        2.1640    -2.9730     0.1500 H     1 <1>   0.0800 
 27 H        0.8380     0.5210    -0.3200 H     1 <1>   0.0800 
 28 H        1.0260     0.5090    -2.0640 H     1 <1>   0.0800 
 29 H        2.4190     0.6850    -1.0430 H     1 <1>   0.0800 
 30 H        3.5690    -0.3440     0.5900 H     1 <1>   0.0800 
 31 H        4.2890    -1.9160     0.2950 H     1 <1>   0.0800 
 32 H       -4.0100    -4.2150    -2.5770 H     1 <1>   0.1500 
 33 H        1.5580    -2.6640     2.9470 H     1 <1>   0.0800 
 34 H        1.5240    -0.9090     3.1240 H     1 <1>   0.0800 
 35 H        3.8350    -0.9130     2.8330 H     1 <1>   0.0800 
 36 H        3.7920    -2.6300     2.4870 H     1 <1>   0.0800 
 37 H       -4.9460    -1.5680     1.4520 H     1 <1>   0.1500 
 38 H       -1.3650    -2.5800     0.9490 H     1 <1>   0.0800 
 39 H       -6.3160    -3.5760    -2.0310 H     1 <1>   0.1500 
 40 H       -6.7720    -2.2480    -0.0120 H     1 <1>   0.1500 
 41 H       -3.3820    -1.8870     3.0770 H     1 <1>   0.0800 
 42 H       -1.6850    -2.2350     3.2840 H     1 <1>   0.0800 
 43 H       -2.7710    -3.4930     2.7520 H     1 <1>   0.0800 
 44 H       -2.8830    -0.0060     1.4060 H     1 <1>   0.0800 
 45 H       -1.8150    -0.3170     0.0610 H     1 <1>   0.0800 
 46 H       -1.1770    -0.2730     1.6840 H     1 <1>   0.0800 
@<TRIPOS>BOND
  1   1   2  2   
  2   2   3  am  
  3   2   4  1   
  4   3   5  1   
  5   3  22  1   
  6   4   6  1   
  7   4  23  1   
  8   4  24  1   
  9   5   7  1   
 10   5   8  1   
 11   5  25  1   
 12   6   9  1   
 13   7  10  1   
 14   7  11  1   
 15   7  26  1   
 16   8  27  1   
 17   8  28  1   
 18   8  29  1   
 19   9  12  ar  
 20   9  13  ar  
 21  10  14  1   
 22  11  15  1   
 23  11  30  1   
 24  11  31  1   
 25  12  16  ar  
 26  12  17  1   
 27  13  18  ar  
 28  13  32  1   
 29  14  15  1   
 30  14  33  1   
 31  14  34  1   
 32  15  35  1   
 33  15  36  1   
 34  16  19  ar  
 35  16  37  1   
 36  17  20  1   
 37  17  21  1   
 38  17  38  1   
 39  18  19  ar  
 40  18  39  1   
 41  19  40  1   
 42  20  41  1   
 43  20  42  1   
 44  20  43  1   
 45  21  44  1   
 46  21  45  1   
 47  21  46  1   
@<TRIPOS>SUBSTRUCTURE
  1 ****   3 GROUP 4 **** **** 0

# MOE 2024.06 (io_trps.svl 2023.06)
