@<TRIPOS>MOLECULE
NONAME
46 48 1 0 0 
SMALL
USER_CHARGES


@<TRIPOS>ATOM
  1 F       -2.7660     0.6800     0.3660 F     1 <1>  -0.1900 
  2 C       -1.6640     1.3750     0.2830 C.ar  1 <1>   0.1900 
  3 C       -1.6240     2.4610    -0.5820 C.ar  1 <1>  -0.1440 
  4 C       -0.5930     1.0040     1.0710 C.ar  1 <1>  -0.1500 
  5 C       -0.4510     3.2050    -0.6600 C.ar  1 <1>  -0.1500 
  6 C       -2.8360     2.8090    -1.4250 C.3   1 <1>   0.4870 
  7 C        0.5520     1.7680     0.9690 C.ar  1 <1>   0.1900 
  8 C        0.6430     2.8590     0.1210 C.ar  1 <1>  -0.1500 
  9 N       -3.5770     3.9300    -0.7840 N.4   1 <1>  -0.9590 
 10 F        1.5850     1.4520     1.7000 F     1 <1>  -0.1900 
 11 C       -4.2070     3.5080     0.5240 C.3   1 <1>   0.3430 
 12 C       -4.6200     4.5040    -1.7100 C.3   1 <1>   0.3430 
 13 C       -4.9850     4.6500     1.2120 C.3   1 <1>   0.2090 
 14 C       -5.3860     5.6860    -1.0800 C.3   1 <1>   0.2090 
 15 N       -5.9140     5.3390     0.2690 N.pl3 1 <1>  -0.8380 
 16 C       -7.2760     5.0540     0.3650 C.ar  1 <1>   0.1000 
 17 C       -8.1810     6.0290     0.7820 C.ar  1 <1>  -0.1430 
 18 C       -7.7520     3.7880     0.0350 C.ar  1 <1>  -0.1500 
 19 C       -9.5300     5.7250     0.8590 C.ar  1 <1>  -0.1500 
 20 C       -7.7060     7.4250     1.1590 C.3   1 <1>  -0.0970 
 21 C       -9.1000     3.4850     0.1140 C.ar  1 <1>  -0.1430 
 22 C       -9.9880     4.4630     0.5270 C.ar  1 <1>  -0.1500 
 23 C       -9.6200     2.1050    -0.2450 C.3   1 <1>  -0.0970 
 24 H       -0.6410     0.1590     1.7350 H     1 <1>   0.1500 
 25 H       -0.3670     4.0500    -1.3250 H     1 <1>   0.1500 
 26 H       -3.4770     1.9480    -1.5260 H     1 <1>   0.0800 
 27 H       -2.5060     3.0990    -2.4090 H     1 <1>   0.0800 
 28 H        1.5620     3.4190     0.0760 H     1 <1>   0.1500 
 29 H       -2.9000     4.6710    -0.5660 H     1 <1>   0.4500 
 30 H       -3.4490     3.1520     1.2020 H     1 <1>   0.0800 
 31 H       -4.8920     2.6960     0.3480 H     1 <1>   0.0800 
 32 H       -5.3390     3.7420    -1.9610 H     1 <1>   0.0800 
 33 H       -4.1600     4.8380    -2.6250 H     1 <1>   0.0800 
 34 H       -4.2950     5.3710     1.6120 H     1 <1>   0.0800 
 35 H       -5.5490     4.2500     2.0390 H     1 <1>   0.0800 
 36 H       -6.2050     5.9630    -1.7230 H     1 <1>   0.0800 
 37 H       -4.7380     6.5410    -0.9950 H     1 <1>   0.0800 
 38 H       -7.0640     3.0350    -0.2870 H     1 <1>   0.1500 
 39 H      -10.2370     6.4700     1.1790 H     1 <1>   0.1500 
 40 H       -6.9660     7.3590     1.9360 H     1 <1>   0.0800 
 41 H       -8.5200     8.0310     1.5140 H     1 <1>   0.0800 
 42 H       -7.2690     7.9040     0.3030 H     1 <1>   0.0800 
 43 H      -11.0400     4.2450     0.5930 H     1 <1>   0.1500 
 44 H       -8.8110     1.4240    -0.4410 H     1 <1>   0.0800 
 45 H      -10.2400     2.1660    -1.1220 H     1 <1>   0.0800 
 46 H      -10.2060     1.7130     0.5660 H     1 <1>   0.0800 
@<TRIPOS>BOND
  1   1   2  1   
  2   2   3  ar  
  3   2   4  ar  
  4   3   5  ar  
  5   3   6  1   
  6   4   7  ar  
  7   4  24  1   
  8   5   8  ar  
  9   5  25  1   
 10   6   9  1   
 11   6  26  1   
 12   6  27  1   
 13   7   8  ar  
 14   7  10  1   
 15   8  28  1   
 16   9  11  1   
 17   9  12  1   
 18   9  29  1   
 19  11  13  1   
 20  11  30  1   
 21  11  31  1   
 22  12  14  1   
 23  12  32  1   
 24  12  33  1   
 25  13  15  1   
 26  13  34  1   
 27  13  35  1   
 28  14  15  1   
 29  14  36  1   
 30  14  37  1   
 31  15  16  1   
 32  16  17  ar  
 33  16  18  ar  
 34  17  19  ar  
 35  17  20  1   
 36  18  21  ar  
 37  18  38  1   
 38  19  22  ar  
 39  19  39  1   
 40  20  40  1   
 41  20  41  1   
 42  20  42  1   
 43  21  22  ar  
 44  21  23  1   
 45  22  43  1   
 46  23  44  1   
 47  23  45  1   
 48  23  46  1   
@<TRIPOS>SUBSTRUCTURE
  1 ****  11 GROUP 4 **** **** 0

# MOE 2024.06 (io_trps.svl 2023.06)
