@<TRIPOS>MOLECULE
NONAME
25 25 1 0 0 
SMALL
USER_CHARGES


@<TRIPOS>ATOM
  1 I        0.5280    -0.1610     0.1480 I     1 <1>  -0.0810 
  2 C       -1.4420    -0.9530    -0.0110 C.ar  1 <1>   0.0810 
  3 C       -1.6420    -2.0870    -0.7730 C.ar  1 <1>  -0.1500 
  4 C       -2.4740    -0.3120     0.6520 C.ar  1 <1>  -0.1500 
  5 C       -2.9300    -2.5790    -0.8580 C.ar  1 <1>   0.1770 
  6 C       -3.7550    -0.8290     0.5480 C.ar  1 <1>  -0.1500 
  7 CL      -3.2070    -4.0140    -1.8250 Cl    1 <1>  -0.1770 
  8 C       -4.0100    -1.9760    -0.2070 C.ar  1 <1>   0.1170 
  9 N       -5.2940    -2.5440    -0.3480 N.am  1 <1>  -0.5470 
 10 C       -6.4850    -2.3060     0.2820 C.2   1 <1>   0.5690 
 11 O       -6.6240    -1.4830     1.1540 O.2   1 <1>  -0.5700 
 12 C       -7.6930    -3.1460    -0.1490 C.3   1 <1>  -0.0190 
 13 C       -8.8550    -2.2620    -0.6320 C.3   1 <1>  -0.2400 
 14 C       -8.1690    -4.0660     0.9870 C.3   1 <1>  -0.2400 
 15 H       -0.8300    -2.5720    -1.2830 H     1 <1>   0.1500 
 16 H       -2.2850     0.5710     1.2370 H     1 <1>   0.1500 
 17 H       -4.5550    -0.3250     1.0600 H     1 <1>   0.1500 
 18 H       -5.3200    -3.3090    -1.0230 H     1 <1>   0.3700 
 19 H       -7.3960    -3.7700    -0.9730 H     1 <1>   0.0800 
 20 H       -9.2010    -1.6310     0.1690 H     1 <1>   0.0800 
 21 H       -9.6750    -2.8680    -0.9730 H     1 <1>   0.0800 
 22 H       -8.5310    -1.6330    -1.4420 H     1 <1>   0.0800 
 23 H       -8.4910    -3.4790     1.8300 H     1 <1>   0.0800 
 24 H       -7.3660    -4.7070     1.3070 H     1 <1>   0.0800 
 25 H       -8.9890    -4.6790     0.6590 H     1 <1>   0.0800 
@<TRIPOS>BOND
  1   1   2  1   
  2   2   3  ar  
  3   2   4  ar  
  4   3   5  ar  
  5   3  15  1   
  6   4   6  ar  
  7   4  16  1   
  8   5   7  1   
  9   5   8  ar  
 10   6   8  ar  
 11   6  17  1   
 12   8   9  1   
 13   9  10  am  
 14   9  18  1   
 15  10  11  2   
 16  10  12  1   
 17  12  13  1   
 18  12  14  1   
 19  12  19  1   
 20  13  20  1   
 21  13  21  1   
 22  13  22  1   
 23  14  23  1   
 24  14  24  1   
 25  14  25  1   
@<TRIPOS>SUBSTRUCTURE
  1 ****   8 GROUP 4 **** **** 0

# MOE 2024.06 (io_trps.svl 2023.06)
