@<TRIPOS>MOLECULE
NONAME
38 38 1 0 0 
SMALL
USER_CHARGES


@<TRIPOS>ATOM
  1 O       -0.0760    -1.9200     2.3160 O.2   1 <1>  -0.5700 
  2 C        0.1480    -1.9460     1.1290 C.2   1 <1>   0.5690 
  3 N        1.3710    -1.6440     0.6310 N.am  1 <1>  -0.7300 
  4 C       -0.9640    -2.3330     0.1510 C.3   1 <1>  -0.0190 
  5 C        2.5650    -1.3360     1.4340 C.3   1 <1>   0.2840 
  6 C       -2.1270    -1.3180     0.2690 C.3   1 <1>  -0.1600 
  7 C       -1.3950    -3.8000     0.3900 C.3   1 <1>  -0.1600 
  8 C        3.7020    -2.2220     0.9530 C.ar  1 <1>  -0.1440 
  9 C       -3.2550    -1.5070    -0.7520 C.3   1 <1>  -0.2400 
 10 C       -1.7430    -4.5610    -0.8990 C.3   1 <1>  -0.2400 
 11 C        4.4430    -1.8840    -0.1760 C.ar  1 <1>   0.0820 
 12 C        3.9990    -3.3840     1.6480 C.ar  1 <1>  -0.1500 
 13 O        4.1050    -0.7440    -0.8360 O.3   1 <1>  -0.3630 
 14 C        5.4840    -2.7150    -0.5880 C.ar  1 <1>  -0.1500 
 15 C        5.0320    -4.2050     1.2330 C.ar  1 <1>  -0.1500 
 16 C        4.8500    -0.2790    -1.9400 C.3   1 <1>   0.0400 
 17 C        5.7750    -3.8690     0.1160 C.ar  1 <1>  -0.1500 
 18 H        1.5650    -1.7100    -0.3690 H     1 <1>   0.3700 
 19 H       -0.5550    -2.2560    -0.8400 H     1 <1>   0.0800 
 20 H        2.3680    -1.5120     2.4780 H     1 <1>   0.0800 
 21 H        2.8220    -0.2980     1.3110 H     1 <1>   0.0800 
 22 H       -1.7220    -0.3280     0.1440 H     1 <1>   0.0800 
 23 H       -2.5400    -1.3660     1.2630 H     1 <1>   0.0800 
 24 H       -2.2260    -3.8300     1.0750 H     1 <1>   0.0800 
 25 H       -0.5840    -4.3280     0.8630 H     1 <1>   0.0800 
 26 H       -2.8600    -1.5500    -1.7520 H     1 <1>   0.0800 
 27 H       -3.9410    -0.6810    -0.6910 H     1 <1>   0.0800 
 28 H       -3.8050    -2.4080    -0.5460 H     1 <1>   0.0800 
 29 H       -2.5640    -4.1060    -1.4190 H     1 <1>   0.0800 
 30 H       -2.0170    -5.5730    -0.6590 H     1 <1>   0.0800 
 31 H       -0.8920    -4.5890    -1.5570 H     1 <1>   0.0800 
 32 H        3.4210    -3.6550     2.5160 H     1 <1>   0.1500 
 33 H        6.0760    -2.4830    -1.4520 H     1 <1>   0.1500 
 34 H        5.2560    -5.1050     1.7800 H     1 <1>   0.1500 
 35 H        4.4170     0.6490    -2.2680 H     1 <1>   0.0800 
 36 H        4.7960    -1.0070    -2.7300 H     1 <1>   0.0800 
 37 H        5.8680    -0.1180    -1.6310 H     1 <1>   0.0800 
 38 H        6.5790    -4.5080    -0.2050 H     1 <1>   0.1500 
@<TRIPOS>BOND
  1   1   2  2   
  2   2   3  am  
  3   2   4  1   
  4   3   5  1   
  5   3  18  1   
  6   4   6  1   
  7   4   7  1   
  8   4  19  1   
  9   5   8  1   
 10   5  20  1   
 11   5  21  1   
 12   6   9  1   
 13   6  22  1   
 14   6  23  1   
 15   7  10  1   
 16   7  24  1   
 17   7  25  1   
 18   8  11  ar  
 19   8  12  ar  
 20   9  26  1   
 21   9  27  1   
 22   9  28  1   
 23  10  29  1   
 24  10  30  1   
 25  10  31  1   
 26  11  13  1   
 27  11  14  ar  
 28  12  15  ar  
 29  12  32  1   
 30  13  16  1   
 31  14  17  ar  
 32  14  33  1   
 33  15  17  ar  
 34  15  34  1   
 35  16  35  1   
 36  16  36  1   
 37  16  37  1   
 38  17  38  1   
@<TRIPOS>SUBSTRUCTURE
  1 ****   3 GROUP 4 **** **** 0

# MOE 2024.06 (io_trps.svl 2023.06)
