@<TRIPOS>MOLECULE
NONAME
41 42 1 0 0 
SMALL
USER_CHARGES


@<TRIPOS>ATOM
  1 BR       1.6020    -0.4090     2.2270 Br    1 <1>  -0.1110 
  2 C        0.6910    -1.8780     1.3690 C.ar  1 <1>   0.1110 
  3 C        1.2600    -2.5050     0.2720 C.ar  1 <1>   0.0830 
  4 C       -0.5320    -2.2680     1.8820 C.ar  1 <1>  -0.1500 
  5 O        2.4520    -2.1190    -0.2280 O.3   1 <1>  -0.5330 
  6 C        0.5850    -3.5620    -0.3300 C.ar  1 <1>   0.0830 
  7 C       -1.2110    -3.3190     1.2800 C.ar  1 <1>  -0.1430 
  8 O        1.1830    -4.1540    -1.4050 O.3   1 <1>  -0.3630 
  9 C       -0.6500    -3.9600     0.1810 C.ar  1 <1>  -0.1500 
 10 C       -2.5660    -3.7640     1.8130 C.3   1 <1>   0.2530 
 11 C        0.6360    -5.3140    -1.9950 C.3   1 <1>   0.0400 
 12 N       -3.6100    -3.6150     0.7780 N.3   1 <1>  -0.8100 
 13 C       -3.7660    -2.2100     0.3390 C.3   1 <1>   0.1100 
 14 C       -4.8940    -4.1870     1.2250 C.3   1 <1>   0.1100 
 15 C       -4.8310    -2.0820    -0.7680 C.3   1 <1>   0.3430 
 16 C       -5.9720    -4.0780     0.1260 C.3   1 <1>   0.3430 
 17 N       -6.1550    -2.6580    -0.3440 N.4   1 <1>  -0.9590 
 18 C       -7.1510    -2.5460    -1.4390 C.3   1 <1>   0.3430 
 19 C       -8.5520    -2.7790    -0.8870 C.3   1 <1>  -0.2400 
 20 H       -0.9330    -1.7520     2.7350 H     1 <1>   0.1500 
 21 H        2.6800    -2.6840    -0.9940 H     1 <1>   0.4500 
 22 H       -1.1970    -4.7680    -0.2660 H     1 <1>   0.1500 
 23 H       -2.8280    -3.1910     2.6870 H     1 <1>   0.0800 
 24 H       -2.4930    -4.7990     2.1020 H     1 <1>   0.0800 
 25 H        1.2930    -5.6300    -2.7850 H     1 <1>   0.0800 
 26 H       -0.3320    -5.0780    -2.3990 H     1 <1>   0.0800 
 27 H        0.5660    -6.0860    -1.2490 H     1 <1>   0.0800 
 28 H       -2.8320    -1.8480    -0.0560 H     1 <1>   0.0800 
 29 H       -4.0330    -1.5870     1.1760 H     1 <1>   0.0800 
 30 H       -5.2340    -3.6850     2.1150 H     1 <1>   0.0800 
 31 H       -4.7530    -5.2280     1.4650 H     1 <1>   0.0800 
 32 H       -4.4720    -2.6020    -1.6410 H     1 <1>   0.0800 
 33 H       -4.9480    -1.0420    -1.0260 H     1 <1>   0.0800 
 34 H       -6.9020    -4.4620     0.5090 H     1 <1>   0.0800 
 35 H       -5.6730    -4.6980    -0.7030 H     1 <1>   0.0800 
 36 H       -6.4880    -2.1050     0.4550 H     1 <1>   0.4500 
 37 H       -6.9330    -3.2610    -2.2170 H     1 <1>   0.0800 
 38 H       -7.1070    -1.5570    -1.8700 H     1 <1>   0.0800 
 39 H       -8.6740    -3.7860    -0.5320 H     1 <1>   0.0800 
 40 H       -9.2690    -2.6240    -1.6740 H     1 <1>   0.0800 
 41 H       -8.7740    -2.0840    -0.0970 H     1 <1>   0.0800 
@<TRIPOS>BOND
  1   1   2  1   
  2   2   3  ar  
  3   2   4  ar  
  4   3   5  1   
  5   3   6  ar  
  6   4   7  ar  
  7   4  20  1   
  8   5  21  1   
  9   6   8  1   
 10   6   9  ar  
 11   7   9  ar  
 12   7  10  1   
 13   8  11  1   
 14   9  22  1   
 15  10  12  1   
 16  10  23  1   
 17  10  24  1   
 18  11  25  1   
 19  11  26  1   
 20  11  27  1   
 21  12  13  1   
 22  12  14  1   
 23  13  15  1   
 24  13  28  1   
 25  13  29  1   
 26  14  16  1   
 27  14  30  1   
 28  14  31  1   
 29  15  17  1   
 30  15  32  1   
 31  15  33  1   
 32  16  17  1   
 33  16  34  1   
 34  16  35  1   
 35  17  18  1   
 36  17  36  1   
 37  18  19  1   
 38  18  37  1   
 39  18  38  1   
 40  19  39  1   
 41  19  40  1   
 42  19  41  1   
@<TRIPOS>SUBSTRUCTURE
  1 ****   7 GROUP 4 **** **** 0

# MOE 2024.06 (io_trps.svl 2023.06)
