@<TRIPOS>MOLECULE
NONAME
37 37 1 0 0 
SMALL
USER_CHARGES


@<TRIPOS>ATOM
  1 S       -0.0310    -0.1390     1.9110 S.o2  1 <1>   1.3330 
  2 O       -0.8820     0.3960     2.9440 O.2   1 <1>  -0.6500 
  3 O        0.3860    -1.5200     1.9170 O.2   1 <1>  -0.6500 
  4 N        1.3740     0.8410     1.9630 N.am  1 <1>  -0.7570 
  5 C       -0.7220     0.2820     0.3090 C.3   1 <1>  -0.0550 
  6 C        2.3510     0.9020     0.9740 C.ar  1 <1>   0.1990 
  7 C       -2.0600    -0.4140     0.0100 C.3   1 <1>  -0.1600 
  8 C        2.7330     2.1460     0.4600 C.ar  1 <1>   0.0830 
  9 C        2.9540    -0.2470     0.4840 C.ar  1 <1>  -0.1500 
 10 C       -2.5980    -0.0150    -1.3690 C.3   1 <1>  -0.1600 
 11 O        2.1070     3.2530     0.9720 O.3   1 <1>  -0.3630 
 12 C        3.7020     2.2170    -0.5350 C.ar  1 <1>  -0.1500 
 13 C        3.9160    -0.1780    -0.5090 C.ar  1 <1>   0.0830 
 14 C       -3.9300    -0.7110    -1.6590 C.3   1 <1>  -0.2400 
 15 C        2.5480     4.5520     0.6390 C.3   1 <1>   0.0400 
 16 C        4.2910     1.0610    -1.0190 C.ar  1 <1>  -0.1500 
 17 O        4.4430    -1.3580    -0.9290 O.3   1 <1>  -0.3620 
 18 C        5.4700    -1.3980    -1.8950 C.3   1 <1>   0.0400 
 19 H        1.1490     1.7390     2.3840 H     1 <1>   0.4200 
 20 H       -0.0170     0.0130    -0.4540 H     1 <1>   0.0800 
 21 H       -0.8660     1.3440     0.2610 H     1 <1>   0.0800 
 22 H       -2.7750    -0.1450     0.7700 H     1 <1>   0.0800 
 23 H       -1.9180    -1.4810     0.0500 H     1 <1>   0.0800 
 24 H        2.6840    -1.2090     0.8790 H     1 <1>   0.1500 
 25 H       -1.8860    -0.2870    -2.1300 H     1 <1>   0.0800 
 26 H       -2.7410     1.0520    -1.4100 H     1 <1>   0.0800 
 27 H        4.0120     3.1570    -0.9500 H     1 <1>   0.1500 
 28 H       -3.8080    -1.7800    -1.6450 H     1 <1>   0.0800 
 29 H       -4.2940    -0.4210    -2.6290 H     1 <1>   0.0800 
 30 H       -4.6670    -0.4370    -0.9230 H     1 <1>   0.0800 
 31 H        1.9660     5.2580     1.2050 H     1 <1>   0.0800 
 32 H        2.3950     4.7160    -0.4130 H     1 <1>   0.0800 
 33 H        3.5870     4.6470     0.8990 H     1 <1>   0.0800 
 34 H        5.0340     1.1440    -1.7890 H     1 <1>   0.1500 
 35 H        5.7400    -2.4270    -2.0510 H     1 <1>   0.0800 
 36 H        6.3180    -0.8500    -1.5260 H     1 <1>   0.0800 
 37 H        5.1030    -0.9740    -2.8130 H     1 <1>   0.0800 
@<TRIPOS>BOND
  1   1   2  2   
  2   1   3  2   
  3   1   4  am  
  4   1   5  1   
  5   4   6  1   
  6   4  19  1   
  7   5   7  1   
  8   5  20  1   
  9   5  21  1   
 10   6   8  ar  
 11   6   9  ar  
 12   7  10  1   
 13   7  22  1   
 14   7  23  1   
 15   8  11  1   
 16   8  12  ar  
 17   9  13  ar  
 18   9  24  1   
 19  10  14  1   
 20  10  25  1   
 21  10  26  1   
 22  11  15  1   
 23  12  16  ar  
 24  12  27  1   
 25  13  16  ar  
 26  13  17  1   
 27  14  28  1   
 28  14  29  1   
 29  14  30  1   
 30  15  31  1   
 31  15  32  1   
 32  15  33  1   
 33  16  34  1   
 34  17  18  1   
 35  18  35  1   
 36  18  36  1   
 37  18  37  1   
@<TRIPOS>SUBSTRUCTURE
  1 ****   6 GROUP 4 **** **** 0

# MOE 2024.06 (io_trps.svl 2023.06)
