@<TRIPOS>MOLECULE
NONAME
35 37 1 0 0 
SMALL
USER_CHARGES


@<TRIPOS>ATOM
  1 S       -6.7230     0.1630    -0.5950 S.3   1 <1>  -0.0800 
  2 C       -5.2580     1.1340    -0.4490 C.ar  1 <1>   0.2970 
  3 C       -7.7340     1.4960    -0.0230 C.2   1 <1>  -0.1400 
  4 N       -4.0560     0.6820    -0.7340 N.ar  1 <1>  -0.5670 
  5 C       -5.5660     2.3930    -0.0040 C.ar  1 <1>   0.0000 
  6 C       -6.9730     2.5750     0.2410 C.2   1 <1>  -0.1500 
  7 C       -9.2220     1.2110     0.0760 C.3   1 <1>   0.0200 
  8 C       -3.1160     1.5880    -0.5420 C.ar  1 <1>   0.4770 
  9 C       -4.4780     3.2530     0.1350 C.ar  1 <1>   0.4100 
 10 C      -10.0090     2.4230     0.5810 C.3   1 <1>  -0.2400 
 11 N       -3.2500     2.8400    -0.1260 N.ar  1 <1>  -0.6200 
 12 C       -1.7000     1.1520    -0.8340 C.3   1 <1>  -0.0960 
 13 N       -4.6410     4.5650     0.5250 N.pl3 1 <1>  -0.8380 
 14 C       -3.5880     5.2490     1.3360 C.3   1 <1>   0.2090 
 15 C       -5.3620     5.5030    -0.3840 C.3   1 <1>   0.2090 
 16 C       -2.6970     6.1370     0.4480 C.3   1 <1>   0.1200 
 17 C       -4.3680     6.3750    -1.1730 C.3   1 <1>   0.1200 
 18 O       -3.4720     7.0240    -0.3130 O.3   1 <1>  -0.5600 
 19 H       -7.3270     3.5200     0.6130 H     1 <1>   0.1500 
 20 H       -9.3750     0.3820     0.7460 H     1 <1>   0.0800 
 21 H       -9.5890     0.9250    -0.8940 H     1 <1>   0.0800 
 22 H       -9.6660     2.7080     1.5600 H     1 <1>   0.0800 
 23 H      -11.0560     2.1840     0.6390 H     1 <1>   0.0800 
 24 H       -9.8830     3.2540    -0.0900 H     1 <1>   0.0800 
 25 H       -1.6820     0.1480    -1.2140 H     1 <1>   0.0800 
 26 H       -1.1210     1.1960     0.0690 H     1 <1>   0.0800 
 27 H       -1.2670     1.8100    -1.5640 H     1 <1>   0.0800 
 28 H       -2.9790     4.5190     1.8410 H     1 <1>   0.0800 
 29 H       -4.0600     5.8590     2.0860 H     1 <1>   0.0800 
 30 H       -6.0070     6.1370     0.1990 H     1 <1>   0.0800 
 31 H       -5.9720     4.9510    -1.0760 H     1 <1>   0.0800 
 32 H       -2.1150     5.5260    -0.2200 H     1 <1>   0.0800 
 33 H       -2.0290     6.7190     1.0560 H     1 <1>   0.0800 
 34 H       -4.8950     7.1300    -1.7290 H     1 <1>   0.0800 
 35 H       -3.8050     5.7680    -1.8610 H     1 <1>   0.0800 
@<TRIPOS>BOND
  1   1   2  1   
  2   1   3  1   
  3   2   4  ar  
  4   2   5  ar  
  5   3   6  2   
  6   3   7  1   
  7   4   8  ar  
  8   5   6  1   
  9   5   9  ar  
 10   6  19  1   
 11   7  10  1   
 12   7  20  1   
 13   7  21  1   
 14   8  11  ar  
 15   8  12  1   
 16   9  11  ar  
 17   9  13  1   
 18  10  22  1   
 19  10  23  1   
 20  10  24  1   
 21  12  25  1   
 22  12  26  1   
 23  12  27  1   
 24  13  14  1   
 25  13  15  1   
 26  14  16  1   
 27  14  28  1   
 28  14  29  1   
 29  15  17  1   
 30  15  30  1   
 31  15  31  1   
 32  16  18  1   
 33  16  32  1   
 34  16  33  1   
 35  17  18  1   
 36  17  34  1   
 37  17  35  1   
@<TRIPOS>SUBSTRUCTURE
  1 ****   9 GROUP 4 **** **** 0

# MOE 2024.06 (io_trps.svl 2023.06)
