@<TRIPOS>MOLECULE
NONAME
37 37 1 0 0 
SMALL
USER_CHARGES


@<TRIPOS>ATOM
  1 O        0.5500    -5.6130    -0.6490 O.3   1 <1>  -0.3630 
  2 C       -0.7840    -5.4620    -0.4570 C.ar  1 <1>   0.0830 
  3 C        1.2740    -6.6150     0.0190 C.3   1 <1>   0.1200 
  4 C       -1.5360    -6.2340     0.4230 C.ar  1 <1>  -0.1500 
  5 C       -1.4110    -4.4720    -1.1950 C.ar  1 <1>  -0.1500 
  6 C        2.7290    -6.5060    -0.4470 C.3   1 <1>   0.3430 
  7 C       -2.8960    -6.0100     0.5520 C.ar  1 <1>  -0.1500 
  8 C       -2.7700    -4.2520    -1.0630 C.ar  1 <1>  -0.1500 
  9 N        3.6360    -7.5100     0.2120 N.4   1 <1>  -0.9590 
 10 C       -3.5270    -5.0190    -0.1880 C.ar  1 <1>  -0.1430 
 11 C        5.0630    -7.1910    -0.1050 C.3   1 <1>   0.2630 
 12 C        3.3180    -8.9150    -0.2000 C.3   1 <1>   0.2630 
 13 C       -5.0270    -4.7630    -0.0550 C.3   1 <1>   0.0630 
 14 C       -5.3840    -4.3350     1.3720 C.3   1 <1>  -0.2400 
 15 C       -5.8320    -5.9980    -0.4700 C.3   1 <1>  -0.2400 
 16 H        0.8450    -7.5640    -0.2480 H     1 <1>   0.0800 
 17 H        1.1930    -6.4350     1.0770 H     1 <1>   0.0800 
 18 H       -1.0940    -7.0090     1.0170 H     1 <1>   0.1500 
 19 H       -0.8340    -3.8730    -1.8750 H     1 <1>   0.1500 
 20 H        3.0760    -5.5110    -0.2200 H     1 <1>   0.0800 
 21 H        2.7610    -6.6380    -1.5160 H     1 <1>   0.0800 
 22 H       -3.4670    -6.6130     1.2350 H     1 <1>   0.1500 
 23 H       -3.2360    -3.4780    -1.6470 H     1 <1>   0.1500 
 24 H        3.5160    -7.4290     1.2340 H     1 <1>   0.4500 
 25 H        5.2360    -7.2560    -1.1670 H     1 <1>   0.0800 
 26 H        5.7220    -7.8830     0.3940 H     1 <1>   0.0800 
 27 H        5.3060    -6.1920     0.2220 H     1 <1>   0.0800 
 28 H        3.4200    -9.0260    -1.2680 H     1 <1>   0.0800 
 29 H        2.3100    -9.1730     0.0780 H     1 <1>   0.0800 
 30 H        3.9910    -9.6070     0.2820 H     1 <1>   0.0800 
 31 H       -5.3000    -3.9570    -0.7150 H     1 <1>   0.0800 
 32 H       -5.1800    -5.1240     2.0730 H     1 <1>   0.0800 
 33 H       -6.4270    -4.0810     1.4350 H     1 <1>   0.0800 
 34 H       -4.8050    -3.4720     1.6500 H     1 <1>   0.0800 
 35 H       -5.6380    -6.8240     0.1900 H     1 <1>   0.0800 
 36 H       -5.5640    -6.2880    -1.4710 H     1 <1>   0.0800 
 37 H       -6.8850    -5.7800    -0.4480 H     1 <1>   0.0800 
@<TRIPOS>BOND
  1   1   2  1   
  2   1   3  1   
  3   2   4  ar  
  4   2   5  ar  
  5   3   6  1   
  6   3  16  1   
  7   3  17  1   
  8   4   7  ar  
  9   4  18  1   
 10   5   8  ar  
 11   5  19  1   
 12   6   9  1   
 13   6  20  1   
 14   6  21  1   
 15   7  10  ar  
 16   7  22  1   
 17   8  10  ar  
 18   8  23  1   
 19   9  11  1   
 20   9  12  1   
 21   9  24  1   
 22  10  13  1   
 23  11  25  1   
 24  11  26  1   
 25  11  27  1   
 26  12  28  1   
 27  12  29  1   
 28  12  30  1   
 29  13  14  1   
 30  13  15  1   
 31  13  31  1   
 32  14  32  1   
 33  14  33  1   
 34  14  34  1   
 35  15  35  1   
 36  15  36  1   
 37  15  37  1   
@<TRIPOS>SUBSTRUCTURE
  1 ****   2 GROUP 4 **** **** 0

# MOE 2024.06 (io_trps.svl 2023.06)
