@<TRIPOS>MOLECULE
NONAME
43 45 1 0 0 
SMALL
USER_CHARGES


@<TRIPOS>ATOM
  1 O        0.3090     1.2490    -2.0600 O.2   1 <1>  -0.5700 
  2 C        0.2930     2.2520    -1.3720 C.2   1 <1>   0.5440 
  3 N        1.3960     3.0800    -1.3630 N.am  1 <1>  -0.6600 
  4 C       -0.8780     2.5560    -0.5730 C.ar  1 <1>   0.0860 
  5 C        1.5330     4.2870    -0.4860 C.3   1 <1>   0.1400 
  6 C        2.6480     2.7530    -2.1150 C.3   1 <1>   0.1400 
  7 C       -1.0660     2.0200     0.7050 C.ar  1 <1>  -0.1440 
  8 C       -1.8450     3.4270    -1.0720 C.ar  1 <1>  -0.1500 
  9 C        2.7470     4.1630     0.4500 C.3   1 <1>   0.2090 
 10 C        3.8500     2.6300    -1.1630 C.3   1 <1>   0.2090 
 11 C       -2.1840     2.3650     1.4460 C.ar  1 <1>  -0.1500 
 12 C       -0.0470     1.0510     1.2900 C.3   1 <1>  -0.0960 
 13 C       -2.9630     3.7710    -0.3340 C.ar  1 <1>  -0.1440 
 14 N        3.9960     3.8480    -0.3100 N.pl3 1 <1>  -0.8380 
 15 C       -3.1270     3.2370     0.9320 C.ar  1 <1>  -0.1500 
 16 C       -4.0060     4.7210    -0.8940 C.3   1 <1>  -0.0970 
 17 C        5.2020     3.9910     0.3470 C.ar  1 <1>   0.4100 
 18 N        5.2240     3.7270     1.6490 N.ar  1 <1>  -0.6200 
 19 C        6.3270     4.3880    -0.3700 C.ar  1 <1>  -0.1500 
 20 C        6.3970     3.8610     2.2450 C.ar  1 <1>   0.1600 
 21 C        7.5410     4.5230     0.2620 C.ar  1 <1>  -0.1500 
 22 C        7.5660     4.2470     1.6140 C.ar  1 <1>  -0.1500 
 23 H        0.6500     4.4370     0.1070 H     1 <1>   0.0800 
 24 H        1.6630     5.1550    -1.1070 H     1 <1>   0.0800 
 25 H        2.8430     3.5350    -2.8270 H     1 <1>   0.0800 
 26 H        2.5370     1.8330    -2.6600 H     1 <1>   0.0800 
 27 H       -1.7040     3.8310    -2.0580 H     1 <1>   0.1500 
 28 H        2.5640     3.3860     1.1710 H     1 <1>   0.0800 
 29 H        2.8820     5.0860     0.9860 H     1 <1>   0.0800 
 30 H        4.7460     2.4800    -1.7380 H     1 <1>   0.0800 
 31 H        3.7130     1.7700    -0.5310 H     1 <1>   0.0800 
 32 H       -2.3330     1.9550     2.4290 H     1 <1>   0.1500 
 33 H        0.9140     1.5250     1.3710 H     1 <1>   0.0800 
 34 H        0.0470     0.1900     0.6510 H     1 <1>   0.0800 
 35 H       -0.3450     0.7150     2.2670 H     1 <1>   0.0800 
 36 H       -3.9910     3.4940     1.5200 H     1 <1>   0.1500 
 37 H       -3.8130     4.9360    -1.9300 H     1 <1>   0.0800 
 38 H       -3.9940     5.6440    -0.3430 H     1 <1>   0.0800 
 39 H       -4.9840     4.2810    -0.8150 H     1 <1>   0.0800 
 40 H        6.2240     4.5910    -1.4180 H     1 <1>   0.1500 
 41 H        6.4280     3.6500     3.3000 H     1 <1>   0.1500 
 42 H        8.4260     4.8290    -0.2680 H     1 <1>   0.1500 
 43 H        8.4810     4.3320     2.1720 H     1 <1>   0.1500 
@<TRIPOS>BOND
  1   1   2  2   
  2   2   3  am  
  3   2   4  1   
  4   3   5  1   
  5   3   6  1   
  6   4   7  ar  
  7   4   8  ar  
  8   5   9  1   
  9   5  23  1   
 10   5  24  1   
 11   6  10  1   
 12   6  25  1   
 13   6  26  1   
 14   7  11  ar  
 15   7  12  1   
 16   8  13  ar  
 17   8  27  1   
 18   9  14  1   
 19   9  28  1   
 20   9  29  1   
 21  10  14  1   
 22  10  30  1   
 23  10  31  1   
 24  11  15  ar  
 25  11  32  1   
 26  12  33  1   
 27  12  34  1   
 28  12  35  1   
 29  13  15  ar  
 30  13  16  1   
 31  14  17  1   
 32  15  36  1   
 33  16  37  1   
 34  16  38  1   
 35  16  39  1   
 36  17  18  ar  
 37  17  19  ar  
 38  18  20  ar  
 39  19  21  ar  
 40  19  40  1   
 41  20  22  ar  
 42  20  41  1   
 43  21  22  ar  
 44  21  42  1   
 45  22  43  1   
@<TRIPOS>SUBSTRUCTURE
  1 ****   5 GROUP 4 **** **** 0

# MOE 2024.06 (io_trps.svl 2023.06)
