@<TRIPOS>MOLECULE
NONAME
35 36 1 0 0 
SMALL
USER_CHARGES


@<TRIPOS>ATOM
  1 CL      -0.1160    -1.2010     1.6570 Cl    1 <1>  -0.1770 
  2 C       -1.6110    -1.4750     0.8030 C.ar  1 <1>   0.1770 
  3 C       -2.4390    -2.5070     1.2000 C.ar  1 <1>  -0.1500 
  4 C       -1.9460    -0.6570    -0.2590 C.ar  1 <1>  -0.1500 
  5 C       -3.6290    -2.7220     0.5240 C.ar  1 <1>  -0.1500 
  6 C       -3.1360    -0.8740    -0.9340 C.ar  1 <1>  -0.1500 
  7 C       -3.9840    -1.9030    -0.5420 C.ar  1 <1>  -0.1430 
  8 C       -5.2950    -2.1290    -1.2750 C.3   1 <1>   0.4870 
  9 N       -6.4120    -1.6700    -0.4100 N.4   1 <1>  -0.9590 
 10 C       -7.7710    -1.9640    -0.9640 C.3   1 <1>   0.3430 
 11 C       -6.3130    -0.2180    -0.0200 C.3   1 <1>   0.3430 
 12 C       -8.8740    -1.6490     0.0820 C.3   1 <1>   0.2000 
 13 C       -7.6000     0.3050     0.6720 C.3   1 <1>   0.2000 
 14 O       -8.4150    -0.7640     1.0730 O.3   1 <1>  -0.5600 
 15 C       -9.3260    -2.9080     0.8210 C.3   1 <1>  -0.2400 
 16 C       -8.4130     1.2720    -0.1990 C.3   1 <1>  -0.2400 
 17 H       -2.1490    -3.1310     2.0280 H     1 <1>   0.1500 
 18 H       -1.2770     0.1350    -0.5480 H     1 <1>   0.1500 
 19 H       -4.2620    -3.5350     0.8380 H     1 <1>   0.1500 
 20 H       -3.3830    -0.2330    -1.7640 H     1 <1>   0.1500 
 21 H       -5.4030    -3.1780    -1.4970 H     1 <1>   0.0800 
 22 H       -5.2940    -1.5820    -2.2040 H     1 <1>   0.0800 
 23 H       -6.3560    -2.1810     0.4830 H     1 <1>   0.4500 
 24 H       -7.8480    -2.9980    -1.2570 H     1 <1>   0.0800 
 25 H       -7.9430    -1.3620    -1.8400 H     1 <1>   0.0800 
 26 H       -6.1200     0.3870    -0.8900 H     1 <1>   0.0800 
 27 H       -5.4810    -0.0820     0.6520 H     1 <1>   0.0800 
 28 H       -9.7250    -1.2030    -0.4040 H     1 <1>   0.0800 
 29 H       -7.3160     0.8280     1.5700 H     1 <1>   0.0800 
 30 H       -8.5050    -3.3600     1.3470 H     1 <1>   0.0800 
 31 H       -9.7320    -3.6240     0.1290 H     1 <1>   0.0800 
 32 H      -10.0960    -2.6550     1.5280 H     1 <1>   0.0800 
 33 H       -8.6700     0.8450    -1.1500 H     1 <1>   0.0800 
 34 H       -7.8430     2.1660    -0.3780 H     1 <1>   0.0800 
 35 H       -9.3140     1.5560     0.3180 H     1 <1>   0.0800 
@<TRIPOS>BOND
  1   1   2  1   
  2   2   3  ar  
  3   2   4  ar  
  4   3   5  ar  
  5   3  17  1   
  6   4   6  ar  
  7   4  18  1   
  8   5   7  ar  
  9   5  19  1   
 10   6   7  ar  
 11   6  20  1   
 12   7   8  1   
 13   8   9  1   
 14   8  21  1   
 15   8  22  1   
 16   9  10  1   
 17   9  11  1   
 18   9  23  1   
 19  10  12  1   
 20  10  24  1   
 21  10  25  1   
 22  11  13  1   
 23  11  26  1   
 24  11  27  1   
 25  12  14  1   
 26  12  15  1   
 27  12  28  1   
 28  13  14  1   
 29  13  16  1   
 30  13  29  1   
 31  15  30  1   
 32  15  31  1   
 33  15  32  1   
 34  16  33  1   
 35  16  34  1   
 36  16  35  1   
@<TRIPOS>SUBSTRUCTURE
  1 ****   9 GROUP 4 **** **** 0

# MOE 2024.06 (io_trps.svl 2023.06)
