@<TRIPOS>MOLECULE
NONAME
43 44 1 0 0 
SMALL
USER_CHARGES


@<TRIPOS>ATOM
  1 N       -0.1380    -0.3740     0.1100 N.4   1 <1>  -0.9590 
  2 C       -1.2790     0.5170     0.4730 C.3   1 <1>   0.3430 
  3 C       -0.3650    -1.8030     0.4770 C.3   1 <1>   0.3430 
  4 C        1.1270     0.1250     0.7460 C.3   1 <1>   0.2630 
  5 C       -2.5670     0.0200    -0.1890 C.3   1 <1>  -0.1600 
  6 C       -1.6440    -2.3170    -0.1880 C.3   1 <1>  -0.1600 
  7 C       -2.8460    -1.4430     0.1750 C.3   1 <1>   0.4230 
  8 N       -4.0400    -1.9440    -0.5490 N.4   1 <1>  -0.9060 
  9 C       -5.3350    -1.3510    -0.0840 C.3   1 <1>   0.3430 
 10 C       -6.5420    -1.9470    -0.8240 C.3   1 <1>   0.0630 
 11 C       -7.7920    -1.2680    -0.2810 C.ar  1 <1>  -0.1430 
 12 C       -6.6440    -3.4780    -0.6970 C.3   1 <1>  -0.2400 
 13 C       -8.5010    -0.3870    -1.0860 C.ar  1 <1>  -0.1500 
 14 C       -8.2320    -1.4980     1.0160 C.ar  1 <1>  -0.1500 
 15 C       -9.6240     0.2600    -0.6010 C.ar  1 <1>  -0.1500 
 16 C       -9.3560    -0.8510     1.5010 C.ar  1 <1>  -0.1500 
 17 C      -10.0510     0.0300     0.6940 C.ar  1 <1>  -0.1500 
 18 H        0.0110    -0.3180    -0.9110 H     1 <1>   0.4500 
 19 H       -1.0730     1.5270     0.1490 H     1 <1>   0.0800 
 20 H       -1.4010     0.5320     1.5450 H     1 <1>   0.0800 
 21 H       -0.4480    -1.8940     1.5490 H     1 <1>   0.0800 
 22 H        0.4750    -2.4020     0.1580 H     1 <1>   0.0800 
 23 H        1.0490     0.0960     1.8210 H     1 <1>   0.0800 
 24 H        1.3250     1.1410     0.4440 H     1 <1>   0.0800 
 25 H        1.9650    -0.4850     0.4480 H     1 <1>   0.0800 
 26 H       -2.4770     0.1390    -1.2540 H     1 <1>   0.0800 
 27 H       -3.3710     0.6470     0.1530 H     1 <1>   0.0800 
 28 H       -1.8130    -3.3250     0.1490 H     1 <1>   0.0800 
 29 H       -1.4940    -2.3400    -1.2540 H     1 <1>   0.0800 
 30 H       -3.0180    -1.5160     1.2390 H     1 <1>   0.0800 
 31 H       -4.1160    -2.9640    -0.4280 H     1 <1>   0.4500 
 32 H       -3.9460    -1.7860    -1.5600 H     1 <1>   0.4500 
 33 H       -5.3350    -0.2850    -0.2410 H     1 <1>   0.0800 
 34 H       -5.4610    -1.5300     0.9720 H     1 <1>   0.0800 
 35 H       -6.4570    -1.7040    -1.8690 H     1 <1>   0.0800 
 36 H       -6.6250    -3.7910     0.3320 H     1 <1>   0.0800 
 37 H       -5.8520    -3.9710    -1.2300 H     1 <1>   0.0800 
 38 H       -7.5770    -3.8080    -1.1240 H     1 <1>   0.0800 
 39 H       -8.1960    -0.1900    -2.0990 H     1 <1>   0.1500 
 40 H       -7.7200    -2.1820     1.6690 H     1 <1>   0.1500 
 41 H      -10.1690     0.9420    -1.2300 H     1 <1>   0.1500 
 42 H       -9.6950    -1.0340     2.5070 H     1 <1>   0.1500 
 43 H      -10.9250     0.5320     1.0710 H     1 <1>   0.1500 
@<TRIPOS>BOND
  1   1   2  1   
  2   1   3  1   
  3   1   4  1   
  4   1  18  1   
  5   2   5  1   
  6   2  19  1   
  7   2  20  1   
  8   3   6  1   
  9   3  21  1   
 10   3  22  1   
 11   4  23  1   
 12   4  24  1   
 13   4  25  1   
 14   5   7  1   
 15   5  26  1   
 16   5  27  1   
 17   6   7  1   
 18   6  28  1   
 19   6  29  1   
 20   7   8  1   
 21   7  30  1   
 22   8   9  1   
 23   8  31  1   
 24   8  32  1   
 25   9  10  1   
 26   9  33  1   
 27   9  34  1   
 28  10  11  1   
 29  10  12  1   
 30  10  35  1   
 31  11  13  ar  
 32  11  14  ar  
 33  12  36  1   
 34  12  37  1   
 35  12  38  1   
 36  13  15  ar  
 37  13  39  1   
 38  14  16  ar  
 39  14  40  1   
 40  15  17  ar  
 41  15  41  1   
 42  16  17  ar  
 43  16  42  1   
 44  17  43  1   
@<TRIPOS>SUBSTRUCTURE
  1 ****   9 GROUP 4 **** **** 0

# MOE 2024.06 (io_trps.svl 2023.06)
