@<TRIPOS>MOLECULE
NONAME
51 53 1 0 0 
SMALL
USER_CHARGES


@<TRIPOS>ATOM
  1 F       -0.8130     1.0380    -1.1920 F     1 <1>  -0.1900 
  2 C       -1.6180     1.5510    -0.2910 C.ar  1 <1>   0.1900 
  3 C       -1.2240     2.6990     0.4100 C.ar  1 <1>   0.1000 
  4 C       -2.8280     0.9210    -0.0780 C.ar  1 <1>  -0.1500 
  5 N       -0.0050     3.3660     0.2220 N.pl3 1 <1>  -0.8380 
  6 C       -2.1160     3.1950     1.3520 C.ar  1 <1>  -0.1500 
  7 C       -3.6950     1.4430     0.8680 C.ar  1 <1>  -0.1500 
  8 C        0.1480     4.0410    -1.1010 C.3   1 <1>   0.2090 
  9 C        1.2020     2.6100     0.6750 C.3   1 <1>   0.2090 
 10 C       -3.3360     2.5770     1.5790 C.ar  1 <1>  -0.1500 
 11 C        1.4330     4.8930    -1.1510 C.3   1 <1>   0.3430 
 12 C        2.4730     3.4810     0.5950 C.3   1 <1>   0.3430 
 13 N        2.6640     4.1040    -0.7740 N.4   1 <1>  -0.9590 
 14 C        3.9140     4.9090    -0.9200 C.3   1 <1>   0.4230 
 15 C        5.1320     3.9740    -0.9160 C.3   1 <1>  -0.1600 
 16 C        4.0200     6.0150     0.1450 C.3   1 <1>  -0.1600 
 17 C        6.4380     4.7660    -1.0140 C.3   1 <1>   0.1400 
 18 C        5.3520     6.7560     0.0290 C.3   1 <1>   0.1400 
 19 N        6.4500     5.7640     0.0780 N.am  1 <1>  -0.6600 
 20 C        7.0490     5.4710     1.2790 C.2   1 <1>   0.7800 
 21 O        6.4720     5.6380     2.3320 O.2   1 <1>  -0.5700 
 22 O        8.2730     4.9500     1.3050 O.3   1 <1>  -0.4300 
 23 C        9.3270     5.4770     0.5290 C.3   1 <1>   0.1200 
 24 C        9.8300     6.7610     1.1860 C.3   1 <1>  -0.2400 
 25 H       -3.0880     0.0420    -0.6400 H     1 <1>   0.1500 
 26 H       -1.8480     4.0740     1.9090 H     1 <1>   0.1500 
 27 H       -4.6440     0.9680     1.0510 H     1 <1>   0.1500 
 28 H       -0.7060     4.6760    -1.2710 H     1 <1>   0.0800 
 29 H        0.1710     3.3060    -1.8870 H     1 <1>   0.0800 
 30 H        1.3290     1.7280     0.0720 H     1 <1>   0.0800 
 31 H        1.0550     2.2920     1.6940 H     1 <1>   0.0800 
 32 H       -4.0110     2.9810     2.3150 H     1 <1>   0.1500 
 33 H        1.3100     5.7180    -0.4680 H     1 <1>   0.0800 
 34 H        1.5450     5.2980    -2.1430 H     1 <1>   0.0800 
 35 H        3.3250     2.8750     0.8520 H     1 <1>   0.0800 
 36 H        2.3860     4.2560     1.3380 H     1 <1>   0.0800 
 37 H        2.7240     3.3230    -1.4390 H     1 <1>   0.4500 
 38 H        3.8950     5.3940    -1.8830 H     1 <1>   0.0800 
 39 H        5.0790     3.2980    -1.7500 H     1 <1>   0.0800 
 40 H        5.1700     3.3970    -0.0100 H     1 <1>   0.0800 
 41 H        3.9710     5.6080     1.1390 H     1 <1>   0.0800 
 42 H        3.2250     6.7280     0.0300 H     1 <1>   0.0800 
 43 H        6.5160     5.2700    -1.9630 H     1 <1>   0.0800 
 44 H        7.2770     4.0950    -0.9170 H     1 <1>   0.0800 
 45 H        5.4560     7.4580     0.8420 H     1 <1>   0.0800 
 46 H        5.4080     7.3060    -0.8960 H     1 <1>   0.0800 
 47 H        8.9890     5.6620    -0.4750 H     1 <1>   0.0800 
 48 H       10.1110     4.7400     0.5060 H     1 <1>   0.0800 
 49 H        9.0590     7.5100     1.1940 H     1 <1>   0.0800 
 50 H       10.6700     7.1450     0.6370 H     1 <1>   0.0800 
 51 H       10.1440     6.5610     2.1950 H     1 <1>   0.0800 
@<TRIPOS>BOND
  1   1   2  1   
  2   2   3  ar  
  3   2   4  ar  
  4   3   5  1   
  5   3   6  ar  
  6   4   7  ar  
  7   4  25  1   
  8   5   8  1   
  9   5   9  1   
 10   6  10  ar  
 11   6  26  1   
 12   7  10  ar  
 13   7  27  1   
 14   8  11  1   
 15   8  28  1   
 16   8  29  1   
 17   9  12  1   
 18   9  30  1   
 19   9  31  1   
 20  10  32  1   
 21  11  13  1   
 22  11  33  1   
 23  11  34  1   
 24  12  13  1   
 25  12  35  1   
 26  12  36  1   
 27  13  14  1   
 28  13  37  1   
 29  14  15  1   
 30  14  16  1   
 31  14  38  1   
 32  15  17  1   
 33  15  39  1   
 34  15  40  1   
 35  16  18  1   
 36  16  41  1   
 37  16  42  1   
 38  17  19  1   
 39  17  43  1   
 40  17  44  1   
 41  18  19  1   
 42  18  45  1   
 43  18  46  1   
 44  19  20  am  
 45  20  21  2   
 46  20  22  1   
 47  22  23  1   
 48  23  24  1   
 49  23  47  1   
 50  23  48  1   
 51  24  49  1   
 52  24  50  1   
 53  24  51  1   
@<TRIPOS>SUBSTRUCTURE
  1 ****  12 GROUP 4 **** **** 0

# MOE 2024.06 (io_trps.svl 2023.06)
