@<TRIPOS>MOLECULE
NONAME
34 35 1 0 0 
SMALL
USER_CHARGES


@<TRIPOS>ATOM
  1 CL      -2.0480    -2.2830     3.1070 Cl    1 <1>  -0.1770 
  2 C       -1.1370    -2.7800     1.6980 C.ar  1 <1>   0.1770 
  3 C       -1.6870    -2.6600     0.4270 C.ar  1 <1>   0.0830 
  4 C        0.1330    -3.2880     1.8910 C.ar  1 <1>  -0.1500 
  5 O       -2.9420    -2.1520     0.3070 O.3   1 <1>  -0.3630 
  6 C       -0.9220    -3.0690    -0.6620 C.ar  1 <1>  -0.1500 
  7 C        0.9050    -3.6940     0.8080 C.ar  1 <1>  -0.0090 
  8 C       -3.5780    -2.0250    -0.9450 C.3   1 <1>   0.0400 
  9 C        0.3520    -3.5760    -0.4630 C.ar  1 <1>  -0.1500 
 10 S        2.5770    -4.3600     1.0390 S.o2  1 <1>   1.4470 
 11 O        2.6130    -5.7110     0.5230 O.2   1 <1>  -0.6500 
 12 O        3.0330    -4.1010     2.3880 O.2   1 <1>  -0.6500 
 13 N        3.5150    -3.3960     0.0070 N.am  1 <1>  -0.8490 
 14 C        3.6820    -2.0340     0.5270 C.3   1 <1>   0.1960 
 15 C        4.8170    -4.0150    -0.2610 C.3   1 <1>   0.1960 
 16 C        4.3940    -1.1550    -0.5060 C.3   1 <1>  -0.1600 
 17 C        5.5860    -3.2070    -1.3130 C.3   1 <1>  -0.1600 
 18 C        5.7570    -1.7440    -0.8880 C.3   1 <1>  -0.1600 
 19 H        0.5210    -3.3650     2.8920 H     1 <1>   0.1500 
 20 H       -1.2970    -3.0000    -1.6660 H     1 <1>   0.1500 
 21 H       -4.5560    -1.6110    -0.7800 H     1 <1>   0.0800 
 22 H       -3.6640    -2.9990    -1.3940 H     1 <1>   0.0800 
 23 H       -3.0010    -1.3620    -1.5650 H     1 <1>   0.0800 
 24 H        0.9370    -3.8900    -1.3130 H     1 <1>   0.1500 
 25 H        4.2520    -2.0550     1.4420 H     1 <1>   0.0800 
 26 H        2.7170    -1.6040     0.7430 H     1 <1>   0.0800 
 27 H        4.6770    -5.0160    -0.6350 H     1 <1>   0.0800 
 28 H        5.3880    -4.0750     0.6520 H     1 <1>   0.0800 
 29 H        4.5280    -0.1670    -0.1030 H     1 <1>   0.0800 
 30 H        3.7730    -1.0740    -1.3810 H     1 <1>   0.0800 
 31 H        5.0470    -3.2550    -2.2440 H     1 <1>   0.0800 
 32 H        6.5510    -3.6540    -1.4710 H     1 <1>   0.0800 
 33 H        6.4200    -1.6940    -0.0410 H     1 <1>   0.0800 
 34 H        6.1940    -1.1750    -1.6910 H     1 <1>   0.0800 
@<TRIPOS>BOND
  1   1   2  1   
  2   2   3  ar  
  3   2   4  ar  
  4   3   5  1   
  5   3   6  ar  
  6   4   7  ar  
  7   4  19  1   
  8   5   8  1   
  9   6   9  ar  
 10   6  20  1   
 11   7   9  ar  
 12   7  10  1   
 13   8  21  1   
 14   8  22  1   
 15   8  23  1   
 16   9  24  1   
 17  10  11  2   
 18  10  12  2   
 19  10  13  am  
 20  13  14  1   
 21  13  15  1   
 22  14  16  1   
 23  14  25  1   
 24  14  26  1   
 25  15  17  1   
 26  15  27  1   
 27  15  28  1   
 28  16  18  1   
 29  16  29  1   
 30  16  30  1   
 31  17  18  1   
 32  17  31  1   
 33  17  32  1   
 34  18  33  1   
 35  18  34  1   
@<TRIPOS>SUBSTRUCTURE
  1 ****   7 GROUP 4 **** **** 0

# MOE 2024.06 (io_trps.svl 2023.06)
