@<TRIPOS>MOLECULE
NONAME
29 29 1 0 0 
SMALL
USER_CHARGES


@<TRIPOS>ATOM
  1 S       -0.3050    -0.0930     0.7490 S.o2  1 <1>   1.3330 
  2 O       -1.1490     0.2520     1.8620 O.2   1 <1>  -0.6500 
  3 O       -0.2680    -1.4360     0.2230 O.2   1 <1>  -0.6500 
  4 N        1.2730     0.2930     1.2920 N.am  1 <1>  -0.7570 
  5 C       -0.5510     1.0780    -0.5670 C.3   1 <1>  -0.1350 
  6 C        2.4290    -0.2470     0.7490 C.ar  1 <1>   0.1990 
  7 C        3.3550     0.5520     0.0790 C.ar  1 <1>  -0.1430 
  8 C        2.6700    -1.6070     0.8720 C.ar  1 <1>  -0.1500 
  9 C        4.4840    -0.0330    -0.4680 C.ar  1 <1>  -0.1500 
 10 C        3.1500     2.0550    -0.0570 C.3   1 <1>  -0.0970 
 11 C        3.7830    -2.2180     0.3040 C.ar  1 <1>   0.0860 
 12 C        4.6930    -1.3960    -0.3580 C.ar  1 <1>  -0.1500 
 13 C        4.0070    -3.6490     0.3940 C.2   1 <1>   0.6340 
 14 O        5.0870    -4.1120     0.6810 O.2   1 <1>  -0.5700 
 15 O        3.0270    -4.5200     0.1310 O.3   1 <1>  -0.4300 
 16 C        1.8870    -4.2230    -0.6540 C.3   1 <1>   0.0400 
 17 H        1.2440     0.3730     2.3060 H     1 <1>   0.4200 
 18 H       -1.5350     0.9660    -0.9790 H     1 <1>   0.0800 
 19 H        0.1690     0.9160    -1.3450 H     1 <1>   0.0800 
 20 H       -0.4450     2.0780    -0.1970 H     1 <1>   0.0800 
 21 H        1.9670    -2.2090     1.4190 H     1 <1>   0.1500 
 22 H        5.2120     0.5680    -0.9860 H     1 <1>   0.1500 
 23 H        2.3140     2.2560    -0.7020 H     1 <1>   0.0800 
 24 H        4.0220     2.5290    -0.4710 H     1 <1>   0.0800 
 25 H        2.9570     2.4910     0.9070 H     1 <1>   0.0800 
 26 H        5.5770    -1.8390    -0.7870 H     1 <1>   0.1500 
 27 H        1.4710    -5.1520    -1.0010 H     1 <1>   0.0800 
 28 H        2.1760    -3.6180    -1.4950 H     1 <1>   0.0800 
 29 H        1.1590    -3.7110    -0.0490 H     1 <1>   0.0800 
@<TRIPOS>BOND
  1   1   2  2   
  2   1   3  2   
  3   1   4  am  
  4   1   5  1   
  5   4   6  1   
  6   4  17  1   
  7   5  18  1   
  8   5  19  1   
  9   5  20  1   
 10   6   7  ar  
 11   6   8  ar  
 12   7   9  ar  
 13   7  10  1   
 14   8  11  ar  
 15   8  21  1   
 16   9  12  ar  
 17   9  22  1   
 18  10  23  1   
 19  10  24  1   
 20  10  25  1   
 21  11  12  ar  
 22  11  13  1   
 23  12  26  1   
 24  13  14  2   
 25  13  15  1   
 26  15  16  1   
 27  16  27  1   
 28  16  28  1   
 29  16  29  1   
@<TRIPOS>SUBSTRUCTURE
  1 ****   8 GROUP 4 **** **** 0

# MOE 2024.06 (io_trps.svl 2023.06)
