@<TRIPOS>MOLECULE
NONAME
29 30 1 0 0 
SMALL
USER_CHARGES


@<TRIPOS>ATOM
  1 CL      -1.8760     0.4820    -3.1160 Cl    1 <1>  -0.1770 
  2 C       -2.4320     1.0920    -1.5770 C.ar  1 <1>   0.1770 
  3 C       -1.7700     2.1280    -0.9390 C.ar  1 <1>   0.1770 
  4 C       -3.5550     0.5190    -1.0060 C.ar  1 <1>  -0.1500 
  5 CL      -0.3540     2.8620    -1.6520 Cl    1 <1>  -0.1770 
  6 C       -2.2270     2.5970     0.2790 C.ar  1 <1>  -0.1500 
  7 C       -4.0250     0.9900     0.2150 C.ar  1 <1>  -0.1440 
  8 C       -3.3520     2.0270     0.8540 C.ar  1 <1>  -0.1500 
  9 C       -5.2630     0.3760     0.8490 C.3   1 <1>   0.4870 
 10 N       -6.4650     0.7880     0.0730 N.4   1 <1>  -0.9590 
 11 C       -6.6400     2.2860     0.0270 C.3   1 <1>   0.3430 
 12 C       -7.7110     0.0720     0.5020 C.3   1 <1>   0.3430 
 13 C       -7.9550     2.7280    -0.6460 C.3   1 <1>   0.0700 
 14 C       -8.7390     0.0030    -0.6440 C.3   1 <1>   0.0700 
 15 S       -8.5470     1.4260    -1.7670 S.3   1 <1>  -0.4600 
 16 H       -4.0370    -0.2880    -1.5290 H     1 <1>   0.1500 
 17 H       -1.6990     3.3990     0.7670 H     1 <1>   0.1500 
 18 H       -3.6890     2.4020     1.8080 H     1 <1>   0.1500 
 19 H       -5.3520     0.7010     1.8730 H     1 <1>   0.0800 
 20 H       -5.1680    -0.6980     0.8410 H     1 <1>   0.0800 
 21 H       -6.3100     0.5160    -0.9100 H     1 <1>   0.4500 
 22 H       -5.8190     2.7150    -0.5250 H     1 <1>   0.0800 
 23 H       -6.6070     2.6950     1.0230 H     1 <1>   0.0800 
 24 H       -8.1490     0.5850     1.3430 H     1 <1>   0.0800 
 25 H       -7.4780    -0.9340     0.8140 H     1 <1>   0.0800 
 26 H       -7.8160     3.6240    -1.2270 H     1 <1>   0.0800 
 27 H       -8.7290     2.8960     0.0810 H     1 <1>   0.0800 
 28 H       -9.7460     0.0180    -0.2650 H     1 <1>   0.0800 
 29 H       -8.6010    -0.8830    -1.2400 H     1 <1>   0.0800 
@<TRIPOS>BOND
  1   1   2  1   
  2   2   3  ar  
  3   2   4  ar  
  4   3   5  1   
  5   3   6  ar  
  6   4   7  ar  
  7   4  16  1   
  8   6   8  ar  
  9   6  17  1   
 10   7   8  ar  
 11   7   9  1   
 12   8  18  1   
 13   9  10  1   
 14   9  19  1   
 15   9  20  1   
 16  10  11  1   
 17  10  12  1   
 18  10  21  1   
 19  11  13  1   
 20  11  22  1   
 21  11  23  1   
 22  12  14  1   
 23  12  24  1   
 24  12  25  1   
 25  13  15  1   
 26  13  26  1   
 27  13  27  1   
 28  14  15  1   
 29  14  28  1   
 30  14  29  1   
@<TRIPOS>SUBSTRUCTURE
  1 ****   7 GROUP 4 **** **** 0

# MOE 2024.06 (io_trps.svl 2023.06)
