@<TRIPOS>MOLECULE
NONAME
40 41 1 0 0 
SMALL
USER_CHARGES


@<TRIPOS>ATOM
  1 S       -0.9210     1.4510    -1.9700 S.3   1 <1>  -0.0800 
  2 C       -1.1710     2.1270    -0.3670 C.2   1 <1>  -0.1400 
  3 C       -0.5070     3.0280    -2.6190 C.2   1 <1>  -0.1100 
  4 C       -0.9440     3.4540    -0.3760 C.2   1 <1>  -0.1500 
  5 C       -1.5900     1.1740     0.7350 C.3   1 <1>   0.3200 
  6 C       -0.5660     3.9670    -1.6580 C.2   1 <1>  -0.1500 
  7 N       -2.9660     0.7390     0.4620 N.am  1 <1>  -0.7300 
  8 C       -3.9250     0.5050     1.3990 C.2   1 <1>   0.5440 
  9 O       -3.5660     0.4560     2.5620 O.2   1 <1>  -0.5700 
 10 C       -5.3220     0.3030     1.0400 C.ar  1 <1>   0.0860 
 11 C       -5.8950     0.7190    -0.1780 C.ar  1 <1>   0.0830 
 12 C       -6.1680    -0.3380     1.9520 C.ar  1 <1>  -0.1500 
 13 O       -5.1120     1.3570    -1.0870 O.3   1 <1>  -0.3630 
 14 C       -7.2430     0.4840    -0.4400 C.ar  1 <1>  -0.1500 
 15 C       -7.5030    -0.5670     1.6900 C.ar  1 <1>  -0.1500 
 16 C       -5.6180     1.9880    -2.2400 C.3   1 <1>   0.1200 
 17 C       -8.0510    -0.1540     0.4810 C.ar  1 <1>   0.0830 
 18 C       -4.4500     2.6730    -2.9440 C.3   1 <1>  -0.2400 
 19 O       -9.3460    -0.3370     0.1380 O.3   1 <1>  -0.3630 
 20 C      -10.2600    -0.9730     1.0010 C.3   1 <1>   0.1200 
 21 C      -11.6180    -1.0100     0.3060 C.3   1 <1>  -0.2400 
 22 H       -0.2600     3.0830    -3.6640 H     1 <1>   0.1500 
 23 H       -1.0290     4.1070     0.4750 H     1 <1>   0.1500 
 24 H       -1.5450     1.6710     1.6890 H     1 <1>   0.0800 
 25 H       -0.9380     0.3190     0.7570 H     1 <1>   0.0800 
 26 H       -0.3570     5.0140    -1.7930 H     1 <1>   0.1500 
 27 H       -3.2870     0.9320    -0.4930 H     1 <1>   0.3700 
 28 H       -5.7600    -0.6630     2.8940 H     1 <1>   0.1500 
 29 H       -7.7000     0.7850    -1.3620 H     1 <1>   0.1500 
 30 H       -8.0990    -1.0640     2.4330 H     1 <1>   0.1500 
 31 H       -6.3580     2.7090    -1.9380 H     1 <1>   0.0800 
 32 H       -6.0600     1.2410    -2.8760 H     1 <1>   0.0800 
 33 H       -3.9820     3.3820    -2.2840 H     1 <1>   0.0800 
 34 H       -4.8040     3.1950    -3.8140 H     1 <1>   0.0800 
 35 H       -3.7260     1.9430    -3.2550 H     1 <1>   0.0800 
 36 H      -10.3160    -0.4080     1.9150 H     1 <1>   0.0800 
 37 H       -9.9070    -1.9700     1.1980 H     1 <1>   0.0800 
 38 H      -11.9550    -0.0090     0.0990 H     1 <1>   0.0800 
 39 H      -12.3400    -1.4910     0.9410 H     1 <1>   0.0800 
 40 H      -11.5470    -1.5620    -0.6140 H     1 <1>   0.0800 
@<TRIPOS>BOND
  1   1   2  1   
  2   1   3  1   
  3   2   4  2   
  4   2   5  1   
  5   3   6  2   
  6   3  22  1   
  7   4   6  1   
  8   4  23  1   
  9   5   7  1   
 10   5  24  1   
 11   5  25  1   
 12   6  26  1   
 13   7   8  am  
 14   7  27  1   
 15   8   9  2   
 16   8  10  1   
 17  10  11  ar  
 18  10  12  ar  
 19  11  13  1   
 20  11  14  ar  
 21  12  15  ar  
 22  12  28  1   
 23  13  16  1   
 24  14  17  ar  
 25  14  29  1   
 26  15  17  ar  
 27  15  30  1   
 28  16  18  1   
 29  16  31  1   
 30  16  32  1   
 31  17  19  1   
 32  18  33  1   
 33  18  34  1   
 34  18  35  1   
 35  19  20  1   
 36  20  21  1   
 37  20  36  1   
 38  20  37  1   
 39  21  38  1   
 40  21  39  1   
 41  21  40  1   
@<TRIPOS>SUBSTRUCTURE
  1 ****  11 GROUP 4 **** **** 0

# MOE 2024.06 (io_trps.svl 2023.06)
