@<TRIPOS>MOLECULE
NONAME
40 41 1 0 0 
SMALL
USER_CHARGES


@<TRIPOS>ATOM
  1 S       -0.2540    -0.0610     0.5400 S.3   1 <1>  -0.2860 
  2 C        1.2100    -0.9900     0.0740 C.2   1 <1>   0.2420 
  3 C       -1.5770    -1.3630     0.5490 C.3   1 <1>   0.1310 
  4 N        1.1830    -2.2500    -0.1670 N.2   1 <1>  -0.3380 
  5 N        2.4180    -0.4400    -0.0550 N.pl3 1 <1>   0.0480 
  6 C       -2.9210    -0.7420     0.8690 C.2   1 <1>   0.6590 
  7 N        2.4330    -2.5840    -0.4800 N.2   1 <1>  -0.3380 
  8 C        3.1660    -1.5080    -0.4160 C.2   1 <1>   0.1870 
  9 C        2.7770     0.9920     0.1650 C.3   1 <1>   0.1760 
 10 O       -3.4830    -0.9530     1.9130 O.2   1 <1>  -0.5700 
 11 O       -3.4480     0.0310    -0.0730 O.3   1 <1>  -0.4300 
 12 C        4.5810    -1.4840    -0.6850 C.2   1 <1>  -0.0010 
 13 C        3.1300     1.6810    -1.1580 C.3   1 <1>  -0.2400 
 14 C        3.9040     1.1480     1.1930 C.3   1 <1>  -0.2400 
 15 C       -4.6900     0.6700     0.1110 C.3   1 <1>   0.1200 
 16 C        5.6200    -1.7680     0.1440 C.2   1 <1>  -0.0400 
 17 C        5.1890    -1.1650    -1.9120 C.2   1 <1>  -0.1500 
 18 C       -4.9960     1.4780    -1.1460 C.3   1 <1>  -0.2400 
 19 O        6.7730    -1.6220    -0.4710 O.3   1 <1>  -0.2800 
 20 C        5.6230    -2.2110     1.5920 C.3   1 <1>  -0.0600 
 21 C        6.5190    -1.2630    -1.7130 C.2   1 <1>  -0.0100 
 22 H       -1.3060    -2.0880     1.2930 H     1 <1>   0.0800 
 23 H       -1.5900    -1.8160    -0.4240 H     1 <1>   0.0800 
 24 H        1.9130     1.4890     0.5670 H     1 <1>   0.0800 
 25 H        4.0430     1.2910    -1.5660 H     1 <1>   0.0800 
 26 H        3.2620     2.7350    -0.9930 H     1 <1>   0.0800 
 27 H        2.3350     1.5500    -1.8700 H     1 <1>   0.0800 
 28 H        4.8430     0.8040     0.8000 H     1 <1>   0.0800 
 29 H        3.6700     0.6050     2.0910 H     1 <1>   0.0800 
 30 H        4.0170     2.1870     1.4480 H     1 <1>   0.0800 
 31 H       -4.6200     1.3090     0.9750 H     1 <1>   0.0800 
 32 H       -5.4400    -0.0840     0.2790 H     1 <1>   0.0800 
 33 H        4.6590    -0.9060    -2.8110 H     1 <1>   0.1500 
 34 H       -4.2320     2.2180    -1.3050 H     1 <1>   0.0800 
 35 H       -5.9400     1.9790    -1.0330 H     1 <1>   0.0800 
 36 H       -5.0520     0.8290    -2.0010 H     1 <1>   0.0800 
 37 H        4.6160    -2.3060     1.9570 H     1 <1>   0.0800 
 38 H        6.1510    -1.4930     2.1920 H     1 <1>   0.0800 
 39 H        6.1120    -3.1640     1.6750 H     1 <1>   0.0800 
 40 H        7.3440    -1.1050    -2.3850 H     1 <1>   0.1500 
@<TRIPOS>BOND
  1   1   2  1   
  2   1   3  1   
  3   2   4  2   
  4   2   5  1   
  5   3   6  1   
  6   3  22  1   
  7   3  23  1   
  8   4   7  1   
  9   5   8  1   
 10   5   9  1   
 11   6  10  2   
 12   6  11  1   
 13   7   8  2   
 14   8  12  1   
 15   9  13  1   
 16   9  14  1   
 17   9  24  1   
 18  11  15  1   
 19  12  16  2   
 20  12  17  1   
 21  13  25  1   
 22  13  26  1   
 23  13  27  1   
 24  14  28  1   
 25  14  29  1   
 26  14  30  1   
 27  15  18  1   
 28  15  31  1   
 29  15  32  1   
 30  16  19  1   
 31  16  20  1   
 32  17  21  2   
 33  17  33  1   
 34  18  34  1   
 35  18  35  1   
 36  18  36  1   
 37  19  21  1   
 38  20  37  1   
 39  20  38  1   
 40  20  39  1   
 41  21  40  1   
@<TRIPOS>SUBSTRUCTURE
  1 ****   2 GROUP 4 **** **** 0

# MOE 2024.06 (io_trps.svl 2023.06)
