@<TRIPOS>MOLECULE
NONAME
48 50 1 0 0 
SMALL
USER_CHARGES


@<TRIPOS>ATOM
  1 O        0.6820    -1.8100    -2.7470 O.2   1 <1>  -0.5700 
  2 C       -0.0020    -1.6880    -1.7590 C.2   1 <1>   0.5690 
  3 N        0.4850    -1.1930    -0.5930 N.am  1 <1>  -0.7300 
  4 C       -1.4750    -2.1100    -1.8000 C.3   1 <1>   0.1710 
  5 C        1.8600    -0.7060    -0.3460 C.3   1 <1>   0.1400 
  6 N       -2.3240    -1.4740    -0.7480 N.3   1 <1>  -0.8100 
  7 C        2.5680    -1.6290     0.6440 C.3   1 <1>  -0.0170 
  8 C       -3.6210    -2.1760    -0.6130 C.3   1 <1>   0.1100 
  9 C       -2.5720    -0.0420    -1.0560 C.3   1 <1>   0.1100 
 10 C        3.9470    -1.0840     0.9760 C.ar  1 <1>  -0.1440 
 11 C       -4.5160    -1.5370     0.4680 C.3   1 <1>   0.2090 
 12 C       -3.4440     0.6390     0.0140 C.3   1 <1>   0.2090 
 13 C        5.0290    -1.3800     0.1610 C.ar  1 <1>  -0.1500 
 14 C        4.1350    -0.2830     2.0920 C.ar  1 <1>  -0.1500 
 15 N       -4.7360    -0.0880     0.2000 N.pl3 1 <1>  -0.8380 
 16 C        6.2850    -0.8810     0.4590 C.ar  1 <1>  -0.1500 
 17 C        5.3910     0.2170     2.3900 C.ar  1 <1>  -0.1500 
 18 C       -5.7160     0.5270     0.9520 C.ar  1 <1>   0.4100 
 19 C        6.4670    -0.0820     1.5740 C.ar  1 <1>  -0.1500 
 20 N       -5.3240     1.2900     1.9660 N.ar  1 <1>  -0.6200 
 21 C       -7.0540     0.3150     0.6290 C.ar  1 <1>  -0.1500 
 22 C       -6.2910     1.8500     2.6740 C.ar  1 <1>   0.1600 
 23 C       -8.0490     0.9030     1.3730 C.ar  1 <1>  -0.1500 
 24 C       -7.6440     1.6950     2.4290 C.ar  1 <1>  -0.1500 
 25 H       -0.2000    -1.1030     0.1660 H     1 <1>   0.3700 
 26 H       -1.4950    -3.1770    -1.6730 H     1 <1>   0.0800 
 27 H       -1.8710    -1.8880    -2.7750 H     1 <1>   0.0800 
 28 H        1.8160     0.2940     0.0510 H     1 <1>   0.0800 
 29 H        2.4100    -0.6780    -1.2710 H     1 <1>   0.0800 
 30 H        2.6620    -2.6100     0.2120 H     1 <1>   0.0800 
 31 H        1.9860    -1.7110     1.5450 H     1 <1>   0.0800 
 32 H       -3.4430    -3.2030    -0.3470 H     1 <1>   0.0800 
 33 H       -4.1470    -2.1570    -1.5510 H     1 <1>   0.0800 
 34 H       -3.0690     0.0470    -2.0070 H     1 <1>   0.0800 
 35 H       -1.6360     0.4840    -1.1200 H     1 <1>   0.0800 
 36 H       -4.0480    -1.6510     1.4310 H     1 <1>   0.0800 
 37 H       -5.4630    -2.0470     0.4950 H     1 <1>   0.0800 
 38 H       -3.6490     1.6540    -0.2780 H     1 <1>   0.0800 
 39 H       -2.9090     0.6620     0.9480 H     1 <1>   0.0800 
 40 H        4.8970    -2.0000    -0.7090 H     1 <1>   0.1500 
 41 H        3.3050    -0.0430     2.7330 H     1 <1>   0.1500 
 42 H        7.1210    -1.1150    -0.1780 H     1 <1>   0.1500 
 43 H        5.5310     0.8380     3.2570 H     1 <1>   0.1500 
 44 H        7.4440     0.3060     1.8050 H     1 <1>   0.1500 
 45 H       -7.2870    -0.3090    -0.2120 H     1 <1>   0.1500 
 46 H       -5.9860     2.4700     3.4990 H     1 <1>   0.1500 
 47 H       -9.0910     0.7570     1.1450 H     1 <1>   0.1500 
 48 H       -8.3680     2.1860     3.0530 H     1 <1>   0.1500 
@<TRIPOS>BOND
  1   1   2  2   
  2   2   3  am  
  3   2   4  1   
  4   3   5  1   
  5   3  25  1   
  6   4   6  1   
  7   4  26  1   
  8   4  27  1   
  9   5   7  1   
 10   5  28  1   
 11   5  29  1   
 12   6   8  1   
 13   6   9  1   
 14   7  10  1   
 15   7  30  1   
 16   7  31  1   
 17   8  11  1   
 18   8  32  1   
 19   8  33  1   
 20   9  12  1   
 21   9  34  1   
 22   9  35  1   
 23  10  13  ar  
 24  10  14  ar  
 25  11  15  1   
 26  11  36  1   
 27  11  37  1   
 28  12  15  1   
 29  12  38  1   
 30  12  39  1   
 31  13  16  ar  
 32  13  40  1   
 33  14  17  ar  
 34  14  41  1   
 35  15  18  1   
 36  16  19  ar  
 37  16  42  1   
 38  17  19  ar  
 39  17  43  1   
 40  18  20  ar  
 41  18  21  ar  
 42  19  44  1   
 43  20  22  ar  
 44  21  23  ar  
 45  21  45  1   
 46  22  24  ar  
 47  22  46  1   
 48  23  24  ar  
 49  23  47  1   
 50  24  48  1   
@<TRIPOS>SUBSTRUCTURE
  1 ****   6 GROUP 4 **** **** 0

# MOE 2024.06 (io_trps.svl 2023.06)
