@<TRIPOS>MOLECULE
NONAME
46 48 1 0 0 
SMALL
USER_CHARGES


@<TRIPOS>ATOM
  1 O       -0.0690    -0.4400    -1.1110 O.2   1 <1>  -0.5700 
  2 C       -0.1110    -1.6540    -1.0280 C.2   1 <1>   0.5440 
  3 N        1.0560    -2.3720    -1.1800 N.am  1 <1>  -0.6600 
  4 C       -1.3830    -2.2980    -0.7540 C.ar  1 <1>   0.0860 
  5 C        2.3090    -1.7510    -1.7080 C.3   1 <1>   0.1400 
  6 C        1.2740    -3.7470    -0.6360 C.3   1 <1>   0.1400 
  7 C       -1.8040    -3.4190    -1.4660 C.ar  1 <1>  -0.1500 
  8 C       -2.2300    -1.8030     0.2360 C.ar  1 <1>  -0.1500 
  9 C        3.4320    -1.8130    -0.6610 C.3   1 <1>   0.1100 
 10 C        2.4340    -3.7600     0.3760 C.3   1 <1>   0.1100 
 11 C       -3.0060    -4.0460    -1.1910 C.ar  1 <1>   0.0820 
 12 C       -3.4440    -2.4180     0.5200 C.ar  1 <1>   0.0820 
 13 N        3.6730    -3.2000    -0.2010 N.3   1 <1>  -0.8100 
 14 O       -3.3070    -5.1390    -1.9340 O.3   1 <1>  -0.3630 
 15 C       -3.8270    -3.5420    -0.1900 C.ar  1 <1>  -0.1500 
 16 O       -4.3050    -1.9780     1.4720 O.3   1 <1>  -0.3630 
 17 C        4.7770    -3.2480     0.7790 C.3   1 <1>   0.2900 
 18 C       -4.5310    -5.8210    -1.7660 C.3   1 <1>   0.0400 
 19 C       -4.0660    -0.7780     2.1750 C.3   1 <1>   0.0400 
 20 C        6.1340    -3.0470     0.1210 C.2   1 <1>  -0.0400 
 21 O        7.1720    -2.7840     0.8940 O.3   1 <1>  -0.2800 
 22 C        6.5150    -3.0960    -1.1740 C.2   1 <1>  -0.1500 
 23 C        8.2280    -2.6560     0.1150 C.2   1 <1>  -0.0100 
 24 C        7.8910    -2.8370    -1.1790 C.2   1 <1>  -0.1500 
 25 H        2.1380    -0.7260    -1.9860 H     1 <1>   0.0800 
 26 H        2.6200    -2.2820    -2.5890 H     1 <1>   0.0800 
 27 H        1.5070    -4.4150    -1.4470 H     1 <1>   0.0800 
 28 H        0.3890    -4.1100    -0.1450 H     1 <1>   0.0800 
 29 H       -1.1850    -3.8100    -2.2530 H     1 <1>   0.1500 
 30 H       -1.9100    -0.9280     0.7690 H     1 <1>   0.1500 
 31 H        3.1630    -1.1870     0.1730 H     1 <1>   0.0800 
 32 H        4.3300    -1.4130    -1.0990 H     1 <1>   0.0800 
 33 H        2.6120    -4.7770     0.6810 H     1 <1>   0.0800 
 34 H        2.1460    -3.1930     1.2460 H     1 <1>   0.0800 
 35 H       -4.7660    -3.9970     0.0560 H     1 <1>   0.1500 
 36 H        4.7890    -4.2070     1.2660 H     1 <1>   0.0800 
 37 H        4.6290    -2.4920     1.5320 H     1 <1>   0.0800 
 38 H       -4.5600    -6.6340    -2.4690 H     1 <1>   0.0800 
 39 H       -5.3400    -5.1400    -1.9620 H     1 <1>   0.0800 
 40 H       -4.5830    -6.2030    -0.7620 H     1 <1>   0.0800 
 41 H       -4.8980    -0.6050     2.8330 H     1 <1>   0.0800 
 42 H       -3.9840     0.0310     1.4700 H     1 <1>   0.0800 
 43 H       -3.1620    -0.8820     2.7490 H     1 <1>   0.0800 
 44 H        5.9040    -3.2950    -2.0370 H     1 <1>   0.1500 
 45 H        9.1800    -2.4360     0.5650 H     1 <1>   0.1500 
 46 H        8.5170    -2.8000    -2.0530 H     1 <1>   0.1500 
@<TRIPOS>BOND
  1   1   2  2   
  2   2   3  am  
  3   2   4  1   
  4   3   5  1   
  5   3   6  1   
  6   4   7  ar  
  7   4   8  ar  
  8   5   9  1   
  9   5  25  1   
 10   5  26  1   
 11   6  10  1   
 12   6  27  1   
 13   6  28  1   
 14   7  11  ar  
 15   7  29  1   
 16   8  12  ar  
 17   8  30  1   
 18   9  13  1   
 19   9  31  1   
 20   9  32  1   
 21  10  13  1   
 22  10  33  1   
 23  10  34  1   
 24  11  14  1   
 25  11  15  ar  
 26  12  15  ar  
 27  12  16  1   
 28  13  17  1   
 29  14  18  1   
 30  15  35  1   
 31  16  19  1   
 32  17  20  1   
 33  17  36  1   
 34  17  37  1   
 35  18  38  1   
 36  18  39  1   
 37  18  40  1   
 38  19  41  1   
 39  19  42  1   
 40  19  43  1   
 41  20  21  1   
 42  20  22  2   
 43  21  23  1   
 44  22  24  1   
 45  22  44  1   
 46  23  24  2   
 47  23  45  1   
 48  24  46  1   
@<TRIPOS>SUBSTRUCTURE
  1 ****   3 GROUP 4 **** **** 0

# MOE 2024.06 (io_trps.svl 2023.06)
