@<TRIPOS>MOLECULE
NONAME
40 41 1 0 0 
SMALL
USER_CHARGES


@<TRIPOS>ATOM
  1 O       -0.6380    -0.4180    -0.3800 O.2   1 <1>  -0.5700 
  2 C       -0.9300    -1.4860     0.1000 C.2   1 <1>   0.5690 
  3 N       -0.0420    -2.4750     0.4380 N.am  1 <1>  -0.2370 
  4 C       -2.3730    -1.8870     0.4420 C.3   1 <1>   0.0610 
  5 C        1.3400    -2.4610     0.1560 C.ar  1 <1>   0.1170 
  6 C       -0.7020    -3.4830     1.0890 C.2   1 <1>   0.5690 
  7 C       -2.1620    -3.1620     1.2840 C.3   1 <1>  -0.0990 
  8 C       -3.1870    -2.2490    -0.8290 C.3   1 <1>  -0.1600 
  9 C       -3.0900    -0.8090     1.2820 C.3   1 <1>  -0.2400 
 10 C        2.1210    -1.3440     0.4350 C.ar  1 <1>  -0.1500 
 11 C        1.9680    -3.5630    -0.4140 C.ar  1 <1>  -0.1500 
 12 O       -0.2260    -4.5170     1.4800 O.2   1 <1>  -0.5700 
 13 C       -3.4380    -1.0910    -1.8070 C.3   1 <1>  -0.2400 
 14 C        3.4730    -1.3300     0.1530 C.ar  1 <1>  -0.1500 
 15 C        3.3200    -3.5460    -0.6950 C.ar  1 <1>  -0.1500 
 16 C        4.1150    -2.4300    -0.4220 C.ar  1 <1>   0.0860 
 17 C        5.5330    -2.4280    -0.7270 C.2   1 <1>   0.6340 
 18 O        6.1040    -3.3640    -1.2490 O.2   1 <1>  -0.5700 
 19 O        6.2410    -1.3380    -0.4150 O.3   1 <1>  -0.4300 
 20 C        7.6240    -1.2550    -0.6780 C.3   1 <1>   0.1200 
 21 C        8.1160     0.1080    -0.2010 C.3   1 <1>  -0.2400 
 22 H       -2.7690    -3.9880     0.9590 H     1 <1>   0.0800 
 23 H       -2.3350    -2.9920     2.3310 H     1 <1>   0.0800 
 24 H       -2.6730    -3.0280    -1.3650 H     1 <1>   0.0800 
 25 H       -4.1430    -2.6450    -0.5310 H     1 <1>   0.0800 
 26 H       -2.5520    -0.6180     2.1940 H     1 <1>   0.0800 
 27 H       -4.0890    -1.1220     1.5290 H     1 <1>   0.0800 
 28 H       -3.1440     0.1180     0.7400 H     1 <1>   0.0800 
 29 H        1.6640    -0.4740     0.8740 H     1 <1>   0.1500 
 30 H        1.3930    -4.4460    -0.6360 H     1 <1>   0.1500 
 31 H       -2.5120    -0.6690    -2.1570 H     1 <1>   0.0800 
 32 H       -3.9830    -1.4500    -2.6620 H     1 <1>   0.0800 
 33 H       -4.0200    -0.3120    -1.3480 H     1 <1>   0.0800 
 34 H        4.0430    -0.4450     0.3810 H     1 <1>   0.1500 
 35 H        3.7780    -4.4170    -1.1350 H     1 <1>   0.1500 
 36 H        7.7770    -1.3730    -1.7380 H     1 <1>   0.0800 
 37 H        8.1200    -2.0520    -0.1500 H     1 <1>   0.0800 
 38 H        7.6050     0.8920    -0.7310 H     1 <1>   0.0800 
 39 H        9.1700     0.1980    -0.3890 H     1 <1>   0.0800 
 40 H        7.9450     0.2140     0.8550 H     1 <1>   0.0800 
@<TRIPOS>BOND
  1   1   2  2   
  2   2   3  am  
  3   2   4  1   
  4   3   5  1   
  5   3   6  am  
  6   4   7  1   
  7   4   8  1   
  8   4   9  1   
  9   5  10  ar  
 10   5  11  ar  
 11   6   7  1   
 12   6  12  2   
 13   7  22  1   
 14   7  23  1   
 15   8  13  1   
 16   8  24  1   
 17   8  25  1   
 18   9  26  1   
 19   9  27  1   
 20   9  28  1   
 21  10  14  ar  
 22  10  29  1   
 23  11  15  ar  
 24  11  30  1   
 25  13  31  1   
 26  13  32  1   
 27  13  33  1   
 28  14  16  ar  
 29  14  34  1   
 30  15  16  ar  
 31  15  35  1   
 32  16  17  1   
 33  17  18  2   
 34  17  19  1   
 35  19  20  1   
 36  20  21  1   
 37  20  36  1   
 38  20  37  1   
 39  21  38  1   
 40  21  39  1   
 41  21  40  1   
@<TRIPOS>SUBSTRUCTURE
  1 ****   5 GROUP 4 **** **** 0

# MOE 2024.06 (io_trps.svl 2023.06)
