@<TRIPOS>MOLECULE
NONAME
43 45 1 0 0 
SMALL
USER_CHARGES


@<TRIPOS>ATOM
  1 O        0.8360    -1.1880     0.7080 O.2   1 <1>  -0.5700 
  2 C        0.3790    -1.9230    -0.1470 C.2   1 <1>   0.7150 
  3 N        1.1360    -2.2150    -1.2400 N.am  1 <1>  -0.7300 
  4 C       -0.9350    -2.4840    -0.0120 C.2   1 <1>  -0.2370 
  5 C        2.4290    -1.5800    -1.5530 C.3   1 <1>   0.1400 
  6 N       -1.7260    -2.1730     1.0670 N.pl3 1 <1>   0.0330 
  7 C       -1.6400    -3.3480    -0.8040 C.2   1 <1>  -0.1500 
  8 C        3.5330    -2.2830    -0.7580 C.3   1 <1>  -0.1600 
  9 C       -2.9200    -2.8330     0.9590 C.ar  1 <1>  -0.1520 
 10 C       -2.8930    -3.5810    -0.2120 C.ar  1 <1>   0.0000 
 11 C        4.8320    -1.4850    -0.8260 C.3   1 <1>   0.3430 
 12 C       -4.0400    -2.8430     1.7940 C.ar  1 <1>  -0.1500 
 13 C       -4.0050    -4.3570    -0.5610 C.ar  1 <1>  -0.1500 
 14 N        5.8300    -2.0400     0.1290 N.4   1 <1>  -0.9590 
 15 C       -5.1260    -3.6090     1.4390 C.ar  1 <1>  -0.1500 
 16 C       -5.1080    -4.3670     0.2610 C.ar  1 <1>  -0.1500 
 17 C        6.9930    -1.1160     0.3510 C.3   1 <1>   0.3430 
 18 C        6.3180    -3.4240    -0.2060 C.3   1 <1>   0.3430 
 19 C        8.0020    -1.7050     1.3650 C.3   1 <1>   0.1200 
 20 C        7.3950    -3.9070     0.7930 C.3   1 <1>   0.1200 
 21 O        7.5960    -2.9690     1.8160 O.3   1 <1>  -0.5600 
 22 H        0.7040    -2.7900    -1.9640 H     1 <1>   0.3700 
 23 H        2.3760    -0.5390    -1.2750 H     1 <1>   0.0800 
 24 H        2.6160    -1.6420    -2.6120 H     1 <1>   0.0800 
 25 H       -1.4490    -1.5410     1.8260 H     1 <1>   0.2700 
 26 H       -1.3360    -3.8000    -1.7300 H     1 <1>   0.1500 
 27 H        3.6710    -3.2710    -1.1580 H     1 <1>   0.0800 
 28 H        3.2230    -2.3530     0.2700 H     1 <1>   0.0800 
 29 H        4.6200    -0.4610    -0.5600 H     1 <1>   0.0800 
 30 H        5.2260    -1.4990    -1.8290 H     1 <1>   0.0800 
 31 H       -4.0430    -2.2580     2.6960 H     1 <1>   0.1500 
 32 H       -3.9790    -4.9330    -1.4670 H     1 <1>   0.1500 
 33 H        5.3890    -2.1320     1.0580 H     1 <1>   0.4500 
 34 H       -6.0010    -3.6340     2.0640 H     1 <1>   0.1500 
 35 H       -5.9710    -4.9580     0.0070 H     1 <1>   0.1500 
 36 H        6.6440    -0.1650     0.7190 H     1 <1>   0.0800 
 37 H        7.5020    -0.9340    -0.5810 H     1 <1>   0.0800 
 38 H        6.7330    -3.4400    -1.2000 H     1 <1>   0.0800 
 39 H        5.4940    -4.1180    -0.1870 H     1 <1>   0.0800 
 40 H        8.0800    -1.0620     2.2250 H     1 <1>   0.0800 
 41 H        8.9800    -1.7930     0.9230 H     1 <1>   0.0800 
 42 H        8.3330    -4.0760     0.2920 H     1 <1>   0.0800 
 43 H        7.0880    -4.8310     1.2510 H     1 <1>   0.0800 
@<TRIPOS>BOND
  1   1   2  2   
  2   2   3  am  
  3   2   4  1   
  4   3   5  1   
  5   3  22  1   
  6   4   6  1   
  7   4   7  2   
  8   5   8  1   
  9   5  23  1   
 10   5  24  1   
 11   6   9  1   
 12   6  25  1   
 13   7  10  1   
 14   7  26  1   
 15   8  11  1   
 16   8  27  1   
 17   8  28  1   
 18   9  10  ar  
 19   9  12  ar  
 20  10  13  ar  
 21  11  14  1   
 22  11  29  1   
 23  11  30  1   
 24  12  15  ar  
 25  12  31  1   
 26  13  16  ar  
 27  13  32  1   
 28  14  17  1   
 29  14  18  1   
 30  14  33  1   
 31  15  16  ar  
 32  15  34  1   
 33  16  35  1   
 34  17  19  1   
 35  17  36  1   
 36  17  37  1   
 37  18  20  1   
 38  18  38  1   
 39  18  39  1   
 40  19  21  1   
 41  19  40  1   
 42  19  41  1   
 43  20  21  1   
 44  20  42  1   
 45  20  43  1   
@<TRIPOS>SUBSTRUCTURE
  1 ****   2 GROUP 4 **** **** 0

# MOE 2024.06 (io_trps.svl 2023.06)
