@<TRIPOS>MOLECULE
NONAME
35 36 1 0 0 
SMALL
USER_CHARGES


@<TRIPOS>ATOM
  1 F      -16.5000     1.4280     0.5820 F     1 <1>  -0.3400 
  2 C      -15.4590     1.1380    -0.1910 C.3   1 <1>   1.1640 
  3 F      -15.8890     1.2320    -1.4420 F     1 <1>  -0.3400 
  4 F      -15.1950    -0.1470     0.0170 F     1 <1>  -0.3400 
  5 C      -14.2530     2.0520     0.0730 C.ar  1 <1>  -0.1440 
  6 C      -12.9540     1.5780    -0.0750 C.ar  1 <1>  -0.1500 
  7 C      -14.4350     3.3770     0.4570 C.ar  1 <1>  -0.1500 
  8 C      -11.8600     2.3960     0.1560 C.ar  1 <1>   0.0830 
  9 C      -13.3480     4.2020     0.6900 C.ar  1 <1>  -0.1500 
 10 O      -10.6370     1.8370    -0.0150 O.3   1 <1>  -0.3630 
 11 C      -12.0610     3.7180     0.5420 C.ar  1 <1>  -0.1500 
 12 C       -9.4570     2.5770     0.1930 C.3   1 <1>   0.1200 
 13 C       -8.2700     1.6540    -0.0810 C.3   1 <1>  -0.1600 
 14 C       -6.9370     2.3850     0.1270 C.3   1 <1>  -0.1600 
 15 C       -5.7480     1.4570    -0.1470 C.3   1 <1>   0.0960 
 16 N       -4.4780     2.1770     0.0650 N.pl3 1 <1>   0.0480 
 17 C       -3.7430     2.2460     1.1970 C.2   1 <1>   0.0360 
 18 C       -3.8000     2.9220    -0.8270 C.2   1 <1>  -0.3020 
 19 N       -2.6730     2.9650     1.0880 N.2   1 <1>  -0.5650 
 20 C       -2.7070     3.3920    -0.1880 C.2   1 <1>   0.0770 
 21 H      -12.7690     0.5610    -0.3750 H     1 <1>   0.1500 
 22 H      -15.4280     3.7790     0.5760 H     1 <1>   0.1500 
 23 H      -13.5050     5.2250     0.9870 H     1 <1>   0.1500 
 24 H      -11.2370     4.3790     0.7290 H     1 <1>   0.1500 
 25 H       -9.4470     2.9200     1.2130 H     1 <1>   0.0800 
 26 H       -9.4570     3.4130    -0.4850 H     1 <1>   0.0800 
 27 H       -8.3330     1.3000    -1.0960 H     1 <1>   0.0800 
 28 H       -8.3260     0.8090     0.5840 H     1 <1>   0.0800 
 29 H       -6.8800     2.7440     1.1410 H     1 <1>   0.0800 
 30 H       -6.8850     3.2310    -0.5380 H     1 <1>   0.0800 
 31 H       -5.7770     1.1030    -1.1620 H     1 <1>   0.0800 
 32 H       -5.7770     0.6080     0.5130 H     1 <1>   0.0800 
 33 H       -4.0380     1.7420     2.1000 H     1 <1>   0.1500 
 34 H       -4.1210     3.0750    -1.8410 H     1 <1>   0.1500 
 35 H       -1.9300     4.0250    -0.5840 H     1 <1>   0.1500 
@<TRIPOS>BOND
  1   1   2  1   
  2   2   3  1   
  3   2   4  1   
  4   2   5  1   
  5   5   6  ar  
  6   5   7  ar  
  7   6   8  ar  
  8   6  21  1   
  9   7   9  ar  
 10   7  22  1   
 11   8  10  1   
 12   8  11  ar  
 13   9  11  ar  
 14   9  23  1   
 15  10  12  1   
 16  11  24  1   
 17  12  13  1   
 18  12  25  1   
 19  12  26  1   
 20  13  14  1   
 21  13  27  1   
 22  13  28  1   
 23  14  15  1   
 24  14  29  1   
 25  14  30  1   
 26  15  16  1   
 27  15  31  1   
 28  15  32  1   
 29  16  17  1   
 30  16  18  1   
 31  17  19  2   
 32  17  33  1   
 33  18  20  2   
 34  18  34  1   
 35  19  20  1   
 36  20  35  1   
@<TRIPOS>SUBSTRUCTURE
  1 ****  12 GROUP 4 **** **** 0

# MOE 2024.06 (io_trps.svl 2023.06)
