@<TRIPOS>MOLECULE
NONAME
48 50 1 0 0 
SMALL
USER_CHARGES


@<TRIPOS>ATOM
  1 CL       0.4500     0.1900    -0.2730 Cl    1 <1>  -0.1770 
  2 C       -1.1110     0.9640    -0.1600 C.ar  1 <1>   0.1770 
  3 C       -1.5020     1.9640    -1.0400 C.ar  1 <1>  -0.0090 
  4 C       -1.9370     0.5200     0.8560 C.ar  1 <1>  -0.1500 
  5 S       -0.4200     2.5970    -2.3460 S.o2  1 <1>   1.4470 
  6 C       -2.7750     2.5000    -0.8640 C.ar  1 <1>  -0.1500 
  7 C       -3.1970     1.0670     1.0220 C.ar  1 <1>  -0.1430 
  8 O        0.2950     1.5270    -3.0000 O.2   1 <1>  -0.6500 
  9 O       -1.2110     3.4870    -3.1680 O.2   1 <1>  -0.6500 
 10 N        0.6900     3.6250    -1.4810 N.am  1 <1>  -0.6930 
 11 C       -3.6230     2.0640     0.1510 C.ar  1 <1>   0.0830 
 12 C       -4.0950     0.5690     2.1460 C.3   1 <1>  -0.0970 
 13 C        1.8110     3.1410    -0.7970 C.ar  1 <1>   0.1990 
 14 C        0.1650     4.9350    -1.0370 C.3   1 <1>   0.1960 
 15 O       -4.8700     2.5700     0.3400 O.3   1 <1>  -0.3630 
 16 C        2.0480     3.5210     0.5290 C.ar  1 <1>  -0.1430 
 17 C        2.7250     2.2890    -1.4100 C.ar  1 <1>  -0.1500 
 18 C       -0.1200     4.8640     0.4640 C.3   1 <1>  -0.1600 
 19 C       -5.4500     3.5060    -0.5620 C.3   1 <1>   0.1810 
 20 C        3.1370     3.0100     1.2150 C.ar  1 <1>  -0.1500 
 21 C        1.1520     4.5240     1.2490 C.3   1 <1>  -0.0170 
 22 C        3.8100     1.7850    -0.7190 C.ar  1 <1>  -0.1500 
 23 C       -6.8770     3.8660    -0.1600 C.2   1 <1>   0.5690 
 24 C        4.0200     2.1380     0.6020 C.ar  1 <1>  -0.1430 
 25 O       -7.4480     4.7490    -0.7470 O.2   1 <1>  -0.5700 
 26 N       -7.5020     3.2100     0.8390 N.am  1 <1>  -0.8000 
 27 C        5.2050     1.5760     1.3650 C.3   1 <1>  -0.0970 
 28 H       -1.5820    -0.2550     1.5110 H     1 <1>   0.1500 
 29 H       -3.0920     3.2730    -1.5410 H     1 <1>   0.1500 
 30 H       -3.6020    -0.1840     2.7340 H     1 <1>   0.0800 
 31 H       -4.9940     0.1470     1.7350 H     1 <1>   0.0800 
 32 H       -4.3590     1.3870     2.7920 H     1 <1>   0.0800 
 33 H       -0.7290     5.2020    -1.5730 H     1 <1>   0.0800 
 34 H        0.9080     5.6900    -1.2340 H     1 <1>   0.0800 
 35 H        2.5930     2.0140    -2.4390 H     1 <1>   0.1500 
 36 H       -0.8680     4.1160     0.6510 H     1 <1>   0.0800 
 37 H       -0.5100     5.8070     0.8030 H     1 <1>   0.0800 
 38 H       -5.4610     3.0710    -1.5450 H     1 <1>   0.0800 
 39 H       -4.8510     4.3980    -0.5610 H     1 <1>   0.0800 
 40 H        3.3050     3.2960     2.2380 H     1 <1>   0.1500 
 41 H        1.7220     5.4260     1.3930 H     1 <1>   0.0800 
 42 H        0.8840     4.1450     2.2190 H     1 <1>   0.0800 
 43 H        4.4900     1.1160    -1.2170 H     1 <1>   0.1500 
 44 H       -8.4550     3.4610     1.1040 H     1 <1>   0.3700 
 45 H       -7.0410     2.4700     1.3710 H     1 <1>   0.3700 
 46 H        5.5250     2.2650     2.1260 H     1 <1>   0.0800 
 47 H        6.0300     1.3990     0.6990 H     1 <1>   0.0800 
 48 H        4.9290     0.6470     1.8310 H     1 <1>   0.0800 
@<TRIPOS>BOND
  1   1   2  1   
  2   2   3  ar  
  3   2   4  ar  
  4   3   5  1   
  5   3   6  ar  
  6   4   7  ar  
  7   4  28  1   
  8   5   8  2   
  9   5   9  2   
 10   5  10  am  
 11   6  11  ar  
 12   6  29  1   
 13   7  11  ar  
 14   7  12  1   
 15  10  13  1   
 16  10  14  1   
 17  11  15  1   
 18  12  30  1   
 19  12  31  1   
 20  12  32  1   
 21  13  16  ar  
 22  13  17  ar  
 23  14  18  1   
 24  14  33  1   
 25  14  34  1   
 26  15  19  1   
 27  16  20  ar  
 28  16  21  1   
 29  17  22  ar  
 30  17  35  1   
 31  18  21  1   
 32  18  36  1   
 33  18  37  1   
 34  19  23  1   
 35  19  38  1   
 36  19  39  1   
 37  20  24  ar  
 38  20  40  1   
 39  21  41  1   
 40  21  42  1   
 41  22  24  ar  
 42  22  43  1   
 43  23  25  2   
 44  23  26  am  
 45  24  27  1   
 46  26  44  1   
 47  26  45  1   
 48  27  46  1   
 49  27  47  1   
 50  27  48  1   
@<TRIPOS>SUBSTRUCTURE
  1 ****   3 GROUP 4 **** **** 0

# MOE 2024.06 (io_trps.svl 2023.06)
