@<TRIPOS>MOLECULE
NONAME
37 37 1 0 0 
SMALL
USER_CHARGES


@<TRIPOS>ATOM
  1 S        0.1100     0.1530    -0.3770 S.o2  1 <1>   1.4470 
  2 O        0.3440     0.9810     0.7880 O.2   1 <1>  -0.6500 
  3 O        0.2360     0.7420    -1.6910 O.2   1 <1>  -0.6500 
  4 N        1.2520    -1.0970    -0.2900 N.am  1 <1>  -0.8490 
  5 C       -1.4750    -0.7180    -0.2450 C.ar  1 <1>  -0.0090 
  6 C        2.5620    -0.6310    -0.8170 C.3   1 <1>   0.2570 
  7 C        1.3550    -1.6880     1.0510 C.3   1 <1>   0.1160 
  8 C       -2.4350    -0.3360     0.6830 C.ar  1 <1>  -0.1500 
  9 C       -1.7650    -1.7950    -1.0740 C.ar  1 <1>  -0.1500 
 10 C        3.7420    -1.6060    -0.6850 C.2   1 <1>   0.5690 
 11 C       -3.6460    -1.0010     0.7950 C.ar  1 <1>  -0.1440 
 12 C       -2.9680    -2.4710    -0.9790 C.ar  1 <1>  -0.1500 
 13 O        3.9300    -2.4300    -1.5480 O.2   1 <1>  -0.5700 
 14 N        4.5640    -1.5130     0.4030 N.am  1 <1>  -0.7300 
 15 C       -3.9180    -2.0790    -0.0410 C.ar  1 <1>   0.0830 
 16 C       -4.6670    -0.5450     1.8280 C.3   1 <1>  -0.0970 
 17 C        5.7430    -2.3810     0.6560 C.3   1 <1>   0.0600 
 18 O       -5.1150    -2.7050     0.1020 O.3   1 <1>  -0.3630 
 19 C       -5.4930    -3.7870    -0.7190 C.3   1 <1>   0.0400 
 20 H        2.8330     0.2880    -0.3260 H     1 <1>   0.0800 
 21 H        2.4520    -0.4120    -1.8650 H     1 <1>   0.0800 
 22 H        0.3800    -1.9910     1.3960 H     1 <1>   0.0800 
 23 H        1.7630    -0.9780     1.7500 H     1 <1>   0.0800 
 24 H        1.9810    -2.5640     1.0270 H     1 <1>   0.0800 
 25 H       -2.2260     0.5000     1.3300 H     1 <1>   0.1500 
 26 H       -1.0350    -2.1050    -1.8030 H     1 <1>   0.1500 
 27 H       -3.1440    -3.2970    -1.6410 H     1 <1>   0.1500 
 28 H        4.3930    -0.7880     1.1030 H     1 <1>   0.3700 
 29 H       -4.3090     0.2980     2.3890 H     1 <1>   0.0800 
 30 H       -4.8780    -1.3490     2.5100 H     1 <1>   0.0800 
 31 H       -5.5810    -0.2660     1.3350 H     1 <1>   0.0800 
 32 H        5.8450    -3.1150    -0.1260 H     1 <1>   0.0800 
 33 H        5.6250    -2.8920     1.5950 H     1 <1>   0.0800 
 34 H        6.6370    -1.7820     0.6860 H     1 <1>   0.0800 
 35 H       -6.4780    -4.1010    -0.4240 H     1 <1>   0.0800 
 36 H       -4.7950    -4.5930    -0.5790 H     1 <1>   0.0800 
 37 H       -5.5050    -3.4590    -1.7440 H     1 <1>   0.0800 
@<TRIPOS>BOND
  1   1   2  2   
  2   1   3  2   
  3   1   4  am  
  4   1   5  1   
  5   4   6  1   
  6   4   7  1   
  7   5   8  ar  
  8   5   9  ar  
  9   6  10  1   
 10   6  20  1   
 11   6  21  1   
 12   7  22  1   
 13   7  23  1   
 14   7  24  1   
 15   8  11  ar  
 16   8  25  1   
 17   9  12  ar  
 18   9  26  1   
 19  10  13  2   
 20  10  14  am  
 21  11  15  ar  
 22  11  16  1   
 23  12  15  ar  
 24  12  27  1   
 25  14  17  1   
 26  14  28  1   
 27  15  18  1   
 28  16  29  1   
 29  16  30  1   
 30  16  31  1   
 31  17  32  1   
 32  17  33  1   
 33  17  34  1   
 34  18  19  1   
 35  19  35  1   
 36  19  36  1   
 37  19  37  1   
@<TRIPOS>SUBSTRUCTURE
  1 ****   5 GROUP 4 **** **** 0

# MOE 2024.06 (io_trps.svl 2023.06)
