@<TRIPOS>MOLECULE
NONAME
52 54 1 0 0 
SMALL
USER_CHARGES


@<TRIPOS>ATOM
  1 F        0.9320    -0.7540     1.8720 F     1 <1>  -0.1900 
  2 C        2.0010    -1.2890     1.3400 C.ar  1 <1>   0.1900 
  3 C        2.8700    -1.9910     2.1540 C.ar  1 <1>  -0.1500 
  4 C        2.2210    -1.1340    -0.0150 C.ar  1 <1>  -0.1500 
  5 C        3.9990    -2.5550     1.5850 C.ar  1 <1>  -0.1500 
  6 C        3.3550    -1.7030    -0.5690 C.ar  1 <1>  -0.1500 
  7 C        4.2510    -2.4160     0.2210 C.ar  1 <1>   0.1000 
  8 N        5.3790    -2.9770    -0.3670 N.pl3 1 <1>  -0.8380 
  9 C        5.3960    -4.4660    -0.4660 C.3   1 <1>   0.2090 
 10 C        6.6910    -2.3780     0.0220 C.3   1 <1>   0.2090 
 11 C        6.5240    -4.9420    -1.4080 C.3   1 <1>   0.3430 
 12 C        7.8150    -2.8590    -0.9190 C.3   1 <1>   0.3430 
 13 N        7.8620    -4.3630    -1.0360 N.4   1 <1>  -0.9590 
 14 C        8.9570    -4.8300    -1.9210 C.3   1 <1>   0.4860 
 15 C       10.2800    -4.4190    -1.3020 C.ar  1 <1>  -0.1430 
 16 C       10.6380    -4.8820    -0.0360 C.ar  1 <1>   0.0830 
 17 C       11.1270    -3.5770    -2.0060 C.ar  1 <1>  -0.1500 
 18 O        9.7300    -5.7130     0.5670 O.3   1 <1>  -0.3630 
 19 C       11.8550    -4.4730     0.5350 C.ar  1 <1>   0.0830 
 20 C       12.3220    -3.1720    -1.4460 C.ar  1 <1>  -0.1500 
 21 C       10.1370    -6.7480     1.4410 C.3   1 <1>   0.0400 
 22 O       12.2140    -4.8980     1.7810 O.3   1 <1>  -0.3630 
 23 C       12.6800    -3.5960    -0.1790 C.ar  1 <1>   0.0830 
 24 C       13.4150    -5.6380     1.8950 C.3   1 <1>   0.0400 
 25 O       13.8460    -3.1150     0.3150 O.3   1 <1>  -0.3630 
 26 C       13.7410    -2.1470     1.3360 C.3   1 <1>   0.0400 
 27 H        2.6620    -2.0880     3.2040 H     1 <1>   0.1500 
 28 H        1.5210    -0.5810    -0.6150 H     1 <1>   0.1500 
 29 H        4.6870    -3.1030     2.2010 H     1 <1>   0.1500 
 30 H        3.5530    -1.5990    -1.6200 H     1 <1>   0.1500 
 31 H        4.4470    -4.8050    -0.8460 H     1 <1>   0.0800 
 32 H        5.5330    -4.8930     0.5120 H     1 <1>   0.0800 
 33 H        6.9280    -2.6460     1.0370 H     1 <1>   0.0800 
 34 H        6.6190    -1.3040    -0.0280 H     1 <1>   0.0800 
 35 H        6.2680    -4.6410    -2.4100 H     1 <1>   0.0800 
 36 H        6.5690    -6.0180    -1.3840 H     1 <1>   0.0800 
 37 H        8.7600    -2.4900    -0.5530 H     1 <1>   0.0800 
 38 H        7.6450    -2.4280    -1.8910 H     1 <1>   0.0800 
 39 H        8.1340    -4.7280    -0.1060 H     1 <1>   0.4500 
 40 H        8.8540    -4.4020    -2.9050 H     1 <1>   0.0800 
 41 H        8.9310    -5.9040    -2.0050 H     1 <1>   0.0800 
 42 H       10.8730    -3.2270    -2.9930 H     1 <1>   0.1500 
 43 H       12.9870    -2.5180    -1.9840 H     1 <1>   0.1500 
 44 H       10.3350    -6.3300     2.4120 H     1 <1>   0.0800 
 45 H       11.0190    -7.2210     1.0440 H     1 <1>   0.0800 
 46 H        9.3400    -7.4660     1.5150 H     1 <1>   0.0800 
 47 H       13.4030    -6.1550     2.8370 H     1 <1>   0.0800 
 48 H       14.2540    -4.9670     1.8650 H     1 <1>   0.0800 
 49 H       13.4730    -6.3450     1.0870 H     1 <1>   0.0800 
 50 H       14.7340    -1.8430     1.6140 H     1 <1>   0.0800 
 51 H       13.2380    -2.5760     2.1840 H     1 <1>   0.0800 
 52 H       13.1890    -1.3030     0.9600 H     1 <1>   0.0800 
@<TRIPOS>BOND
  1   1   2  1   
  2   2   3  ar  
  3   2   4  ar  
  4   3   5  ar  
  5   3  27  1   
  6   4   6  ar  
  7   4  28  1   
  8   5   7  ar  
  9   5  29  1   
 10   6   7  ar  
 11   6  30  1   
 12   7   8  1   
 13   8   9  1   
 14   8  10  1   
 15   9  11  1   
 16   9  31  1   
 17   9  32  1   
 18  10  12  1   
 19  10  33  1   
 20  10  34  1   
 21  11  13  1   
 22  11  35  1   
 23  11  36  1   
 24  12  13  1   
 25  12  37  1   
 26  12  38  1   
 27  13  14  1   
 28  13  39  1   
 29  14  15  1   
 30  14  40  1   
 31  14  41  1   
 32  15  16  ar  
 33  15  17  ar  
 34  16  18  1   
 35  16  19  ar  
 36  17  20  ar  
 37  17  42  1   
 38  18  21  1   
 39  19  22  1   
 40  19  23  ar  
 41  20  23  ar  
 42  20  43  1   
 43  21  44  1   
 44  21  45  1   
 45  21  46  1   
 46  22  24  1   
 47  23  25  1   
 48  24  47  1   
 49  24  48  1   
 50  24  49  1   
 51  25  26  1   
 52  26  50  1   
 53  26  51  1   
 54  26  52  1   
@<TRIPOS>SUBSTRUCTURE
  1 ****  12 GROUP 4 **** **** 0

# MOE 2024.06 (io_trps.svl 2023.06)
