@<TRIPOS>MOLECULE
NONAME
48 50 1 0 0 
SMALL
USER_CHARGES


@<TRIPOS>ATOM
  1 CL       2.3430     0.7390    -3.9760 Cl    1 <1>  -0.1770 
  2 C        2.6920     1.0590    -2.2960 C.ar  1 <1>   0.1770 
  3 C        3.8530     0.5580    -1.7430 C.ar  1 <1>  -0.1500 
  4 C        1.8000     1.8080    -1.5510 C.ar  1 <1>  -0.1500 
  5 C        4.1420     0.8080    -0.4070 C.ar  1 <1>   0.1000 
  6 C        2.0830     2.0580    -0.2180 C.ar  1 <1>  -0.1500 
  7 N        5.2990     0.3210     0.1890 N.pl3 1 <1>  -0.8380 
  8 C        3.2450     1.5600     0.3440 C.ar  1 <1>  -0.1500 
  9 C        6.5900     0.8770    -0.3130 C.3   1 <1>   0.2090 
 10 C        5.3270    -1.1430     0.4720 C.3   1 <1>   0.2090 
 11 C        7.7480     0.5140     0.6410 C.3   1 <1>   0.3430 
 12 C        6.4910    -1.4940     1.4240 C.3   1 <1>   0.3430 
 13 N        7.8180    -0.9680     0.9340 N.4   1 <1>  -0.9590 
 14 C        8.9240    -1.2880     1.8750 C.3   1 <1>   0.4860 
 15 C       10.2340    -0.9100     1.2120 C.ar  1 <1>  -0.1430 
 16 C       10.6850    -1.6220     0.1130 C.ar  1 <1>  -0.1500 
 17 C       10.9880     0.1520     1.6830 C.ar  1 <1>  -0.1500 
 18 C       11.8610    -1.2830    -0.5350 C.ar  1 <1>   0.0830 
 19 C       12.1680     0.5040     1.0510 C.ar  1 <1>  -0.1500 
 20 O       12.1490    -2.0820    -1.6020 O.3   1 <1>  -0.3630 
 21 C       12.6200    -0.1960    -0.0660 C.ar  1 <1>   0.0830 
 22 C       13.4460    -2.1900    -2.1460 C.3   1 <1>   0.0400 
 23 O       13.7670     0.1680    -0.7090 O.3   1 <1>  -0.3630 
 24 C       14.6160     1.1910    -0.2330 C.3   1 <1>   0.0400 
 25 H        4.5220    -0.0190    -2.3510 H     1 <1>   0.1500 
 26 H        0.9030     2.1850    -2.0080 H     1 <1>   0.1500 
 27 H        1.3990     2.6400     0.3770 H     1 <1>   0.1500 
 28 H        3.4680     1.7540     1.3780 H     1 <1>   0.1500 
 29 H        6.5100     1.9480    -0.3850 H     1 <1>   0.0800 
 30 H        6.7950     0.4940    -1.2970 H     1 <1>   0.0800 
 31 H        5.4280    -1.6890    -0.4500 H     1 <1>   0.0800 
 32 H        4.3940    -1.4330     0.9270 H     1 <1>   0.0800 
 33 H        7.6040     1.0570     1.5600 H     1 <1>   0.0800 
 34 H        8.6760     0.8460     0.2040 H     1 <1>   0.0800 
 35 H        6.5380    -2.5640     1.5400 H     1 <1>   0.0800 
 36 H        6.2690    -1.0660     2.3880 H     1 <1>   0.0800 
 37 H        8.0460    -1.4310     0.0450 H     1 <1>   0.4500 
 38 H        8.9320    -2.3420     2.1000 H     1 <1>   0.0800 
 39 H        8.8030    -0.7410     2.7960 H     1 <1>   0.0800 
 40 H       10.1370    -2.4650    -0.2680 H     1 <1>   0.1500 
 41 H       10.6730     0.7180     2.5450 H     1 <1>   0.1500 
 42 H       12.7210     1.3340     1.4470 H     1 <1>   0.1500 
 43 H       13.4650    -3.0380    -2.8060 H     1 <1>   0.0800 
 44 H       14.1530    -2.3320    -1.3470 H     1 <1>   0.0800 
 45 H       13.6680    -1.2950    -2.6990 H     1 <1>   0.0800 
 46 H       15.4650     1.2520    -0.8900 H     1 <1>   0.0800 
 47 H       14.9440     0.9410     0.7610 H     1 <1>   0.0800 
 48 H       14.0820     2.1240    -0.2430 H     1 <1>   0.0800 
@<TRIPOS>BOND
  1   1   2  1   
  2   2   3  ar  
  3   2   4  ar  
  4   3   5  ar  
  5   3  25  1   
  6   4   6  ar  
  7   4  26  1   
  8   5   7  1   
  9   5   8  ar  
 10   6   8  ar  
 11   6  27  1   
 12   7   9  1   
 13   7  10  1   
 14   8  28  1   
 15   9  11  1   
 16   9  29  1   
 17   9  30  1   
 18  10  12  1   
 19  10  31  1   
 20  10  32  1   
 21  11  13  1   
 22  11  33  1   
 23  11  34  1   
 24  12  13  1   
 25  12  35  1   
 26  12  36  1   
 27  13  14  1   
 28  13  37  1   
 29  14  15  1   
 30  14  38  1   
 31  14  39  1   
 32  15  16  ar  
 33  15  17  ar  
 34  16  18  ar  
 35  16  40  1   
 36  17  19  ar  
 37  17  41  1   
 38  18  20  1   
 39  18  21  ar  
 40  19  21  ar  
 41  19  42  1   
 42  20  22  1   
 43  21  23  1   
 44  22  43  1   
 45  22  44  1   
 46  22  45  1   
 47  23  24  1   
 48  24  46  1   
 49  24  47  1   
 50  24  48  1   
@<TRIPOS>SUBSTRUCTURE
  1 ****  11 GROUP 4 **** **** 0

# MOE 2024.06 (io_trps.svl 2023.06)
