@<TRIPOS>MOLECULE
NONAME
48 50 1 0 0 
SMALL
USER_CHARGES


@<TRIPOS>ATOM
  1 O       -0.2990     0.0500    -1.3690 O.2   1 <1>  -0.5700 
  2 C        0.0120    -1.0040    -0.8530 C.2   1 <1>   0.5440 
  3 N        1.3260    -1.2710    -0.5380 N.am  1 <1>  -0.5470 
  4 C       -1.0010    -1.9950    -0.5550 C.ar  1 <1>   0.0860 
  5 C        2.5110    -0.5410    -0.7390 C.ar  1 <1>   0.1170 
  6 C       -2.2610    -1.6110    -0.0930 C.ar  1 <1>  -0.1500 
  7 C       -0.7600    -3.3650    -0.7120 C.ar  1 <1>  -0.1500 
  8 C        3.7200    -1.2250    -0.7290 C.ar  1 <1>  -0.1500 
  9 C        2.5370     0.8370    -0.9310 C.ar  1 <1>  -0.1500 
 10 C       -3.2290    -2.5460     0.2180 C.ar  1 <1>   0.0830 
 11 C       -1.7250    -4.3100    -0.4100 C.ar  1 <1>  -0.1500 
 12 C        4.9340    -0.5770    -0.9130 C.ar  1 <1>   0.1170 
 13 C        3.7340     1.5020    -1.1150 C.ar  1 <1>  -0.1500 
 14 O       -4.4280    -2.1200     0.6890 O.3   1 <1>  -0.3630 
 15 C       -2.9640    -3.9070     0.0520 C.ar  1 <1>   0.0830 
 16 N        6.1170    -1.3340    -0.8800 N.am  1 <1>  -0.5470 
 17 C        4.9250     0.8010    -1.1040 C.ar  1 <1>  -0.1500 
 18 C       -5.2610    -3.0900     1.2980 C.3   1 <1>   0.1200 
 19 O       -3.9010    -4.8430     0.3270 O.3   1 <1>  -0.3630 
 20 C        7.3630    -1.0780    -1.3840 C.2   1 <1>   0.5690 
 21 C       -5.2340    -4.3970     0.4940 C.3   1 <1>   0.1200 
 22 O        7.6490    -0.0890    -2.0100 O.2   1 <1>  -0.5700 
 23 C        8.4400    -2.1200    -1.1450 C.3   1 <1>  -0.0990 
 24 C        8.9080    -2.1490     0.3190 C.3   1 <1>  -0.1600 
 25 C       10.0000    -3.2030     0.5340 C.3   1 <1>  -0.1600 
 26 C       10.4610    -3.2270     1.9940 C.3   1 <1>  -0.2400 
 27 H        1.4610    -2.1660    -0.0740 H     1 <1>   0.3700 
 28 H       -2.4840    -0.5650     0.0280 H     1 <1>   0.1500 
 29 H        0.1910    -3.6980    -1.0890 H     1 <1>   0.1500 
 30 H        3.7150    -2.2870    -0.5840 H     1 <1>   0.1500 
 31 H        1.6230     1.4020    -0.9360 H     1 <1>   0.1500 
 32 H       -1.5300    -5.3600    -0.5370 H     1 <1>   0.1500 
 33 H        3.7400     2.5670    -1.2660 H     1 <1>   0.1500 
 34 H        6.0320    -2.2360    -0.4180 H     1 <1>   0.3700 
 35 H        5.8470     1.3350    -1.2440 H     1 <1>   0.1500 
 36 H       -6.2580    -2.6890     1.3420 H     1 <1>   0.0800 
 37 H       -4.9030    -3.2580     2.2980 H     1 <1>   0.0800 
 38 H       -5.6590    -4.2450    -0.4820 H     1 <1>   0.0800 
 39 H       -5.7820    -5.1710     1.0010 H     1 <1>   0.0800 
 40 H        9.2770    -1.8930    -1.7820 H     1 <1>   0.0800 
 41 H        8.0620    -3.0830    -1.4340 H     1 <1>   0.0800 
 42 H        8.0740    -2.3620     0.9650 H     1 <1>   0.0800 
 43 H        9.2910    -1.1770     0.5830 H     1 <1>   0.0800 
 44 H       10.8450    -2.9840    -0.0980 H     1 <1>   0.0800 
 45 H        9.6270    -4.1770     0.2660 H     1 <1>   0.0800 
 46 H       10.8610    -2.2690     2.2770 H     1 <1>   0.0800 
 47 H       11.2290    -3.9690     2.1250 H     1 <1>   0.0800 
 48 H        9.6400    -3.4670     2.6460 H     1 <1>   0.0800 
@<TRIPOS>BOND
  1   1   2  2   
  2   2   3  am  
  3   2   4  1   
  4   3   5  1   
  5   3  27  1   
  6   4   6  ar  
  7   4   7  ar  
  8   5   8  ar  
  9   5   9  ar  
 10   6  10  ar  
 11   6  28  1   
 12   7  11  ar  
 13   7  29  1   
 14   8  12  ar  
 15   8  30  1   
 16   9  13  ar  
 17   9  31  1   
 18  10  14  1   
 19  10  15  ar  
 20  11  15  ar  
 21  11  32  1   
 22  12  16  1   
 23  12  17  ar  
 24  13  17  ar  
 25  13  33  1   
 26  14  18  1   
 27  15  19  1   
 28  16  20  am  
 29  16  34  1   
 30  17  35  1   
 31  18  21  1   
 32  18  36  1   
 33  18  37  1   
 34  19  21  1   
 35  20  22  2   
 36  20  23  1   
 37  21  38  1   
 38  21  39  1   
 39  23  24  1   
 40  23  40  1   
 41  23  41  1   
 42  24  25  1   
 43  24  42  1   
 44  24  43  1   
 45  25  26  1   
 46  25  44  1   
 47  25  45  1   
 48  26  46  1   
 49  26  47  1   
 50  26  48  1   
@<TRIPOS>SUBSTRUCTURE
  1 ****   3 GROUP 4 **** **** 0

# MOE 2024.06 (io_trps.svl 2023.06)
