@<TRIPOS>MOLECULE
NONAME
40 41 1 0 0 
SMALL
USER_CHARGES


@<TRIPOS>ATOM
  1 F       -1.2010    -1.1530    -1.2180 F     1 <1>  -0.3400 
  2 C       -2.2590    -0.5040    -0.7320 C.3   1 <1>   1.0200 
  3 F       -1.8500     0.7420    -0.5360 F     1 <1>  -0.3400 
  4 F       -3.1140    -0.4360    -1.7490 F     1 <1>  -0.3400 
  5 C       -2.8710    -1.2280     0.5100 C.3   1 <1>   0.4990 
  6 N       -4.2410    -0.7660     0.9830 N.am  1 <1>  -0.7300 
  7 C       -1.7670    -1.2570     1.5860 C.2   1 <1>   0.5690 
  8 C       -3.0000    -2.7470     0.2630 C.2   1 <1>  -0.1240 
  9 C       -4.5690     0.4790     1.4220 C.2   1 <1>   0.5440 
 10 O       -1.2140    -0.3330     2.1270 O.2   1 <1>  -0.5700 
 11 N       -1.4250    -2.5440     1.8430 N.am  1 <1>  -0.5390 
 12 C       -2.1370    -3.4110     1.0660 C.2   1 <1>  -0.0290 
 13 C       -3.9390    -3.2200    -0.7020 C.2   1 <1>   0.7060 
 14 O       -3.6720     1.2590     1.6420 O.2   1 <1>  -0.5700 
 15 C       -5.9590     0.8570     1.6100 C.ar  1 <1>   0.0860 
 16 C       -1.8710    -4.8960     1.2280 C.3   1 <1>  -0.1020 
 17 O       -4.9440    -2.6030    -0.9980 O.2   1 <1>  -0.5700 
 18 O       -3.7070    -4.3950    -1.2910 O.3   1 <1>  -0.4300 
 19 C       -6.9940     0.2680     0.8770 C.ar  1 <1>  -0.1500 
 20 C       -6.3110     1.8330     2.5420 C.ar  1 <1>  -0.1500 
 21 C       -4.5810    -4.9250    -2.2700 C.3   1 <1>   0.0400 
 22 C       -8.3180     0.6240     1.0720 C.ar  1 <1>  -0.1430 
 23 C       -7.6300     2.1950     2.7460 C.ar  1 <1>  -0.1500 
 24 C       -8.6330     1.5890     2.0130 C.ar  1 <1>  -0.1500 
 25 C       -9.4220    -0.0350     0.2650 C.3   1 <1>  -0.0970 
 26 H       -4.9980    -1.3400     0.5990 H     1 <1>   0.3700 
 27 H       -0.7050    -2.7620     2.5370 H     1 <1>   0.3700 
 28 H       -0.8680    -5.1250     0.9140 H     1 <1>   0.0800 
 29 H       -2.5530    -5.4870     0.6460 H     1 <1>   0.0800 
 30 H       -1.9830    -5.1790     2.2590 H     1 <1>   0.0800 
 31 H       -6.7610    -0.4750     0.1360 H     1 <1>   0.1500 
 32 H       -5.5330     2.3100     3.1130 H     1 <1>   0.1500 
 33 H       -4.1870    -5.8670    -2.6060 H     1 <1>   0.0800 
 34 H       -4.6420    -4.2350    -3.0940 H     1 <1>   0.0800 
 35 H       -5.5540    -5.0660    -1.8300 H     1 <1>   0.0800 
 36 H       -7.8740     2.9490     3.4740 H     1 <1>   0.1500 
 37 H       -9.6590     1.8740     2.1770 H     1 <1>   0.1500 
 38 H       -9.0260    -0.4850    -0.6280 H     1 <1>   0.0800 
 39 H      -10.1590     0.6940    -0.0220 H     1 <1>   0.0800 
 40 H       -9.8990    -0.7970     0.8540 H     1 <1>   0.0800 
@<TRIPOS>BOND
  1   1   2  1   
  2   2   3  1   
  3   2   4  1   
  4   2   5  1   
  5   5   6  1   
  6   5   7  1   
  7   5   8  1   
  8   6   9  am  
  9   6  26  1   
 10   7  10  2   
 11   7  11  am  
 12   8  12  2   
 13   8  13  1   
 14   9  14  2   
 15   9  15  1   
 16  11  12  1   
 17  11  27  1   
 18  12  16  1   
 19  13  17  2   
 20  13  18  1   
 21  15  19  ar  
 22  15  20  ar  
 23  16  28  1   
 24  16  29  1   
 25  16  30  1   
 26  18  21  1   
 27  19  22  ar  
 28  19  31  1   
 29  20  23  ar  
 30  20  32  1   
 31  21  33  1   
 32  21  34  1   
 33  21  35  1   
 34  22  24  ar  
 35  22  25  1   
 36  23  24  ar  
 37  23  36  1   
 38  24  37  1   
 39  25  38  1   
 40  25  39  1   
 41  25  40  1   
@<TRIPOS>SUBSTRUCTURE
  1 ****   6 GROUP 4 **** **** 0

# MOE 2024.06 (io_trps.svl 2023.06)
