@<TRIPOS>MOLECULE
NONAME
30 33 1 0 0 
SMALL
USER_CHARGES


@<TRIPOS>ATOM
  1 S        0.1200    -0.0780     1.2960 S.3   1 <1>  -0.0800 
  2 C       -0.8590    -1.3480     0.5790 C.2   1 <1>   0.4420 
  3 C        1.5460    -0.8520     0.6670 C.2   1 <1>  -0.1100 
  4 N       -0.1770    -2.2320    -0.0520 N.2   1 <1>  -0.5650 
  5 N       -2.2300    -1.2900     0.7480 N.am  1 <1>  -0.1840 
  6 C        1.1750    -1.9540    -0.0010 C.2   1 <1>   0.0460 
  7 C       -3.0310    -0.2180     0.4140 C.2   1 <1>   0.5690 
  8 C       -3.0380    -2.3620     1.0720 C.2   1 <1>   0.5690 
  9 C        2.0960    -2.9260    -0.7040 C.3   1 <1>  -0.0590 
 10 O       -2.7230     0.8040    -0.1400 O.2   1 <1>  -0.5700 
 11 C       -4.4170    -0.5570     0.8740 C.3   1 <1>  -0.0190 
 12 O       -2.7460    -3.3750     1.6520 O.2   1 <1>  -0.5700 
 13 C       -4.4160    -2.0400     0.5650 C.3   1 <1>  -0.0190 
 14 C       -5.8900    -0.2380     0.6610 C.3   1 <1>   0.2000 
 15 C       -5.8930    -2.3780     0.8610 C.3   1 <1>   0.2000 
 16 O       -6.3660    -1.2380     1.4980 O.3   1 <1>  -0.5600 
 17 C       -6.5030    -0.6890    -0.6790 C.3   1 <1>  -0.1600 
 18 C       -6.6700    -2.2070    -0.4490 C.3   1 <1>  -0.1600 
 19 H        2.4990    -0.3980     0.8670 H     1 <1>   0.1500 
 20 H        3.1200    -2.6180    -0.6000 H     1 <1>   0.0800 
 21 H        1.8470    -2.9690    -1.7490 H     1 <1>   0.0800 
 22 H        1.9800    -3.9060    -0.2790 H     1 <1>   0.0800 
 23 H       -4.3120    -0.4080     1.9390 H     1 <1>   0.0800 
 24 H       -4.2860    -2.2010    -0.4930 H     1 <1>   0.0800 
 25 H       -6.1990     0.7340     1.0080 H     1 <1>   0.0800 
 26 H       -6.0860    -3.2750     1.4250 H     1 <1>   0.0800 
 27 H       -5.8510    -0.4560    -1.5030 H     1 <1>   0.0800 
 28 H       -7.4570    -0.2160    -0.8340 H     1 <1>   0.0800 
 29 H       -7.7050    -2.4580    -0.2870 H     1 <1>   0.0800 
 30 H       -6.2870    -2.8060    -1.2570 H     1 <1>   0.0800 
@<TRIPOS>BOND
  1   1   2  1   
  2   1   3  1   
  3   2   4  2   
  4   2   5  1   
  5   3   6  2   
  6   3  19  1   
  7   4   6  1   
  8   5   7  am  
  9   5   8  am  
 10   6   9  1   
 11   7  10  2   
 12   7  11  1   
 13   8  12  2   
 14   8  13  1   
 15   9  20  1   
 16   9  21  1   
 17   9  22  1   
 18  11  13  1   
 19  11  14  1   
 20  11  23  1   
 21  13  15  1   
 22  13  24  1   
 23  14  16  1   
 24  14  17  1   
 25  14  25  1   
 26  15  16  1   
 27  15  18  1   
 28  15  26  1   
 29  17  18  1   
 30  17  27  1   
 31  17  28  1   
 32  18  29  1   
 33  18  30  1   
@<TRIPOS>SUBSTRUCTURE
  1 ****   5 GROUP 4 **** **** 0

# MOE 2024.06 (io_trps.svl 2023.06)
