@<TRIPOS>MOLECULE
NONAME
46 49 1 0 0 
SMALL
USER_CHARGES


@<TRIPOS>ATOM
  1 F        5.0030    -1.9970     4.3250 F     1 <1>  -0.1900 
  2 C        4.5330    -1.8300     3.1150 C.ar  1 <1>   0.1900 
  3 C        3.2740    -2.2980     2.7790 C.ar  1 <1>   0.1900 
  4 C        5.3200    -1.1850     2.1790 C.ar  1 <1>  -0.1500 
  5 F        2.5340    -2.9100     3.6680 F     1 <1>  -0.1900 
  6 C        2.7770    -2.1280     1.5000 C.ar  1 <1>  -0.1500 
  7 C        4.8330    -1.0130     0.8880 C.ar  1 <1>  -0.1440 
  8 C        3.5650    -1.4830     0.5570 C.ar  1 <1>  -0.1500 
  9 C        5.6950    -0.3120    -0.1540 C.3   1 <1>   0.2540 
 10 N        6.9590    -1.0490    -0.3480 N.3   1 <1>  -0.8100 
 11 C        6.7440    -2.4100    -0.9040 C.3   1 <1>   0.1100 
 12 C        7.9160    -0.2880    -1.1870 C.3   1 <1>   0.1100 
 13 C        8.0700    -3.1920    -1.0770 C.3   1 <1>   0.3430 
 14 C        9.2560    -1.0410    -1.3830 C.3   1 <1>   0.3430 
 15 N        9.2430    -2.3590    -0.6620 N.4   1 <1>  -0.9590 
 16 C       10.5420    -3.0760    -0.6750 C.3   1 <1>   0.4860 
 17 C       11.5980    -2.1780    -0.0600 C.ar  1 <1>  -0.1430 
 18 C       11.5600    -1.8970     1.3030 C.ar  1 <1>  -0.1500 
 19 C       12.5990    -1.6230    -0.8610 C.ar  1 <1>  -0.1500 
 20 C       12.5230    -1.0550     1.8210 C.ar  1 <1>   0.0830 
 21 C       13.5600    -0.7800    -0.3170 C.ar  1 <1>  -0.1500 
 22 O       12.6700    -0.6480     3.0840 O.3   1 <1>  -0.3630 
 23 C       13.4940    -0.5100     1.0350 C.ar  1 <1>   0.0830 
 24 C       13.8180     0.2000     3.1100 C.3   1 <1>   0.4000 
 25 O       14.2980     0.2650     1.7680 O.3   1 <1>  -0.3620 
 26 H        6.2950    -0.8280     2.4560 H     1 <1>   0.1500 
 27 H        1.7950    -2.4930     1.2530 H     1 <1>   0.1500 
 28 H        3.1780    -1.3480    -0.4400 H     1 <1>   0.1500 
 29 H        5.9100     0.6830     0.1970 H     1 <1>   0.0800 
 30 H        5.1660    -0.2310    -1.0880 H     1 <1>   0.0800 
 31 H        6.2450    -2.3420    -1.8570 H     1 <1>   0.0800 
 32 H        6.1040    -2.9740    -0.2470 H     1 <1>   0.0800 
 33 H        8.1220     0.6610    -0.7210 H     1 <1>   0.0800 
 34 H        7.4810    -0.0860    -2.1510 H     1 <1>   0.0800 
 35 H        8.1730    -3.4900    -2.1070 H     1 <1>   0.0800 
 36 H        8.0240    -4.0860    -0.4780 H     1 <1>   0.0800 
 37 H       10.0560    -0.4240    -1.0080 H     1 <1>   0.0800 
 38 H        9.4280    -1.1960    -2.4350 H     1 <1>   0.0800 
 39 H        9.0310    -2.0860     0.3100 H     1 <1>   0.4500 
 40 H       10.8180    -3.3300    -1.6860 H     1 <1>   0.0800 
 41 H       10.4700    -3.9850    -0.1010 H     1 <1>   0.0800 
 42 H       10.8180    -2.3080     1.9650 H     1 <1>   0.1500 
 43 H       12.6460    -1.8400    -1.9150 H     1 <1>   0.1500 
 44 H       14.3410    -0.3430    -0.9160 H     1 <1>   0.1500 
 45 H       14.5730    -0.2340     3.7420 H     1 <1>   0.0800 
 46 H       13.5360     1.1830     3.4420 H     1 <1>   0.0800 
@<TRIPOS>BOND
  1   1   2  1   
  2   2   3  ar  
  3   2   4  ar  
  4   3   5  1   
  5   3   6  ar  
  6   4   7  ar  
  7   4  26  1   
  8   6   8  ar  
  9   6  27  1   
 10   7   8  ar  
 11   7   9  1   
 12   8  28  1   
 13   9  10  1   
 14   9  29  1   
 15   9  30  1   
 16  10  11  1   
 17  10  12  1   
 18  11  13  1   
 19  11  31  1   
 20  11  32  1   
 21  12  14  1   
 22  12  33  1   
 23  12  34  1   
 24  13  15  1   
 25  13  35  1   
 26  13  36  1   
 27  14  15  1   
 28  14  37  1   
 29  14  38  1   
 30  15  16  1   
 31  15  39  1   
 32  16  17  1   
 33  16  40  1   
 34  16  41  1   
 35  17  18  ar  
 36  17  19  ar  
 37  18  20  ar  
 38  18  42  1   
 39  19  21  ar  
 40  19  43  1   
 41  20  22  1   
 42  20  23  ar  
 43  21  23  ar  
 44  21  44  1   
 45  22  24  1   
 46  23  25  1   
 47  24  25  1   
 48  24  45  1   
 49  24  46  1   
@<TRIPOS>SUBSTRUCTURE
  1 ****  15 GROUP 4 **** **** 0

# MOE 2024.06 (io_trps.svl 2023.06)
