@<TRIPOS>MOLECULE
NONAME
48 49 1 0 0 
SMALL
USER_CHARGES


@<TRIPOS>ATOM
  1 O       -0.2570    -2.0040     3.4280 O.2   1 <1>  -0.5700 
  2 C       -0.1150    -3.0430     2.8250 C.2   1 <1>   0.6590 
  3 O       -0.7270    -3.3170     1.6660 O.3   1 <1>  -0.0870 
  4 C        0.8710    -4.1030     3.3320 C.3   1 <1>   0.2610 
  5 N       -1.4840    -2.4360     0.9980 N.2   1 <1>  -0.5130 
  6 O        1.5710    -4.7440     2.2700 O.3   1 <1>  -0.3630 
  7 C        0.1800    -5.2070     4.1400 C.3   1 <1>  -0.2400 
  8 C       -1.1810    -2.2110    -0.2240 C.2   1 <1>   0.4140 
  9 C        2.1970    -4.0420     1.2920 C.ar  1 <1>   0.0830 
 10 N       -0.1320    -2.8870    -0.8180 N.pl3 1 <1>  -0.8500 
 11 C       -1.8930    -1.2300    -1.0220 C.ar  1 <1>   0.0860 
 12 C        2.4250    -4.7020     0.0990 C.ar  1 <1>  -0.1500 
 13 C        2.5740    -2.7100     1.4120 C.ar  1 <1>  -0.1500 
 14 C       -1.9460    -1.2730    -2.4100 C.ar  1 <1>  -0.1500 
 15 C       -2.5770    -0.1650    -0.4520 C.ar  1 <1>  -0.1500 
 16 C        2.9850    -4.0370    -0.9770 C.ar  1 <1>  -0.1500 
 17 C        3.1290    -2.0500     0.3300 C.ar  1 <1>  -0.1500 
 18 C       -2.6300    -0.3020    -3.1160 C.ar  1 <1>   0.1600 
 19 C       -3.2310     0.7560    -1.2460 C.ar  1 <1>   0.1600 
 20 C        3.3370    -2.6920    -0.8870 C.ar  1 <1>  -0.1430 
 21 N       -3.2710     0.7160    -2.5680 N.ar  1 <1>  -0.6200 
 22 C        3.9450    -1.9010    -2.0670 C.3   1 <1>   0.1430 
 23 C        3.0230    -0.7250    -2.4240 C.3   1 <1>  -0.2400 
 24 C        4.1260    -2.7490    -3.3370 C.3   1 <1>  -0.2400 
 25 C        5.3280    -1.3630    -1.6690 C.3   1 <1>  -0.2400 
 26 H        1.6040    -3.6200     3.9530 H     1 <1>   0.0800 
 27 H       -0.5400    -5.7210     3.5280 H     1 <1>   0.0800 
 28 H       -0.3310    -4.7760     4.9820 H     1 <1>   0.0800 
 29 H        0.9090    -5.9090     4.5040 H     1 <1>   0.0800 
 30 H        0.3420    -3.5110    -0.1580 H     1 <1>   0.4000 
 31 H        0.5680    -2.2840    -1.2510 H     1 <1>   0.4000 
 32 H        2.1530    -5.7390     0.0120 H     1 <1>   0.1500 
 33 H        2.4440    -2.1690     2.3310 H     1 <1>   0.1500 
 34 H       -1.4600    -2.0700    -2.9400 H     1 <1>   0.1500 
 35 H       -2.5950    -0.0570     0.6180 H     1 <1>   0.1500 
 36 H        3.1340    -4.5980    -1.8810 H     1 <1>   0.1500 
 37 H        3.3990    -1.0170     0.4520 H     1 <1>   0.1500 
 38 H       -2.6530    -0.3640    -4.1910 H     1 <1>   0.1500 
 39 H       -3.7510     1.5710    -0.7700 H     1 <1>   0.1500 
 40 H        3.4230    -0.1700    -3.2540 H     1 <1>   0.0800 
 41 H        2.9160    -0.0490    -1.5960 H     1 <1>   0.0800 
 42 H        2.0480    -1.0870    -2.6960 H     1 <1>   0.0800 
 43 H        4.5500    -2.1590    -4.1300 H     1 <1>   0.0800 
 44 H        3.1800    -3.1310    -3.6770 H     1 <1>   0.0800 
 45 H        4.7900    -3.5740    -3.1470 H     1 <1>   0.0800 
 46 H        5.2580    -0.6790    -0.8430 H     1 <1>   0.0800 
 47 H        5.7870    -0.8450    -2.4920 H     1 <1>   0.0800 
 48 H        5.9690    -2.1770    -1.3780 H     1 <1>   0.0800 
@<TRIPOS>BOND
  1   1   2  2   
  2   2   3  1   
  3   2   4  1   
  4   3   5  1   
  5   4   6  1   
  6   4   7  1   
  7   4  26  1   
  8   5   8  2   
  9   6   9  1   
 10   7  27  1   
 11   7  28  1   
 12   7  29  1   
 13   8  10  1   
 14   8  11  1   
 15   9  12  ar  
 16   9  13  ar  
 17  10  30  1   
 18  10  31  1   
 19  11  14  ar  
 20  11  15  ar  
 21  12  16  ar  
 22  12  32  1   
 23  13  17  ar  
 24  13  33  1   
 25  14  18  ar  
 26  14  34  1   
 27  15  19  ar  
 28  15  35  1   
 29  16  20  ar  
 30  16  36  1   
 31  17  20  ar  
 32  17  37  1   
 33  18  21  ar  
 34  18  38  1   
 35  19  21  ar  
 36  19  39  1   
 37  20  22  1   
 38  22  23  1   
 39  22  24  1   
 40  22  25  1   
 41  23  40  1   
 42  23  41  1   
 43  23  42  1   
 44  24  43  1   
 45  24  44  1   
 46  24  45  1   
 47  25  46  1   
 48  25  47  1   
 49  25  48  1   
@<TRIPOS>SUBSTRUCTURE
  1 ****  10 GROUP 4 **** **** 0

# MOE 2024.06 (io_trps.svl 2023.06)
