@<TRIPOS>MOLECULE
NONAME
49 50 1 0 0 
SMALL
USER_CHARGES


@<TRIPOS>ATOM
  1 S       -0.0140     0.0140    -0.4960 S.o2  1 <1>   1.4470 
  2 O       -0.7120    -0.8390     0.4390 O.2   1 <1>  -0.6500 
  3 O       -0.2330    -0.1250    -1.9170 O.2   1 <1>  -0.6500 
  4 N       -0.4930     1.5900    -0.1820 N.am  1 <1>  -0.9140 
  5 C        1.7590     0.0420    -0.1190 C.ar  1 <1>  -0.0090 
  6 C       -1.9090     1.7040     0.0960 C.3   1 <1>   0.1960 
  7 C        2.7140    -0.1590    -1.1090 C.ar  1 <1>  -0.1500 
  8 C        2.2050     0.2750     1.1750 C.ar  1 <1>  -0.1500 
  9 C       -2.2520     3.1830     0.2000 C.3   1 <1>  -0.2400 
 10 C        4.0670    -0.1260    -0.8180 C.ar  1 <1>  -0.1500 
 11 C        3.5560     0.3090     1.4740 C.ar  1 <1>  -0.1500 
 12 C        4.4950     0.1100     0.4770 C.ar  1 <1>  -0.1430 
 13 C        5.9790     0.1550     0.8020 C.3   1 <1>  -0.0170 
 14 C        6.5010     1.5960     0.7010 C.3   1 <1>  -0.0990 
 15 C        7.9860     1.7380     1.0060 C.2   1 <1>   0.5690 
 16 O        8.5820     0.7560     1.3850 O.2   1 <1>  -0.5700 
 17 N        8.6170     2.9480     0.8440 N.am  1 <1>  -0.6600 
 18 C       10.0840     3.0610     1.0750 C.3   1 <1>   0.1400 
 19 C        7.9470     4.2050     0.4160 C.3   1 <1>   0.1400 
 20 C       10.8260     2.8580    -0.2490 C.3   1 <1>  -0.1600 
 21 C        8.3960     4.6260    -0.9890 C.3   1 <1>  -0.1600 
 22 C       10.9270     4.0950    -1.1620 C.3   1 <1>  -0.1600 
 23 C        9.8340     5.1670    -1.0250 C.3   1 <1>  -0.1600 
 24 H       -0.3310     2.0630    -1.0680 H     1 <1>   0.4200 
 25 H       -2.1390     1.2080     1.0260 H     1 <1>   0.0800 
 26 H       -2.4830     1.2430    -0.6930 H     1 <1>   0.0800 
 27 H        2.3970    -0.3450    -2.1220 H     1 <1>   0.1500 
 28 H        1.4830     0.4320     1.9590 H     1 <1>   0.1500 
 29 H       -1.6800     3.6420     0.9860 H     1 <1>   0.0800 
 30 H       -3.2960     3.2940     0.4300 H     1 <1>   0.0800 
 31 H       -2.0540     3.6840    -0.7300 H     1 <1>   0.0800 
 32 H        4.7840    -0.2850    -1.6040 H     1 <1>   0.1500 
 33 H        3.8720     0.4920     2.4870 H     1 <1>   0.1500 
 34 H        6.5230    -0.4760     0.1210 H     1 <1>   0.0800 
 35 H        6.1450    -0.2230     1.7970 H     1 <1>   0.0800 
 36 H        5.9540     2.2110     1.3910 H     1 <1>   0.0800 
 37 H        6.3210     1.9550    -0.2950 H     1 <1>   0.0800 
 38 H       10.3940     2.2990     1.7710 H     1 <1>   0.0800 
 39 H       10.3270     4.0140     1.5120 H     1 <1>   0.0800 
 40 H        8.1770     4.9850     1.1230 H     1 <1>   0.0800 
 41 H        6.8800     4.0870     0.4180 H     1 <1>   0.0800 
 42 H       10.3510     2.0520    -0.7830 H     1 <1>   0.0800 
 43 H       11.8250     2.5290    -0.0260 H     1 <1>   0.0800 
 44 H        7.7400     5.4160    -1.3080 H     1 <1>   0.0800 
 45 H        8.2750     3.8100    -1.6800 H     1 <1>   0.0800 
 46 H       10.9490     3.7510    -2.1820 H     1 <1>   0.0800 
 47 H       11.8740     4.5740    -0.9790 H     1 <1>   0.0800 
 48 H       10.0170     5.7600    -0.1450 H     1 <1>   0.0800 
 49 H        9.9250     5.8310    -1.8680 H     1 <1>   0.0800 
@<TRIPOS>BOND
  1   1   2  2   
  2   1   3  2   
  3   1   4  am  
  4   1   5  1   
  5   4   6  1   
  6   4  24  1   
  7   5   7  ar  
  8   5   8  ar  
  9   6   9  1   
 10   6  25  1   
 11   6  26  1   
 12   7  10  ar  
 13   7  27  1   
 14   8  11  ar  
 15   8  28  1   
 16   9  29  1   
 17   9  30  1   
 18   9  31  1   
 19  10  12  ar  
 20  10  32  1   
 21  11  12  ar  
 22  11  33  1   
 23  12  13  1   
 24  13  14  1   
 25  13  34  1   
 26  13  35  1   
 27  14  15  1   
 28  14  36  1   
 29  14  37  1   
 30  15  16  2   
 31  15  17  am  
 32  17  18  1   
 33  17  19  1   
 34  18  20  1   
 35  18  38  1   
 36  18  39  1   
 37  19  21  1   
 38  19  40  1   
 39  19  41  1   
 40  20  22  1   
 41  20  42  1   
 42  20  43  1   
 43  21  23  1   
 44  21  44  1   
 45  21  45  1   
 46  22  23  1   
 47  22  46  1   
 48  22  47  1   
 49  23  48  1   
 50  23  49  1   
@<TRIPOS>SUBSTRUCTURE
  1 ****  12 GROUP 4 **** **** 0

# MOE 2024.06 (io_trps.svl 2023.06)
