@<TRIPOS>MOLECULE
NONAME
42 44 1 0 0 
SMALL
USER_CHARGES


@<TRIPOS>ATOM
  1 S       -0.5880    -0.3530     1.0090 S.3   1 <1>  -0.0800 
  2 C       -1.3950     0.0510    -0.4700 C.2   1 <1>   0.4420 
  3 C        0.8580    -0.5690     0.0810 C.2   1 <1>   0.1980 
  4 N       -0.6060     0.0040    -1.4800 N.2   1 <1>  -0.3380 
  5 N       -2.7350     0.3600    -0.3760 N.am  1 <1>  -0.4940 
  6 N        0.6760    -0.3500    -1.1590 N.2   1 <1>  -0.3380 
  7 C        2.1220    -0.9790     0.8290 C.3   1 <1>   0.1000 
  8 C       -3.6280     0.7110    -1.3490 C.2   1 <1>   0.5690 
  9 C        2.7270     0.2250     1.5740 C.3   1 <1>  -0.1600 
 10 C        3.1660    -1.6040    -0.1150 C.3   1 <1>  -0.1600 
 11 O       -3.3410     0.8040    -2.5140 O.2   1 <1>  -0.5700 
 12 C       -5.0670     1.0010    -0.9490 C.3   1 <1>   0.1310 
 13 C        4.0130    -0.1550     2.3230 C.3   1 <1>  -0.1600 
 14 C        4.4500    -1.9920     0.6330 C.3   1 <1>  -0.1600 
 15 S       -5.3240     0.8060     0.8850 S.3   1 <1>  -0.3310 
 16 C        5.0410    -0.7860     1.3750 C.3   1 <1>  -0.1600 
 17 C       -7.0500     1.1870     1.1210 C.ar  1 <1>   0.7220 
 18 N       -7.7230     1.5010     0.0260 N.ar  1 <1>  -0.6200 
 19 N       -7.4630     1.1110     2.3730 N.ar  1 <1>  -0.6200 
 20 C       -8.9910     1.7770     0.2260 C.ar  1 <1>   0.1670 
 21 C       -8.7360     1.3930     2.5370 C.ar  1 <1>   0.1600 
 22 C       -9.5510     1.7350     1.4830 C.ar  1 <1>  -0.1500 
 23 C       -9.8150     2.1440    -0.9900 C.3   1 <1>  -0.0970 
 24 H       -3.1250     0.3220     0.5650 H     1 <1>   0.3700 
 25 H        1.8460    -1.7250     1.5540 H     1 <1>   0.0800 
 26 H        2.0110     0.6160     2.2760 H     1 <1>   0.0800 
 27 H        2.9470     1.0030     0.8630 H     1 <1>   0.0800 
 28 H        3.4110    -0.8990    -0.8920 H     1 <1>   0.0800 
 29 H        2.7470    -2.4760    -0.5870 H     1 <1>   0.0800 
 30 H       -5.7340     0.3180    -1.4420 H     1 <1>   0.0800 
 31 H       -5.3270     2.0110    -1.2050 H     1 <1>   0.0800 
 32 H        3.7780    -0.8530     3.1080 H     1 <1>   0.0800 
 33 H        4.4370     0.7230     2.7790 H     1 <1>   0.0800 
 34 H        5.1730    -2.3740    -0.0670 H     1 <1>   0.0800 
 35 H        4.2310    -2.7750     1.3400 H     1 <1>   0.0800 
 36 H        5.9060    -1.0960     1.9350 H     1 <1>   0.0800 
 37 H        5.3610    -0.0500     0.6570 H     1 <1>   0.0800 
 38 H       -9.1370     1.3490     3.5360 H     1 <1>   0.1500 
 39 H      -10.5880     1.9610     1.6440 H     1 <1>   0.1500 
 40 H       -9.8000     1.3320    -1.6950 H     1 <1>   0.0800 
 41 H       -9.3960     3.0160    -1.4590 H     1 <1>   0.0800 
 42 H      -10.8340     2.3510    -0.7200 H     1 <1>   0.0800 
@<TRIPOS>BOND
  1   1   2  1   
  2   1   3  1   
  3   2   4  2   
  4   2   5  1   
  5   3   6  2   
  6   3   7  1   
  7   4   6  1   
  8   5   8  am  
  9   5  24  1   
 10   7   9  1   
 11   7  10  1   
 12   7  25  1   
 13   8  11  2   
 14   8  12  1   
 15   9  13  1   
 16   9  26  1   
 17   9  27  1   
 18  10  14  1   
 19  10  28  1   
 20  10  29  1   
 21  12  15  1   
 22  12  30  1   
 23  12  31  1   
 24  13  16  1   
 25  13  32  1   
 26  13  33  1   
 27  14  16  1   
 28  14  34  1   
 29  14  35  1   
 30  15  17  1   
 31  16  36  1   
 32  16  37  1   
 33  17  18  ar  
 34  17  19  ar  
 35  18  20  ar  
 36  19  21  ar  
 37  20  22  ar  
 38  20  23  1   
 39  21  22  ar  
 40  21  38  1   
 41  22  39  1   
 42  23  40  1   
 43  23  41  1   
 44  23  42  1   
@<TRIPOS>SUBSTRUCTURE
  1 ****   5 GROUP 4 **** **** 0

# MOE 2024.06 (io_trps.svl 2023.06)
