@<TRIPOS>MOLECULE
NONAME
42 44 1 0 0 
SMALL
USER_CHARGES


@<TRIPOS>ATOM
  1 O       -0.4730    -0.6750     0.1190 O.3   1 <1>  -0.3630 
  2 C       -1.6790    -1.1930    -0.2170 C.ar  1 <1>   0.0830 
  3 C        0.2360    -1.1230     1.2510 C.3   1 <1>   0.1200 
  4 C       -2.3590    -2.1390     0.5440 C.ar  1 <1>  -0.1500 
  5 C       -2.2450    -0.7360    -1.3950 C.ar  1 <1>  -0.1500 
  6 C        1.5590    -0.3640     1.3080 C.3   1 <1>  -0.2400 
  7 C       -3.5920    -2.6100     0.1260 C.ar  1 <1>  -0.1500 
  8 C       -3.4750    -1.2070    -1.8150 C.ar  1 <1>  -0.1500 
  9 C       -4.1600    -2.1420    -1.0510 C.ar  1 <1>  -0.1430 
 10 C       -5.5200    -2.6390    -1.5020 C.3   1 <1>   0.4860 
 11 N       -6.5620    -2.0210    -0.6410 N.4   1 <1>  -0.9590 
 12 C       -7.9140    -2.5800    -0.9090 C.3   1 <1>   0.4860 
 13 C       -6.5870    -0.5300    -0.7350 C.3   1 <1>   0.3430 
 14 C       -8.9330    -1.9620     0.0330 C.ar  1 <1>  -0.1430 
 15 C       -7.4270     0.0510     0.4040 C.3   1 <1>  -0.0170 
 16 C       -8.7150    -0.7270     0.6370 C.ar  1 <1>  -0.1430 
 17 C      -10.1140    -2.6460     0.2830 C.ar  1 <1>  -0.1500 
 18 C       -9.6760    -0.1950     1.4810 C.ar  1 <1>  -0.1500 
 19 C      -11.0690    -2.1090     1.1270 C.ar  1 <1>  -0.1500 
 20 C      -10.8510    -0.8830     1.7250 C.ar  1 <1>  -0.1500 
 21 H        0.4090    -2.1800     1.1500 H     1 <1>   0.0800 
 22 H       -0.3550    -0.9200     2.1270 H     1 <1>   0.0800 
 23 H       -1.9410    -2.5160     1.4590 H     1 <1>   0.1500 
 24 H       -1.7050    -0.0110    -1.9790 H     1 <1>   0.1500 
 25 H        2.1350    -0.5600     0.4210 H     1 <1>   0.0800 
 26 H        2.1260    -0.6840     2.1630 H     1 <1>   0.0800 
 27 H        1.3760     0.6920     1.3920 H     1 <1>   0.0800 
 28 H       -4.0940    -3.3460     0.7310 H     1 <1>   0.1500 
 29 H       -3.8820    -0.8340    -2.7400 H     1 <1>   0.1500 
 30 H       -5.5510    -3.7130    -1.4130 H     1 <1>   0.0800 
 31 H       -5.6830    -2.3750    -2.5340 H     1 <1>   0.0800 
 32 H       -6.3360    -2.2460     0.3360 H     1 <1>   0.4500 
 33 H       -7.9060    -3.6490    -0.7680 H     1 <1>   0.0800 
 34 H       -8.2050    -2.3720    -1.9260 H     1 <1>   0.0800 
 35 H       -7.0140    -0.2340    -1.6800 H     1 <1>   0.0800 
 36 H       -5.5880    -0.1280    -0.6720 H     1 <1>   0.0800 
 37 H       -7.6580     1.0770     0.1780 H     1 <1>   0.0800 
 38 H       -6.8450     0.0440     1.3090 H     1 <1>   0.0800 
 39 H      -10.3100    -3.6030    -0.1730 H     1 <1>   0.1500 
 40 H       -9.5210     0.7580     1.9570 H     1 <1>   0.1500 
 41 H      -11.9850    -2.6430     1.3190 H     1 <1>   0.1500 
 42 H      -11.5950    -0.4640     2.3810 H     1 <1>   0.1500 
@<TRIPOS>BOND
  1   1   2  1   
  2   1   3  1   
  3   2   4  ar  
  4   2   5  ar  
  5   3   6  1   
  6   3  21  1   
  7   3  22  1   
  8   4   7  ar  
  9   4  23  1   
 10   5   8  ar  
 11   5  24  1   
 12   6  25  1   
 13   6  26  1   
 14   6  27  1   
 15   7   9  ar  
 16   7  28  1   
 17   8   9  ar  
 18   8  29  1   
 19   9  10  1   
 20  10  11  1   
 21  10  30  1   
 22  10  31  1   
 23  11  12  1   
 24  11  13  1   
 25  11  32  1   
 26  12  14  1   
 27  12  33  1   
 28  12  34  1   
 29  13  15  1   
 30  13  35  1   
 31  13  36  1   
 32  14  16  ar  
 33  14  17  ar  
 34  15  16  1   
 35  15  37  1   
 36  15  38  1   
 37  16  18  ar  
 38  17  19  ar  
 39  17  39  1   
 40  18  20  ar  
 41  18  40  1   
 42  19  20  ar  
 43  19  41  1   
 44  20  42  1   
@<TRIPOS>SUBSTRUCTURE
  1 ****  11 GROUP 4 **** **** 0

# MOE 2024.06 (io_trps.svl 2023.06)
