@<TRIPOS>MOLECULE
NONAME
61 64 1 0 0 
SMALL
USER_CHARGES


@<TRIPOS>ATOM
  1 O       -0.3940    -0.8500    -0.1090 O.2   1 <1>  -0.5700 
  2 C       -0.7440    -1.9040    -0.6120 C.2   1 <1>   0.7150 
  3 N        0.2310    -2.8250    -0.9440 N.am  1 <1>  -0.6600 
  4 C       -2.1470    -2.1640    -0.8620 C.2   1 <1>   0.0550 
  5 C       -0.0100    -4.3040    -0.9760 C.3   1 <1>   0.1400 
  6 C        1.6850    -2.4600    -0.9630 C.3   1 <1>   0.1400 
  7 O       -3.0840    -1.7380    -0.0180 O.3   1 <1>  -0.2800 
  8 C       -2.7660    -2.8160    -1.8880 C.2   1 <1>  -0.1500 
  9 C        0.8070    -5.0380     0.1030 C.3   1 <1>   0.2090 
 10 C        2.4650    -3.2000     0.1350 C.3   1 <1>   0.2090 
 11 C       -4.2660    -2.0960    -0.4670 C.2   1 <1>  -0.0400 
 12 C       -4.1360    -2.7720    -1.6290 C.2   1 <1>  -0.1500 
 13 N        2.2530    -4.6730     0.0310 N.pl3 1 <1>  -0.8380 
 14 C       -5.4950    -1.7110     0.3340 C.3   1 <1>   0.3000 
 15 C        3.1640    -5.4830     0.6830 C.ar  1 <1>   0.4100 
 16 O       -6.6400    -2.3010    -0.2460 O.3   1 <1>  -0.3630 
 17 N        2.7440    -6.1260     1.7670 N.ar  1 <1>  -0.6200 
 18 C        4.4630    -5.5860     0.1930 C.ar  1 <1>  -0.1500 
 19 C       -7.8920    -1.9580     0.1690 C.ar  1 <1>   0.0830 
 20 C        3.6420    -6.8810     2.3760 C.ar  1 <1>   0.1600 
 21 C        5.3880    -6.3740     0.8360 C.ar  1 <1>  -0.1500 
 22 C       -8.9810    -2.2940    -0.6410 C.ar  1 <1>   0.0830 
 23 C       -8.1260    -1.2770     1.3600 C.ar  1 <1>  -0.1500 
 24 C        4.9530    -7.0390     1.9640 C.ar  1 <1>  -0.1500 
 25 O       -8.8320    -2.9650    -1.8090 O.3   1 <1>  -0.3630 
 26 C      -10.2640    -1.9270    -0.2730 C.ar  1 <1>  -0.1500 
 27 C       -9.4150    -0.9240     1.7240 C.ar  1 <1>  -0.1500 
 28 C       -8.4680    -4.3230    -1.7100 C.3   1 <1>   0.0400 
 29 C      -10.4900    -1.2430     0.9100 C.ar  1 <1>  -0.1430 
 30 C      -11.9030    -0.8450     1.3070 C.3   1 <1>  -0.0170 
 31 C      -12.2410     0.5450     0.7570 C.3   1 <1>  -0.1600 
 32 C      -13.6610     0.9740     1.1430 C.3   1 <1>  -0.2400 
 33 H        0.2710    -4.6850    -1.9420 H     1 <1>   0.0800 
 34 H       -1.0500    -4.5270    -0.8190 H     1 <1>   0.0800 
 35 H        1.8140    -1.3990    -0.8340 H     1 <1>   0.0800 
 36 H        2.0980    -2.7240    -1.9210 H     1 <1>   0.0800 
 37 H       -2.3100    -3.2740    -2.7470 H     1 <1>   0.1500 
 38 H        0.7000    -6.1010    -0.0270 H     1 <1>   0.0800 
 39 H        0.4250    -4.7840     1.0770 H     1 <1>   0.0800 
 40 H        2.1320    -2.8590     1.1000 H     1 <1>   0.0800 
 41 H        3.5130    -2.9730     0.0450 H     1 <1>   0.0800 
 42 H       -4.9160    -3.1900    -2.2430 H     1 <1>   0.1500 
 43 H       -5.6170    -0.6420     0.3260 H     1 <1>   0.0800 
 44 H       -5.4030    -2.0700     1.3430 H     1 <1>   0.0800 
 45 H        4.7240    -5.0440    -0.6950 H     1 <1>   0.1500 
 46 H        3.3140    -7.4050     3.2570 H     1 <1>   0.1500 
 47 H        6.3980    -6.4720     0.4780 H     1 <1>   0.1500 
 48 H       -7.3240    -1.0100     2.0220 H     1 <1>   0.1500 
 49 H        5.6230    -7.6740     2.5170 H     1 <1>   0.1500 
 50 H      -11.0810    -2.1810    -0.9240 H     1 <1>   0.1500 
 51 H       -9.5800    -0.3950     2.6460 H     1 <1>   0.1500 
 52 H       -8.5030    -4.7530    -2.6940 H     1 <1>   0.0800 
 53 H       -9.1650    -4.8240    -1.0620 H     1 <1>   0.0800 
 54 H       -7.4710    -4.3950    -1.3150 H     1 <1>   0.0800 
 55 H      -11.9890    -0.8440     2.3800 H     1 <1>   0.0800 
 56 H      -12.6020    -1.5670     0.9240 H     1 <1>   0.0800 
 57 H      -12.1500     0.5340    -0.3160 H     1 <1>   0.0800 
 58 H      -11.5350     1.2620     1.1400 H     1 <1>   0.0800 
 59 H      -14.3830     0.2820     0.7480 H     1 <1>   0.0800 
 60 H      -13.8700     1.9510     0.7430 H     1 <1>   0.0800 
 61 H      -13.7650     1.0130     2.2130 H     1 <1>   0.0800 
@<TRIPOS>BOND
  1   1   2  2   
  2   2   3  am  
  3   2   4  1   
  4   3   5  1   
  5   3   6  1   
  6   4   7  1   
  7   4   8  2   
  8   5   9  1   
  9   5  33  1   
 10   5  34  1   
 11   6  10  1   
 12   6  35  1   
 13   6  36  1   
 14   7  11  1   
 15   8  12  1   
 16   8  37  1   
 17   9  13  1   
 18   9  38  1   
 19   9  39  1   
 20  10  13  1   
 21  10  40  1   
 22  10  41  1   
 23  11  12  2   
 24  11  14  1   
 25  12  42  1   
 26  13  15  1   
 27  14  16  1   
 28  14  43  1   
 29  14  44  1   
 30  15  17  ar  
 31  15  18  ar  
 32  16  19  1   
 33  17  20  ar  
 34  18  21  ar  
 35  18  45  1   
 36  19  22  ar  
 37  19  23  ar  
 38  20  24  ar  
 39  20  46  1   
 40  21  24  ar  
 41  21  47  1   
 42  22  25  1   
 43  22  26  ar  
 44  23  27  ar  
 45  23  48  1   
 46  24  49  1   
 47  25  28  1   
 48  26  29  ar  
 49  26  50  1   
 50  27  29  ar  
 51  27  51  1   
 52  28  52  1   
 53  28  53  1   
 54  28  54  1   
 55  29  30  1   
 56  30  31  1   
 57  30  55  1   
 58  30  56  1   
 59  31  32  1   
 60  31  57  1   
 61  31  58  1   
 62  32  59  1   
 63  32  60  1   
 64  32  61  1   
@<TRIPOS>SUBSTRUCTURE
  1 ****   7 GROUP 4 **** **** 0

# MOE 2024.06 (io_trps.svl 2023.06)
