@<TRIPOS>MOLECULE
NONAME
44 44 1 0 0 
SMALL
USER_CHARGES


@<TRIPOS>ATOM
  1 O       -8.8120     2.9320    -2.3190 O.co2 1 <1>  -0.9000 
  2 C       -8.1200     2.7960    -1.3030 C.2   1 <1>   1.0330 
  3 O       -7.6110     3.8130    -0.7940 O.co2 1 <1>  -0.9000 
  4 C       -7.7680     1.4840    -0.7800 C.2   1 <1>  -0.2330 
  5 C       -6.7230     1.1940     0.1380 C.2   1 <1>  -0.1810 
  6 C       -8.3140     0.2690    -1.0480 C.2   1 <1>  -0.0400 
  7 C       -6.7380    -0.1470     0.3420 C.2   1 <1>  -0.0400 
  8 C       -5.8320     2.2770     0.7200 C.3   1 <1>   0.5240 
  9 O       -7.6980    -0.6800    -0.3880 O.3   1 <1>  -0.2800 
 10 C       -9.4660    -0.1370    -1.9450 C.3   1 <1>  -0.0600 
 11 C       -5.9210    -1.1300     1.1980 C.3   1 <1>   0.1800 
 12 N       -4.6000     2.4570    -0.1140 N.4   1 <1>  -0.9590 
 13 C       -6.8720    -1.9100     2.1170 C.3   1 <1>  -0.2400 
 14 C       -5.1960    -2.1150     0.2710 C.3   1 <1>  -0.2400 
 15 C       -4.8730    -0.4370     2.0800 C.3   1 <1>  -0.2400 
 16 C       -3.6950     3.4470     0.5160 C.3   1 <1>   0.3430 
 17 C       -4.9820     2.8810    -1.4940 C.3   1 <1>   0.3430 
 18 C       -3.0080     2.8370     1.7330 C.3   1 <1>  -0.2400 
 19 C       -3.7840     2.7870    -2.4340 C.3   1 <1>  -0.2400 
 20 H       -5.5560     1.9910     1.7170 H     1 <1>   0.0800 
 21 H       -6.3720     3.2050     0.7990 H     1 <1>   0.0800 
 22 H       -9.9280     0.7230    -2.3930 H     1 <1>   0.0800 
 23 H      -10.2040    -0.6610    -1.3680 H     1 <1>   0.0800 
 24 H       -9.1060    -0.7810    -2.7250 H     1 <1>   0.0800 
 25 H       -4.1620     1.5360    -0.1910 H     1 <1>   0.4500 
 26 H       -7.4140    -1.2310     2.7520 H     1 <1>   0.0800 
 27 H       -6.3300    -2.6050     2.7330 H     1 <1>   0.0800 
 28 H       -7.5880    -2.4620     1.5340 H     1 <1>   0.0800 
 29 H       -5.9100    -2.6580    -0.3240 H     1 <1>   0.0800 
 30 H       -4.6210    -2.8240     0.8380 H     1 <1>   0.0800 
 31 H       -4.5400    -1.5870    -0.3970 H     1 <1>   0.0800 
 32 H       -5.3490     0.2420     2.7630 H     1 <1>   0.0800 
 33 H       -4.1610     0.0900     1.4760 H     1 <1>   0.0800 
 34 H       -4.3380    -1.1670     2.6610 H     1 <1>   0.0800 
 35 H       -4.2540     4.3260     0.7990 H     1 <1>   0.0800 
 36 H       -2.9370     3.7490    -0.1870 H     1 <1>   0.0800 
 37 H       -5.3840     3.8830    -1.4830 H     1 <1>   0.0800 
 38 H       -5.7500     2.2300    -1.8750 H     1 <1>   0.0800 
 39 H       -3.7110     2.6010     2.5100 H     1 <1>   0.0800 
 40 H       -2.3100     3.5510     2.1330 H     1 <1>   0.0800 
 41 H       -2.4560     1.9560     1.4560 H     1 <1>   0.0800 
 42 H       -3.0330     3.5160    -2.1980 H     1 <1>   0.0800 
 43 H       -4.1240     2.9840    -3.4350 H     1 <1>   0.0800 
 44 H       -3.3630     1.7980    -2.4150 H     1 <1>   0.0800 
@<TRIPOS>BOND
  1   1   2  ar  
  2   2   3  ar  
  3   2   4  1   
  4   4   5  1   
  5   4   6  2   
  6   5   7  2   
  7   5   8  1   
  8   6   9  1   
  9   6  10  1   
 10   7   9  1   
 11   7  11  1   
 12   8  12  1   
 13   8  20  1   
 14   8  21  1   
 15  10  22  1   
 16  10  23  1   
 17  10  24  1   
 18  11  13  1   
 19  11  14  1   
 20  11  15  1   
 21  12  16  1   
 22  12  17  1   
 23  12  25  1   
 24  13  26  1   
 25  13  27  1   
 26  13  28  1   
 27  14  29  1   
 28  14  30  1   
 29  14  31  1   
 30  15  32  1   
 31  15  33  1   
 32  15  34  1   
 33  16  18  1   
 34  16  35  1   
 35  16  36  1   
 36  17  19  1   
 37  17  37  1   
 38  17  38  1   
 39  18  39  1   
 40  18  40  1   
 41  18  41  1   
 42  19  42  1   
 43  19  43  1   
 44  19  44  1   
@<TRIPOS>SUBSTRUCTURE
  1 ****   5 GROUP 4 **** **** 0

# MOE 2024.06 (io_trps.svl 2023.06)
