@<TRIPOS>MOLECULE
NONAME
47 49 1 0 0 
SMALL
USER_CHARGES


@<TRIPOS>ATOM
  1 CL       1.7680     1.6530     2.3790 Cl    1 <1>  -0.1770 
  2 C        2.4810     1.4030     0.8060 C.ar  1 <1>   0.1770 
  3 C        3.5750     0.5710     0.6920 C.ar  1 <1>  -0.1500 
  4 C        1.9400     2.0440    -0.2930 C.ar  1 <1>  -0.1500 
  5 C        4.1600     0.3630    -0.5520 C.ar  1 <1>   0.1000 
  6 C        2.5150     1.8410    -1.5360 C.ar  1 <1>  -0.1500 
  7 N        5.2740    -0.4590    -0.7140 N.pl3 1 <1>  -0.8380 
  8 C        3.6140     1.0060    -1.6580 C.ar  1 <1>  -0.1500 
  9 C        6.5780     0.1810    -1.0660 C.3   1 <1>   0.2090 
 10 C        5.3520    -1.7830    -0.0230 C.3   1 <1>   0.2090 
 11 C        7.5460     0.1830     0.1350 C.3   1 <1>   0.3430 
 12 C        6.3570    -1.7610     1.1510 C.3   1 <1>   0.3430 
 13 N        7.6860    -1.1820     0.7580 N.4   1 <1>  -0.9590 
 14 C        8.6780    -1.2010     1.8610 C.3   1 <1>   0.4860 
 15 C       10.0370    -0.8610     1.2820 C.ar  1 <1>  -0.1430 
 16 C       10.5900    -1.6540     0.2790 C.ar  1 <1>   0.0830 
 17 C       10.7260     0.2480     1.7490 C.ar  1 <1>  -0.1500 
 18 O        9.8610    -2.7260    -0.1430 O.3   1 <1>  -0.3630 
 19 C       11.8350    -1.3190    -0.2480 C.ar  1 <1>  -0.1500 
 20 C       11.9620     0.5720     1.2200 C.ar  1 <1>  -0.1500 
 21 C       10.3280    -3.6400    -1.1180 C.3   1 <1>   0.1200 
 22 C       12.5140    -0.2100     0.2230 C.ar  1 <1>  -0.1500 
 23 C       10.0270    -3.0850    -2.5110 C.3   1 <1>  -0.2400 
 24 H        3.9620     0.0990     1.5720 H     1 <1>   0.1500 
 25 H        1.0860     2.6870    -0.1750 H     1 <1>   0.1500 
 26 H        2.1060     2.3280    -2.4050 H     1 <1>   0.1500 
 27 H        4.0540     0.8420    -2.6250 H     1 <1>   0.1500 
 28 H        6.4110     1.1960    -1.3860 H     1 <1>   0.0800 
 29 H        7.0220    -0.3510    -1.8900 H     1 <1>   0.0800 
 30 H        5.6520    -2.5300    -0.7370 H     1 <1>   0.0800 
 31 H        4.3770    -2.0620     0.3410 H     1 <1>   0.0800 
 32 H        7.1720     0.8780     0.8670 H     1 <1>   0.0800 
 33 H        8.5100     0.5370    -0.1950 H     1 <1>   0.0800 
 34 H        6.4870    -2.7650     1.5180 H     1 <1>   0.0800 
 35 H        5.9300    -1.1710     1.9450 H     1 <1>   0.0800 
 36 H        8.1150    -1.7950     0.0420 H     1 <1>   0.4500 
 37 H        8.7240    -2.1850     2.3000 H     1 <1>   0.0800 
 38 H        8.4060    -0.4910     2.6250 H     1 <1>   0.0800 
 39 H       10.3180     0.8700     2.5290 H     1 <1>   0.1500 
 40 H       12.2980    -1.9000    -1.0220 H     1 <1>   0.1500 
 41 H       12.5000     1.4330     1.5850 H     1 <1>   0.1500 
 42 H        9.7960    -4.5650    -0.9720 H     1 <1>   0.0800 
 43 H       11.3760    -3.8300    -0.9660 H     1 <1>   0.0800 
 44 H       13.4780     0.0450    -0.1860 H     1 <1>   0.1500 
 45 H        8.9690    -2.9490    -2.6400 H     1 <1>   0.0800 
 46 H       10.3700    -3.7820    -3.2550 H     1 <1>   0.0800 
 47 H       10.5330    -2.1500    -2.6720 H     1 <1>   0.0800 
@<TRIPOS>BOND
  1   1   2  1   
  2   2   3  ar  
  3   2   4  ar  
  4   3   5  ar  
  5   3  24  1   
  6   4   6  ar  
  7   4  25  1   
  8   5   7  1   
  9   5   8  ar  
 10   6   8  ar  
 11   6  26  1   
 12   7   9  1   
 13   7  10  1   
 14   8  27  1   
 15   9  11  1   
 16   9  28  1   
 17   9  29  1   
 18  10  12  1   
 19  10  30  1   
 20  10  31  1   
 21  11  13  1   
 22  11  32  1   
 23  11  33  1   
 24  12  13  1   
 25  12  34  1   
 26  12  35  1   
 27  13  14  1   
 28  13  36  1   
 29  14  15  1   
 30  14  37  1   
 31  14  38  1   
 32  15  16  ar  
 33  15  17  ar  
 34  16  18  1   
 35  16  19  ar  
 36  17  20  ar  
 37  17  39  1   
 38  18  21  1   
 39  19  22  ar  
 40  19  40  1   
 41  20  22  ar  
 42  20  41  1   
 43  21  23  1   
 44  21  42  1   
 45  21  43  1   
 46  22  44  1   
 47  23  45  1   
 48  23  46  1   
 49  23  47  1   
@<TRIPOS>SUBSTRUCTURE
  1 ****  11 GROUP 4 **** **** 0

# MOE 2024.06 (io_trps.svl 2023.06)
