@<TRIPOS>MOLECULE
NONAME
39 40 1 0 0 
SMALL
USER_CHARGES


@<TRIPOS>ATOM
  1 O       -1.3730     0.3220    -1.4540 O.2   1 <1>  -0.5700 
  2 C       -2.0250     1.0050    -0.6420 C.2   1 <1>   0.6160 
  3 N       -3.2540     0.4980    -0.1970 N.am  1 <1>  -0.4770 
  4 C       -1.5670     2.2480    -0.1930 C.2   1 <1>  -0.1240 
  5 C       -4.0090     1.2170     0.7570 C.ar  1 <1>   0.1170 
  6 C       -3.7630    -0.7640    -0.8070 C.3   1 <1>   0.1400 
  7 C       -2.3150     3.0180     0.6890 C.2   1 <1>  -0.1780 
  8 C       -0.2200     2.7750    -0.6950 C.3   1 <1>   0.0390 
  9 C       -3.5590     2.4800     1.1890 C.ar  1 <1>   0.0280 
 10 C       -5.2010     0.7190     1.3010 C.ar  1 <1>  -0.1500 
 11 C       -3.3360    -1.9650     0.0440 C.3   1 <1>  -0.1600 
 12 O       -1.9340     4.1480     1.0520 O.3   1 <1>  -0.8500 
 13 C        0.9530     1.8600    -0.3980 C.2   1 <1>   0.6590 
 14 C       -4.3250     3.1930     2.1100 C.ar  1 <1>  -0.1500 
 15 C       -5.9410     1.4420     2.2150 C.ar  1 <1>  -0.1500 
 16 C       -3.8850    -3.2790    -0.5230 C.3   1 <1>  -0.2400 
 17 O        1.8980     1.7960    -1.1500 O.2   1 <1>  -0.5700 
 18 O        0.9090     1.1490     0.7260 O.3   1 <1>  -0.4300 
 19 C       -5.5020     2.6900     2.6210 C.ar  1 <1>  -0.1500 
 20 C        1.9190     0.2490     1.1100 C.3   1 <1>   0.1200 
 21 C        2.9940     1.0150     1.8790 C.3   1 <1>  -0.2400 
 22 H       -3.3740    -0.8730    -1.8040 H     1 <1>   0.0800 
 23 H       -4.8320    -0.7190    -0.8990 H     1 <1>   0.0800 
 24 H        0.0030     3.7290    -0.2580 H     1 <1>   0.0800 
 25 H       -0.2840     2.9170    -1.7560 H     1 <1>   0.0800 
 26 H       -5.5650    -0.2470     1.0200 H     1 <1>   0.1500 
 27 H       -3.6870    -1.8370     1.0530 H     1 <1>   0.0800 
 28 H       -2.2600    -2.0090     0.0650 H     1 <1>   0.0800 
 29 H       -3.9600     4.1580     2.4150 H     1 <1>   0.1500 
 30 H       -6.8540     1.0410     2.6160 H     1 <1>   0.1500 
 31 H       -4.9600    -3.2630    -0.5410 H     1 <1>   0.0800 
 32 H       -3.5630    -4.1040     0.0880 H     1 <1>   0.0800 
 33 H       -3.5210    -3.4330    -1.5240 H     1 <1>   0.0800 
 34 H       -6.0700     3.2650     3.3300 H     1 <1>   0.1500 
 35 H        2.3200    -0.2280     0.2310 H     1 <1>   0.0800 
 36 H        1.4630    -0.4960     1.7390 H     1 <1>   0.0800 
 37 H        3.4510     1.7500     1.2410 H     1 <1>   0.0800 
 38 H        3.7540     0.3340     2.2170 H     1 <1>   0.0800 
 39 H        2.5580     1.5010     2.7330 H     1 <1>   0.0800 
@<TRIPOS>BOND
  1   1   2  2   
  2   2   3  am  
  3   2   4  1   
  4   3   5  1   
  5   3   6  1   
  6   4   7  2   
  7   4   8  1   
  8   5   9  ar  
  9   5  10  ar  
 10   6  11  1   
 11   6  22  1   
 12   6  23  1   
 13   7   9  1   
 14   7  12  1   
 15   8  13  1   
 16   8  24  1   
 17   8  25  1   
 18   9  14  ar  
 19  10  15  ar  
 20  10  26  1   
 21  11  16  1   
 22  11  27  1   
 23  11  28  1   
 24  13  17  2   
 25  13  18  1   
 26  14  19  ar  
 27  14  29  1   
 28  15  19  ar  
 29  15  30  1   
 30  16  31  1   
 31  16  32  1   
 32  16  33  1   
 33  18  20  1   
 34  19  34  1   
 35  20  21  1   
 36  20  35  1   
 37  20  36  1   
 38  21  37  1   
 39  21  38  1   
 40  21  39  1   
@<TRIPOS>SUBSTRUCTURE
  1 ****   2 GROUP 4 **** **** 0

# MOE 2024.06 (io_trps.svl 2023.06)
