@<TRIPOS>MOLECULE
NONAME
36 37 1 0 0 
SMALL
USER_CHARGES


@<TRIPOS>ATOM
  1 BR      -3.1340    -0.7820    -1.6390 Br    1 <1>  -0.1110 
  2 C       -1.8180    -2.0720    -1.0630 C.ar  1 <1>   0.1110 
  3 C       -2.2320    -3.2560    -0.4610 C.ar  1 <1>   0.0820 
  4 C       -0.4860    -1.7710    -1.2670 C.ar  1 <1>  -0.1500 
  5 O       -3.5540    -3.4920    -0.2810 O.3   1 <1>  -0.3630 
  6 C       -1.2730    -4.1920    -0.0690 C.ar  1 <1>  -0.1440 
  7 C        0.4480    -2.7010    -0.8550 C.ar  1 <1>   0.1770 
  8 C       -4.0630    -3.3640     1.0370 C.3   1 <1>   0.1200 
  9 C        0.0710    -3.8970    -0.2660 C.ar  1 <1>  -0.1500 
 10 C       -1.6500    -5.5310     0.5500 C.3   1 <1>  -0.0960 
 11 CL       2.1440    -2.3620    -1.0860 Cl    1 <1>  -0.1770 
 12 C       -5.0370    -2.1750     1.0920 C.3   1 <1>   0.3430 
 13 N       -5.8450    -2.0750    -0.1630 N.4   1 <1>  -0.9590 
 14 C       -6.5020    -0.7320    -0.3150 C.3   1 <1>   0.3430 
 15 C       -6.8440    -3.1870    -0.3210 C.3   1 <1>   0.3430 
 16 C       -7.3610    -0.6710    -1.5930 C.3   1 <1>   0.1200 
 17 C       -7.6870    -3.0050    -1.5980 C.3   1 <1>   0.1200 
 18 O       -8.2700    -1.7340    -1.6170 O.3   1 <1>  -0.5600 
 19 H       -0.1800    -0.8510    -1.7300 H     1 <1>   0.1500 
 20 H       -3.2520    -3.2220     1.7320 H     1 <1>   0.0800 
 21 H       -4.5700    -4.2790     1.2820 H     1 <1>   0.0800 
 22 H        0.8380    -4.5910     0.0290 H     1 <1>   0.1500 
 23 H       -1.8380    -5.4150     1.6020 H     1 <1>   0.0800 
 24 H       -0.8550    -6.2440     0.4240 H     1 <1>   0.0800 
 25 H       -2.5290    -5.9310     0.0760 H     1 <1>   0.0800 
 26 H       -4.4530    -1.2760     1.2100 H     1 <1>   0.0800 
 27 H       -5.6790    -2.2640     1.9530 H     1 <1>   0.0800 
 28 H       -5.1620    -2.1810    -0.9330 H     1 <1>   0.4500 
 29 H       -5.7540     0.0430    -0.3530 H     1 <1>   0.0800 
 30 H       -7.1400    -0.5390     0.5320 H     1 <1>   0.0800 
 31 H       -7.5100    -3.2050     0.5250 H     1 <1>   0.0800 
 32 H       -6.3350    -4.1360    -0.3670 H     1 <1>   0.0800 
 33 H       -6.7480    -0.7170    -2.4760 H     1 <1>   0.0800 
 34 H       -7.9270     0.2440    -1.6160 H     1 <1>   0.0800 
 35 H       -8.4820    -3.7300    -1.6250 H     1 <1>   0.0800 
 36 H       -7.0840    -3.1240    -2.4820 H     1 <1>   0.0800 
@<TRIPOS>BOND
  1   1   2  1   
  2   2   3  ar  
  3   2   4  ar  
  4   3   5  1   
  5   3   6  ar  
  6   4   7  ar  
  7   4  19  1   
  8   5   8  1   
  9   6   9  ar  
 10   6  10  1   
 11   7   9  ar  
 12   7  11  1   
 13   8  12  1   
 14   8  20  1   
 15   8  21  1   
 16   9  22  1   
 17  10  23  1   
 18  10  24  1   
 19  10  25  1   
 20  12  13  1   
 21  12  26  1   
 22  12  27  1   
 23  13  14  1   
 24  13  15  1   
 25  13  28  1   
 26  14  16  1   
 27  14  29  1   
 28  14  30  1   
 29  15  17  1   
 30  15  31  1   
 31  15  32  1   
 32  16  18  1   
 33  16  33  1   
 34  16  34  1   
 35  17  18  1   
 36  17  35  1   
 37  17  36  1   
@<TRIPOS>SUBSTRUCTURE
  1 ****   5 GROUP 4 **** **** 0

# MOE 2024.06 (io_trps.svl 2023.06)
