@<TRIPOS>MOLECULE
NONAME
31 32 1 0 0 
SMALL
USER_CHARGES


@<TRIPOS>ATOM
  1 I        1.8140     1.0770     2.9760 I     1 <1>  -0.0810 
  2 C        0.9010     2.3250     1.5000 C.ar  1 <1>   0.0810 
  3 C        1.5950     2.6720     0.3450 C.ar  1 <1>   0.0830 
  4 C       -0.3880     2.7540     1.7540 C.ar  1 <1>  -0.1500 
  5 O        2.8610     2.2110     0.1630 O.3   1 <1>  -0.3630 
  6 C        0.9400     3.4860    -0.5740 C.ar  1 <1>  -0.1500 
  7 C       -1.0410     3.5660     0.8330 C.ar  1 <1>  -0.0090 
  8 C        3.6190     2.5520    -0.9750 C.3   1 <1>   0.0400 
  9 C       -0.3540     3.9190    -0.3250 C.ar  1 <1>  -0.1500 
 10 S       -2.7380     4.1390     1.1170 S.o2  1 <1>   1.4470 
 11 O       -2.7900     5.5760     0.9590 O.2   1 <1>  -0.6500 
 12 O       -3.2770     3.5350     2.3170 O.2   1 <1>  -0.6500 
 13 N       -3.5800     3.4760    -0.1940 N.am  1 <1>  -0.8490 
 14 C       -3.7740     2.0370    -0.1290 C.3   1 <1>   0.1960 
 15 C       -4.9070     4.0390    -0.3540 C.3   1 <1>   0.1960 
 16 C       -4.8500     1.7590    -1.1700 C.3   1 <1>  -0.1600 
 17 C       -5.6260     3.0720    -1.2870 C.3   1 <1>  -0.1600 
 18 H       -0.8860     2.4610     2.6630 H     1 <1>   0.1500 
 19 H        1.4160     3.7930    -1.4860 H     1 <1>   0.1500 
 20 H        4.5810     2.0810    -0.8880 H     1 <1>   0.0800 
 21 H        3.7380     3.6210    -1.0090 H     1 <1>   0.0800 
 22 H        3.1140     2.1910    -1.8540 H     1 <1>   0.0800 
 23 H       -0.8490     4.5480    -1.0470 H     1 <1>   0.1500 
 24 H       -4.1380     1.7490     0.8450 H     1 <1>   0.0800 
 25 H       -2.8600     1.5080    -0.3440 H     1 <1>   0.0800 
 26 H       -4.8560     5.0350    -0.7630 H     1 <1>   0.0800 
 27 H       -5.4100     4.0700     0.6010 H     1 <1>   0.0800 
 28 H       -5.4780     0.9400    -0.8660 H     1 <1>   0.0800 
 29 H       -4.3860     1.5170    -2.1100 H     1 <1>   0.0800 
 30 H       -5.5850     3.4420    -2.2970 H     1 <1>   0.0800 
 31 H       -6.6560     2.9600    -0.9960 H     1 <1>   0.0800 
@<TRIPOS>BOND
  1   1   2  1   
  2   2   3  ar  
  3   2   4  ar  
  4   3   5  1   
  5   3   6  ar  
  6   4   7  ar  
  7   4  18  1   
  8   5   8  1   
  9   6   9  ar  
 10   6  19  1   
 11   7   9  ar  
 12   7  10  1   
 13   8  20  1   
 14   8  21  1   
 15   8  22  1   
 16   9  23  1   
 17  10  11  2   
 18  10  12  2   
 19  10  13  am  
 20  13  14  1   
 21  13  15  1   
 22  14  16  1   
 23  14  24  1   
 24  14  25  1   
 25  15  17  1   
 26  15  26  1   
 27  15  27  1   
 28  16  17  1   
 29  16  28  1   
 30  16  29  1   
 31  17  30  1   
 32  17  31  1   
@<TRIPOS>SUBSTRUCTURE
  1 ****   7 GROUP 4 **** **** 0

# MOE 2024.06 (io_trps.svl 2023.06)
