@<TRIPOS>MOLECULE
NONAME
51 52 1 0 0 
SMALL
USER_CHARGES


@<TRIPOS>ATOM
  1 O       -1.8180    -8.4140    -0.4460 O.3   1 <1>  -0.5600 
  2 C       -1.3280    -9.1940     0.6050 C.3   1 <1>   0.1200 
  3 C       -1.2550    -7.1390    -0.5470 C.3   1 <1>   0.1200 
  4 C        0.1910    -9.3990     0.4500 C.3   1 <1>   0.3430 
  5 C        0.2680    -7.2440    -0.7540 C.3   1 <1>   0.3430 
  6 N        0.9200    -8.0880     0.3140 N.4   1 <1>  -0.9590 
  7 C        2.3710    -8.3100     0.0600 C.3   1 <1>   0.3430 
  8 C        3.1500    -7.0090     0.2400 C.3   1 <1>  -0.1600 
  9 C        4.6490    -7.2500     0.0760 C.3   1 <1>   0.1200 
 10 O        5.2840    -6.0080     0.2370 O.3   1 <1>  -0.3630 
 11 C        6.6230    -5.8250     0.0900 C.ar  1 <1>   0.0830 
 12 C        7.1720    -4.5320     0.1580 C.ar  1 <1>  -0.1430 
 13 C        7.4530    -6.9260    -0.1290 C.ar  1 <1>  -0.1500 
 14 C        8.5530    -4.4230    -0.0070 C.ar  1 <1>  -0.1500 
 15 C        6.4030    -3.1960     0.3990 C.3   1 <1>   0.1430 
 16 C        8.8140    -6.7740    -0.2870 C.ar  1 <1>  -0.1500 
 17 C        9.3720    -5.5150    -0.2280 C.ar  1 <1>  -0.1430 
 18 C        6.9420    -2.5220     1.6740 C.3   1 <1>  -0.2400 
 19 C        6.6280    -2.2560    -0.8000 C.3   1 <1>  -0.2400 
 20 C        4.8790    -3.2980     0.5820 C.3   1 <1>  -0.2400 
 21 C       10.8680    -5.3210    -0.3980 C.3   1 <1>  -0.0970 
 22 H       -1.8360   -10.1420     0.5720 H     1 <1>   0.0800 
 23 H       -1.5650    -8.7110     1.5370 H     1 <1>   0.0800 
 24 H       -1.4920    -6.5820     0.3440 H     1 <1>   0.0800 
 25 H       -1.7110    -6.6470    -1.3880 H     1 <1>   0.0800 
 26 H        0.3600   -10.0030    -0.4270 H     1 <1>   0.0800 
 27 H        0.5640    -9.9430     1.3030 H     1 <1>   0.0800 
 28 H        0.6920    -6.2530    -0.7530 H     1 <1>   0.0800 
 29 H        0.4480    -7.6790    -1.7230 H     1 <1>   0.0800 
 30 H        0.8220    -7.5870     1.2070 H     1 <1>   0.4500 
 31 H        2.5180    -8.6920    -0.9380 H     1 <1>   0.0800 
 32 H        2.7500    -9.0400     0.7580 H     1 <1>   0.0800 
 33 H        2.9760    -6.6130     1.2250 H     1 <1>   0.0800 
 34 H        2.8490    -6.2870    -0.4980 H     1 <1>   0.0800 
 35 H        4.8820    -7.6210    -0.9080 H     1 <1>   0.0800 
 36 H        5.0240    -7.9190     0.8330 H     1 <1>   0.0800 
 37 H        7.0680    -7.9250    -0.1790 H     1 <1>   0.1500 
 38 H        9.0260    -3.4600     0.0360 H     1 <1>   0.1500 
 39 H        9.4340    -7.6370    -0.4540 H     1 <1>   0.1500 
 40 H        6.8300    -3.1870     2.5120 H     1 <1>   0.0800 
 41 H        6.4050    -1.6150     1.8840 H     1 <1>   0.0800 
 42 H        7.9820    -2.2720     1.5830 H     1 <1>   0.0800 
 43 H        7.6650    -2.0020    -0.9170 H     1 <1>   0.0800 
 44 H        6.0800    -1.3400    -0.6760 H     1 <1>   0.0800 
 45 H        6.2960    -2.7340    -1.7040 H     1 <1>   0.0800 
 46 H        4.4230    -3.7200    -0.2960 H     1 <1>   0.0800 
 47 H        4.4460    -2.3270     0.7430 H     1 <1>   0.0800 
 48 H        4.6440    -3.9080     1.4350 H     1 <1>   0.0800 
 49 H       11.0610    -4.5010    -1.0660 H     1 <1>   0.0800 
 50 H       11.3250    -6.2050    -0.8040 H     1 <1>   0.0800 
 51 H       11.3170    -5.1070     0.5550 H     1 <1>   0.0800 
@<TRIPOS>BOND
  1   1   2  1   
  2   1   3  1   
  3   2   4  1   
  4   2  22  1   
  5   2  23  1   
  6   3   5  1   
  7   3  24  1   
  8   3  25  1   
  9   4   6  1   
 10   4  26  1   
 11   4  27  1   
 12   5   6  1   
 13   5  28  1   
 14   5  29  1   
 15   6   7  1   
 16   6  30  1   
 17   7   8  1   
 18   7  31  1   
 19   7  32  1   
 20   8   9  1   
 21   8  33  1   
 22   8  34  1   
 23   9  10  1   
 24   9  35  1   
 25   9  36  1   
 26  10  11  1   
 27  11  12  ar  
 28  11  13  ar  
 29  12  14  ar  
 30  12  15  1   
 31  13  16  ar  
 32  13  37  1   
 33  14  17  ar  
 34  14  38  1   
 35  15  18  1   
 36  15  19  1   
 37  15  20  1   
 38  16  17  ar  
 39  16  39  1   
 40  17  21  1   
 41  18  40  1   
 42  18  41  1   
 43  18  42  1   
 44  19  43  1   
 45  19  44  1   
 46  19  45  1   
 47  20  46  1   
 48  20  47  1   
 49  20  48  1   
 50  21  49  1   
 51  21  50  1   
 52  21  51  1   
@<TRIPOS>SUBSTRUCTURE
  1 ****  10 GROUP 4 **** **** 0

# MOE 2024.06 (io_trps.svl 2023.06)
