@<TRIPOS>MOLECULE
NONAME
42 42 1 0 0 
SMALL
USER_CHARGES


@<TRIPOS>ATOM
  1 N       -0.0190     0.2020    -0.0590 N.4   1 <1>  -0.9590 
  2 C       -1.1570    -0.7200     0.3220 C.3   1 <1>   0.3430 
  3 C        1.2860    -0.5220     0.1300 C.3   1 <1>   0.3430 
  4 C       -0.0100     1.4900     0.7030 C.3   1 <1>   0.3430 
  5 C       -2.5830    -0.1850    -0.0020 C.3   1 <1>   0.3430 
  6 C        2.4430     0.1560    -0.6090 C.3   1 <1>  -0.0160 
  7 C       -0.5740     2.5890    -0.1860 C.3   1 <1>  -0.2400 
  8 N       -3.7010    -1.1660     0.2670 N.4   1 <1>  -0.9590 
  9 C        3.6810    -0.6960    -0.4210 C.ar  1 <1>  -0.1440 
 10 C       -5.0050    -0.6190    -0.2420 C.3   1 <1>   0.2630 
 11 C       -3.8610    -1.5190     1.7200 C.3   1 <1>   0.2630 
 12 C        4.4890    -0.5170     0.6930 C.ar  1 <1>  -0.1500 
 13 C        4.0090    -1.6710    -1.3510 C.ar  1 <1>  -0.1500 
 14 C        5.6070    -1.3110     0.8780 C.ar  1 <1>  -0.1500 
 15 C        5.1280    -2.4640    -1.1650 C.ar  1 <1>  -0.1500 
 16 C        5.9260    -2.2860    -0.0490 C.ar  1 <1>  -0.1500 
 17 H       -0.0680     0.4370    -1.0630 H     1 <1>   0.4500 
 18 H       -1.0960    -0.9240     1.3790 H     1 <1>   0.0800 
 19 H       -1.0260    -1.6520    -0.2020 H     1 <1>   0.0800 
 20 H        1.2030    -1.5280    -0.2500 H     1 <1>   0.0800 
 21 H        1.5290    -0.5900     1.1790 H     1 <1>   0.0800 
 22 H        0.9990     1.7550     0.9790 H     1 <1>   0.0800 
 23 H       -0.5860     1.4030     1.6100 H     1 <1>   0.0800 
 24 H       -2.6100     0.0830    -1.0460 H     1 <1>   0.0800 
 25 H       -2.7590     0.7080     0.5740 H     1 <1>   0.0800 
 26 H        2.6350     1.1400    -0.2210 H     1 <1>   0.0800 
 27 H        2.2250     0.2370    -1.6600 H     1 <1>   0.0800 
 28 H        0.0270     2.7110    -1.0710 H     1 <1>   0.0800 
 29 H       -0.5450     3.5220     0.3520 H     1 <1>   0.0800 
 30 H       -1.5940     2.4060    -0.4640 H     1 <1>   0.0800 
 31 H       -3.5380    -2.0440    -0.2570 H     1 <1>   0.4500 
 32 H       -5.2620     0.2930     0.2750 H     1 <1>   0.0800 
 33 H       -5.7990    -1.3330    -0.0850 H     1 <1>   0.0800 
 34 H       -4.9440    -0.4100    -1.2980 H     1 <1>   0.0800 
 35 H       -4.0680    -0.6360     2.3040 H     1 <1>   0.0800 
 36 H       -2.9690    -1.9880     2.1030 H     1 <1>   0.0800 
 37 H       -4.6830    -2.2070     1.8480 H     1 <1>   0.0800 
 38 H        4.2660     0.2400     1.4250 H     1 <1>   0.1500 
 39 H        3.4090    -1.8250    -2.2300 H     1 <1>   0.1500 
 40 H        6.2330    -1.1700     1.7430 H     1 <1>   0.1500 
 41 H        5.3830    -3.2200    -1.8880 H     1 <1>   0.1500 
 42 H        6.7960    -2.9030     0.0950 H     1 <1>   0.1500 
@<TRIPOS>BOND
  1   1   2  1   
  2   1   3  1   
  3   1   4  1   
  4   1  17  1   
  5   2   5  1   
  6   2  18  1   
  7   2  19  1   
  8   3   6  1   
  9   3  20  1   
 10   3  21  1   
 11   4   7  1   
 12   4  22  1   
 13   4  23  1   
 14   5   8  1   
 15   5  24  1   
 16   5  25  1   
 17   6   9  1   
 18   6  26  1   
 19   6  27  1   
 20   7  28  1   
 21   7  29  1   
 22   7  30  1   
 23   8  10  1   
 24   8  11  1   
 25   8  31  1   
 26   9  12  ar  
 27   9  13  ar  
 28  10  32  1   
 29  10  33  1   
 30  10  34  1   
 31  11  35  1   
 32  11  36  1   
 33  11  37  1   
 34  12  14  ar  
 35  12  38  1   
 36  13  15  ar  
 37  13  39  1   
 38  14  16  ar  
 39  14  40  1   
 40  15  16  ar  
 41  15  41  1   
 42  16  42  1   
@<TRIPOS>SUBSTRUCTURE
  1 ****   3 GROUP 4 **** **** 0

# MOE 2024.06 (io_trps.svl 2023.06)
