@<TRIPOS>MOLECULE
NONAME
34 36 1 0 0 
SMALL
USER_CHARGES


@<TRIPOS>ATOM
  1 O       -0.7760     0.5510    -0.9860 O.3   1 <1>  -0.2800 
  2 C       -1.7760     0.8310    -0.1700 C.2   1 <1>  -0.0400 
  3 C        0.3200     1.0700    -0.4690 C.2   1 <1>  -0.0100 
  4 C       -1.3280     1.5360     0.8930 C.2   1 <1>  -0.1500 
  5 C       -3.1680     0.3360    -0.5330 C.3   1 <1>   0.2900 
  6 C        0.0490     1.6950     0.6960 C.2   1 <1>  -0.1500 
  7 N       -4.2180     0.9840     0.2780 N.3   1 <1>  -0.8100 
  8 C       -5.4920     0.2370     0.1810 C.3   1 <1>   0.1100 
  9 C       -4.4310     2.3890    -0.1530 C.3   1 <1>   0.1100 
 10 C       -6.6110     0.8860     1.0150 C.3   1 <1>   0.2090 
 11 C       -5.5330     3.0940     0.6610 C.3   1 <1>   0.2090 
 12 N       -6.8070     2.3130     0.6110 N.pl3 1 <1>  -0.8380 
 13 C       -7.9760     2.7990     0.0620 C.ar  1 <1>   0.7200 
 14 N       -8.9400     1.9170    -0.2040 N.ar  1 <1>  -0.6200 
 15 N       -8.0450     4.1130    -0.1570 N.ar  1 <1>  -0.6200 
 16 C      -10.0460     2.3960    -0.7180 C.ar  1 <1>   0.1600 
 17 C       -9.1620     4.5630    -0.6710 C.ar  1 <1>   0.1600 
 18 C      -10.2120     3.7340    -0.9750 C.ar  1 <1>  -0.1500 
 19 H        1.2500     0.9460    -0.9950 H     1 <1>   0.1500 
 20 H       -1.8970     1.9030     1.7290 H     1 <1>   0.1500 
 21 H       -3.1890    -0.7280    -0.3690 H     1 <1>   0.0800 
 22 H       -3.3510     0.5160    -1.5780 H     1 <1>   0.0800 
 23 H        0.7210     2.2120     1.3580 H     1 <1>   0.1500 
 24 H       -5.3430    -0.7690     0.5340 H     1 <1>   0.0800 
 25 H       -5.8150     0.1890    -0.8460 H     1 <1>   0.0800 
 26 H       -4.7090     2.4140    -1.1930 H     1 <1>   0.0800 
 27 H       -3.5160     2.9440    -0.0420 H     1 <1>   0.0800 
 28 H       -6.3370     0.8540     2.0550 H     1 <1>   0.0800 
 29 H       -7.5150     0.3150     0.9030 H     1 <1>   0.0800 
 30 H       -5.6640     4.0880     0.2750 H     1 <1>   0.0800 
 31 H       -5.2140     3.1800     1.6840 H     1 <1>   0.0800 
 32 H      -10.8400     1.7030    -0.9390 H     1 <1>   0.1500 
 33 H       -9.2420     5.6210    -0.8540 H     1 <1>   0.1500 
 34 H      -11.1230     4.1140    -1.3960 H     1 <1>   0.1500 
@<TRIPOS>BOND
  1   1   2  1   
  2   1   3  1   
  3   2   4  2   
  4   2   5  1   
  5   3   6  2   
  6   3  19  1   
  7   4   6  1   
  8   4  20  1   
  9   5   7  1   
 10   5  21  1   
 11   5  22  1   
 12   6  23  1   
 13   7   8  1   
 14   7   9  1   
 15   8  10  1   
 16   8  24  1   
 17   8  25  1   
 18   9  11  1   
 19   9  26  1   
 20   9  27  1   
 21  10  12  1   
 22  10  28  1   
 23  10  29  1   
 24  11  12  1   
 25  11  30  1   
 26  11  31  1   
 27  12  13  1   
 28  13  14  ar  
 29  13  15  ar  
 30  14  16  ar  
 31  15  17  ar  
 32  16  18  ar  
 33  16  32  1   
 34  17  18  ar  
 35  17  33  1   
 36  18  34  1   
@<TRIPOS>SUBSTRUCTURE
  1 ****   9 GROUP 4 **** **** 0

# MOE 2024.06 (io_trps.svl 2023.06)
