@<TRIPOS>MOLECULE
NONAME
47 48 1 0 0 
SMALL
USER_CHARGES


@<TRIPOS>ATOM
  1 S       -0.0690    -0.2700     0.7710 S.o2  1 <1>   1.3330 
  2 O        1.2810    -0.0010     1.2030 O.2   1 <1>  -0.6500 
  3 O       -1.1930     0.3200     1.4560 O.2   1 <1>  -0.6500 
  4 N       -0.2800    -1.9880     0.7580 N.am  1 <1>  -0.6930 
  5 C       -0.1890     0.1150    -0.9620 C.3   1 <1>  -0.1350 
  6 C       -1.5080    -2.5950     0.5470 C.ar  1 <1>   0.1990 
  7 C        0.9120    -2.8220     0.9970 C.3   1 <1>   0.3340 
  8 C       -2.5750    -2.3920     1.4150 C.ar  1 <1>  -0.1500 
  9 C       -1.7040    -3.4370    -0.5430 C.ar  1 <1>  -0.1500 
 10 C        1.7620    -2.8810    -0.2600 C.2   1 <1>  -0.2880 
 11 C       -3.7960    -2.9990     1.1960 C.ar  1 <1>  -0.1500 
 12 C       -2.9270    -4.0430    -0.7610 C.ar  1 <1>  -0.1500 
 13 C        1.9550    -3.9650    -1.0200 C.2   1 <1>  -0.3000 
 14 C       -4.0080    -3.8310     0.0950 C.ar  1 <1>   0.0860 
 15 C       -5.2880    -4.4630    -0.1540 C.2   1 <1>   0.5440 
 16 O       -5.3180    -5.6710    -0.3050 O.2   1 <1>  -0.5700 
 17 N       -6.4670    -3.7430    -0.2360 N.am  1 <1>  -0.6600 
 18 C       -6.5080    -2.2700    -0.4400 C.3   1 <1>   0.1400 
 19 C       -7.7890    -4.4310    -0.2690 C.3   1 <1>   0.1400 
 20 C       -7.2180    -1.5550     0.7170 C.3   1 <1>  -0.1600 
 21 C       -8.4330    -4.3610     1.1180 C.3   1 <1>  -0.1600 
 22 C       -8.7380    -1.7810     0.7230 C.3   1 <1>  -0.1600 
 23 C       -9.1990    -3.0630     1.4370 C.3   1 <1>  -0.1600 
 24 H       -0.0630     1.1690    -1.1130 H     1 <1>   0.0800 
 25 H       -1.1500    -0.1750    -1.3380 H     1 <1>   0.0800 
 26 H        0.5690    -0.4050    -1.5130 H     1 <1>   0.0800 
 27 H        0.5980    -3.8150     1.2690 H     1 <1>   0.0800 
 28 H        1.4840    -2.4220     1.8170 H     1 <1>   0.0800 
 29 H       -2.4400    -1.7540     2.2710 H     1 <1>   0.1500 
 30 H       -0.8910    -3.6140    -1.2220 H     1 <1>   0.1500 
 31 H        2.2200    -1.9330    -0.4830 H     1 <1>   0.1500 
 32 H       -4.6040    -2.8370     1.8860 H     1 <1>   0.1500 
 33 H       -3.0620    -4.6970    -1.6050 H     1 <1>   0.1500 
 34 H        2.5710    -3.9750    -1.9030 H     1 <1>   0.1500 
 35 H        1.5200    -4.9300    -0.8250 H     1 <1>   0.1500 
 36 H       -7.0160    -2.0590    -1.3650 H     1 <1>   0.0800 
 37 H       -5.5110    -1.8780    -0.5350 H     1 <1>   0.0800 
 38 H       -7.6550    -5.4650    -0.5380 H     1 <1>   0.0800 
 39 H       -8.4260    -3.9860    -1.0130 H     1 <1>   0.0800 
 40 H       -7.0440    -0.5010     0.5920 H     1 <1>   0.0800 
 41 H       -6.7870    -1.8400     1.6590 H     1 <1>   0.0800 
 42 H       -7.6660    -4.5210     1.8560 H     1 <1>   0.0800 
 43 H       -9.1220    -5.1820     1.2100 H     1 <1>   0.0800 
 44 H       -9.1050    -1.7790    -0.2890 H     1 <1>   0.0800 
 45 H       -9.2040    -0.9470     1.2210 H     1 <1>   0.0800 
 46 H       -9.1490    -2.9020     2.5000 H     1 <1>   0.0800 
 47 H      -10.2370    -3.2120     1.1950 H     1 <1>   0.0800 
@<TRIPOS>BOND
  1   1   2  2   
  2   1   3  2   
  3   1   4  am  
  4   1   5  1   
  5   4   6  1   
  6   4   7  1   
  7   5  24  1   
  8   5  25  1   
  9   5  26  1   
 10   6   8  ar  
 11   6   9  ar  
 12   7  10  1   
 13   7  27  1   
 14   7  28  1   
 15   8  11  ar  
 16   8  29  1   
 17   9  12  ar  
 18   9  30  1   
 19  10  13  2   
 20  10  31  1   
 21  11  14  ar  
 22  11  32  1   
 23  12  14  ar  
 24  12  33  1   
 25  13  34  1   
 26  13  35  1   
 27  14  15  1   
 28  15  16  2   
 29  15  17  am  
 30  17  18  1   
 31  17  19  1   
 32  18  20  1   
 33  18  36  1   
 34  18  37  1   
 35  19  21  1   
 36  19  38  1   
 37  19  39  1   
 38  20  22  1   
 39  20  40  1   
 40  20  41  1   
 41  21  23  1   
 42  21  42  1   
 43  21  43  1   
 44  22  23  1   
 45  22  44  1   
 46  22  45  1   
 47  23  46  1   
 48  23  47  1   
@<TRIPOS>SUBSTRUCTURE
  1 ****  11 GROUP 4 **** **** 0

# MOE 2024.06 (io_trps.svl 2023.06)
