@<TRIPOS>MOLECULE
NONAME
37 39 1 0 0 
SMALL
USER_CHARGES


@<TRIPOS>ATOM
  1 O        0.1290     0.6070     0.1180 O.3   1 <1>  -0.5600 
  2 C       -1.1790     0.4610    -0.3630 C.3   1 <1>   0.1200 
  3 C        0.7140     1.8280    -0.2460 C.3   1 <1>   0.1200 
  4 C       -2.1070     1.5590     0.1860 C.3   1 <1>   0.2090 
  5 C       -0.0850     3.0240     0.3000 C.3   1 <1>   0.2090 
  6 N       -1.5340     2.9170    -0.0490 N.pl3 1 <1>  -0.8380 
  7 C       -2.3360     4.0530    -0.0150 C.ar  1 <1>   0.7200 
  8 N       -1.7420     5.2090     0.0590 N.ar  1 <1>  -0.6200 
  9 N       -3.6370     3.8550    -0.0570 N.ar  1 <1>  -0.6200 
 10 C       -2.5520     6.2570     0.0890 C.ar  1 <1>   0.4490 
 11 C       -4.3280     4.9700    -0.0210 C.ar  1 <1>   0.7200 
 12 O       -2.0450     7.3820     0.1630 O.3   1 <1>  -0.8290 
 13 N       -3.8740     6.1790     0.0450 N.ar  1 <1>  -0.6200 
 14 N       -5.6950     4.9100    -0.0770 N.pl3 1 <1>  -0.6000 
 15 C       -6.6230     3.8650    -0.0370 C.ar  1 <1>   0.1000 
 16 C       -6.3960     2.6860     0.6640 C.ar  1 <1>  -0.1500 
 17 C       -7.8350     4.0110    -0.7020 C.ar  1 <1>  -0.1500 
 18 C       -7.3470     1.6810     0.6930 C.ar  1 <1>  -0.1500 
 19 C       -8.7880     3.0090    -0.6750 C.ar  1 <1>  -0.1500 
 20 C       -8.5490     1.8350     0.0220 C.ar  1 <1>  -0.1440 
 21 C       -9.5930     0.7340     0.0540 C.3   1 <1>  -0.0970 
 22 H       -1.5360    -0.5070    -0.0610 H     1 <1>   0.0800 
 23 H       -1.1570     0.5020    -1.4380 H     1 <1>   0.0800 
 24 H        0.7620     1.8790    -1.3200 H     1 <1>   0.0800 
 25 H        1.7140     1.8450     0.1460 H     1 <1>   0.0800 
 26 H       -2.2500     1.4150     1.2420 H     1 <1>   0.0800 
 27 H       -3.0640     1.4690    -0.2970 H     1 <1>   0.0800 
 28 H        0.3340     3.9270    -0.1110 H     1 <1>   0.0800 
 29 H        0.0180     3.0700     1.3700 H     1 <1>   0.0800 
 30 H       -6.0450     5.8580    -0.1830 H     1 <1>   0.4000 
 31 H       -5.4710     2.5610     1.1950 H     1 <1>   0.1500 
 32 H       -8.0270     4.9160    -1.2470 H     1 <1>   0.1500 
 33 H       -7.1450     0.7800     1.2430 H     1 <1>   0.1500 
 34 H       -9.7160     3.1460    -1.1990 H     1 <1>   0.1500 
 35 H       -9.1220    -0.2280     0.1430 H     1 <1>   0.0800 
 36 H      -10.1770     0.7430    -0.8490 H     1 <1>   0.0800 
 37 H      -10.2490     0.8790     0.8930 H     1 <1>   0.0800 
@<TRIPOS>BOND
  1   1   2  1   
  2   1   3  1   
  3   2   4  1   
  4   2  22  1   
  5   2  23  1   
  6   3   5  1   
  7   3  24  1   
  8   3  25  1   
  9   4   6  1   
 10   4  26  1   
 11   4  27  1   
 12   5   6  1   
 13   5  28  1   
 14   5  29  1   
 15   6   7  1   
 16   7   8  ar  
 17   7   9  ar  
 18   8  10  ar  
 19   9  11  ar  
 20  10  12  1   
 21  10  13  ar  
 22  11  13  ar  
 23  11  14  1   
 24  14  15  1   
 25  14  30  1   
 26  15  16  ar  
 27  15  17  ar  
 28  16  18  ar  
 29  16  31  1   
 30  17  19  ar  
 31  17  32  1   
 32  18  20  ar  
 33  18  33  1   
 34  19  20  ar  
 35  19  34  1   
 36  20  21  1   
 37  21  35  1   
 38  21  36  1   
 39  21  37  1   
@<TRIPOS>SUBSTRUCTURE
  1 ****   9 GROUP 4 **** **** 0

# MOE 2024.06 (io_trps.svl 2023.06)
