@<TRIPOS>MOLECULE
NONAME
56 58 1 0 0 
SMALL
USER_CHARGES


@<TRIPOS>ATOM
  1 S       -0.2730     0.3610     1.9670 S.o2  1 <1>   1.4470 
  2 O        0.1640    -0.6040     2.9550 O.2   1 <1>  -0.6500 
  3 O       -1.1470     1.4400     2.3770 O.2   1 <1>  -0.6500 
  4 N        1.1350     1.0670     1.3370 N.am  1 <1>  -0.8490 
  5 C       -0.9950    -0.4870     0.5340 C.ar  1 <1>  -0.0090 
  6 C        2.1480     0.0620     1.0010 C.3   1 <1>   0.1960 
  7 C        1.6660     2.0890     2.2430 C.3   1 <1>   0.1960 
  8 C       -1.1490     0.1700    -0.6810 C.ar  1 <1>  -0.1500 
  9 C       -1.4130    -1.8100     0.6130 C.ar  1 <1>  -0.1500 
 10 C        3.3390     0.7210     0.3030 C.3   1 <1>  -0.1600 
 11 C        2.8520     2.8110     1.5960 C.3   1 <1>  -0.1600 
 12 C       -1.6940    -0.4710    -1.7800 C.ar  1 <1>  -0.1500 
 13 C       -1.9580    -2.4570    -0.4820 C.ar  1 <1>  -0.1500 
 14 C        3.9540     1.8230     1.1810 C.3   1 <1>  -0.0190 
 15 C       -2.0990    -1.7910    -1.6870 C.ar  1 <1>  -0.1430 
 16 C        5.1080     2.5320     0.4750 C.2   1 <1>   0.5690 
 17 C       -2.6980    -2.4970    -2.8900 C.3   1 <1>  -0.0970 
 18 O        4.9010     3.0870    -0.5770 O.2   1 <1>  -0.5700 
 19 N        6.3350     2.5060     1.0670 N.am  1 <1>  -0.7300 
 20 C        7.5890     3.1230     0.5770 C.3   1 <1>   0.2200 
 21 C        7.4080     4.6430     0.4370 C.3   1 <1>  -0.1600 
 22 C        8.0510     2.3950    -0.6930 C.3   1 <1>  -0.1600 
 23 C        8.7510     5.3880     0.3650 C.3   1 <1>  -0.1600 
 24 C        9.3620     2.9250    -1.2980 C.3   1 <1>  -0.1600 
 25 C        9.3510     5.5040    -1.0450 C.3   1 <1>  -0.1600 
 26 C        9.1800     4.2920    -1.9740 C.3   1 <1>  -0.1600 
 27 H        1.7230    -0.6750     0.3390 H     1 <1>   0.0800 
 28 H        2.4800    -0.4410     1.8950 H     1 <1>   0.0800 
 29 H        1.9670     1.6330     3.1720 H     1 <1>   0.0800 
 30 H        0.9010     2.8170     2.4590 H     1 <1>   0.0800 
 31 H       -0.8370     1.1980    -0.7650 H     1 <1>   0.1500 
 32 H       -1.3100    -2.3420     1.5450 H     1 <1>   0.1500 
 33 H        3.0060     1.1400    -0.6320 H     1 <1>   0.0800 
 34 H        4.0820    -0.0230     0.0810 H     1 <1>   0.0800 
 35 H        3.2510     3.5320     2.2870 H     1 <1>   0.0800 
 36 H        2.4990     3.3480     0.7320 H     1 <1>   0.0800 
 37 H       -1.8010     0.0640    -2.7080 H     1 <1>   0.1500 
 38 H       -2.2730    -3.4820    -0.3910 H     1 <1>   0.1500 
 39 H        4.3380     1.3610     2.0720 H     1 <1>   0.0800 
 40 H       -2.2760    -2.1110    -3.8010 H     1 <1>   0.0800 
 41 H       -3.7620    -2.3440    -2.9080 H     1 <1>   0.0800 
 42 H       -2.4990    -3.5520    -2.8460 H     1 <1>   0.0800 
 43 H        6.4380     2.0120     1.9520 H     1 <1>   0.3700 
 44 H        8.3350     2.9540     1.3340 H     1 <1>   0.0800 
 45 H        6.8870     4.9950     1.3090 H     1 <1>   0.0800 
 46 H        6.8050     4.8770    -0.4230 H     1 <1>   0.0800 
 47 H        7.2780     2.4480    -1.4400 H     1 <1>   0.0800 
 48 H        8.1930     1.3580    -0.4480 H     1 <1>   0.0800 
 49 H        9.4620     4.9120     1.0170 H     1 <1>   0.0800 
 50 H        8.6090     6.3870     0.7410 H     1 <1>   0.0800 
 51 H        9.6740     2.2240    -2.0540 H     1 <1>   0.0800 
 52 H       10.1420     2.9650    -0.5570 H     1 <1>   0.0800 
 53 H       10.4020     5.7150    -0.9420 H     1 <1>   0.0800 
 54 H        8.9100     6.3550    -1.5360 H     1 <1>   0.0800 
 55 H        8.2100     4.3340    -2.4390 H     1 <1>   0.0800 
 56 H        9.9030     4.3820    -2.7660 H     1 <1>   0.0800 
@<TRIPOS>BOND
  1   1   2  2   
  2   1   3  2   
  3   1   4  am  
  4   1   5  1   
  5   4   6  1   
  6   4   7  1   
  7   5   8  ar  
  8   5   9  ar  
  9   6  10  1   
 10   6  27  1   
 11   6  28  1   
 12   7  11  1   
 13   7  29  1   
 14   7  30  1   
 15   8  12  ar  
 16   8  31  1   
 17   9  13  ar  
 18   9  32  1   
 19  10  14  1   
 20  10  33  1   
 21  10  34  1   
 22  11  14  1   
 23  11  35  1   
 24  11  36  1   
 25  12  15  ar  
 26  12  37  1   
 27  13  15  ar  
 28  13  38  1   
 29  14  16  1   
 30  14  39  1   
 31  15  17  1   
 32  16  18  2   
 33  16  19  am  
 34  17  40  1   
 35  17  41  1   
 36  17  42  1   
 37  19  20  1   
 38  19  43  1   
 39  20  21  1   
 40  20  22  1   
 41  20  44  1   
 42  21  23  1   
 43  21  45  1   
 44  21  46  1   
 45  22  24  1   
 46  22  47  1   
 47  22  48  1   
 48  23  25  1   
 49  23  49  1   
 50  23  50  1   
 51  24  26  1   
 52  24  51  1   
 53  24  52  1   
 54  25  26  1   
 55  25  53  1   
 56  25  54  1   
 57  26  55  1   
 58  26  56  1   
@<TRIPOS>SUBSTRUCTURE
  1 ****  10 GROUP 4 **** **** 0

# MOE 2024.06 (io_trps.svl 2023.06)
