@<TRIPOS>MOLECULE
NONAME
57 61 1 0 0 
SMALL
USER_CHARGES


@<TRIPOS>ATOM
  1 O        0.1060     0.3440     0.6860 O.2   1 <1>  -0.5700 
  2 C        0.0830     1.5440     0.4330 C.2   1 <1>   0.6160 
  3 N        1.2610     2.2540     0.5380 N.am  1 <1>  -0.2370 
  4 C       -1.1050     2.2510     0.1030 C.2   1 <1>  -0.1240 
  5 C        1.1860     3.6250     0.5980 C.2   1 <1>   0.5600 
  6 C        2.5060     1.5910     0.5890 C.ar  1 <1>   0.1170 
  7 C       -1.0750     3.6190     0.2140 C.2   1 <1>   0.1430 
  8 C       -2.4230     1.5330    -0.3060 C.3   1 <1>   0.1380 
  9 N        0.0820     4.2880     0.4630 N.2   1 <1>  -0.6210 
 10 N        2.3360     4.3230     0.8060 N.pl3 1 <1>  -0.8190 
 11 C        3.2890     1.4780    -0.5540 C.ar  1 <1>  -0.1500 
 12 C        2.9840     1.0690     1.7860 C.ar  1 <1>  -0.1500 
 13 C       -2.2770     4.4240     0.1060 C.ar  1 <1>   0.0280 
 14 C       -3.2830     2.5190    -1.1460 C.3   1 <1>  -0.0170 
 15 C       -3.1590     1.1210     0.9910 C.3   1 <1>  -0.1600 
 16 C       -2.2150     0.2700    -1.1950 C.3   1 <1>  -0.1600 
 17 C        2.4470     5.7980     0.9110 C.3   1 <1>   0.2090 
 18 C        4.5290     0.8660    -0.5010 C.ar  1 <1>  -0.1500 
 19 C        4.2230     0.4560     1.8420 C.ar  1 <1>  -0.1500 
 20 C       -3.3970     3.8980    -0.5300 C.ar  1 <1>  -0.1430 
 21 C       -2.3820     5.7080     0.6430 C.ar  1 <1>  -0.1500 
 22 C       -4.4410     0.3020     0.7590 C.3   1 <1>  -0.1600 
 23 C       -3.5070    -0.5240    -1.4580 C.3   1 <1>  -0.1600 
 24 C        2.4980     6.4230    -0.4870 C.3   1 <1>   0.1200 
 25 C        4.9970     0.3560     0.6980 C.ar  1 <1>  -0.1500 
 26 C       -4.5750     4.6210    -0.6210 C.ar  1 <1>  -0.1500 
 27 C       -3.5540     6.4350     0.5530 C.ar  1 <1>  -0.1500 
 28 C       -4.1800    -0.9160    -0.1360 C.3   1 <1>  -0.1600 
 29 O        2.5630     7.8060    -0.3790 O.3   1 <1>  -0.6800 
 30 C       -4.6560     5.8900    -0.0790 C.ar  1 <1>  -0.1500 
 31 H        3.2060     3.7930     0.8970 H     1 <1>   0.4000 
 32 H        2.9250     1.8730    -1.4850 H     1 <1>   0.1500 
 33 H        2.3770     1.1410     2.6710 H     1 <1>   0.1500 
 34 H       -4.2680     2.1320    -1.3150 H     1 <1>   0.0800 
 35 H       -2.8250     2.6450    -2.1100 H     1 <1>   0.0800 
 36 H       -3.3990     1.9980     1.5670 H     1 <1>   0.0800 
 37 H       -2.4880     0.5250     1.5870 H     1 <1>   0.0800 
 38 H       -1.5520    -0.4260    -0.7250 H     1 <1>   0.0800 
 39 H       -1.7620     0.5480    -2.1310 H     1 <1>   0.0800 
 40 H        3.3420     6.0490     1.4540 H     1 <1>   0.0800 
 41 H        1.5950     6.1800     1.4470 H     1 <1>   0.0800 
 42 H        5.1280     0.7820    -1.3910 H     1 <1>   0.1500 
 43 H        4.5840     0.0540     2.7730 H     1 <1>   0.1500 
 44 H       -1.5340     6.1390     1.1430 H     1 <1>   0.1500 
 45 H       -5.2010     0.9210     0.3160 H     1 <1>   0.0800 
 46 H       -4.8200    -0.0330     1.7090 H     1 <1>   0.0800 
 47 H       -3.2640    -1.4180    -2.0060 H     1 <1>   0.0800 
 48 H       -4.1910     0.0420    -2.0650 H     1 <1>   0.0800 
 49 H        1.6170     6.1680    -1.0510 H     1 <1>   0.0800 
 50 H        3.3760     6.0910    -1.0120 H     1 <1>   0.0800 
 51 H        5.9610    -0.1220     0.7410 H     1 <1>   0.1500 
 52 H       -5.4340     4.2030    -1.1170 H     1 <1>   0.1500 
 53 H       -3.6100     7.4230     0.9760 H     1 <1>   0.1500 
 54 H       -5.1080    -1.4230    -0.3380 H     1 <1>   0.0800 
 55 H       -3.5390    -1.6040     0.3910 H     1 <1>   0.0800 
 56 H        1.6950     8.1680    -0.1150 H     1 <1>   0.4000 
 57 H       -5.5710     6.4520    -0.1510 H     1 <1>   0.1500 
@<TRIPOS>BOND
  1   1   2  2   
  2   2   3  am  
  3   2   4  1   
  4   3   5  1   
  5   3   6  1   
  6   4   7  2   
  7   4   8  1   
  8   5   9  2   
  9   5  10  1   
 10   6  11  ar  
 11   6  12  ar  
 12   7   9  1   
 13   7  13  1   
 14   8  14  1   
 15   8  15  1   
 16   8  16  1   
 17  10  17  1   
 18  10  31  1   
 19  11  18  ar  
 20  11  32  1   
 21  12  19  ar  
 22  12  33  1   
 23  13  20  ar  
 24  13  21  ar  
 25  14  20  1   
 26  14  34  1   
 27  14  35  1   
 28  15  22  1   
 29  15  36  1   
 30  15  37  1   
 31  16  23  1   
 32  16  38  1   
 33  16  39  1   
 34  17  24  1   
 35  17  40  1   
 36  17  41  1   
 37  18  25  ar  
 38  18  42  1   
 39  19  25  ar  
 40  19  43  1   
 41  20  26  ar  
 42  21  27  ar  
 43  21  44  1   
 44  22  28  1   
 45  22  45  1   
 46  22  46  1   
 47  23  28  1   
 48  23  47  1   
 49  23  48  1   
 50  24  29  1   
 51  24  49  1   
 52  24  50  1   
 53  25  51  1   
 54  26  30  ar  
 55  26  52  1   
 56  27  30  ar  
 57  27  53  1   
 58  28  54  1   
 59  28  55  1   
 60  29  56  1   
 61  30  57  1   
@<TRIPOS>SUBSTRUCTURE
  1 ****   4 GROUP 4 **** **** 0

# MOE 2024.06 (io_trps.svl 2023.06)
