@<TRIPOS>MOLECULE
NONAME
35 35 1 0 0 
SMALL
USER_CHARGES


@<TRIPOS>ATOM
  1 O        0.3110     0.1710    -1.1060 O.2   1 <1>  -0.5700 
  2 C        1.3290     0.7760    -0.8190 C.2   1 <1>   0.7800 
  3 O        2.4680     0.1010    -0.6950 O.3   1 <1>  -0.4300 
  4 N        1.3660     2.1280    -0.6000 N.am  1 <1>  -0.6600 
  5 C        2.4750    -1.3040    -0.6790 C.3   1 <1>   0.2640 
  6 C        2.6420     2.7920    -0.0960 C.3   1 <1>   0.1140 
  7 C        0.1040     2.9020    -0.4100 C.3   1 <1>   0.0600 
  8 C        3.8830    -1.7950    -0.3660 C.ar  1 <1>  -0.1440 
  9 C        2.8230     2.7890     1.4390 C.2   1 <1>   0.9060 
 10 C        2.7840     4.2150    -0.6670 C.3   1 <1>  -0.0990 
 11 C        4.6630    -1.1470     0.5820 C.ar  1 <1>  -0.1500 
 12 C        4.3970    -2.9050    -1.0220 C.ar  1 <1>  -0.1500 
 13 O        1.9400     3.2460     2.1760 O.co2 1 <1>  -0.9000 
 14 O        3.9150     2.4190     1.8980 O.co2 1 <1>  -0.9000 
 15 C        4.1960     4.7760    -0.6140 C.2   1 <1>   0.5690 
 16 C        5.9380    -1.6020     0.8700 C.ar  1 <1>  -0.1500 
 17 C        5.6730    -3.3600    -0.7340 C.ar  1 <1>  -0.1500 
 18 O        4.5190     5.6000    -1.4330 O.2   1 <1>  -0.5700 
 19 N        5.0810     4.3820     0.3170 N.am  1 <1>  -0.8000 
 20 C        6.4440    -2.7090     0.2130 C.ar  1 <1>  -0.1500 
 21 H        2.1440    -1.6510    -1.6420 H     1 <1>   0.0800 
 22 H        1.7900    -1.6360     0.0820 H     1 <1>   0.0800 
 23 H        3.4740     2.2330    -0.4820 H     1 <1>   0.0800 
 24 H       -0.7570     2.2860    -0.6040 H     1 <1>   0.0800 
 25 H        0.0820     3.7400    -1.0830 H     1 <1>   0.0800 
 26 H        0.0420     3.2590     0.6030 H     1 <1>   0.0800 
 27 H        2.1440     4.8850    -0.1230 H     1 <1>   0.0800 
 28 H        2.4810     4.2080    -1.6970 H     1 <1>   0.0800 
 29 H        4.2830    -0.2790     1.1010 H     1 <1>   0.1500 
 30 H        3.8060    -3.4190    -1.7600 H     1 <1>   0.1500 
 31 H        6.5290    -1.0850     1.6050 H     1 <1>   0.1500 
 32 H        6.0650    -4.2210    -1.2470 H     1 <1>   0.1500 
 33 H        6.0160     4.7750     0.3570 H     1 <1>   0.3700 
 34 H        4.8490     3.6820     1.0530 H     1 <1>   0.3700 
 35 H        7.4350    -3.0610     0.4380 H     1 <1>   0.1500 
@<TRIPOS>BOND
  1   1   2  2   
  2   2   3  1   
  3   2   4  am  
  4   3   5  1   
  5   4   6  1   
  6   4   7  1   
  7   5   8  1   
  8   5  21  1   
  9   5  22  1   
 10   6   9  1   
 11   6  10  1   
 12   6  23  1   
 13   7  24  1   
 14   7  25  1   
 15   7  26  1   
 16   8  11  ar  
 17   8  12  ar  
 18   9  13  ar  
 19   9  14  ar  
 20  10  15  1   
 21  10  27  1   
 22  10  28  1   
 23  11  16  ar  
 24  11  29  1   
 25  12  17  ar  
 26  12  30  1   
 27  15  18  2   
 28  15  19  am  
 29  16  20  ar  
 30  16  31  1   
 31  17  20  ar  
 32  17  32  1   
 33  19  33  1   
 34  19  34  1   
 35  20  35  1   
@<TRIPOS>SUBSTRUCTURE
  1 ****   3 GROUP 4 **** **** 0

# MOE 2024.06 (io_trps.svl 2023.06)
