@<TRIPOS>MOLECULE
NONAME
31 32 1 0 0 
SMALL
USER_CHARGES


@<TRIPOS>ATOM
  1 CL      -1.4710    -1.6760     1.3570 Cl    1 <1>  -0.1230 
  2 C        0.2030    -2.0620     0.9880 C.2   1 <1>   0.1230 
  3 C        1.1200    -1.2070     0.4000 C.2   1 <1>   0.1080 
  4 C        0.8400    -3.2260     1.2140 C.2   1 <1>  -0.3320 
  5 N        2.2700    -1.7860     0.2590 N.2   1 <1>  -0.7070 
  6 C        0.8610     0.2180    -0.0390 C.3   1 <1>  -0.0590 
  7 N        2.1240    -3.0650     0.7620 N.pl3 1 <1>   0.5840 
  8 C        0.3000    -4.5040     1.8450 C.3   1 <1>  -0.0600 
  9 S        3.4200    -4.3070     0.8310 S.o2  1 <1>   1.3490 
 10 O        3.8260    -4.4980     2.2120 O.2   1 <1>  -0.6500 
 11 O        2.9990    -5.4810     0.0860 O.2   1 <1>  -0.6500 
 12 C        4.7780    -3.5420    -0.0630 C.2   1 <1>  -0.0630 
 13 C        5.2580    -3.9910    -1.2860 C.2   1 <1>   0.1390 
 14 C        5.5520    -2.4620     0.2090 C.2   1 <1>  -0.3020 
 15 N        6.2340    -3.2670    -1.7400 N.2   1 <1>  -0.7070 
 16 N        6.4160    -2.3130    -0.8110 N.pl3 1 <1>   0.3140 
 17 C        7.4430    -1.2620    -0.9570 C.3   1 <1>   0.0960 
 18 C        6.8140     0.0680    -1.3900 C.3   1 <1>  -0.2400 
 19 H        1.7340     0.8180     0.1420 H     1 <1>   0.0800 
 20 H        0.0340     0.6360     0.5050 H     1 <1>   0.0800 
 21 H        0.6370     0.2360    -1.0890 H     1 <1>   0.0800 
 22 H       -0.7300    -4.3770     2.1290 H     1 <1>   0.0800 
 23 H        0.8640    -4.7570     2.7260 H     1 <1>   0.0800 
 24 H        0.3580    -5.3220     1.1480 H     1 <1>   0.0800 
 25 H        4.8680    -4.8500    -1.8090 H     1 <1>   0.1500 
 26 H        5.5260    -1.8020     1.0570 H     1 <1>   0.1500 
 27 H        8.1550    -1.5880    -1.6930 H     1 <1>   0.0800 
 28 H        7.9500    -1.1470    -0.0160 H     1 <1>   0.0800 
 29 H        6.3110    -0.0530    -2.3340 H     1 <1>   0.0800 
 30 H        7.5790     0.8140    -1.5040 H     1 <1>   0.0800 
 31 H        6.1080     0.4100    -0.6530 H     1 <1>   0.0800 
@<TRIPOS>BOND
  1   1   2  1   
  2   2   3  1   
  3   2   4  2   
  4   3   5  2   
  5   3   6  1   
  6   4   7  1   
  7   4   8  1   
  8   5   7  1   
  9   6  19  1   
 10   6  20  1   
 11   6  21  1   
 12   7   9  1   
 13   8  22  1   
 14   8  23  1   
 15   8  24  1   
 16   9  10  2   
 17   9  11  2   
 18   9  12  1   
 19  12  13  1   
 20  12  14  2   
 21  13  15  2   
 22  13  25  1   
 23  14  16  1   
 24  14  26  1   
 25  15  16  1   
 26  16  17  1   
 27  17  18  1   
 28  17  27  1   
 29  17  28  1   
 30  18  29  1   
 31  18  30  1   
 32  18  31  1   
@<TRIPOS>SUBSTRUCTURE
  1 ****   7 GROUP 4 **** **** 0

# MOE 2024.06 (io_trps.svl 2023.06)
