@<TRIPOS>MOLECULE
NONAME
38 39 1 0 0 
SMALL
USER_CHARGES


@<TRIPOS>ATOM
  1 F        0.3440    -0.2770     0.2250 F     1 <1>  -0.3400 
  2 C        1.2830     0.6560     0.1160 C.3   1 <1>   1.1640 
  3 F        1.3610     1.2410     1.3060 F     1 <1>  -0.3400 
  4 F        0.8050     1.5710    -0.7160 F     1 <1>  -0.3400 
  5 C        2.6320     0.0960    -0.3620 C.ar  1 <1>  -0.1440 
  6 C        3.8310     0.6710     0.0480 C.ar  1 <1>  -0.1500 
  7 C        2.6800    -0.9940    -1.2250 C.ar  1 <1>  -0.1500 
  8 C        5.0600     0.1800    -0.3750 C.ar  1 <1>   0.1170 
  9 C        3.8950    -1.4940    -1.6580 C.ar  1 <1>  -0.1500 
 10 N        6.2310     0.8130     0.0640 N.am  1 <1>  -0.5470 
 11 C        5.0740    -0.9110    -1.2370 C.ar  1 <1>  -0.1500 
 12 C        7.5120     0.3570     0.1860 C.2   1 <1>   0.6900 
 13 O        7.7810    -0.8210     0.0440 O.2   1 <1>  -0.5700 
 14 N        8.4980     1.2580     0.4970 N.am  1 <1>  -0.6600 
 15 C        9.8250     0.7830     0.9850 C.3   1 <1>   0.1400 
 16 C        8.5170     2.6550    -0.0150 C.3   1 <1>   0.1400 
 17 C       10.8390     0.8300    -0.1620 C.3   1 <1>  -0.0190 
 18 C        9.5250     2.7580    -1.1670 C.3   1 <1>  -0.1600 
 19 C       12.1910     0.3450     0.3380 C.2   1 <1>   0.5690 
 20 C       10.9190     2.2510    -0.7590 C.3   1 <1>  -0.1600 
 21 O       12.7740     0.9550     1.1970 O.2   1 <1>  -0.5700 
 22 N       12.7320    -0.7740    -0.1760 N.am  1 <1>  -0.8000 
 23 H        3.8180     1.5160     0.7140 H     1 <1>   0.1500 
 24 H        1.7720    -1.4640    -1.5670 H     1 <1>   0.1500 
 25 H        3.9240    -2.3390    -2.3240 H     1 <1>   0.1500 
 26 H        6.1130     1.7290     0.4800 H     1 <1>   0.3700 
 27 H        6.0110    -1.3070    -1.5840 H     1 <1>   0.1500 
 28 H        9.7480    -0.2230     1.3650 H     1 <1>   0.0800 
 29 H       10.1540     1.4150     1.7920 H     1 <1>   0.0800 
 30 H        8.8050     3.3170     0.7840 H     1 <1>   0.0800 
 31 H        7.5450     2.9520    -0.3670 H     1 <1>   0.0800 
 32 H       10.4990     0.1530    -0.9250 H     1 <1>   0.0800 
 33 H        9.5950     3.7820    -1.4880 H     1 <1>   0.0800 
 34 H        9.1600     2.1800    -1.9990 H     1 <1>   0.0800 
 35 H       11.5720     2.2500    -1.6140 H     1 <1>   0.0800 
 36 H       11.3370     2.9200    -0.0250 H     1 <1>   0.0800 
 37 H       13.6340    -1.0980     0.1750 H     1 <1>   0.3700 
 38 H       12.2740    -1.3600    -0.8740 H     1 <1>   0.3700 
@<TRIPOS>BOND
  1   1   2  1   
  2   2   3  1   
  3   2   4  1   
  4   2   5  1   
  5   5   6  ar  
  6   5   7  ar  
  7   6   8  ar  
  8   6  23  1   
  9   7   9  ar  
 10   7  24  1   
 11   8  10  1   
 12   8  11  ar  
 13   9  11  ar  
 14   9  25  1   
 15  10  12  am  
 16  10  26  1   
 17  11  27  1   
 18  12  13  2   
 19  12  14  am  
 20  14  15  1   
 21  14  16  1   
 22  15  17  1   
 23  15  28  1   
 24  15  29  1   
 25  16  18  1   
 26  16  30  1   
 27  16  31  1   
 28  17  19  1   
 29  17  20  1   
 30  17  32  1   
 31  18  20  1   
 32  18  33  1   
 33  18  34  1   
 34  19  21  2   
 35  19  22  am  
 36  20  35  1   
 37  20  36  1   
 38  22  37  1   
 39  22  38  1   
@<TRIPOS>SUBSTRUCTURE
  1 ****  10 GROUP 4 **** **** 0

# MOE 2024.06 (io_trps.svl 2023.06)
