@<TRIPOS>MOLECULE
NONAME
47 48 1 0 0 
SMALL
USER_CHARGES


@<TRIPOS>ATOM
  1 O        0.4010    -0.1630     0.8180 O.3   1 <1>  -0.3630 
  2 C        1.5440    -0.7310     0.3620 C.ar  1 <1>   0.0830 
  3 C       -0.2410     0.8700     0.1050 C.3   1 <1>   0.0400 
  4 C        2.0720    -1.7640     1.1180 C.ar  1 <1>  -0.1500 
  5 C        2.1970    -0.3380    -0.8030 C.ar  1 <1>  -0.1500 
  6 C        3.2380    -2.3980     0.7290 C.ar  1 <1>  -0.1500 
  7 C        3.3640    -0.9720    -1.1920 C.ar  1 <1>  -0.1500 
  8 C        3.8930    -2.0010    -0.4270 C.ar  1 <1>  -0.1430 
  9 C        5.1850    -2.6770    -0.8410 C.3   1 <1>  -0.0170 
 10 C        6.3460    -1.9430    -0.1740 C.3   1 <1>   0.3430 
 11 N        7.6490    -2.5630    -0.5430 N.4   1 <1>  -0.9060 
 12 C        8.8090    -1.9150     0.0980 C.3   1 <1>   0.4230 
 13 C        9.0580    -0.5360    -0.5270 C.3   1 <1>  -0.1600 
 14 C       10.0260    -2.8230    -0.0890 C.3   1 <1>  -0.1600 
 15 C       10.3220     0.1110     0.0560 C.3   1 <1>  -0.1600 
 16 C       11.2950    -2.1830     0.4930 C.3   1 <1>  -0.1600 
 17 C       11.5580    -0.7900    -0.1100 C.3   1 <1>  -0.0800 
 18 C       12.7820    -0.1060     0.5270 C.3   1 <1>  -0.1600 
 19 C       14.1010    -0.8450     0.2640 C.3   1 <1>  -0.2400 
 20 H       -1.1270     1.1480     0.6460 H     1 <1>   0.0800 
 21 H       -0.5090     0.5060    -0.8710 H     1 <1>   0.0800 
 22 H        0.4240     1.7120     0.0350 H     1 <1>   0.0800 
 23 H        1.5570    -2.0660     2.0140 H     1 <1>   0.1500 
 24 H        1.8100     0.4560    -1.4140 H     1 <1>   0.1500 
 25 H        3.6180    -3.2000     1.3370 H     1 <1>   0.1500 
 26 H        3.8480    -0.6520    -2.0980 H     1 <1>   0.1500 
 27 H        5.2800    -2.6390    -1.9120 H     1 <1>   0.0800 
 28 H        5.1620    -3.7070    -0.5310 H     1 <1>   0.0800 
 29 H        6.2120    -1.9740     0.8960 H     1 <1>   0.0800 
 30 H        6.3260    -0.9100    -0.4810 H     1 <1>   0.0800 
 31 H        7.7840    -2.5300    -1.5600 H     1 <1>   0.4500 
 32 H        7.6450    -3.5530    -0.2720 H     1 <1>   0.4500 
 33 H        8.6270    -1.7960     1.1550 H     1 <1>   0.0800 
 34 H        8.2280     0.1200    -0.3350 H     1 <1>   0.0800 
 35 H        9.1830    -0.6310    -1.5920 H     1 <1>   0.0800 
 36 H       10.1900    -3.0100    -1.1360 H     1 <1>   0.0800 
 37 H        9.8630    -3.7640     0.4070 H     1 <1>   0.0800 
 38 H       10.1690     0.3190     1.1020 H     1 <1>   0.0800 
 39 H       10.4970     1.0530    -0.4380 H     1 <1>   0.0800 
 40 H       12.1290    -2.8320     0.2900 H     1 <1>   0.0800 
 41 H       11.2010    -2.0980     1.5630 H     1 <1>   0.0800 
 42 H       11.7530    -0.9030    -1.1650 H     1 <1>   0.0800 
 43 H       12.6390    -0.0090     1.5900 H     1 <1>   0.0800 
 44 H       12.8760     0.8880     0.1230 H     1 <1>   0.0800 
 45 H       14.1200    -1.7970     0.7620 H     1 <1>   0.0800 
 46 H       14.9240    -0.2610     0.6370 H     1 <1>   0.0800 
 47 H       14.2470    -0.9970    -0.7910 H     1 <1>   0.0800 
@<TRIPOS>BOND
  1   1   2  1   
  2   1   3  1   
  3   2   4  ar  
  4   2   5  ar  
  5   3  20  1   
  6   3  21  1   
  7   3  22  1   
  8   4   6  ar  
  9   4  23  1   
 10   5   7  ar  
 11   5  24  1   
 12   6   8  ar  
 13   6  25  1   
 14   7   8  ar  
 15   7  26  1   
 16   8   9  1   
 17   9  10  1   
 18   9  27  1   
 19   9  28  1   
 20  10  11  1   
 21  10  29  1   
 22  10  30  1   
 23  11  12  1   
 24  11  31  1   
 25  11  32  1   
 26  12  13  1   
 27  12  14  1   
 28  12  33  1   
 29  13  15  1   
 30  13  34  1   
 31  13  35  1   
 32  14  16  1   
 33  14  36  1   
 34  14  37  1   
 35  15  17  1   
 36  15  38  1   
 37  15  39  1   
 38  16  17  1   
 39  16  40  1   
 40  16  41  1   
 41  17  18  1   
 42  17  42  1   
 43  18  19  1   
 44  18  43  1   
 45  18  44  1   
 46  19  45  1   
 47  19  46  1   
 48  19  47  1   
@<TRIPOS>SUBSTRUCTURE
  1 ****  10 GROUP 4 **** **** 0

# MOE 2024.06 (io_trps.svl 2023.06)
