@<TRIPOS>MOLECULE
NONAME
35 36 1 0 0 
SMALL
USER_CHARGES


@<TRIPOS>ATOM
  1 I       -0.4670     0.3870    -0.4290 I     1 <1>  -0.0810 
  2 C        1.5320     1.0840    -0.1930 C.ar  1 <1>   0.0810 
  3 C        2.5730     0.2490    -0.5560 C.ar  1 <1>  -0.1500 
  4 C        1.7360     2.3530     0.3160 C.ar  1 <1>  -0.1500 
  5 C        3.8720     0.7040    -0.4010 C.ar  1 <1>  -0.1500 
  6 C        3.0390     2.7960     0.4650 C.ar  1 <1>  -0.1500 
  7 C        4.1080     1.9820     0.1100 C.ar  1 <1>   0.0830 
  8 O        5.3480     2.5030     0.2910 O.3   1 <1>  -0.3630 
  9 C        6.5040     1.7760    -0.0390 C.3   1 <1>   0.1200 
 10 C        7.7030     2.6670     0.2840 C.3   1 <1>  -0.1600 
 11 C        9.0130     1.9630    -0.0620 C.3   1 <1>   0.3430 
 12 N       10.1700     2.8130     0.3300 N.4   1 <1>  -0.9590 
 13 C       10.3210     4.0520    -0.4760 C.3   1 <1>   0.3430 
 14 C       11.4690     2.1050     0.2250 C.3   1 <1>   0.3430 
 15 C       11.7670     4.4750    -0.2560 C.3   1 <1>  -0.1600 
 16 C       12.5060     3.2180     0.2120 C.3   1 <1>  -0.1600 
 17 H        2.3740    -0.7330    -0.9480 H     1 <1>   0.1500 
 18 H        0.9040     2.9780     0.5880 H     1 <1>   0.1500 
 19 H        4.6760     0.0530    -0.6830 H     1 <1>   0.1500 
 20 H        3.2340     3.7780     0.8580 H     1 <1>   0.1500 
 21 H        6.4630     1.5390    -1.0900 H     1 <1>   0.0800 
 22 H        6.5150     0.8750     0.5500 H     1 <1>   0.0800 
 23 H        7.6810     2.8970     1.3340 H     1 <1>   0.0800 
 24 H        7.6080     3.5740    -0.2860 H     1 <1>   0.0800 
 25 H        9.0500     1.7530    -1.1190 H     1 <1>   0.0800 
 26 H        9.0590     1.0260     0.4710 H     1 <1>   0.0800 
 27 H       10.0580     3.1000     1.3120 H     1 <1>   0.4500 
 28 H        9.6290     4.8190    -0.1650 H     1 <1>   0.0800 
 29 H       10.1660     3.8300    -1.5200 H     1 <1>   0.0800 
 30 H       11.5150     1.5610    -0.7060 H     1 <1>   0.0800 
 31 H       11.6240     1.4240     1.0470 H     1 <1>   0.0800 
 32 H       11.8130     5.2420     0.4980 H     1 <1>   0.0800 
 33 H       12.1840     4.8680    -1.1680 H     1 <1>   0.0800 
 34 H       13.3220     2.9660    -0.4440 H     1 <1>   0.0800 
 35 H       12.8990     3.3620     1.2040 H     1 <1>   0.0800 
@<TRIPOS>BOND
  1   1   2  1   
  2   2   3  ar  
  3   2   4  ar  
  4   3   5  ar  
  5   3  17  1   
  6   4   6  ar  
  7   4  18  1   
  8   5   7  ar  
  9   5  19  1   
 10   6   7  ar  
 11   6  20  1   
 12   7   8  1   
 13   8   9  1   
 14   9  10  1   
 15   9  21  1   
 16   9  22  1   
 17  10  11  1   
 18  10  23  1   
 19  10  24  1   
 20  11  12  1   
 21  11  25  1   
 22  11  26  1   
 23  12  13  1   
 24  12  14  1   
 25  12  27  1   
 26  13  15  1   
 27  13  28  1   
 28  13  29  1   
 29  14  16  1   
 30  14  30  1   
 31  14  31  1   
 32  15  16  1   
 33  15  32  1   
 34  15  33  1   
 35  16  34  1   
 36  16  35  1   
@<TRIPOS>SUBSTRUCTURE
  1 ****   9 GROUP 4 **** **** 0

# MOE 2024.06 (io_trps.svl 2023.06)
