@<TRIPOS>MOLECULE
NONAME
38 39 1 0 0 
SMALL
USER_CHARGES


@<TRIPOS>ATOM
  1 N       -4.7200    -7.0020     0.2510 N.ar  1 <1>  -0.6200 
  2 C       -5.8380    -6.3330    -0.0620 C.ar  1 <1>   0.4100 
  3 C       -3.6350    -6.3360     0.5210 C.ar  1 <1>   0.5280 
  4 N       -6.9440    -7.0760    -0.3400 N.pl3 1 <1>  -0.8380 
  5 C       -5.8140    -4.9300    -0.0930 C.ar  1 <1>  -0.1500 
  6 N       -3.5740    -4.9890     0.5070 N.ar  1 <1>  -0.1790 
  7 C       -2.3720    -7.1110     0.8700 C.3   1 <1>  -0.0160 
  8 C       -8.3490    -6.5400    -0.4150 C.3   1 <1>   0.2090 
  9 C       -6.8660    -8.5530    -0.6550 C.3   1 <1>   0.2090 
 10 C       -4.6620    -4.2580     0.1980 C.ar  1 <1>   0.2180 
 11 C       -1.3180    -7.0450    -0.2500 C.3   1 <1>  -0.1600 
 12 C       -9.3310    -7.3880     0.4300 C.3   1 <1>   0.3430 
 13 C       -7.8390    -9.3720     0.2180 C.3   1 <1>   0.3430 
 14 C       -4.5540    -2.7420     0.1810 C.3   1 <1>  -0.0960 
 15 C       -0.0630    -7.8400     0.1240 C.3   1 <1>  -0.2400 
 16 N       -9.2490    -8.8580     0.1240 N.4   1 <1>  -0.9060 
 17 H       -6.6940    -4.3820    -0.3630 H     1 <1>   0.1500 
 18 H       -2.6850    -4.5350     0.7250 H     1 <1>   0.4570 
 19 H       -2.6330    -8.1410     1.0410 H     1 <1>   0.0800 
 20 H       -1.9590    -6.7310     1.7870 H     1 <1>   0.0800 
 21 H       -8.6710    -6.5300    -1.4430 H     1 <1>   0.0800 
 22 H       -8.3960    -5.5310    -0.0490 H     1 <1>   0.0800 
 23 H       -5.8740    -8.9430    -0.5100 H     1 <1>   0.0800 
 24 H       -7.1060    -8.7020    -1.6930 H     1 <1>   0.0800 
 25 H       -1.0340    -6.0260    -0.4470 H     1 <1>   0.0800 
 26 H       -1.7320    -7.4560    -1.1560 H     1 <1>   0.0800 
 27 H      -10.3360    -7.0350     0.2630 H     1 <1>   0.0800 
 28 H       -9.0990    -7.2280     1.4700 H     1 <1>   0.0800 
 29 H       -7.4990    -9.3180     1.2390 H     1 <1>   0.0800 
 30 H       -7.8020   -10.4050    -0.0870 H     1 <1>   0.0800 
 31 H       -5.4980    -2.2970    -0.0830 H     1 <1>   0.0800 
 32 H       -3.8240    -2.4250    -0.5420 H     1 <1>   0.0800 
 33 H       -4.2720    -2.3730     1.1510 H     1 <1>   0.0800 
 34 H        0.3950    -7.4440     1.0140 H     1 <1>   0.0800 
 35 H        0.6560    -7.7900    -0.6760 H     1 <1>   0.0800 
 36 H       -0.3050    -8.8760     0.2910 H     1 <1>   0.0800 
 37 H       -9.6080    -9.0310    -0.8230 H     1 <1>   0.4500 
 38 H       -9.8520    -9.3840     0.7720 H     1 <1>   0.4500 
@<TRIPOS>BOND
  1   1   2  ar  
  2   1   3  ar  
  3   2   4  1   
  4   2   5  ar  
  5   3   6  ar  
  6   3   7  1   
  7   4   8  1   
  8   4   9  1   
  9   5  10  ar  
 10   5  17  1   
 11   6  10  ar  
 12   6  18  1   
 13   7  11  1   
 14   7  19  1   
 15   7  20  1   
 16   8  12  1   
 17   8  21  1   
 18   8  22  1   
 19   9  13  1   
 20   9  23  1   
 21   9  24  1   
 22  10  14  1   
 23  11  15  1   
 24  11  25  1   
 25  11  26  1   
 26  12  16  1   
 27  12  27  1   
 28  12  28  1   
 29  13  16  1   
 30  13  29  1   
 31  13  30  1   
 32  14  31  1   
 33  14  32  1   
 34  14  33  1   
 35  15  34  1   
 36  15  35  1   
 37  15  36  1   
 38  16  37  1   
 39  16  38  1   
@<TRIPOS>SUBSTRUCTURE
  1 ****   2 GROUP 4 **** **** 0

# MOE 2024.06 (io_trps.svl 2023.06)
