@<TRIPOS>MOLECULE
NONAME
46 48 1 0 0 
SMALL
USER_CHARGES


@<TRIPOS>ATOM
  1 O       -1.4280     0.3470     2.1890 O.2   1 <1>  -0.5700 
  2 C       -1.6710     1.3180     1.4940 C.2   1 <1>   0.5440 
  3 N       -0.6440     2.1620     1.1930 N.am  1 <1>  -0.7300 
  4 C       -3.0020     1.5640     0.9720 C.ar  1 <1>   0.0860 
  5 C        0.7690     1.9180     1.5300 C.3   1 <1>   0.2840 
  6 C       -3.8030     0.5140     0.4880 C.ar  1 <1>   0.1170 
  7 C       -3.5120     2.8630     0.9230 C.ar  1 <1>  -0.1500 
  8 C        1.6190     2.5310     0.4320 C.ar  1 <1>  -0.1440 
  9 N       -3.3220    -0.8000     0.5410 N.am  1 <1>  -0.5470 
 10 C       -5.0640     0.7990    -0.0290 C.ar  1 <1>  -0.1500 
 11 C       -4.7640     3.1300     0.4070 C.ar  1 <1>  -0.1500 
 12 C        1.7650     1.8730    -0.7800 C.ar  1 <1>  -0.1500 
 13 C        2.2500     3.7510     0.6240 C.ar  1 <1>  -0.1500 
 14 C       -3.5110    -1.8740    -0.2800 C.2   1 <1>   0.5690 
 15 C       -5.5430     2.0920    -0.0730 C.ar  1 <1>  -0.1500 
 16 C        2.5340     2.4270    -1.7890 C.ar  1 <1>  -0.1500 
 17 C        3.0200     4.3060    -0.3840 C.ar  1 <1>  -0.1500 
 18 O       -4.2850    -1.8770    -1.2040 O.2   1 <1>  -0.5700 
 19 C       -2.6890    -3.1240    -0.0260 C.3   1 <1>  -0.0990 
 20 C        3.1620     3.6440    -1.5910 C.ar  1 <1>  -0.1500 
 21 C       -1.2520    -2.8200     0.4290 C.3   1 <1>   0.0000 
 22 C       -0.3790    -2.0440    -0.5940 C.3   1 <1>   0.0000 
 23 C       -0.2460    -3.9930     0.2860 C.3   1 <1>   0.0000 
 24 C        0.8060    -2.9310    -0.1300 C.3   1 <1>   0.0000 
 25 H       -0.7730     2.8880     0.4860 H     1 <1>   0.3700 
 26 H        0.9590     0.8600     1.5980 H     1 <1>   0.0800 
 27 H        0.9940     2.3680     2.4810 H     1 <1>   0.0800 
 28 H       -2.9190     3.6770     1.3010 H     1 <1>   0.1500 
 29 H       -2.5710    -0.9170     1.2360 H     1 <1>   0.3700 
 30 H       -5.6790    -0.0020    -0.3990 H     1 <1>   0.1500 
 31 H       -5.1390     4.1390     0.3770 H     1 <1>   0.1500 
 32 H        1.2780     0.9270    -0.9420 H     1 <1>   0.1500 
 33 H        2.1450     4.2760     1.5580 H     1 <1>   0.1500 
 34 H       -6.5200     2.2920    -0.4790 H     1 <1>   0.1500 
 35 H        2.6440     1.9110    -2.7270 H     1 <1>   0.1500 
 36 H        3.5080     5.2520    -0.2300 H     1 <1>   0.1500 
 37 H       -2.6660    -3.6970    -0.9350 H     1 <1>   0.0800 
 38 H       -3.1850    -3.7140     0.7220 H     1 <1>   0.0800 
 39 H        3.7610     4.0750    -2.3740 H     1 <1>   0.1500 
 40 H       -1.2030    -2.3800     1.4110 H     1 <1>   0.0000 
 41 H       -0.2600    -1.0010    -0.3610 H     1 <1>   0.0000 
 42 H       -0.6570    -2.2300    -1.6180 H     1 <1>   0.0000 
 43 H       -0.4860    -4.6680    -0.5180 H     1 <1>   0.0000 
 44 H       -0.0200    -4.4890     1.2130 H     1 <1>   0.0000 
 45 H        1.3320    -2.5130     0.7120 H     1 <1>   0.0000 
 46 H        1.4530    -3.2460    -0.9290 H     1 <1>   0.0000 
@<TRIPOS>BOND
  1   1   2  2   
  2   2   3  am  
  3   2   4  1   
  4   3   5  1   
  5   3  25  1   
  6   4   6  ar  
  7   4   7  ar  
  8   5   8  1   
  9   5  26  1   
 10   5  27  1   
 11   6   9  1   
 12   6  10  ar  
 13   7  11  ar  
 14   7  28  1   
 15   8  12  ar  
 16   8  13  ar  
 17   9  14  am  
 18   9  29  1   
 19  10  15  ar  
 20  10  30  1   
 21  11  15  ar  
 22  11  31  1   
 23  12  16  ar  
 24  12  32  1   
 25  13  17  ar  
 26  13  33  1   
 27  14  18  2   
 28  14  19  1   
 29  15  34  1   
 30  16  20  ar  
 31  16  35  1   
 32  17  20  ar  
 33  17  36  1   
 34  19  21  1   
 35  19  37  1   
 36  19  38  1   
 37  20  39  1   
 38  21  22  1   
 39  21  23  1   
 40  21  40  1   
 41  22  24  1   
 42  22  41  1   
 43  22  42  1   
 44  23  24  1   
 45  23  43  1   
 46  23  44  1   
 47  24  45  1   
 48  24  46  1   
@<TRIPOS>SUBSTRUCTURE
  1 ****   2 GROUP 4 **** **** 0

# MOE 2024.06 (io_trps.svl 2023.06)
