@<TRIPOS>MOLECULE
NONAME
56 58 1 0 0 
SMALL
USER_CHARGES


@<TRIPOS>ATOM
  1 O        0.2710     0.9140    -2.0130 O.2   1 <1>  -0.5700 
  2 C       -0.1910     1.6130    -1.1420 C.2   1 <1>   0.5690 
  3 N        0.3220     1.6740     0.1190 N.am  1 <1>  -0.7300 
  4 C       -1.3970     2.5020    -1.4860 C.3   1 <1>   0.1710 
  5 C        1.4930     0.9950     0.7140 C.3   1 <1>   0.3640 
  6 N       -2.7360     2.0140    -1.0530 N.3   1 <1>  -0.8100 
  7 C        2.7140     1.8990     0.5920 C.ar  1 <1>  -0.1430 
  8 C        1.7450    -0.4030     0.1490 C.3   1 <1>  -0.2400 
  9 C       -2.9130     1.9850     0.4170 C.3   1 <1>   0.1100 
 10 C       -3.0380     0.6790    -1.6250 C.3   1 <1>   0.1100 
 11 C        3.3630     2.3520     1.7320 C.ar  1 <1>  -0.1500 
 12 C        3.1930     2.2860    -0.6530 C.ar  1 <1>  -0.1500 
 13 C       -4.3270     1.5190     0.8160 C.3   1 <1>   0.2090 
 14 C       -4.4430     0.1810    -1.2330 C.3   1 <1>   0.2090 
 15 C        4.4690     3.1780     1.6300 C.ar  1 <1>  -0.1500 
 16 C        4.2990     3.1110    -0.7570 C.ar  1 <1>  -0.1500 
 17 N       -4.6130     0.1700     0.2500 N.pl3 1 <1>  -0.8380 
 18 C        4.9380     3.5580     0.3850 C.ar  1 <1>  -0.1500 
 19 C       -5.7800    -0.4510     0.7200 C.ar  1 <1>   0.1000 
 20 C       -7.0840     0.0330     0.5000 C.ar  1 <1>   0.0830 
 21 C       -5.6200    -1.6200     1.4480 C.ar  1 <1>  -0.1500 
 22 O       -7.2360     1.1860    -0.2210 O.3   1 <1>  -0.3630 
 23 C       -8.1730    -0.6640     1.0160 C.ar  1 <1>  -0.1500 
 24 C       -6.7060    -2.3080     1.9560 C.ar  1 <1>  -0.1500 
 25 C       -8.5050     1.7160    -0.5170 C.3   1 <1>   0.1200 
 26 C       -7.9840    -1.8300     1.7400 C.ar  1 <1>  -0.1500 
 27 C       -8.3000     2.9790    -1.3470 C.3   1 <1>  -0.2400 
 28 H       -0.0750     2.3730     0.7430 H     1 <1>   0.3700 
 29 H       -1.4150     2.6220    -2.5550 H     1 <1>   0.0800 
 30 H       -1.2310     3.4780    -1.0680 H     1 <1>   0.0800 
 31 H        1.2750     0.8660     1.7600 H     1 <1>   0.0800 
 32 H        2.0980    -0.3540    -0.8640 H     1 <1>   0.0800 
 33 H        0.8440    -0.9870     0.1870 H     1 <1>   0.0800 
 34 H        2.5000    -0.8930     0.7360 H     1 <1>   0.0800 
 35 H       -2.7480     2.9690     0.8170 H     1 <1>   0.0800 
 36 H       -2.2050     1.3080     0.8620 H     1 <1>   0.0800 
 37 H       -2.3170    -0.0430    -1.2810 H     1 <1>   0.0800 
 38 H       -2.9730     0.7280    -2.6980 H     1 <1>   0.0800 
 39 H        3.0140     2.0660     2.7090 H     1 <1>   0.1500 
 40 H        2.7020     1.9430    -1.5480 H     1 <1>   0.1500 
 41 H       -5.0470     2.2300     0.4510 H     1 <1>   0.0800 
 42 H       -4.4070     1.4760     1.8870 H     1 <1>   0.0800 
 43 H       -4.5920    -0.8140    -1.6140 H     1 <1>   0.0800 
 44 H       -5.1810     0.8240    -1.6800 H     1 <1>   0.0800 
 45 H        4.9670     3.5250     2.5190 H     1 <1>   0.1500 
 46 H        4.6600     3.4030    -1.7270 H     1 <1>   0.1500 
 47 H        5.7980     4.2000     0.3050 H     1 <1>   0.1500 
 48 H       -4.6230    -1.9860     1.6110 H     1 <1>   0.1500 
 49 H       -9.1780    -0.3230     0.8680 H     1 <1>   0.1500 
 50 H       -6.5540    -3.2130     2.5180 H     1 <1>   0.1500 
 51 H       -9.0040     1.9450     0.4090 H     1 <1>   0.0800 
 52 H       -9.0610     0.9810    -1.0730 H     1 <1>   0.0800 
 53 H       -8.8310    -2.3630     2.1350 H     1 <1>   0.1500 
 54 H       -7.7260     3.6970    -0.7890 H     1 <1>   0.0800 
 55 H       -9.2520     3.4140    -1.5930 H     1 <1>   0.0800 
 56 H       -7.7840     2.7400    -2.2600 H     1 <1>   0.0800 
@<TRIPOS>BOND
  1   1   2  2   
  2   2   3  am  
  3   2   4  1   
  4   3   5  1   
  5   3  28  1   
  6   4   6  1   
  7   4  29  1   
  8   4  30  1   
  9   5   7  1   
 10   5   8  1   
 11   5  31  1   
 12   6   9  1   
 13   6  10  1   
 14   7  11  ar  
 15   7  12  ar  
 16   8  32  1   
 17   8  33  1   
 18   8  34  1   
 19   9  13  1   
 20   9  35  1   
 21   9  36  1   
 22  10  14  1   
 23  10  37  1   
 24  10  38  1   
 25  11  15  ar  
 26  11  39  1   
 27  12  16  ar  
 28  12  40  1   
 29  13  17  1   
 30  13  41  1   
 31  13  42  1   
 32  14  17  1   
 33  14  43  1   
 34  14  44  1   
 35  15  18  ar  
 36  15  45  1   
 37  16  18  ar  
 38  16  46  1   
 39  17  19  1   
 40  18  47  1   
 41  19  20  ar  
 42  19  21  ar  
 43  20  22  1   
 44  20  23  ar  
 45  21  24  ar  
 46  21  48  1   
 47  22  25  1   
 48  23  26  ar  
 49  23  49  1   
 50  24  26  ar  
 51  24  50  1   
 52  25  27  1   
 53  25  51  1   
 54  25  52  1   
 55  26  53  1   
 56  27  54  1   
 57  27  55  1   
 58  27  56  1   
@<TRIPOS>SUBSTRUCTURE
  1 ****   9 GROUP 4 **** **** 0

# MOE 2024.06 (io_trps.svl 2023.06)
