@<TRIPOS>MOLECULE
NONAME
53 55 1 0 0 
SMALL
USER_CHARGES


@<TRIPOS>ATOM
  1 CL      -1.8800     2.6110    -2.2230 Cl    1 <1>  -0.1770 
  2 C       -1.6340     3.9690    -1.1510 C.ar  1 <1>   0.1770 
  3 C       -2.0110     3.8700     0.1800 C.ar  1 <1>  -0.1440 
  4 C       -1.0730     5.1250    -1.6600 C.ar  1 <1>  -0.1500 
  5 C       -1.8110     4.9630     1.0130 C.ar  1 <1>  -0.1500 
  6 C       -2.6300     2.5920     0.7070 C.3   1 <1>   0.4870 
  7 C       -0.8830     6.2100    -0.8220 C.ar  1 <1>  -0.1500 
  8 C       -1.2510     6.1260     0.5100 C.ar  1 <1>  -0.1500 
  9 N       -4.0020     2.4480     0.1570 N.4   1 <1>  -0.9590 
 10 C       -4.9240     3.5940     0.4580 C.3   1 <1>   0.3430 
 11 C       -4.6490     1.1320     0.4700 C.3   1 <1>   0.3430 
 12 C       -6.2570     3.4570    -0.3190 C.3   1 <1>   0.1100 
 13 C       -6.0600     1.0330    -0.1580 C.3   1 <1>   0.1100 
 14 N       -6.3560     2.1740    -1.0600 N.3   1 <1>  -0.8100 
 15 C       -7.6800     2.0060    -1.7380 C.3   1 <1>   0.1710 
 16 C       -8.9190     2.1010    -0.8330 C.2   1 <1>   0.5690 
 17 O       -9.1530     1.2010    -0.0610 O.2   1 <1>  -0.5700 
 18 N       -9.7050     3.2080    -0.9060 N.am  1 <1>  -0.7300 
 19 C      -10.9190     3.4380    -0.1050 C.3   1 <1>   0.2200 
 20 C      -12.1080     3.6300    -1.0510 C.3   1 <1>  -0.1600 
 21 C      -10.7040     4.6720     0.7770 C.3   1 <1>  -0.1600 
 22 C      -13.3850     3.9790    -0.2720 C.3   1 <1>  -0.1600 
 23 C      -11.9780     5.0230     1.5590 C.3   1 <1>  -0.1600 
 24 C      -13.1740     5.2130     0.6160 C.3   1 <1>  -0.1600 
 25 H       -0.7880     5.1750    -2.6970 H     1 <1>   0.1500 
 26 H       -2.0820     4.9250     2.0550 H     1 <1>   0.1500 
 27 H       -2.6630     2.6170     1.7840 H     1 <1>   0.0800 
 28 H       -2.0240     1.7530     0.4030 H     1 <1>   0.0800 
 29 H       -0.4470     7.1170    -1.2060 H     1 <1>   0.1500 
 30 H       -1.0950     6.9740     1.1580 H     1 <1>   0.1500 
 31 H       -3.9350     2.4550    -0.8740 H     1 <1>   0.4500 
 32 H       -4.4590     4.5280     0.1850 H     1 <1>   0.0800 
 33 H       -5.1340     3.6280     1.5140 H     1 <1>   0.0800 
 34 H       -4.7310     0.9990     1.5360 H     1 <1>   0.0800 
 35 H       -4.0430     0.3290     0.0840 H     1 <1>   0.0800 
 36 H       -6.3390     4.2740    -1.0150 H     1 <1>   0.0800 
 37 H       -7.0690     3.5470     0.3830 H     1 <1>   0.0800 
 38 H       -6.7850     0.9920     0.6380 H     1 <1>   0.0800 
 39 H       -6.1350     0.1080    -0.7050 H     1 <1>   0.0800 
 40 H       -7.7030     1.0480    -2.2250 H     1 <1>   0.0800 
 41 H       -7.7650     2.7500    -2.5090 H     1 <1>   0.0800 
 42 H       -9.5120     3.9370    -1.5920 H     1 <1>   0.3700 
 43 H      -11.1090     2.5840     0.5270 H     1 <1>   0.0800 
 44 H      -12.2710     2.7220    -1.6060 H     1 <1>   0.0800 
 45 H      -11.8960     4.4240    -1.7450 H     1 <1>   0.0800 
 46 H      -10.4310     5.5120     0.1630 H     1 <1>   0.0800 
 47 H       -9.9060     4.4780     1.4710 H     1 <1>   0.0800 
 48 H      -13.6670     3.1410     0.3430 H     1 <1>   0.0800 
 49 H      -14.1900     4.1650    -0.9630 H     1 <1>   0.0800 
 50 H      -11.8180     5.9250     2.1250 H     1 <1>   0.0800 
 51 H      -12.1970     4.2320     2.2560 H     1 <1>   0.0800 
 52 H      -14.0630     5.3950     1.1950 H     1 <1>   0.0800 
 53 H      -13.0050     6.0750    -0.0060 H     1 <1>   0.0800 
@<TRIPOS>BOND
  1   1   2  1   
  2   2   3  ar  
  3   2   4  ar  
  4   3   5  ar  
  5   3   6  1   
  6   4   7  ar  
  7   4  25  1   
  8   5   8  ar  
  9   5  26  1   
 10   6   9  1   
 11   6  27  1   
 12   6  28  1   
 13   7   8  ar  
 14   7  29  1   
 15   8  30  1   
 16   9  10  1   
 17   9  11  1   
 18   9  31  1   
 19  10  12  1   
 20  10  32  1   
 21  10  33  1   
 22  11  13  1   
 23  11  34  1   
 24  11  35  1   
 25  12  14  1   
 26  12  36  1   
 27  12  37  1   
 28  13  14  1   
 29  13  38  1   
 30  13  39  1   
 31  14  15  1   
 32  15  16  1   
 33  15  40  1   
 34  15  41  1   
 35  16  17  2   
 36  16  18  am  
 37  18  19  1   
 38  18  42  1   
 39  19  20  1   
 40  19  21  1   
 41  19  43  1   
 42  20  22  1   
 43  20  44  1   
 44  20  45  1   
 45  21  23  1   
 46  21  46  1   
 47  21  47  1   
 48  22  24  1   
 49  22  48  1   
 50  22  49  1   
 51  23  24  1   
 52  23  50  1   
 53  23  51  1   
 54  24  52  1   
 55  24  53  1   
@<TRIPOS>SUBSTRUCTURE
  1 ****  12 GROUP 4 **** **** 0

# MOE 2024.06 (io_trps.svl 2023.06)
