@<TRIPOS>MOLECULE
NONAME
52 54 1 0 0 
SMALL
USER_CHARGES


@<TRIPOS>ATOM
  1 N       -0.7380     0.2810    -0.2830 N.4   1 <1>  -0.9590 
  2 C       -1.9230     1.0970    -0.6790 C.3   1 <1>   0.3430 
  3 C       -1.0290    -0.6660     0.8370 C.3   1 <1>   0.3430 
  4 C        0.4040     1.1870     0.0520 C.3   1 <1>   0.3430 
  5 C       -3.0830     0.1830    -1.0750 C.3   1 <1>  -0.1600 
  6 C       -2.1830    -1.5960     0.4560 C.3   1 <1>  -0.1600 
  7 C        1.7240     0.4120     0.0490 C.3   1 <1>  -0.1600 
  8 C       -3.4230    -0.7850     0.0600 C.3   1 <1>   0.4230 
  9 C        2.9080     1.3580     0.2730 C.3   1 <1>  -0.2400 
 10 N       -4.5760    -1.6520    -0.3290 N.4   1 <1>  -0.9590 
 11 C       -5.2120    -2.3360     0.8420 C.3   1 <1>   0.4860 
 12 C       -4.3260    -2.6380    -1.4390 C.3   1 <1>   0.2630 
 13 C       -6.6010    -2.7620     0.4200 C.ar  1 <1>  -0.1440 
 14 C       -7.6130    -1.7850     0.2310 C.ar  1 <1>   0.0000 
 15 C       -6.8530    -4.0910     0.1970 C.ar  1 <1>  -0.1500 
 16 C       -8.8630    -2.2110    -0.2720 C.ar  1 <1>   0.0000 
 17 C       -7.4560    -0.4060     0.5180 C.ar  1 <1>  -0.1500 
 18 C       -8.1050    -4.5060    -0.2630 C.ar  1 <1>  -0.1500 
 19 C       -9.0820    -3.5830    -0.5000 C.ar  1 <1>  -0.1500 
 20 C       -9.8660    -1.2550    -0.5290 C.ar  1 <1>  -0.1500 
 21 C       -8.4510     0.4980     0.2670 C.ar  1 <1>  -0.1500 
 22 C       -9.6670     0.0710    -0.2710 C.ar  1 <1>  -0.1500 
 23 H       -0.4280    -0.2620    -1.1030 H     1 <1>   0.4500 
 24 H       -1.6670     1.7350    -1.5120 H     1 <1>   0.0800 
 25 H       -2.2200     1.7290     0.1440 H     1 <1>   0.0800 
 26 H       -1.2850    -0.1100     1.7250 H     1 <1>   0.0800 
 27 H       -0.1540    -1.2580     1.0570 H     1 <1>   0.0800 
 28 H        0.2520     1.6460     1.0160 H     1 <1>   0.0800 
 29 H        0.4720     1.9730    -0.6840 H     1 <1>   0.0800 
 30 H       -2.8110    -0.3450    -1.9710 H     1 <1>   0.0800 
 31 H       -3.9380     0.7990    -1.2940 H     1 <1>   0.0800 
 32 H       -2.4030    -2.2180     1.3060 H     1 <1>   0.0800 
 33 H       -1.8560    -2.2290    -0.3490 H     1 <1>   0.0800 
 34 H        1.8600    -0.0810    -0.8980 H     1 <1>   0.0800 
 35 H        1.7350    -0.3260     0.8310 H     1 <1>   0.0800 
 36 H       -3.7210    -0.1940     0.9130 H     1 <1>   0.0800 
 37 H        2.9610     2.1010    -0.5050 H     1 <1>   0.0800 
 38 H        3.8300     0.8010     0.2650 H     1 <1>   0.0800 
 39 H        2.8280     1.8580     1.2230 H     1 <1>   0.0800 
 40 H       -5.3350    -1.0420    -0.6750 H     1 <1>   0.4500 
 41 H       -5.2880    -1.6670     1.6830 H     1 <1>   0.0800 
 42 H       -4.6330    -3.1960     1.1370 H     1 <1>   0.0800 
 43 H       -3.6140    -3.3860    -1.1320 H     1 <1>   0.0800 
 44 H       -3.9510    -2.1380    -2.3160 H     1 <1>   0.0800 
 45 H       -5.2450    -3.1360    -1.7090 H     1 <1>   0.0800 
 46 H       -6.1060    -4.8510     0.3570 H     1 <1>   0.1500 
 47 H       -6.5510    -0.0430     0.9600 H     1 <1>   0.1500 
 48 H       -8.2870    -5.5550    -0.4300 H     1 <1>   0.1500 
 49 H      -10.0450    -3.8960    -0.8620 H     1 <1>   0.1500 
 50 H      -10.8050    -1.5910    -0.9330 H     1 <1>   0.1500 
 51 H       -8.3280     1.5460     0.4860 H     1 <1>   0.1500 
 52 H      -10.4400     0.7950    -0.4680 H     1 <1>   0.1500 
@<TRIPOS>BOND
  1   1   2  1   
  2   1   3  1   
  3   1   4  1   
  4   1  23  1   
  5   2   5  1   
  6   2  24  1   
  7   2  25  1   
  8   3   6  1   
  9   3  26  1   
 10   3  27  1   
 11   4   7  1   
 12   4  28  1   
 13   4  29  1   
 14   5   8  1   
 15   5  30  1   
 16   5  31  1   
 17   6   8  1   
 18   6  32  1   
 19   6  33  1   
 20   7   9  1   
 21   7  34  1   
 22   7  35  1   
 23   8  10  1   
 24   8  36  1   
 25   9  37  1   
 26   9  38  1   
 27   9  39  1   
 28  10  11  1   
 29  10  12  1   
 30  10  40  1   
 31  11  13  1   
 32  11  41  1   
 33  11  42  1   
 34  12  43  1   
 35  12  44  1   
 36  12  45  1   
 37  13  14  ar  
 38  13  15  ar  
 39  14  16  ar  
 40  14  17  ar  
 41  15  18  ar  
 42  15  46  1   
 43  16  19  ar  
 44  16  20  ar  
 45  17  21  ar  
 46  17  47  1   
 47  18  19  ar  
 48  18  48  1   
 49  19  49  1   
 50  20  22  ar  
 51  20  50  1   
 52  21  22  ar  
 53  21  51  1   
 54  22  52  1   
@<TRIPOS>SUBSTRUCTURE
  1 ****  10 GROUP 4 **** **** 0

# MOE 2024.06 (io_trps.svl 2023.06)
