@<TRIPOS>MOLECULE
NONAME
34 35 1 0 0 
SMALL
USER_CHARGES


@<TRIPOS>ATOM
  1 O       -0.0340    -0.8520     2.0380 O.2   1 <1>  -0.5700 
  2 C       -0.0890    -1.7890     1.2630 C.2   1 <1>   0.5440 
  3 N        1.0890    -2.3410     0.8050 N.am  1 <1>  -0.6600 
  4 C       -1.3810    -2.2950     0.8570 C.ar  1 <1>   0.0860 
  5 C        2.4090    -1.7950     1.2630 C.3   1 <1>   0.1400 
  6 C        1.1370    -3.4690    -0.1800 C.3   1 <1>   0.1400 
  7 C       -1.9340    -2.0810    -0.4160 C.ar  1 <1>   0.0830 
  8 C       -2.1170    -3.0620     1.7610 C.ar  1 <1>  -0.1500 
  9 C        3.5650    -2.7890     1.0650 C.3   1 <1>   0.1400 
 10 C        2.3580    -3.3600    -1.1070 C.3   1 <1>   0.1400 
 11 O       -1.3370    -1.3360    -1.3750 O.3   1 <1>  -0.3630 
 12 C       -3.1460    -2.6570    -0.7620 C.ar  1 <1>  -0.1500 
 13 C       -3.3320    -3.6230     1.4170 C.ar  1 <1>  -0.1500 
 14 N        3.6350    -3.3020    -0.3390 N.am  1 <1>  -0.6600 
 15 C       -0.8410    -0.0480    -1.0680 C.3   1 <1>   0.0400 
 16 C       -3.8470    -3.4260     0.1480 C.ar  1 <1>  -0.1500 
 17 C        4.8180    -3.7090    -0.8820 C.2   1 <1>   0.5700 
 18 O        5.8670    -3.6920    -0.2830 O.2   1 <1>  -0.5700 
 19 H        2.3480    -1.5350     2.3050 H     1 <1>   0.0800 
 20 H        2.6220    -0.8950     0.7130 H     1 <1>   0.0800 
 21 H        0.2510    -3.4770    -0.7880 H     1 <1>   0.0800 
 22 H        1.1810    -4.4010     0.3550 H     1 <1>   0.0800 
 23 H       -1.7190    -3.2170     2.7500 H     1 <1>   0.1500 
 24 H        3.4330    -3.6210     1.7350 H     1 <1>   0.0800 
 25 H        4.4930    -2.3070     1.3210 H     1 <1>   0.0800 
 26 H        2.2640    -2.4680    -1.7020 H     1 <1>   0.0800 
 27 H        2.3760    -4.2060    -1.7720 H     1 <1>   0.0800 
 28 H       -3.5420    -2.4930    -1.7480 H     1 <1>   0.1500 
 29 H       -3.8790    -4.2140     2.1330 H     1 <1>   0.1500 
 30 H       -0.8940     0.5530    -1.9570 H     1 <1>   0.0800 
 31 H        0.1820    -0.1310    -0.7490 H     1 <1>   0.0800 
 32 H       -1.4440     0.3920    -0.2920 H     1 <1>   0.0800 
 33 H       -4.7900    -3.8660    -0.1280 H     1 <1>   0.1500 
 34 H        4.8160    -4.0640    -1.8980 H     1 <1>   0.0600 
@<TRIPOS>BOND
  1   1   2  2   
  2   2   3  am  
  3   2   4  1   
  4   3   5  1   
  5   3   6  1   
  6   4   7  ar  
  7   4   8  ar  
  8   5   9  1   
  9   5  19  1   
 10   5  20  1   
 11   6  10  1   
 12   6  21  1   
 13   6  22  1   
 14   7  11  1   
 15   7  12  ar  
 16   8  13  ar  
 17   8  23  1   
 18   9  14  1   
 19   9  24  1   
 20   9  25  1   
 21  10  14  1   
 22  10  26  1   
 23  10  27  1   
 24  11  15  1   
 25  12  16  ar  
 26  12  28  1   
 27  13  16  ar  
 28  13  29  1   
 29  14  17  am  
 30  15  30  1   
 31  15  31  1   
 32  15  32  1   
 33  16  33  1   
 34  17  18  2   
 35  17  34  1   
@<TRIPOS>SUBSTRUCTURE
  1 ****   3 GROUP 4 **** **** 0

# MOE 2024.06 (io_trps.svl 2023.06)
