@<TRIPOS>MOLECULE
NONAME
44 47 1 0 0 
SMALL
USER_CHARGES


@<TRIPOS>ATOM
  1 O       -1.0340    -0.7480     1.2400 O.2   1 <1>  -0.5700 
  2 C       -0.1470    -1.5630     1.0290 C.2   1 <1>   0.5440 
  3 N       -0.4840    -2.8930     0.8940 N.am  1 <1>  -0.4200 
  4 C        1.2210    -1.1710     0.8850 C.ar  1 <1>   0.0860 
  5 C        0.4670    -3.7980     0.4090 C.2   1 <1>   0.5950 
  6 C       -1.7810    -3.3690     1.4910 C.3   1 <1>   0.1400 
  7 C        2.1180    -2.1670     0.4960 C.ar  1 <1>   0.1790 
  8 C        1.6950     0.1240     1.1100 C.ar  1 <1>  -0.1500 
  9 N        1.7010    -3.4500     0.2460 N.2   1 <1>  -0.6290 
 10 C        0.1020    -5.1580     0.0620 C.2   1 <1>   0.0550 
 11 C       -2.9580    -3.2780     0.4960 C.3   1 <1>   0.3430 
 12 C        3.4650    -1.8500     0.3440 C.ar  1 <1>  -0.1500 
 13 C        3.0330     0.4240     0.9540 C.ar  1 <1>  -0.1500 
 14 O       -1.1240    -5.4970    -0.3400 O.3   1 <1>  -0.2800 
 15 C        0.8780    -6.2780     0.0370 C.2   1 <1>  -0.1500 
 16 N       -3.2740    -1.8660     0.1250 N.4   1 <1>  -0.9590 
 17 C        3.9220    -0.5680     0.5700 C.ar  1 <1>  -0.1500 
 18 C       -1.1440    -6.7850    -0.6090 C.2   1 <1>  -0.0100 
 19 C        0.0700    -7.3300    -0.3930 C.2   1 <1>  -0.1500 
 20 C       -4.2120    -1.1980     1.0900 C.3   1 <1>   0.3430 
 21 C       -3.7610    -1.7270    -1.2870 C.3   1 <1>   0.3430 
 22 C       -4.5280     0.2420     0.6460 C.3   1 <1>   0.1200 
 23 C       -4.1090    -0.2620    -1.6160 C.3   1 <1>   0.1200 
 24 O       -5.0050     0.2480    -0.6700 O.3   1 <1>  -0.5600 
 25 H       -2.0070    -2.7900     2.3690 H     1 <1>   0.0800 
 26 H       -1.6730    -4.3870     1.8210 H     1 <1>   0.0800 
 27 H        1.0060     0.8950     1.4100 H     1 <1>   0.1500 
 28 H       -3.8300    -3.7420     0.9270 H     1 <1>   0.0800 
 29 H       -2.6980    -3.8340    -0.3890 H     1 <1>   0.0800 
 30 H        4.1470    -2.6250     0.0440 H     1 <1>   0.1500 
 31 H        3.3920     1.4250     1.1300 H     1 <1>   0.1500 
 32 H        1.9220    -6.3540     0.2890 H     1 <1>   0.1500 
 33 H       -2.3870    -1.3270     0.2090 H     1 <1>   0.4500 
 34 H        4.9670    -0.3350     0.4480 H     1 <1>   0.1500 
 35 H       -2.0560    -7.2440    -0.9520 H     1 <1>   0.1500 
 36 H        0.3830    -8.3520    -0.5200 H     1 <1>   0.1500 
 37 H       -3.7700    -1.1720     2.0730 H     1 <1>   0.0800 
 38 H       -5.1360    -1.7490     1.1490 H     1 <1>   0.0800 
 39 H       -4.6450    -2.3270    -1.4300 H     1 <1>   0.0800 
 40 H       -3.0070    -2.0750    -1.9730 H     1 <1>   0.0800 
 41 H       -3.6510     0.8650     0.7030 H     1 <1>   0.0800 
 42 H       -5.2920     0.6660     1.2740 H     1 <1>   0.0800 
 43 H       -4.5810    -0.1990    -2.5810 H     1 <1>   0.0800 
 44 H       -3.2260     0.3540    -1.6250 H     1 <1>   0.0800 
@<TRIPOS>BOND
  1   1   2  2   
  2   2   3  am  
  3   2   4  1   
  4   3   5  1   
  5   3   6  1   
  6   4   7  ar  
  7   4   8  ar  
  8   5   9  2   
  9   5  10  1   
 10   6  11  1   
 11   6  25  1   
 12   6  26  1   
 13   7   9  1   
 14   7  12  ar  
 15   8  13  ar  
 16   8  27  1   
 17  10  14  1   
 18  10  15  2   
 19  11  16  1   
 20  11  28  1   
 21  11  29  1   
 22  12  17  ar  
 23  12  30  1   
 24  13  17  ar  
 25  13  31  1   
 26  14  18  1   
 27  15  19  1   
 28  15  32  1   
 29  16  20  1   
 30  16  21  1   
 31  16  33  1   
 32  17  34  1   
 33  18  19  2   
 34  18  35  1   
 35  19  36  1   
 36  20  22  1   
 37  20  37  1   
 38  20  38  1   
 39  21  23  1   
 40  21  39  1   
 41  21  40  1   
 42  22  24  1   
 43  22  41  1   
 44  22  42  1   
 45  23  24  1   
 46  23  43  1   
 47  23  44  1   
@<TRIPOS>SUBSTRUCTURE
  1 ****   3 GROUP 4 **** **** 0

# MOE 2024.06 (io_trps.svl 2023.06)
