@<TRIPOS>MOLECULE
NONAME
47 50 1 0 0 
SMALL
USER_CHARGES


@<TRIPOS>ATOM
  1 O        0.4840    -0.3820    -1.1770 O.2   1 <1>  -0.5700 
  2 C        0.9330    -1.0130    -0.2390 C.2   1 <1>   0.6900 
  3 N        2.2190    -0.7980     0.1830 N.am  1 <1>  -0.6600 
  4 N        0.1820    -1.9650     0.3880 N.am  1 <1>  -0.5470 
  5 C        3.1740     0.0240    -0.6280 C.3   1 <1>   0.1400 
  6 C        2.7670    -1.1780     1.5250 C.3   1 <1>   0.1400 
  7 C       -1.1800    -2.2810     0.2740 C.ar  1 <1>   0.1170 
  8 C        4.5540    -0.6490    -0.7240 C.3   1 <1>   0.2090 
  9 C        4.1470    -1.8470     1.3990 C.3   1 <1>   0.2090 
 10 C       -2.1330    -1.3320    -0.0980 C.ar  1 <1>  -0.1500 
 11 C       -1.5940    -3.5850     0.5670 C.ar  1 <1>  -0.1500 
 12 N        5.0890    -0.9840     0.6300 N.pl3 1 <1>  -0.8380 
 13 C       -3.4560    -1.7170    -0.1660 C.ar  1 <1>   0.0820 
 14 C       -2.9310    -3.9560     0.4930 C.ar  1 <1>  -0.1500 
 15 C        6.4320    -1.3880     0.6600 C.ar  1 <1>   0.1000 
 16 O       -4.5200    -0.9760    -0.4960 O.3   1 <1>  -0.3630 
 17 C       -3.8450    -2.9920     0.1200 C.ar  1 <1>   0.0820 
 18 C        6.9140    -2.5830     0.0940 C.ar  1 <1>   0.0820 
 19 C        7.3310    -0.5420     1.2930 C.ar  1 <1>  -0.1500 
 20 C       -5.6550    -1.8350    -0.4260 C.3   1 <1>   0.4000 
 21 O       -5.1720    -3.1150    -0.0180 O.3   1 <1>  -0.3630 
 22 O        6.0240    -3.4150    -0.5330 O.3   1 <1>  -0.3630 
 23 C        8.2690    -2.8890     0.1850 C.ar  1 <1>  -0.1500 
 24 C        8.6760    -0.8520     1.3770 C.ar  1 <1>  -0.1500 
 25 C        6.4600    -4.5370    -1.2680 C.3   1 <1>   0.0400 
 26 C        9.1450    -2.0270     0.8230 C.ar  1 <1>  -0.1500 
 27 H        0.7430    -2.6160     0.9230 H     1 <1>   0.3700 
 28 H        3.2850     0.9890    -0.1680 H     1 <1>   0.0800 
 29 H        2.7910     0.1720    -1.6220 H     1 <1>   0.0800 
 30 H        2.0990    -1.8370     2.0460 H     1 <1>   0.0800 
 31 H        2.8750    -0.2860     2.1180 H     1 <1>   0.0800 
 32 H        5.2410     0.0120    -1.2230 H     1 <1>   0.0800 
 33 H        4.4680    -1.5460    -1.3130 H     1 <1>   0.0800 
 34 H        4.0380    -2.7960     0.9040 H     1 <1>   0.0800 
 35 H        4.5540    -2.0250     2.3790 H     1 <1>   0.0800 
 36 H       -1.8570    -0.3210    -0.3280 H     1 <1>   0.1500 
 37 H       -0.8650    -4.3200     0.8520 H     1 <1>   0.1500 
 38 H       -3.2580    -4.9560     0.7130 H     1 <1>   0.1500 
 39 H        6.9590     0.3700     1.7230 H     1 <1>   0.1500 
 40 H       -6.1060    -1.9140    -1.3980 H     1 <1>   0.0800 
 41 H       -6.3460    -1.4600     0.3070 H     1 <1>   0.0800 
 42 H        8.6690    -3.7930    -0.2310 H     1 <1>   0.1500 
 43 H        9.3530    -0.1790     1.8740 H     1 <1>   0.1500 
 44 H        5.5990    -4.9880    -1.7280 H     1 <1>   0.0800 
 45 H        6.9220    -5.2370    -0.5960 H     1 <1>   0.0800 
 46 H        7.1510    -4.2120    -2.0250 H     1 <1>   0.0800 
 47 H       10.1910    -2.2720     0.8880 H     1 <1>   0.1500 
@<TRIPOS>BOND
  1   1   2  2   
  2   2   3  am  
  3   2   4  am  
  4   3   5  1   
  5   3   6  1   
  6   4   7  1   
  7   4  27  1   
  8   5   8  1   
  9   5  28  1   
 10   5  29  1   
 11   6   9  1   
 12   6  30  1   
 13   6  31  1   
 14   7  10  ar  
 15   7  11  ar  
 16   8  12  1   
 17   8  32  1   
 18   8  33  1   
 19   9  12  1   
 20   9  34  1   
 21   9  35  1   
 22  10  13  ar  
 23  10  36  1   
 24  11  14  ar  
 25  11  37  1   
 26  12  15  1   
 27  13  16  1   
 28  13  17  ar  
 29  14  17  ar  
 30  14  38  1   
 31  15  18  ar  
 32  15  19  ar  
 33  16  20  1   
 34  17  21  1   
 35  18  22  1   
 36  18  23  ar  
 37  19  24  ar  
 38  19  39  1   
 39  20  21  1   
 40  20  40  1   
 41  20  41  1   
 42  22  25  1   
 43  23  26  ar  
 44  23  42  1   
 45  24  26  ar  
 46  24  43  1   
 47  25  44  1   
 48  25  45  1   
 49  25  46  1   
 50  26  47  1   
@<TRIPOS>SUBSTRUCTURE
  1 ****   3 GROUP 4 **** **** 0

# MOE 2024.06 (io_trps.svl 2023.06)
