@<TRIPOS>MOLECULE
NONAME
47 48 1 0 0 
SMALL
USER_CHARGES


@<TRIPOS>ATOM
  1 S        0.4340    -0.8100    -0.1000 S.o2  1 <1>   1.4470 
  2 O        1.4030     0.2610    -0.1620 O.2   1 <1>  -0.6500 
  3 O        0.7370    -2.0090    -0.8510 O.2   1 <1>  -0.6500 
  4 N        0.5430    -1.2720     1.5100 N.am  1 <1>  -0.9140 
  5 C       -1.2730    -0.2240    -0.3180 C.ar  1 <1>  -0.0090 
  6 C        1.6080    -2.2260     1.8740 C.3   1 <1>   0.1960 
  7 C       -2.3850    -1.0680    -0.2770 C.ar  1 <1>  -0.1430 
  8 C       -1.4950     1.1350    -0.5220 C.ar  1 <1>  -0.1500 
  9 C        3.0450    -1.8160     1.4570 C.3   1 <1>   0.3430 
 10 C       -3.6610    -0.5500    -0.4360 C.ar  1 <1>  -0.1500 
 11 C       -2.2430    -2.5710    -0.0620 C.3   1 <1>  -0.0960 
 12 C       -2.7660     1.6590    -0.6810 C.ar  1 <1>  -0.1430 
 13 N        3.3740    -2.1630     0.0360 N.4   1 <1>  -0.9590 
 14 C       -3.8630     0.8110    -0.6380 C.ar  1 <1>   0.0830 
 15 C       -2.9510     3.1540    -0.9030 C.3   1 <1>  -0.0970 
 16 C        3.9630    -3.5330    -0.1550 C.3   1 <1>   0.3430 
 17 C        4.1910    -1.1110    -0.6500 C.3   1 <1>   0.3430 
 18 O       -5.0950     1.3620    -0.7970 O.3   1 <1>  -0.3630 
 19 C        4.5840    -3.7110    -1.5590 C.3   1 <1>   0.1200 
 20 C        4.3680    -1.4330    -2.1520 C.3   1 <1>   0.1200 
 21 C       -6.2700     0.5840    -0.7770 C.3   1 <1>   0.0400 
 22 O        4.0640    -2.7710    -2.4540 O.3   1 <1>  -0.5600 
 23 H        0.6570    -0.3960     2.0210 H     1 <1>   0.4200 
 24 H        1.3770    -3.1930     1.4600 H     1 <1>   0.0800 
 25 H        1.5910    -2.3310     2.9450 H     1 <1>   0.0800 
 26 H       -0.6510     1.8030    -0.5590 H     1 <1>   0.1500 
 27 H        3.7510    -2.3080     2.1060 H     1 <1>   0.0800 
 28 H        3.1490    -0.7540     1.6080 H     1 <1>   0.0800 
 29 H       -4.5000    -1.2190    -0.4030 H     1 <1>   0.1500 
 30 H       -1.7040    -2.7740     0.8460 H     1 <1>   0.0800 
 31 H       -1.7210    -3.0170    -0.8900 H     1 <1>   0.0800 
 32 H       -3.2050    -3.0450     0.0150 H     1 <1>   0.0800 
 33 H        2.4880    -2.1870    -0.5170 H     1 <1>   0.4500 
 34 H       -2.0080     3.6700    -0.9140 H     1 <1>   0.0800 
 35 H       -3.5580     3.5650    -0.1160 H     1 <1>   0.0800 
 36 H       -3.4460     3.3230    -1.8420 H     1 <1>   0.0800 
 37 H        3.1910    -4.2730    -0.0250 H     1 <1>   0.0800 
 38 H        4.7230    -3.7210     0.5840 H     1 <1>   0.0800 
 39 H        5.1630    -1.0460    -0.1900 H     1 <1>   0.0800 
 40 H        3.7190    -0.1460    -0.5530 H     1 <1>   0.0800 
 41 H        4.3650    -4.6930    -1.9420 H     1 <1>   0.0800 
 42 H        5.6540    -3.5930    -1.5240 H     1 <1>   0.0800 
 43 H        5.3780    -1.2320    -2.4650 H     1 <1>   0.0800 
 44 H        3.7070    -0.8170    -2.7370 H     1 <1>   0.0800 
 45 H       -7.1070     1.2410    -0.9260 H     1 <1>   0.0800 
 46 H       -6.3520     0.0990     0.1800 H     1 <1>   0.0800 
 47 H       -6.2260    -0.1370    -1.5740 H     1 <1>   0.0800 
@<TRIPOS>BOND
  1   1   2  2   
  2   1   3  2   
  3   1   4  am  
  4   1   5  1   
  5   4   6  1   
  6   4  23  1   
  7   5   7  ar  
  8   5   8  ar  
  9   6   9  1   
 10   6  24  1   
 11   6  25  1   
 12   7  10  ar  
 13   7  11  1   
 14   8  12  ar  
 15   8  26  1   
 16   9  13  1   
 17   9  27  1   
 18   9  28  1   
 19  10  14  ar  
 20  10  29  1   
 21  11  30  1   
 22  11  31  1   
 23  11  32  1   
 24  12  14  ar  
 25  12  15  1   
 26  13  16  1   
 27  13  17  1   
 28  13  33  1   
 29  14  18  1   
 30  15  34  1   
 31  15  35  1   
 32  15  36  1   
 33  16  19  1   
 34  16  37  1   
 35  16  38  1   
 36  17  20  1   
 37  17  39  1   
 38  17  40  1   
 39  18  21  1   
 40  19  22  1   
 41  19  41  1   
 42  19  42  1   
 43  20  22  1   
 44  20  43  1   
 45  20  44  1   
 46  21  45  1   
 47  21  46  1   
 48  21  47  1   
@<TRIPOS>SUBSTRUCTURE
  1 ****   1 GROUP 4 **** **** 0

# MOE 2024.06 (io_trps.svl 2023.06)
