@<TRIPOS>MOLECULE
NONAME
32 32 1 0 0 
SMALL
USER_CHARGES


@<TRIPOS>ATOM
  1 O       -0.3570     0.1200    -0.5430 O.2   1 <1>  -0.5700 
  2 C       -0.2220    -1.0020    -0.1190 C.2   1 <1>   0.5690 
  3 N        0.9760    -1.5580     0.2380 N.am  1 <1>  -0.5470 
  4 C       -1.4650    -1.8740     0.0350 C.3   1 <1>   0.1810 
  5 C        2.2980    -1.0880     0.2400 C.ar  1 <1>   0.1170 
  6 O       -1.1460    -3.1530     0.5400 O.3   1 <1>  -0.5600 
  7 C        3.3010    -1.9430     0.6800 C.ar  1 <1>  -0.1500 
  8 C        2.6630     0.1880    -0.1740 C.ar  1 <1>  -0.1500 
  9 C       -2.2510    -3.9850     0.6980 C.3   1 <1>   0.0400 
 10 C        4.6240    -1.5400     0.7060 C.ar  1 <1>  -0.1500 
 11 C        3.9850     0.5930    -0.1490 C.ar  1 <1>  -0.1500 
 12 C        4.9820    -0.2660     0.2920 C.ar  1 <1>  -0.1430 
 13 C        6.4460     0.1660     0.3260 C.3   1 <1>   0.0630 
 14 C        6.6440     1.3540     1.2730 C.3   1 <1>  -0.2400 
 15 C        6.9500     0.5020    -1.0820 C.3   1 <1>  -0.2400 
 16 H        0.8480    -2.5180     0.5700 H     1 <1>   0.3700 
 17 H       -1.9330    -1.9890    -0.9250 H     1 <1>   0.0800 
 18 H       -2.1470    -1.3940     0.7140 H     1 <1>   0.0800 
 19 H        3.0470    -2.9340     1.0060 H     1 <1>   0.1500 
 20 H        1.9170     0.8780    -0.5210 H     1 <1>   0.1500 
 21 H       -1.9080    -4.9280     1.0850 H     1 <1>   0.0800 
 22 H       -2.7230    -4.1360    -0.2570 H     1 <1>   0.0800 
 23 H       -2.9380    -3.5370     1.3950 H     1 <1>   0.0800 
 24 H        5.3760    -2.2270     1.0520 H     1 <1>   0.1500 
 25 H        4.2320     1.5870    -0.4760 H     1 <1>   0.1500 
 26 H        7.0390    -0.6520     0.6990 H     1 <1>   0.0800 
 27 H        6.1110     2.2180     0.9190 H     1 <1>   0.0800 
 28 H        7.6870     1.6010     1.3490 H     1 <1>   0.0800 
 29 H        6.2780     1.1040     2.2520 H     1 <1>   0.0800 
 30 H        6.4230     1.3480    -1.4850 H     1 <1>   0.0800 
 31 H        6.7960    -0.3390    -1.7340 H     1 <1>   0.0800 
 32 H        8.0000     0.7300    -1.0580 H     1 <1>   0.0800 
@<TRIPOS>BOND
  1   1   2  2   
  2   2   3  am  
  3   2   4  1   
  4   3   5  1   
  5   3  16  1   
  6   4   6  1   
  7   4  17  1   
  8   4  18  1   
  9   5   7  ar  
 10   5   8  ar  
 11   6   9  1   
 12   7  10  ar  
 13   7  19  1   
 14   8  11  ar  
 15   8  20  1   
 16   9  21  1   
 17   9  22  1   
 18   9  23  1   
 19  10  12  ar  
 20  10  24  1   
 21  11  12  ar  
 22  11  25  1   
 23  12  13  1   
 24  13  14  1   
 25  13  15  1   
 26  13  26  1   
 27  14  27  1   
 28  14  28  1   
 29  14  29  1   
 30  15  30  1   
 31  15  31  1   
 32  15  32  1   
@<TRIPOS>SUBSTRUCTURE
  1 ****   5 GROUP 4 **** **** 0

# MOE 2024.06 (io_trps.svl 2023.06)
