@<TRIPOS>MOLECULE
NONAME
42 43 1 0 0 
SMALL
USER_CHARGES


@<TRIPOS>ATOM
  1 CL      -0.2480     0.3740    -0.1720 Cl    1 <1>  -0.1770 
  2 C        1.3730     1.0230    -0.1580 C.ar  1 <1>   0.1770 
  3 C        1.5670     2.3560     0.1480 C.ar  1 <1>  -0.1500 
  4 C        2.4360     0.1930    -0.4540 C.ar  1 <1>  -0.1500 
  5 C        2.8510     2.8790     0.1620 C.ar  1 <1>  -0.1440 
  6 C        3.7210     0.7070    -0.4420 C.ar  1 <1>  -0.1500 
  7 C        3.9350     2.0520    -0.1340 C.ar  1 <1>   0.0830 
  8 C        3.0550     4.3490     0.5000 C.3   1 <1>  -0.0960 
  9 O        5.1730     2.6130    -0.1050 O.3   1 <1>  -0.3630 
 10 C        6.3370     1.8580    -0.3280 C.3   1 <1>   0.1200 
 11 C        7.5260     2.8150    -0.2000 C.3   1 <1>   0.3430 
 12 N        8.8460     2.1340    -0.3970 N.4   1 <1>  -0.9590 
 13 C        9.2050     1.1500     0.6800 C.3   1 <1>   0.3430 
 14 C        9.9700     3.1250    -0.5530 C.3   1 <1>   0.3430 
 15 C       10.4970     0.3750     0.3100 C.3   1 <1>   0.2000 
 16 C       11.3710     2.4560    -0.5160 C.3   1 <1>   0.2000 
 17 O       11.2570     1.0640    -0.6510 O.3   1 <1>  -0.5600 
 18 C       10.1820    -0.9880    -0.3030 C.3   1 <1>  -0.2400 
 19 C       12.1740     2.7860     0.7490 C.3   1 <1>  -0.2400 
 20 H        0.7130     2.9690     0.3720 H     1 <1>   0.1500 
 21 H        2.2520    -0.8400    -0.6890 H     1 <1>   0.1500 
 22 H        4.5300     0.0440    -0.6780 H     1 <1>   0.1500 
 23 H        2.1180     4.8350     0.7010 H     1 <1>   0.0800 
 24 H        3.5290     4.8510    -0.3250 H     1 <1>   0.0800 
 25 H        3.6800     4.4420     1.3700 H     1 <1>   0.0800 
 26 H        6.2830     1.4440    -1.3200 H     1 <1>   0.0800 
 27 H        6.3740     1.0830     0.4160 H     1 <1>   0.0800 
 28 H        7.4990     3.2750     0.7740 H     1 <1>   0.0800 
 29 H        7.4100     3.5890    -0.9420 H     1 <1>   0.0800 
 30 H        8.8440     1.5950    -1.2760 H     1 <1>   0.4500 
 31 H        8.4070     0.4450     0.8380 H     1 <1>   0.0800 
 32 H        9.3670     1.6720     1.6080 H     1 <1>   0.0800 
 33 H        9.9240     3.8630     0.2310 H     1 <1>   0.0800 
 34 H        9.8640     3.6480    -1.4890 H     1 <1>   0.0800 
 35 H       11.1060     0.2330     1.1870 H     1 <1>   0.0800 
 36 H       11.9370     2.8000    -1.3660 H     1 <1>   0.0800 
 37 H        9.6030    -0.8810    -1.2030 H     1 <1>   0.0800 
 38 H        9.6320    -1.5960     0.3930 H     1 <1>   0.0800 
 39 H       11.0990    -1.5000    -0.5380 H     1 <1>   0.0800 
 40 H       11.6370     2.5420     1.6460 H     1 <1>   0.0800 
 41 H       12.3990     3.8380     0.7720 H     1 <1>   0.0800 
 42 H       13.1080     2.2510     0.7360 H     1 <1>   0.0800 
@<TRIPOS>BOND
  1   1   2  1   
  2   2   3  ar  
  3   2   4  ar  
  4   3   5  ar  
  5   3  20  1   
  6   4   6  ar  
  7   4  21  1   
  8   5   7  ar  
  9   5   8  1   
 10   6   7  ar  
 11   6  22  1   
 12   7   9  1   
 13   8  23  1   
 14   8  24  1   
 15   8  25  1   
 16   9  10  1   
 17  10  11  1   
 18  10  26  1   
 19  10  27  1   
 20  11  12  1   
 21  11  28  1   
 22  11  29  1   
 23  12  13  1   
 24  12  14  1   
 25  12  30  1   
 26  13  15  1   
 27  13  31  1   
 28  13  32  1   
 29  14  16  1   
 30  14  33  1   
 31  14  34  1   
 32  15  17  1   
 33  15  18  1   
 34  15  35  1   
 35  16  17  1   
 36  16  19  1   
 37  16  36  1   
 38  18  37  1   
 39  18  38  1   
 40  18  39  1   
 41  19  40  1   
 42  19  41  1   
 43  19  42  1   
@<TRIPOS>SUBSTRUCTURE
  1 ****  10 GROUP 4 **** **** 0

# MOE 2024.06 (io_trps.svl 2023.06)
