@<TRIPOS>MOLECULE
NONAME
40 41 1 0 0 
SMALL
USER_CHARGES


@<TRIPOS>ATOM
  1 O       -0.2770     0.3920     0.5390 O.3   1 <1>  -0.3630 
  2 C        0.9690     0.7810     0.1460 C.ar  1 <1>   0.0830 
  3 C       -1.4130     1.1710     0.2430 C.3   1 <1>   0.1200 
  4 C        1.4110     2.1100     0.0170 C.ar  1 <1>   0.0820 
  5 C        1.8400    -0.2590    -0.1350 C.ar  1 <1>  -0.1500 
  6 C       -2.6430     0.2660     0.3180 C.3   1 <1>  -0.1600 
  7 O        0.5740     3.1420     0.3330 O.3   1 <1>  -0.3630 
  8 C        2.7150     2.3450    -0.4190 C.ar  1 <1>  -0.1500 
  9 C        3.1320    -0.0110    -0.5590 C.ar  1 <1>  -0.1500 
 10 C       -3.9240     1.0510     0.0060 C.3   1 <1>  -0.1600 
 11 C        1.0250     4.4770     0.4100 C.3   1 <1>   0.0400 
 12 C        3.5670     1.2920    -0.7050 C.ar  1 <1>  -0.1500 
 13 C       -5.1560     0.1490     0.0820 C.3   1 <1>   0.1200 
 14 O       -6.2890     0.9320    -0.2140 O.3   1 <1>  -0.3630 
 15 C       -7.5340     0.3940    -0.2220 C.ar  1 <1>   0.0830 
 16 C       -8.5800     1.2500    -0.5260 C.ar  1 <1>  -0.1500 
 17 C       -7.8040    -0.9440     0.0550 C.ar  1 <1>  -0.1500 
 18 C       -9.8830     0.7850    -0.5560 C.ar  1 <1>  -0.1500 
 19 C       -9.1080    -1.4080     0.0240 C.ar  1 <1>  -0.1500 
 20 C      -10.1470    -0.5450    -0.2810 C.ar  1 <1>  -0.1500 
 21 H       -1.2980     1.5820    -0.7450 H     1 <1>   0.0800 
 22 H       -1.4790     1.9610     0.9690 H     1 <1>   0.0800 
 23 H        1.4950    -1.2710    -0.0210 H     1 <1>   0.1500 
 24 H       -2.7070    -0.1520     1.3080 H     1 <1>   0.0800 
 25 H       -2.5290    -0.5350    -0.3920 H     1 <1>   0.0800 
 26 H        3.0920     3.3410    -0.5440 H     1 <1>   0.1500 
 27 H        3.7950    -0.8310    -0.7760 H     1 <1>   0.1500 
 28 H       -3.8580     1.4700    -0.9830 H     1 <1>   0.0800 
 29 H       -4.0350     1.8530     0.7150 H     1 <1>   0.0800 
 30 H        0.2090     5.0850     0.7550 H     1 <1>   0.0800 
 31 H        1.3310     4.7990    -0.5700 H     1 <1>   0.0800 
 32 H        1.8410     4.5300     1.1080 H     1 <1>   0.0800 
 33 H        4.5710     1.4880    -1.0390 H     1 <1>   0.1500 
 34 H       -5.2720    -0.2550     1.0720 H     1 <1>   0.0800 
 35 H       -5.0930    -0.6440    -0.6430 H     1 <1>   0.0800 
 36 H       -8.3650     2.2820    -0.7390 H     1 <1>   0.1500 
 37 H       -7.0190    -1.6350     0.2940 H     1 <1>   0.1500 
 38 H      -10.6890     1.4570    -0.7940 H     1 <1>   0.1500 
 39 H       -9.3170    -2.4420     0.2380 H     1 <1>   0.1500 
 40 H      -11.1600    -0.9090    -0.3040 H     1 <1>   0.1500 
@<TRIPOS>BOND
  1   1   2  1   
  2   1   3  1   
  3   2   4  ar  
  4   2   5  ar  
  5   3   6  1   
  6   3  21  1   
  7   3  22  1   
  8   4   7  1   
  9   4   8  ar  
 10   5   9  ar  
 11   5  23  1   
 12   6  10  1   
 13   6  24  1   
 14   6  25  1   
 15   7  11  1   
 16   8  12  ar  
 17   8  26  1   
 18   9  12  ar  
 19   9  27  1   
 20  10  13  1   
 21  10  28  1   
 22  10  29  1   
 23  11  30  1   
 24  11  31  1   
 25  11  32  1   
 26  12  33  1   
 27  13  14  1   
 28  13  34  1   
 29  13  35  1   
 30  14  15  1   
 31  15  16  ar  
 32  15  17  ar  
 33  16  18  ar  
 34  16  36  1   
 35  17  19  ar  
 36  17  37  1   
 37  18  20  ar  
 38  18  38  1   
 39  19  20  ar  
 40  19  39  1   
 41  20  40  1   
@<TRIPOS>SUBSTRUCTURE
  1 ****   6 GROUP 4 **** **** 0

# MOE 2024.06 (io_trps.svl 2023.06)
