@<TRIPOS>MOLECULE
NONAME
35 37 1 0 0 
SMALL
USER_CHARGES


@<TRIPOS>ATOM
  1 CL      -2.1100     3.0300    -2.0780 Cl    1 <1>  -0.1770 
  2 C       -1.2350     3.0790    -0.5630 C.ar  1 <1>   0.1770 
  3 C       -1.7030     2.3990     0.5680 C.ar  1 <1>   0.0530 
  4 C       -0.0620     3.8100    -0.5500 C.ar  1 <1>  -0.1500 
  5 C       -2.9340     1.6420     0.5690 C.2   1 <1>   0.3250 
  6 C       -0.9170     2.4950     1.7210 C.ar  1 <1>  -0.1500 
  7 C        0.6910     3.8850     0.6070 C.ar  1 <1>  -0.1500 
  8 S       -3.0220     0.1730     1.5370 S.3   1 <1>  -0.0800 
  9 N       -4.0410     1.8800    -0.0450 N.2   1 <1>  -0.5650 
 10 C        0.2590     3.2230     1.7420 C.ar  1 <1>  -0.1500 
 11 C       -4.6570    -0.0870     1.0180 C.2   1 <1>  -0.1100 
 12 C       -5.0010     0.9080     0.1880 C.2   1 <1>   0.0460 
 13 C       -6.3360     1.0820    -0.5270 C.3   1 <1>   0.5240 
 14 N       -6.6270     2.5400    -0.5940 N.4   1 <1>  -0.9590 
 15 C       -7.0870     3.0970     0.7210 C.3   1 <1>   0.3430 
 16 C       -7.5330     2.9270    -1.7230 C.3   1 <1>   0.3430 
 17 C       -7.4070     4.5990     0.6070 C.3   1 <1>   0.1200 
 18 C       -7.8300     4.4390    -1.7050 C.3   1 <1>   0.1200 
 19 O       -8.3010     4.8250    -0.4450 O.3   1 <1>  -0.5600 
 20 H        0.2610     4.3160    -1.4430 H     1 <1>   0.1500 
 21 H       -1.2260     1.9990     2.6250 H     1 <1>   0.1500 
 22 H        1.6060     4.4520     0.6240 H     1 <1>   0.1500 
 23 H        0.8430     3.2790     2.6460 H     1 <1>   0.1500 
 24 H       -5.1650    -0.9610     1.3890 H     1 <1>   0.1500 
 25 H       -7.1210     0.5490    -0.0170 H     1 <1>   0.0800 
 26 H       -6.2370     0.6890    -1.5250 H     1 <1>   0.0800 
 27 H       -5.6860     2.9430    -0.7620 H     1 <1>   0.4500 
 28 H       -6.3250     2.9510     1.4700 H     1 <1>   0.0800 
 29 H       -7.9780     2.5850     1.0460 H     1 <1>   0.0800 
 30 H       -8.4680     2.3980    -1.6400 H     1 <1>   0.0800 
 31 H       -7.0820     2.6650    -2.6660 H     1 <1>   0.0800 
 32 H       -6.5140     5.1750     0.4360 H     1 <1>   0.0800 
 33 H       -7.8710     4.9500     1.5130 H     1 <1>   0.0800 
 34 H       -8.5920     4.6770    -2.4260 H     1 <1>   0.0800 
 35 H       -6.9480     5.0120    -1.9370 H     1 <1>   0.0800 
@<TRIPOS>BOND
  1   1   2  1   
  2   2   3  ar  
  3   2   4  ar  
  4   3   5  1   
  5   3   6  ar  
  6   4   7  ar  
  7   4  20  1   
  8   5   8  1   
  9   5   9  2   
 10   6  10  ar  
 11   6  21  1   
 12   7  10  ar  
 13   7  22  1   
 14   8  11  1   
 15   9  12  1   
 16  10  23  1   
 17  11  12  2   
 18  11  24  1   
 19  12  13  1   
 20  13  14  1   
 21  13  25  1   
 22  13  26  1   
 23  14  15  1   
 24  14  16  1   
 25  14  27  1   
 26  15  17  1   
 27  15  28  1   
 28  15  29  1   
 29  16  18  1   
 30  16  30  1   
 31  16  31  1   
 32  17  19  1   
 33  17  32  1   
 34  17  33  1   
 35  18  19  1   
 36  18  34  1   
 37  18  35  1   
@<TRIPOS>SUBSTRUCTURE
  1 ****   9 GROUP 4 **** **** 0

# MOE 2024.06 (io_trps.svl 2023.06)
