@<TRIPOS>MOLECULE
NONAME
54 56 1 0 0 
SMALL
USER_CHARGES


@<TRIPOS>ATOM
  1 O       -0.1290    -0.9710    -1.3060 O.2   1 <1>  -0.5700 
  2 C       -0.2260    -2.1280    -0.9490 C.2   1 <1>   0.6900 
  3 N       -1.4330    -2.8000    -0.9330 N.am  1 <1>  -0.4230 
  4 N        0.9070    -2.7740    -0.5520 N.am  1 <1>  -0.4900 
  5 C       -1.4500    -4.1290    -0.5040 C.2   1 <1>   0.2900 
  6 C       -2.6980    -2.1740    -1.3920 C.3   1 <1>   0.0600 
  7 C        0.9270    -4.0650    -0.1330 C.2   1 <1>   0.7150 
  8 N       -2.5160    -4.9320    -0.4260 N.2   1 <1>  -0.5650 
  9 C       -0.3150    -4.7500    -0.1150 C.2   1 <1>  -0.2370 
 10 O        1.9830    -4.5610     0.2010 O.2   1 <1>  -0.5700 
 11 C       -2.0210    -6.0580     0.0120 C.2   1 <1>   0.0060 
 12 N       -0.6800    -6.0130     0.2240 N.pl3 1 <1>   0.0480 
 13 C       -2.8300    -7.3400     0.2550 C.3   1 <1>   0.2900 
 14 C        0.2360    -7.0860     0.6820 C.3   1 <1>   0.0960 
 15 N       -4.2930    -7.1180     0.2560 N.3   1 <1>  -0.8100 
 16 C        0.8140    -7.8430    -0.5200 C.3   1 <1>  -0.1600 
 17 C       -5.0930    -8.3560     0.1390 C.3   1 <1>   0.1100 
 18 C       -4.7560    -6.2990     1.4040 C.3   1 <1>   0.1100 
 19 C        1.7430    -8.9740    -0.0640 C.3   1 <1>  -0.1600 
 20 C       -6.6130    -8.0510     0.0820 C.3   1 <1>   0.3430 
 21 C       -6.2470    -5.9130     1.2580 C.3   1 <1>   0.3430 
 22 C        2.3200    -9.7280    -1.2650 C.3   1 <1>  -0.2400 
 23 N       -6.8600    -6.5710     0.0530 N.4   1 <1>  -0.9590 
 24 C       -8.2710    -6.2090    -0.2140 C.3   1 <1>   0.3430 
 25 C       -8.3560    -4.7420    -0.6200 C.3   1 <1>  -0.2400 
 26 H        1.7780    -2.2590    -0.5770 H     1 <1>   0.3700 
 27 H       -2.5280    -1.1680    -1.7330 H     1 <1>   0.0800 
 28 H       -3.4020    -2.1560    -0.5800 H     1 <1>   0.0800 
 29 H       -3.1080    -2.7530    -2.2010 H     1 <1>   0.0800 
 30 H       -2.5410    -7.7810     1.1920 H     1 <1>   0.0800 
 31 H       -2.5840    -8.0330    -0.5320 H     1 <1>   0.0800 
 32 H       -0.2970    -7.7620     1.3240 H     1 <1>   0.0800 
 33 H        1.0320    -6.6460     1.2550 H     1 <1>   0.0800 
 34 H        1.3720    -7.1560    -1.1340 H     1 <1>   0.0800 
 35 H        0.0130    -8.2550    -1.1090 H     1 <1>   0.0800 
 36 H       -4.8900    -9.0100     0.9710 H     1 <1>   0.0800 
 37 H       -4.8110    -8.8760    -0.7610 H     1 <1>   0.0800 
 38 H       -4.1800    -5.3930     1.4740 H     1 <1>   0.0800 
 39 H       -4.6140    -6.8410     2.3230 H     1 <1>   0.0800 
 40 H        1.2020    -9.6660     0.5600 H     1 <1>   0.0800 
 41 H        2.5540    -8.5650     0.5150 H     1 <1>   0.0800 
 42 H       -7.0970    -8.4870     0.9400 H     1 <1>   0.0800 
 43 H       -7.0280    -8.5120    -0.8000 H     1 <1>   0.0800 
 44 H       -6.3120    -4.8420     1.1610 H     1 <1>   0.0800 
 45 H       -6.7800    -6.1960     2.1510 H     1 <1>   0.0800 
 46 H        1.5320   -10.1690    -1.8510 H     1 <1>   0.0800 
 47 H        2.9740   -10.5120    -0.9280 H     1 <1>   0.0800 
 48 H        2.8850    -9.0600    -1.8920 H     1 <1>   0.0800 
 49 H       -6.2550    -6.2410    -0.7190 H     1 <1>   0.4500 
 50 H       -8.8750    -6.3880     0.6610 H     1 <1>   0.0800 
 51 H       -8.6530    -6.8150    -1.0200 H     1 <1>   0.0800 
 52 H       -8.0850    -4.0930     0.1920 H     1 <1>   0.0800 
 53 H       -9.3700    -4.5120    -0.8970 H     1 <1>   0.0800 
 54 H       -7.7270    -4.5440    -1.4700 H     1 <1>   0.0800 
@<TRIPOS>BOND
  1   1   2  2   
  2   2   3  am  
  3   2   4  am  
  4   3   5  1   
  5   3   6  1   
  6   4   7  am  
  7   4  26  1   
  8   5   8  1   
  9   5   9  2   
 10   6  27  1   
 11   6  28  1   
 12   6  29  1   
 13   7   9  1   
 14   7  10  2   
 15   8  11  2   
 16   9  12  1   
 17  11  12  1   
 18  11  13  1   
 19  12  14  1   
 20  13  15  1   
 21  13  30  1   
 22  13  31  1   
 23  14  16  1   
 24  14  32  1   
 25  14  33  1   
 26  15  17  1   
 27  15  18  1   
 28  16  19  1   
 29  16  34  1   
 30  16  35  1   
 31  17  20  1   
 32  17  36  1   
 33  17  37  1   
 34  18  21  1   
 35  18  38  1   
 36  18  39  1   
 37  19  22  1   
 38  19  40  1   
 39  19  41  1   
 40  20  23  1   
 41  20  42  1   
 42  20  43  1   
 43  21  23  1   
 44  21  44  1   
 45  21  45  1   
 46  22  46  1   
 47  22  47  1   
 48  22  48  1   
 49  23  24  1   
 50  23  49  1   
 51  24  25  1   
 52  24  50  1   
 53  24  51  1   
 54  25  52  1   
 55  25  53  1   
 56  25  54  1   
@<TRIPOS>SUBSTRUCTURE
  1 ****  11 GROUP 4 **** **** 0

# MOE 2024.06 (io_trps.svl 2023.06)
