@<TRIPOS>MOLECULE
NONAME
43 44 1 0 0 
SMALL
USER_CHARGES


@<TRIPOS>ATOM
  1 S       -0.1600     0.0320     0.2170 S.o2  1 <1>   1.4470 
  2 O       -0.4630    -0.7300     1.4070 O.2   1 <1>  -0.6500 
  3 O       -0.3380    -0.5580    -1.0900 O.2   1 <1>  -0.6500 
  4 N       -1.1980     1.3470     0.1970 N.am  1 <1>  -0.9140 
  5 C        1.4800     0.7930     0.3540 C.ar  1 <1>  -0.0090 
  6 C       -2.5640     0.9870     0.5400 C.3   1 <1>   0.1960 
  7 C        1.7650     1.6980     1.3700 C.ar  1 <1>  -0.1500 
  8 C        2.4960     0.4900    -0.5470 C.ar  1 <1>  -0.1500 
  9 C       -3.5060     2.1790     0.3100 C.3   1 <1>  -0.0800 
 10 C        3.0140     2.2820     1.4820 C.ar  1 <1>  -0.1500 
 11 C        3.7500     1.0680    -0.4450 C.ar  1 <1>  -0.1500 
 12 C       -4.9220     1.8200     0.7980 C.3   1 <1>  -0.1600 
 13 C       -3.5440     2.6170    -1.1690 C.3   1 <1>  -0.1600 
 14 C        4.0160     1.9740     0.5770 C.ar  1 <1>   0.0830 
 15 C       -5.9090     2.9740     0.5750 C.3   1 <1>  -0.1600 
 16 C       -4.5360     3.7660    -1.3940 C.3   1 <1>  -0.1600 
 17 O        5.2100     2.5880     0.7540 O.3   1 <1>  -0.3630 
 18 C       -5.9390     3.3970    -0.8990 C.3   1 <1>  -0.1600 
 19 C        6.3020     2.3350    -0.0990 C.3   1 <1>   0.1200 
 20 C        7.4820     3.1750     0.3820 C.3   1 <1>  -0.2400 
 21 H       -1.2120     1.6200    -0.7830 H     1 <1>   0.4200 
 22 H       -2.6010     0.6940     1.5770 H     1 <1>   0.0800 
 23 H       -2.8850     0.1500    -0.0590 H     1 <1>   0.0800 
 24 H        0.9960     1.9470     2.0830 H     1 <1>   0.1500 
 25 H        2.3020    -0.2110    -1.3430 H     1 <1>   0.1500 
 26 H       -3.1500     3.0020     0.9070 H     1 <1>   0.0800 
 27 H        3.2220     2.9810     2.2720 H     1 <1>   0.1500 
 28 H        4.5020     0.8030    -1.1640 H     1 <1>   0.1500 
 29 H       -4.8950     1.5800     1.8470 H     1 <1>   0.0800 
 30 H       -5.2770     0.9510     0.2700 H     1 <1>   0.0800 
 31 H       -3.8290     1.7810    -1.7850 H     1 <1>   0.0800 
 32 H       -2.5690     2.9450    -1.4850 H     1 <1>   0.0800 
 33 H       -5.6180     3.8150     1.1810 H     1 <1>   0.0800 
 34 H       -6.8940     2.6710     0.8830 H     1 <1>   0.0800 
 35 H       -4.5770     4.0080    -2.4420 H     1 <1>   0.0800 
 36 H       -4.1930     4.6400    -0.8680 H     1 <1>   0.0800 
 37 H       -6.5980     4.2400    -1.0180 H     1 <1>   0.0800 
 38 H       -6.3270     2.5880    -1.4940 H     1 <1>   0.0800 
 39 H        6.0230     2.6100    -1.1010 H     1 <1>   0.0800 
 40 H        6.5380     1.2860    -0.0490 H     1 <1>   0.0800 
 41 H        7.2310     4.2200     0.3440 H     1 <1>   0.0800 
 42 H        8.3340     3.0030    -0.2510 H     1 <1>   0.0800 
 43 H        7.7420     2.9040     1.3900 H     1 <1>   0.0800 
@<TRIPOS>BOND
  1   1   2  2   
  2   1   3  2   
  3   1   4  am  
  4   1   5  1   
  5   4   6  1   
  6   4  21  1   
  7   5   7  ar  
  8   5   8  ar  
  9   6   9  1   
 10   6  22  1   
 11   6  23  1   
 12   7  10  ar  
 13   7  24  1   
 14   8  11  ar  
 15   8  25  1   
 16   9  12  1   
 17   9  13  1   
 18   9  26  1   
 19  10  14  ar  
 20  10  27  1   
 21  11  14  ar  
 22  11  28  1   
 23  12  15  1   
 24  12  29  1   
 25  12  30  1   
 26  13  16  1   
 27  13  31  1   
 28  13  32  1   
 29  14  17  1   
 30  15  18  1   
 31  15  33  1   
 32  15  34  1   
 33  16  18  1   
 34  16  35  1   
 35  16  36  1   
 36  17  19  1   
 37  18  37  1   
 38  18  38  1   
 39  19  20  1   
 40  19  39  1   
 41  19  40  1   
 42  20  41  1   
 43  20  42  1   
 44  20  43  1   
@<TRIPOS>SUBSTRUCTURE
  1 ****   4 GROUP 4 **** **** 0

# MOE 2024.06 (io_trps.svl 2023.06)
