@<TRIPOS>MOLECULE
NONAME
37 37 1 0 0 
SMALL
USER_CHARGES


@<TRIPOS>ATOM
  1 F       -0.0140    -0.7370    -0.3480 F     1 <1>  -0.3400 
  2 C        1.2870    -0.5190    -0.2020 C.3   1 <1>   1.1640 
  3 F        1.4340     0.1290     0.9460 F     1 <1>  -0.3400 
  4 F        1.6360     0.3330    -1.1560 F     1 <1>  -0.3400 
  5 C        2.1270    -1.7920    -0.2460 C.ar  1 <1>  -0.1440 
  6 C        3.4920    -1.6920    -0.0360 C.ar  1 <1>   0.1600 
  7 C        1.5900    -3.0480    -0.4880 C.ar  1 <1>  -0.1500 
  8 N        4.3470    -2.7050    -0.0440 N.ar  1 <1>  -0.6200 
  9 C        2.4630    -4.1090    -0.4990 C.ar  1 <1>  -0.1500 
 10 C        3.8200    -3.9020    -0.2730 C.ar  1 <1>   0.4100 
 11 N        4.6760    -4.9810    -0.2850 N.pl3 1 <1>  -0.8690 
 12 C        6.0370    -4.9040     0.2990 C.3   1 <1>   0.2090 
 13 C        6.9750    -4.1600    -0.6740 C.3   1 <1>   0.3430 
 14 N        8.1430    -3.4870    -0.0060 N.4   1 <1>  -0.9590 
 15 C        7.6690    -2.3430     0.8240 C.3   1 <1>   0.3430 
 16 C        9.1170    -3.0510    -1.0430 C.3   1 <1>   0.3430 
 17 C        8.1080    -2.5750     2.2630 C.3   1 <1>  -0.2400 
 18 C       10.4490    -2.6940    -0.3930 C.3   1 <1>  -0.2400 
 19 H        3.9110    -0.7150     0.1500 H     1 <1>   0.1500 
 20 H        0.5360    -3.1970    -0.6620 H     1 <1>   0.1500 
 21 H        2.1040    -5.1030    -0.6860 H     1 <1>   0.1500 
 22 H        4.2150    -5.8900    -0.1730 H     1 <1>   0.4000 
 23 H        6.4090    -5.8980     0.4770 H     1 <1>   0.0800 
 24 H        5.9700    -4.3870     1.2400 H     1 <1>   0.0800 
 25 H        6.3940    -3.4120    -1.1900 H     1 <1>   0.0800 
 26 H        7.3270    -4.8660    -1.4060 H     1 <1>   0.0800 
 27 H        8.6150    -4.1590     0.6110 H     1 <1>   0.4500 
 28 H        6.5940    -2.2660     0.7820 H     1 <1>   0.0800 
 29 H        8.0840    -1.4160     0.4600 H     1 <1>   0.0800 
 30 H        8.7290    -2.2040    -1.5860 H     1 <1>   0.0800 
 31 H        9.2800    -3.8540    -1.7460 H     1 <1>   0.0800 
 32 H        7.6750    -3.4760     2.6590 H     1 <1>   0.0800 
 33 H        7.7700    -1.7540     2.8700 H     1 <1>   0.0800 
 34 H        9.1790    -2.6230     2.3390 H     1 <1>   0.0800 
 35 H       10.3570    -1.8330     0.2430 H     1 <1>   0.0800 
 36 H       11.1610    -2.4550    -1.1630 H     1 <1>   0.0800 
 37 H       10.8360    -3.5250     0.1700 H     1 <1>   0.0800 
@<TRIPOS>BOND
  1   1   2  1   
  2   2   3  1   
  3   2   4  1   
  4   2   5  1   
  5   5   6  ar  
  6   5   7  ar  
  7   6   8  ar  
  8   6  19  1   
  9   7   9  ar  
 10   7  20  1   
 11   8  10  ar  
 12   9  10  ar  
 13   9  21  1   
 14  10  11  1   
 15  11  12  1   
 16  11  22  1   
 17  12  13  1   
 18  12  23  1   
 19  12  24  1   
 20  13  14  1   
 21  13  25  1   
 22  13  26  1   
 23  14  15  1   
 24  14  16  1   
 25  14  27  1   
 26  15  17  1   
 27  15  28  1   
 28  15  29  1   
 29  16  18  1   
 30  16  30  1   
 31  16  31  1   
 32  17  32  1   
 33  17  33  1   
 34  17  34  1   
 35  18  35  1   
 36  18  36  1   
 37  18  37  1   
@<TRIPOS>SUBSTRUCTURE
  1 ****   8 GROUP 4 **** **** 0

# MOE 2024.06 (io_trps.svl 2023.06)
