@<TRIPOS>MOLECULE
NONAME
36 36 1 0 0 
SMALL
USER_CHARGES


@<TRIPOS>ATOM
  1 O       -0.1320     0.4540    -1.1000 O.2   1 <1>  -0.5700 
  2 C       -0.0820     1.2180    -0.1570 C.2   1 <1>   0.6900 
  3 N        1.0990     1.6280     0.3860 N.am  1 <1>  -0.5470 
  4 N       -1.2190     1.7080     0.3930 N.am  1 <1>  -0.7300 
  5 C        2.4180     1.2230     0.1410 C.ar  1 <1>   0.1170 
  6 C       -2.5850     1.3880    -0.0590 C.3   1 <1>   0.2200 
  7 C        3.4560     2.0880     0.4660 C.ar  1 <1>  -0.1500 
  8 C        2.7430    -0.0190    -0.3960 C.ar  1 <1>  -0.1500 
  9 C       -3.3040     2.7250    -0.3070 C.3   1 <1>  -0.1600 
 10 C       -3.2500     0.5010     1.0110 C.3   1 <1>  -0.1600 
 11 C        4.7760     1.7290     0.2590 C.ar  1 <1>  -0.1500 
 12 C        4.0620    -0.3800    -0.6050 C.ar  1 <1>  -0.1500 
 13 C       -4.7270     2.5840    -0.8620 C.3   1 <1>  -0.2400 
 14 C       -4.1770    -0.5650     0.4080 C.3   1 <1>  -0.2400 
 15 C        5.0880     0.4920    -0.2800 C.ar  1 <1>  -0.1430 
 16 C        6.5340     0.0940    -0.5100 C.3   1 <1>  -0.0970 
 17 H        1.0060     2.4260     1.0020 H     1 <1>   0.3700 
 18 H       -1.1700     2.2180     1.2700 H     1 <1>   0.3700 
 19 H       -2.5260     0.8430    -0.9880 H     1 <1>   0.0800 
 20 H        3.2340     3.0530     0.8820 H     1 <1>   0.1500 
 21 H        1.9640    -0.7130    -0.6510 H     1 <1>   0.1500 
 22 H       -2.7250     3.2840    -1.0230 H     1 <1>   0.0800 
 23 H       -3.3410     3.2910     0.6060 H     1 <1>   0.0800 
 24 H       -3.8010     1.1090     1.7070 H     1 <1>   0.0800 
 25 H       -2.4880    -0.0230     1.5620 H     1 <1>   0.0800 
 26 H        5.5620     2.4170     0.5190 H     1 <1>   0.1500 
 27 H        4.2840    -1.3460    -1.0230 H     1 <1>   0.1500 
 28 H       -4.7300     1.9620    -1.7400 H     1 <1>   0.0800 
 29 H       -5.1120     3.5530    -1.1300 H     1 <1>   0.0800 
 30 H       -5.3840     2.1580    -0.1250 H     1 <1>   0.0800 
 31 H       -4.9820    -0.1210    -0.1450 H     1 <1>   0.0800 
 32 H       -4.5970    -1.1700     1.1920 H     1 <1>   0.0800 
 33 H       -3.6200    -1.2070    -0.2530 H     1 <1>   0.0800 
 34 H        7.1400     0.9630    -0.6910 H     1 <1>   0.0800 
 35 H        6.6120    -0.5570    -1.3620 H     1 <1>   0.0800 
 36 H        6.9110    -0.4200     0.3560 H     1 <1>   0.0800 
@<TRIPOS>BOND
  1   1   2  2   
  2   2   3  am  
  3   2   4  am  
  4   3   5  1   
  5   3  17  1   
  6   4   6  1   
  7   4  18  1   
  8   5   7  ar  
  9   5   8  ar  
 10   6   9  1   
 11   6  10  1   
 12   6  19  1   
 13   7  11  ar  
 14   7  20  1   
 15   8  12  ar  
 16   8  21  1   
 17   9  13  1   
 18   9  22  1   
 19   9  23  1   
 20  10  14  1   
 21  10  24  1   
 22  10  25  1   
 23  11  15  ar  
 24  11  26  1   
 25  12  15  ar  
 26  12  27  1   
 27  13  28  1   
 28  13  29  1   
 29  13  30  1   
 30  14  31  1   
 31  14  32  1   
 32  14  33  1   
 33  15  16  1   
 34  16  34  1   
 35  16  35  1   
 36  16  36  1   
@<TRIPOS>SUBSTRUCTURE
  1 ****   2 GROUP 4 **** **** 0

# MOE 2024.06 (io_trps.svl 2023.06)
