@<TRIPOS>MOLECULE
NONAME
51 54 1 0 0 
SMALL
USER_CHARGES


@<TRIPOS>ATOM
  1 O       -0.7470    -0.7640     1.0860 O.3   1 <1>  -0.3630 
  2 C       -1.8570    -1.0240     0.3560 C.ar  1 <1>   0.0820 
  3 C        0.4680    -1.2600     0.5670 C.3   1 <1>   0.0400 
  4 C       -2.1070    -0.4260    -0.8840 C.ar  1 <1>   0.0820 
  5 C       -2.7630    -1.9280     0.8820 C.ar  1 <1>  -0.1500 
  6 O       -1.2990     0.5050    -1.4520 O.3   1 <1>  -0.3630 
  7 C       -3.2360    -0.7870    -1.5990 C.ar  1 <1>  -0.1500 
  8 C       -3.9070    -2.2740     0.1680 C.ar  1 <1>   0.0820 
  9 C       -1.0250     1.6750    -0.7080 C.3   1 <1>   0.0400 
 10 C       -4.1370    -1.7050    -1.0820 C.ar  1 <1>  -0.1440 
 11 O       -4.8360    -3.1530     0.6380 O.3   1 <1>  -0.3630 
 12 C       -5.3700    -2.0810    -1.8790 C.3   1 <1>   0.4860 
 13 C       -4.6200    -3.8620     1.8440 C.3   1 <1>   0.0400 
 14 N       -6.5690    -1.7200    -1.0900 N.4   1 <1>  -0.9590 
 15 C       -7.8140    -2.3380    -1.6150 C.3   1 <1>   0.5230 
 16 C       -6.6940    -0.2430    -0.8340 C.3   1 <1>   0.3430 
 17 C       -8.9470    -1.8950    -0.7180 C.2   1 <1>  -0.3320 
 18 C       -7.6890     0.0400     0.3020 C.3   1 <1>   0.0210 
 19 N      -10.1810    -2.4850    -0.6440 N.pl3 1 <1>   0.0330 
 20 C       -8.9020    -0.8480     0.1340 C.2   1 <1>  -0.1810 
 21 C      -10.9210    -1.7960     0.2840 C.ar  1 <1>  -0.1520 
 22 C      -10.1440    -0.7600     0.7950 C.ar  1 <1>   0.0000 
 23 C      -12.2300    -1.9970     0.7300 C.ar  1 <1>  -0.1500 
 24 C      -10.6780     0.0920     1.7670 C.ar  1 <1>  -0.1500 
 25 C      -12.7430    -1.1520     1.6870 C.ar  1 <1>  -0.1500 
 26 C      -11.9670    -0.1080     2.2050 C.ar  1 <1>  -0.1500 
 27 H        1.2550    -1.0090     1.2550 H     1 <1>   0.0800 
 28 H        0.6600    -0.8070    -0.3890 H     1 <1>   0.0800 
 29 H        0.3930    -2.3280     0.4670 H     1 <1>   0.0800 
 30 H       -2.5420    -2.3460     1.8450 H     1 <1>   0.1500 
 31 H       -3.3880    -0.3320    -2.5630 H     1 <1>   0.1500 
 32 H       -0.6010     2.4040    -1.3740 H     1 <1>   0.0800 
 33 H       -0.3220     1.4490     0.0720 H     1 <1>   0.0800 
 34 H       -1.9420     2.0490    -0.2890 H     1 <1>   0.0800 
 35 H       -5.3540    -3.1440    -2.0590 H     1 <1>   0.0800 
 36 H       -5.3750    -1.5680    -2.8260 H     1 <1>   0.0800 
 37 H       -4.5600    -3.1630     2.6600 H     1 <1>   0.0800 
 38 H       -3.7100    -4.4300     1.7590 H     1 <1>   0.0800 
 39 H       -5.4500    -4.5290     1.9990 H     1 <1>   0.0800 
 40 H       -6.4070    -2.1550    -0.1660 H     1 <1>   0.4500 
 41 H       -7.7280    -3.4120    -1.5960 H     1 <1>   0.0800 
 42 H       -8.0010    -2.0150    -2.6270 H     1 <1>   0.0800 
 43 H       -7.0400     0.2440    -1.7310 H     1 <1>   0.0800 
 44 H       -5.7350     0.1750    -0.5700 H     1 <1>   0.0800 
 45 H       -7.9820     1.0740     0.2770 H     1 <1>   0.0800 
 46 H       -7.2280    -0.1570     1.2540 H     1 <1>   0.0800 
 47 H      -10.5360    -3.2960    -1.1640 H     1 <1>   0.2700 
 48 H      -12.8230    -2.8000     0.3300 H     1 <1>   0.1500 
 49 H      -10.0770     0.8900     2.1610 H     1 <1>   0.1500 
 50 H      -13.7480    -1.2840     2.0470 H     1 <1>   0.1500 
 51 H      -12.3930     0.5380     2.9530 H     1 <1>   0.1500 
@<TRIPOS>BOND
  1   1   2  1   
  2   1   3  1   
  3   2   4  ar  
  4   2   5  ar  
  5   3  27  1   
  6   3  28  1   
  7   3  29  1   
  8   4   6  1   
  9   4   7  ar  
 10   5   8  ar  
 11   5  30  1   
 12   6   9  1   
 13   7  10  ar  
 14   7  31  1   
 15   8  10  ar  
 16   8  11  1   
 17   9  32  1   
 18   9  33  1   
 19   9  34  1   
 20  10  12  1   
 21  11  13  1   
 22  12  14  1   
 23  12  35  1   
 24  12  36  1   
 25  13  37  1   
 26  13  38  1   
 27  13  39  1   
 28  14  15  1   
 29  14  16  1   
 30  14  40  1   
 31  15  17  1   
 32  15  41  1   
 33  15  42  1   
 34  16  18  1   
 35  16  43  1   
 36  16  44  1   
 37  17  19  1   
 38  17  20  2   
 39  18  20  1   
 40  18  45  1   
 41  18  46  1   
 42  19  21  1   
 43  19  47  1   
 44  20  22  1   
 45  21  22  ar  
 46  21  23  ar  
 47  22  24  ar  
 48  23  25  ar  
 49  23  48  1   
 50  24  26  ar  
 51  24  49  1   
 52  25  26  ar  
 53  25  50  1   
 54  26  51  1   
@<TRIPOS>SUBSTRUCTURE
  1 ****  14 GROUP 4 **** **** 0

# MOE 2024.06 (io_trps.svl 2023.06)
