@<TRIPOS>MOLECULE
NONAME
33 34 1 0 0 
SMALL
USER_CHARGES


@<TRIPOS>ATOM
  1 CL      -0.9810     0.0780    -0.1240 Cl    1 <1>  -0.1770 
  2 C       -0.5460    -1.6180    -0.0830 C.ar  1 <1>   0.1770 
  3 C       -1.5220    -2.5850    -0.3330 C.ar  1 <1>   0.1000 
  4 C        0.7650    -1.9540     0.1930 C.ar  1 <1>  -0.1500 
  5 N       -2.8480    -2.2100    -0.6110 N.pl3 1 <1>  -0.6000 
  6 C       -1.1340    -3.9230    -0.3250 C.ar  1 <1>  -0.1500 
  7 C        1.1110    -3.2910     0.2090 C.ar  1 <1>   0.1770 
  8 C       -4.0320    -2.7720    -0.1820 C.2   1 <1>  -0.0380 
  9 C        0.1770    -4.2780    -0.0500 C.ar  1 <1>  -0.1500 
 10 CL       2.7610    -3.7430     0.5570 Cl    1 <1>  -0.1770 
 11 C       -4.1550    -3.7500     0.7500 C.2   1 <1>  -0.1360 
 12 C       -5.2850    -2.2030    -0.8440 C.3   1 <1>  -0.0220 
 13 C       -5.3790    -4.3350     1.1600 C.2   1 <1>   0.4950 
 14 C       -6.5620    -2.3970     0.0080 C.3   1 <1>   0.0000 
 15 O       -5.4520    -5.2060     1.9930 O.2   1 <1>  -0.5700 
 16 C       -6.6590    -3.8590     0.4980 C.3   1 <1>  -0.0990 
 17 C       -6.5370    -1.4410     1.2170 C.3   1 <1>  -0.2400 
 18 C       -7.8010    -2.0620    -0.8380 C.3   1 <1>  -0.2400 
 19 H        1.4990    -1.1950     0.3890 H     1 <1>   0.1500 
 20 H       -2.9200    -1.3190    -1.1180 H     1 <1>   0.4000 
 21 H       -1.8600    -4.6850    -0.5440 H     1 <1>   0.1500 
 22 H        0.4760    -5.3110    -0.0380 H     1 <1>   0.1500 
 23 H       -3.2940    -4.1440     1.2530 H     1 <1>   0.1500 
 24 H       -5.4040    -2.6920    -1.7950 H     1 <1>   0.0800 
 25 H       -5.1500    -1.1530    -1.0350 H     1 <1>   0.0800 
 26 H       -7.4710    -3.9630     1.1950 H     1 <1>   0.0800 
 27 H       -6.8550    -4.5120    -0.3320 H     1 <1>   0.0800 
 28 H       -5.6770    -1.6170     1.8390 H     1 <1>   0.0800 
 29 H       -7.4180    -1.5700     1.8200 H     1 <1>   0.0800 
 30 H       -6.5030    -0.4170     0.8890 H     1 <1>   0.0800 
 31 H       -7.8650    -2.7090    -1.6950 H     1 <1>   0.0800 
 32 H       -7.7580    -1.0440    -1.1860 H     1 <1>   0.0800 
 33 H       -8.6990    -2.1820    -0.2580 H     1 <1>   0.0800 
@<TRIPOS>BOND
  1   1   2  1   
  2   2   3  ar  
  3   2   4  ar  
  4   3   5  1   
  5   3   6  ar  
  6   4   7  ar  
  7   4  19  1   
  8   5   8  1   
  9   5  20  1   
 10   6   9  ar  
 11   6  21  1   
 12   7   9  ar  
 13   7  10  1   
 14   8  11  2   
 15   8  12  1   
 16   9  22  1   
 17  11  13  1   
 18  11  23  1   
 19  12  14  1   
 20  12  24  1   
 21  12  25  1   
 22  13  15  2   
 23  13  16  1   
 24  14  16  1   
 25  14  17  1   
 26  14  18  1   
 27  16  26  1   
 28  16  27  1   
 29  17  28  1   
 30  17  29  1   
 31  17  30  1   
 32  18  31  1   
 33  18  32  1   
 34  18  33  1   
@<TRIPOS>SUBSTRUCTURE
  1 ****   5 GROUP 4 **** **** 0

# MOE 2024.06 (io_trps.svl 2023.06)
