@<TRIPOS>MOLECULE
NONAME
48 51 1 0 0 
SMALL
USER_CHARGES


@<TRIPOS>ATOM
  1 O        0.4690    -0.7800     0.5370 O.3   1 <1>  -0.3630 
  2 C        1.6480    -0.9050    -0.1250 C.ar  1 <1>   0.0830 
  3 C        0.2920     0.2000     1.5350 C.3   1 <1>   0.0400 
  4 C        2.7580    -0.1020     0.1110 C.ar  1 <1>  -0.1500 
  5 C        1.7170    -1.9000    -1.0860 C.ar  1 <1>  -0.1500 
  6 C        3.9310    -0.2900    -0.6060 C.ar  1 <1>   0.1000 
  7 C        2.8810    -2.0960    -1.8080 C.ar  1 <1>  -0.1500 
  8 N        5.0290     0.5260    -0.3520 N.pl3 1 <1>  -0.8380 
  9 C        3.9820    -1.2940    -1.5680 C.ar  1 <1>  -0.1500 
 10 C        5.3900     1.4870    -1.4320 C.3   1 <1>   0.2090 
 11 C        6.1930    -0.1340     0.3030 C.3   1 <1>   0.2090 
 12 C        6.4170     2.5200    -0.9220 C.3   1 <1>   0.3430 
 13 C        7.2110     0.9160     0.7940 C.3   1 <1>   0.3430 
 14 N        7.6390     1.8770    -0.2980 N.4   1 <1>  -0.9590 
 15 C        8.6170     2.8980     0.2040 C.3   1 <1>   0.4230 
 16 C        9.0940     3.8540    -0.9110 C.3   1 <1>  -0.0170 
 17 C        9.8870     2.2540     0.8020 C.3   1 <1>  -0.0170 
 18 C       10.5580     4.0420    -0.6160 C.ar  1 <1>  -0.1430 
 19 C       10.9970     3.1550     0.3330 C.ar  1 <1>  -0.1430 
 20 C       11.4230     4.9610    -1.1800 C.ar  1 <1>  -0.1500 
 21 C       12.3160     3.1580     0.7490 C.ar  1 <1>  -0.1500 
 22 C       12.7470     4.9730    -0.7710 C.ar  1 <1>  -0.1500 
 23 C       13.1910     4.0760     0.1900 C.ar  1 <1>  -0.1500 
 24 H       -0.7100     0.1120     1.9150 H     1 <1>   0.0800 
 25 H        0.4320     1.1730     1.0970 H     1 <1>   0.0800 
 26 H        1.0000     0.0260     2.3250 H     1 <1>   0.0800 
 27 H        2.7400     0.6760     0.8470 H     1 <1>   0.1500 
 28 H        0.8540    -2.5170    -1.2630 H     1 <1>   0.1500 
 29 H        2.9250    -2.8710    -2.5520 H     1 <1>   0.1500 
 30 H        4.8820    -1.4510    -2.1310 H     1 <1>   0.1500 
 31 H        4.5000     1.9990    -1.7590 H     1 <1>   0.0800 
 32 H        5.7920     0.9530    -2.2760 H     1 <1>   0.0800 
 33 H        6.6650    -0.8100    -0.3880 H     1 <1>   0.0800 
 34 H        5.8420    -0.7120     1.1420 H     1 <1>   0.0800 
 35 H        5.9260     3.1410    -0.1920 H     1 <1>   0.0800 
 36 H        6.7090     3.1490    -1.7460 H     1 <1>   0.0800 
 37 H        8.0690     0.4020     1.1930 H     1 <1>   0.0800 
 38 H        6.7540     1.4680     1.5990 H     1 <1>   0.0800 
 39 H        8.1100     1.3280    -1.0280 H     1 <1>   0.4500 
 40 H        8.1580     3.4960     0.9750 H     1 <1>   0.0800 
 41 H        8.5790     4.7970    -0.8610 H     1 <1>   0.0800 
 42 H        8.9970     3.4190    -1.8890 H     1 <1>   0.0800 
 43 H       10.0630     1.2670     0.4150 H     1 <1>   0.0800 
 44 H        9.8460     2.2390     1.8760 H     1 <1>   0.0800 
 45 H       11.0830     5.6590    -1.9260 H     1 <1>   0.1500 
 46 H       12.6660     2.4640     1.4930 H     1 <1>   0.1500 
 47 H       13.4350     5.6820    -1.1990 H     1 <1>   0.1500 
 48 H       14.2220     4.0930     0.5010 H     1 <1>   0.1500 
@<TRIPOS>BOND
  1   1   2  1   
  2   1   3  1   
  3   2   4  ar  
  4   2   5  ar  
  5   3  24  1   
  6   3  25  1   
  7   3  26  1   
  8   4   6  ar  
  9   4  27  1   
 10   5   7  ar  
 11   5  28  1   
 12   6   8  1   
 13   6   9  ar  
 14   7   9  ar  
 15   7  29  1   
 16   8  10  1   
 17   8  11  1   
 18   9  30  1   
 19  10  12  1   
 20  10  31  1   
 21  10  32  1   
 22  11  13  1   
 23  11  33  1   
 24  11  34  1   
 25  12  14  1   
 26  12  35  1   
 27  12  36  1   
 28  13  14  1   
 29  13  37  1   
 30  13  38  1   
 31  14  15  1   
 32  14  39  1   
 33  15  16  1   
 34  15  17  1   
 35  15  40  1   
 36  16  18  1   
 37  16  41  1   
 38  16  42  1   
 39  17  19  1   
 40  17  43  1   
 41  17  44  1   
 42  18  19  ar  
 43  18  20  ar  
 44  19  21  ar  
 45  20  22  ar  
 46  20  45  1   
 47  21  23  ar  
 48  21  46  1   
 49  22  23  ar  
 50  22  47  1   
 51  23  48  1   
@<TRIPOS>SUBSTRUCTURE
  1 ****  14 GROUP 4 **** **** 0

# MOE 2024.06 (io_trps.svl 2023.06)
