@<TRIPOS>MOLECULE
NONAME
44 46 1 0 0 
SMALL
USER_CHARGES


@<TRIPOS>ATOM
  1 F        2.7180     0.7880    -0.8420 F     1 <1>  -0.1900 
  2 C        1.7290     1.5160    -0.3960 C.ar  1 <1>   0.1900 
  3 C        1.6050     2.8370    -0.8160 C.ar  1 <1>  -0.1440 
  4 C        0.8430     0.9260     0.4840 C.ar  1 <1>  -0.1500 
  5 C        0.5430     3.5900    -0.3260 C.ar  1 <1>  -0.1500 
  6 C        2.6050     3.4730    -1.7790 C.3   1 <1>   0.0450 
  7 C       -0.1970     1.7070     0.9450 C.ar  1 <1>   0.1900 
  8 C       -0.3640     3.0250     0.5580 C.ar  1 <1>  -0.1500 
  9 C        3.6690     4.2560    -1.0390 C.2   1 <1>   0.6590 
 10 F       -1.0540     1.1830     1.7790 F     1 <1>  -0.1900 
 11 O        3.8060     5.4410    -1.2070 O.2   1 <1>  -0.5700 
 12 O        4.4310     3.5560    -0.2120 O.3   1 <1>  -0.4300 
 13 C        5.4880     4.1250     0.5350 C.3   1 <1>   0.2000 
 14 C        6.8760     3.9060    -0.1330 C.3   1 <1>   0.0000 
 15 C        5.6300     3.3860     1.8790 C.3   1 <1>  -0.1600 
 16 C        7.3240     2.5170     0.3850 C.3   1 <1>   0.0000 
 17 C        7.8170     4.8650     0.6350 C.3   1 <1>  -0.1600 
 18 C        6.9290     4.1290    -1.6530 C.3   1 <1>  -0.2400 
 19 C        7.1000     2.9080     1.8550 C.3   1 <1>  -0.0800 
 20 C        8.7880     2.1240     0.0500 C.3   1 <1>  -0.2400 
 21 C        6.4800     1.3010    -0.0780 C.3   1 <1>  -0.2400 
 22 C        7.9600     4.1810     2.0120 C.3   1 <1>  -0.1600 
 23 H        0.9580    -0.0940     0.7950 H     1 <1>   0.1500 
 24 H        0.4210     4.6180    -0.6260 H     1 <1>   0.1500 
 25 H        2.0900     4.1390    -2.4470 H     1 <1>   0.0800 
 26 H        3.0890     2.7260    -2.3790 H     1 <1>   0.0800 
 27 H       -1.1900     3.5970     0.9450 H     1 <1>   0.1500 
 28 H        5.2770     5.1690     0.6940 H     1 <1>   0.0800 
 29 H        4.9500     2.5560     1.9470 H     1 <1>   0.0800 
 30 H        5.4450     4.0480     2.7050 H     1 <1>   0.0800 
 31 H        7.4010     5.8540     0.7230 H     1 <1>   0.0800 
 32 H        8.7730     4.9510     0.1500 H     1 <1>   0.0800 
 33 H        6.3050     3.4170    -2.1610 H     1 <1>   0.0800 
 34 H        7.9350     4.0180    -2.0150 H     1 <1>   0.0800 
 35 H        6.5850     5.1200    -1.8920 H     1 <1>   0.0800 
 36 H        7.3210     2.1390     2.5750 H     1 <1>   0.0800 
 37 H        9.0590     1.2340     0.5890 H     1 <1>   0.0800 
 38 H        9.5160     2.8730     0.2910 H     1 <1>   0.0800 
 39 H        8.8800     1.9170    -1.0010 H     1 <1>   0.0800 
 40 H        6.8340     0.4060     0.4010 H     1 <1>   0.0800 
 41 H        6.5760     1.1700    -1.1410 H     1 <1>   0.0800 
 42 H        5.4350     1.3750     0.1410 H     1 <1>   0.0800 
 43 H        7.6090     4.8130     2.8090 H     1 <1>   0.0800 
 44 H        8.9870     3.9290     2.2100 H     1 <1>   0.0800 
@<TRIPOS>BOND
  1   1   2  1   
  2   2   3  ar  
  3   2   4  ar  
  4   3   5  ar  
  5   3   6  1   
  6   4   7  ar  
  7   4  23  1   
  8   5   8  ar  
  9   5  24  1   
 10   6   9  1   
 11   6  25  1   
 12   6  26  1   
 13   7   8  ar  
 14   7  10  1   
 15   8  27  1   
 16   9  11  2   
 17   9  12  1   
 18  12  13  1   
 19  13  14  1   
 20  13  15  1   
 21  13  28  1   
 22  14  16  1   
 23  14  17  1   
 24  14  18  1   
 25  15  19  1   
 26  15  29  1   
 27  15  30  1   
 28  16  19  1   
 29  16  20  1   
 30  16  21  1   
 31  17  22  1   
 32  17  31  1   
 33  17  32  1   
 34  18  33  1   
 35  18  34  1   
 36  18  35  1   
 37  19  22  1   
 38  19  36  1   
 39  20  37  1   
 40  20  38  1   
 41  20  39  1   
 42  21  40  1   
 43  21  41  1   
 44  21  42  1   
 45  22  43  1   
 46  22  44  1   
@<TRIPOS>SUBSTRUCTURE
  1 ****  12 GROUP 4 **** **** 0

# MOE 2024.06 (io_trps.svl 2023.06)
