@<TRIPOS>MOLECULE
NONAME
58 59 1 0 0 
SMALL
USER_CHARGES


@<TRIPOS>ATOM
  1 N        0.1740    -0.2710     0.3830 N.4   1 <1>  -0.9590 
  2 C       -0.0060    -1.4300    -0.5440 C.3   1 <1>   0.3430 
  3 C       -0.9860     0.6690     0.3710 C.3   1 <1>   0.3430 
  4 C        1.4280     0.4960     0.0620 C.3   1 <1>   0.3430 
  5 C       -1.2850    -2.1930    -0.1930 C.3   1 <1>  -0.1600 
  6 C       -2.2780    -0.0730     0.7320 C.3   1 <1>  -0.1600 
  7 C        2.6990    -0.2930     0.3870 C.3   1 <1>  -0.0170 
  8 C       -2.5050    -1.2650    -0.2100 C.3   1 <1>   0.4230 
  9 C        3.8900     0.6070     0.1280 C.ar  1 <1>  -0.1440 
 10 N       -3.7620    -2.0400     0.1020 N.4   1 <1>  -0.9590 
 11 C        4.3870     1.4170     1.1380 C.ar  1 <1>  -0.1500 
 12 C        4.4840     0.6380    -1.1250 C.ar  1 <1>  -0.1500 
 13 C       -5.0150    -1.2720    -0.2940 C.3   1 <1>   0.3430 
 14 C       -3.8230    -2.5550     1.5100 C.3   1 <1>   0.3430 
 15 C        5.4610     2.2550     0.8960 C.ar  1 <1>  -0.1500 
 16 C        5.5590     1.4770    -1.3660 C.ar  1 <1>  -0.1500 
 17 C       -6.3400    -2.0970    -0.2810 C.3   1 <1>   0.3430 
 18 C       -4.1380    -4.0440     1.4720 C.3   1 <1>  -0.2400 
 19 C        6.0460     2.2860    -0.3570 C.ar  1 <1>  -0.1500 
 20 N       -7.5570    -1.3580    -0.7890 N.4   1 <1>  -0.9590 
 21 C       -7.9730    -0.1980     0.0750 C.3   1 <1>   0.2630 
 22 C       -8.7220    -2.3030    -0.9070 C.3   1 <1>   0.2630 
 23 H        0.2990    -0.6260     1.3440 H     1 <1>   0.4500 
 24 H        0.8390    -2.0970    -0.4700 H     1 <1>   0.0800 
 25 H       -0.0580    -1.0750    -1.5630 H     1 <1>   0.0800 
 26 H       -1.0810     1.1140    -0.6070 H     1 <1>   0.0800 
 27 H       -0.8170     1.4660     1.0810 H     1 <1>   0.0800 
 28 H        1.4520     1.4080     0.6390 H     1 <1>   0.0800 
 29 H        1.4420     0.7730    -0.9800 H     1 <1>   0.0800 
 30 H       -1.1500    -2.6510     0.7710 H     1 <1>   0.0800 
 31 H       -1.4140    -2.9760    -0.9190 H     1 <1>   0.0800 
 32 H       -3.0910     0.6260     0.6500 H     1 <1>   0.0800 
 33 H       -2.2070    -0.3860     1.7580 H     1 <1>   0.0800 
 34 H        2.7830    -1.1680    -0.2310 H     1 <1>   0.0800 
 35 H        2.7030    -0.5940     1.4190 H     1 <1>   0.0800 
 36 H       -2.5930    -0.8760    -1.2130 H     1 <1>   0.0800 
 37 H       -3.7080    -2.8840    -0.4900 H     1 <1>   0.4500 
 38 H        3.9510     1.4060     2.1220 H     1 <1>   0.1500 
 39 H        4.1270     0.0140    -1.9250 H     1 <1>   0.1500 
 40 H       -4.8780    -0.8890    -1.2930 H     1 <1>   0.0800 
 41 H       -5.1310    -0.4310     0.3690 H     1 <1>   0.0800 
 42 H       -4.5710    -2.0280     2.0820 H     1 <1>   0.0800 
 43 H       -2.8750    -2.4210     2.0050 H     1 <1>   0.0800 
 44 H        5.8450     2.8820     1.6820 H     1 <1>   0.1500 
 45 H        6.0200     1.4990    -2.3390 H     1 <1>   0.1500 
 46 H       -6.5340    -2.4290     0.7250 H     1 <1>   0.0800 
 47 H       -6.1960    -2.9720    -0.8950 H     1 <1>   0.0800 
 48 H       -5.0950    -4.2480     1.0290 H     1 <1>   0.0800 
 49 H       -4.1640    -4.4210     2.4810 H     1 <1>   0.0800 
 50 H       -3.3720    -4.5880     0.9470 H     1 <1>   0.0800 
 51 H        6.8830     2.9380    -0.5450 H     1 <1>   0.1500 
 52 H       -7.3920    -0.9990    -1.7460 H     1 <1>   0.4500 
 53 H       -8.1960    -0.5320     1.0760 H     1 <1>   0.0800 
 54 H       -8.8590     0.2670    -0.3290 H     1 <1>   0.0800 
 55 H       -7.1960     0.5470     0.1200 H     1 <1>   0.0800 
 56 H       -8.9830    -2.7070     0.0590 H     1 <1>   0.0800 
 57 H       -8.4840    -3.1200    -1.5690 H     1 <1>   0.0800 
 58 H       -9.5840    -1.7880    -1.3030 H     1 <1>   0.0800 
@<TRIPOS>BOND
  1   1   2  1   
  2   1   3  1   
  3   1   4  1   
  4   1  23  1   
  5   2   5  1   
  6   2  24  1   
  7   2  25  1   
  8   3   6  1   
  9   3  26  1   
 10   3  27  1   
 11   4   7  1   
 12   4  28  1   
 13   4  29  1   
 14   5   8  1   
 15   5  30  1   
 16   5  31  1   
 17   6   8  1   
 18   6  32  1   
 19   6  33  1   
 20   7   9  1   
 21   7  34  1   
 22   7  35  1   
 23   8  10  1   
 24   8  36  1   
 25   9  11  ar  
 26   9  12  ar  
 27  10  13  1   
 28  10  14  1   
 29  10  37  1   
 30  11  15  ar  
 31  11  38  1   
 32  12  16  ar  
 33  12  39  1   
 34  13  17  1   
 35  13  40  1   
 36  13  41  1   
 37  14  18  1   
 38  14  42  1   
 39  14  43  1   
 40  15  19  ar  
 41  15  44  1   
 42  16  19  ar  
 43  16  45  1   
 44  17  20  1   
 45  17  46  1   
 46  17  47  1   
 47  18  48  1   
 48  18  49  1   
 49  18  50  1   
 50  19  51  1   
 51  20  21  1   
 52  20  22  1   
 53  20  52  1   
 54  21  53  1   
 55  21  54  1   
 56  21  55  1   
 57  22  56  1   
 58  22  57  1   
 59  22  58  1   
@<TRIPOS>SUBSTRUCTURE
  1 ****   1 GROUP 4 **** **** 0

# MOE 2024.06 (io_trps.svl 2023.06)
