@<TRIPOS>MOLECULE
NONAME
39 40 1 0 0 
SMALL
USER_CHARGES


@<TRIPOS>ATOM
  1 O       -0.7560     0.0260     0.9080 O.2   1 <1>  -0.5700 
  2 C       -0.7420     1.2200     1.0680 C.2   1 <1>   0.6590 
  3 O       -1.7150     2.0480     0.6600 O.3   1 <1>  -0.0870 
  4 C        0.4200     1.8890     1.7620 C.3   1 <1>  -0.1790 
  5 N       -2.8140     1.6420     0.0370 N.2   1 <1>  -0.5130 
  6 C       -3.7100     2.4960    -0.2600 C.2   1 <1>   0.4750 
  7 C       -3.7340     3.9300    -0.0780 C.2   1 <1>  -0.0860 
  8 C       -5.0120     1.9620    -0.8520 C.3   1 <1>  -0.0990 
  9 C       -4.8850     4.6200     0.0130 C.2   1 <1>  -0.0400 
 10 C       -2.8050     4.9640     0.0160 C.2   1 <1>   0.1080 
 11 C       -6.2560     2.4920    -0.0930 C.3   1 <1>   0.0000 
 12 O       -4.7080     5.9050     0.1900 O.3   1 <1>  -0.0190 
 13 C       -6.2840     4.0430    -0.1120 C.3   1 <1>   0.0200 
 14 N       -3.4080     6.0850     0.1850 N.2   1 <1>  -0.4100 
 15 C       -1.2910     4.8430    -0.1010 C.3   1 <1>   0.0210 
 16 C       -7.5290     1.9450    -0.7570 C.3   1 <1>  -0.2400 
 17 C       -6.2250     1.9920     1.3650 C.3   1 <1>  -0.2400 
 18 C       -0.6080     6.1280    -0.5950 C.3   1 <1>  -0.1600 
 19 C        0.9070     5.9410    -0.7450 C.3   1 <1>  -0.2400 
 20 H        0.0630     2.4430     2.6090 H     1 <1>   0.0800 
 21 H        0.9140     2.5540     1.0790 H     1 <1>   0.0800 
 22 H        1.1190     1.1440     2.0960 H     1 <1>   0.0800 
 23 H       -5.0580     2.2640    -1.8820 H     1 <1>   0.0800 
 24 H       -5.0020     0.8860    -0.8290 H     1 <1>   0.0800 
 25 H       -6.9050     4.4190     0.6820 H     1 <1>   0.0800 
 26 H       -6.6940     4.3930    -1.0420 H     1 <1>   0.0800 
 27 H       -0.8960     4.5830     0.8640 H     1 <1>   0.0800 
 28 H       -1.0640     4.0520    -0.7930 H     1 <1>   0.0800 
 29 H       -7.5840     2.2500    -1.7880 H     1 <1>   0.0800 
 30 H       -8.4070     2.3070    -0.2500 H     1 <1>   0.0800 
 31 H       -7.5400     0.8690    -0.7240 H     1 <1>   0.0800 
 32 H       -6.1600     0.9180     1.3950 H     1 <1>   0.0800 
 33 H       -7.1180     2.2880     1.8870 H     1 <1>   0.0800 
 34 H       -5.3820     2.3930     1.8990 H     1 <1>   0.0800 
 35 H       -1.0300     6.4120    -1.5440 H     1 <1>   0.0800 
 36 H       -0.8000     6.9260     0.1020 H     1 <1>   0.0800 
 37 H        1.1230     5.1650    -1.4580 H     1 <1>   0.0800 
 38 H        1.3510     5.6810     0.2000 H     1 <1>   0.0800 
 39 H        1.3550     6.8560    -1.0910 H     1 <1>   0.0800 
@<TRIPOS>BOND
  1   1   2  2   
  2   2   3  1   
  3   2   4  1   
  4   3   5  1   
  5   4  20  1   
  6   4  21  1   
  7   4  22  1   
  8   5   6  2   
  9   6   7  1   
 10   6   8  1   
 11   7   9  2   
 12   7  10  1   
 13   8  11  1   
 14   8  23  1   
 15   8  24  1   
 16   9  12  1   
 17   9  13  1   
 18  10  14  2   
 19  10  15  1   
 20  11  13  1   
 21  11  16  1   
 22  11  17  1   
 23  12  14  1   
 24  13  25  1   
 25  13  26  1   
 26  15  18  1   
 27  15  27  1   
 28  15  28  1   
 29  16  29  1   
 30  16  30  1   
 31  16  31  1   
 32  17  32  1   
 33  17  33  1   
 34  17  34  1   
 35  18  19  1   
 36  18  35  1   
 37  18  36  1   
 38  19  37  1   
 39  19  38  1   
 40  19  39  1   
@<TRIPOS>SUBSTRUCTURE
  1 ****   7 GROUP 4 **** **** 0

# MOE 2024.06 (io_trps.svl 2023.06)
