@<TRIPOS>MOLECULE
NONAME
53 54 1 0 0 
SMALL
USER_CHARGES


@<TRIPOS>ATOM
  1 O        6.8030     0.5820    -1.5880 O.2   1 <1>  -0.5700 
  2 C        6.8040     1.0220    -0.4680 C.2   1 <1>   0.6590 
  3 O        7.8600     0.9620     0.3270 O.3   1 <1>  -0.4300 
  4 C        5.5650     1.6950     0.1150 C.3   1 <1>  -0.0190 
  5 C        9.0660     0.3670    -0.0980 C.3   1 <1>   0.1200 
  6 C        4.3490     0.7480     0.0770 C.3   1 <1>  -0.1600 
  7 C        5.2470     3.0020    -0.6380 C.3   1 <1>  -0.1600 
  8 C       10.0700     0.4640     1.0460 C.3   1 <1>  -0.2400 
  9 C        3.0670     1.4400     0.5340 C.3   1 <1>   0.3430 
 10 C        3.9420     3.6360    -0.1620 C.3   1 <1>   0.3430 
 11 N        2.8290     2.6530    -0.3040 N.4   1 <1>  -0.9590 
 12 C        1.5190     3.3150     0.0130 C.3   1 <1>   0.3430 
 13 C        0.3070     2.4730    -0.3980 C.3   1 <1>   0.1200 
 14 O       -0.8390     3.2090    -0.0570 O.3   1 <1>  -0.3630 
 15 C       -2.0850     2.7220    -0.2840 C.ar  1 <1>   0.0820 
 16 C       -3.1450     3.5090     0.1360 C.ar  1 <1>  -0.1500 
 17 C       -2.3390     1.5000    -0.9010 C.ar  1 <1>  -0.1500 
 18 C       -4.4570     3.0990    -0.0470 C.ar  1 <1>  -0.1440 
 19 C       -3.6450     1.0850    -1.0870 C.ar  1 <1>  -0.1500 
 20 C       -4.6960     1.8790    -0.6630 C.ar  1 <1>  -0.1500 
 21 C       -5.6050     3.9880     0.4260 C.3   1 <1>   0.0630 
 22 C       -6.4410     3.2780     1.4960 C.3   1 <1>  -0.2400 
 23 C       -6.4830     4.4210    -0.7520 C.3   1 <1>  -0.2400 
 24 H        5.7760     1.9360     1.1420 H     1 <1>   0.0800 
 25 H        9.4190     0.8930    -0.9690 H     1 <1>   0.0800 
 26 H        8.8690    -0.6610    -0.3530 H     1 <1>   0.0800 
 27 H        4.5400    -0.0980     0.7150 H     1 <1>   0.0800 
 28 H        4.2080     0.3670    -0.9210 H     1 <1>   0.0800 
 29 H        5.1840     2.8110    -1.6960 H     1 <1>   0.0800 
 30 H        6.0520     3.7010    -0.4880 H     1 <1>   0.0800 
 31 H       10.2510     1.4950     1.2960 H     1 <1>   0.0800 
 32 H       11.0010     0.0170     0.7480 H     1 <1>   0.0800 
 33 H        9.7020    -0.0580     1.9110 H     1 <1>   0.0800 
 34 H        3.1570     1.7220     1.5710 H     1 <1>   0.0800 
 35 H        2.2420     0.7520     0.4410 H     1 <1>   0.0800 
 36 H        3.7370     4.5160    -0.7510 H     1 <1>   0.0800 
 37 H        4.0380     3.9340     0.8700 H     1 <1>   0.0800 
 38 H        2.8180     2.3570    -1.2910 H     1 <1>   0.4500 
 39 H        1.4590     4.2550    -0.5110 H     1 <1>   0.0800 
 40 H        1.4610     3.5150     1.0700 H     1 <1>   0.0800 
 41 H        0.2720     1.5420     0.1410 H     1 <1>   0.0800 
 42 H        0.2940     2.3080    -1.4610 H     1 <1>   0.0800 
 43 H       -2.9330     4.4490     0.6100 H     1 <1>   0.1500 
 44 H       -1.5500     0.8610    -1.2440 H     1 <1>   0.1500 
 45 H       -3.8500     0.1420    -1.5640 H     1 <1>   0.1500 
 46 H       -5.7050     1.5390    -0.8160 H     1 <1>   0.1500 
 47 H       -5.1930     4.8780     0.8710 H     1 <1>   0.0800 
 48 H       -6.9210     2.4050     1.0920 H     1 <1>   0.0800 
 49 H       -7.1970     3.9400     1.8780 H     1 <1>   0.0800 
 50 H       -5.8080     2.9750     2.3110 H     1 <1>   0.0800 
 51 H       -6.9640     3.5730    -1.2050 H     1 <1>   0.0800 
 52 H       -5.8790     4.9100    -1.4960 H     1 <1>   0.0800 
 53 H       -7.2400     5.1080    -0.4190 H     1 <1>   0.0800 
@<TRIPOS>BOND
  1   1   2  2   
  2   2   3  1   
  3   2   4  1   
  4   3   5  1   
  5   4   6  1   
  6   4   7  1   
  7   4  24  1   
  8   5   8  1   
  9   5  25  1   
 10   5  26  1   
 11   6   9  1   
 12   6  27  1   
 13   6  28  1   
 14   7  10  1   
 15   7  29  1   
 16   7  30  1   
 17   8  31  1   
 18   8  32  1   
 19   8  33  1   
 20   9  11  1   
 21   9  34  1   
 22   9  35  1   
 23  10  11  1   
 24  10  36  1   
 25  10  37  1   
 26  11  12  1   
 27  11  38  1   
 28  12  13  1   
 29  12  39  1   
 30  12  40  1   
 31  13  14  1   
 32  13  41  1   
 33  13  42  1   
 34  14  15  1   
 35  15  16  ar  
 36  15  17  ar  
 37  16  18  ar  
 38  16  43  1   
 39  17  19  ar  
 40  17  44  1   
 41  18  20  ar  
 42  18  21  1   
 43  19  20  ar  
 44  19  45  1   
 45  20  46  1   
 46  21  22  1   
 47  21  23  1   
 48  21  47  1   
 49  22  48  1   
 50  22  49  1   
 51  22  50  1   
 52  23  51  1   
 53  23  52  1   
 54  23  53  1   
@<TRIPOS>SUBSTRUCTURE
  1 ****  13 GROUP 4 **** **** 0

# MOE 2024.06 (io_trps.svl 2023.06)
