@<TRIPOS>MOLECULE
NONAME
43 43 1 0 0 
SMALL
USER_CHARGES


@<TRIPOS>ATOM
  1 O        0.3400    -1.7160     0.1470 O.3   1 <1>  -0.3630 
  2 C       -0.9860    -1.5570     0.4050 C.ar  1 <1>   0.0830 
  3 C        1.2970    -0.7840     0.5770 C.3   1 <1>   0.1200 
  4 C       -1.8720    -2.4730    -0.1610 C.ar  1 <1>  -0.1440 
  5 C       -1.4780    -0.5240     1.2010 C.ar  1 <1>  -0.1500 
  6 C        2.6460    -1.2520     0.0350 C.3   1 <1>  -0.1600 
  7 C       -3.2320    -2.3390     0.0710 C.ar  1 <1>  -0.1500 
  8 C       -1.3840    -3.6220    -1.0360 C.3   1 <1>  -0.0160 
  9 C       -2.8380    -0.4030     1.4250 C.ar  1 <1>  -0.1500 
 10 C        3.7580    -0.2920     0.4360 C.3   1 <1>   0.3430 
 11 C       -3.7150    -1.3100     0.8600 C.ar  1 <1>  -0.1500 
 12 C       -1.2210    -3.1660    -2.4880 C.3   1 <1>  -0.2400 
 13 N        5.0390    -0.7920    -0.1170 N.4   1 <1>  -0.9060 
 14 C        6.1970     0.0760     0.1490 C.3   1 <1>   0.4230 
 15 C        7.3510    -0.3580    -0.7620 C.3   1 <1>  -0.1600 
 16 C        6.5880    -0.0470     1.6200 C.3   1 <1>  -0.2400 
 17 C        7.0270    -0.2700    -2.2630 C.3   1 <1>  -0.2400 
 18 H        1.2880    -0.7670     1.6540 H     1 <1>   0.0800 
 19 H        1.0260     0.1800     0.1800 H     1 <1>   0.0800 
 20 H       -0.8280     0.1950     1.6560 H     1 <1>   0.1500 
 21 H        2.5790    -1.3050    -1.0380 H     1 <1>   0.0800 
 22 H        2.8490    -2.2320     0.4320 H     1 <1>   0.0800 
 23 H       -3.9250    -3.0370    -0.3650 H     1 <1>   0.1500 
 24 H       -2.0880    -4.4350    -0.9940 H     1 <1>   0.0800 
 25 H       -0.4450    -3.9960    -0.6640 H     1 <1>   0.0800 
 26 H       -3.2150     0.3950     2.0390 H     1 <1>   0.1500 
 27 H        3.8160    -0.2330     1.5120 H     1 <1>   0.0800 
 28 H        3.5470     0.6920     0.0480 H     1 <1>   0.0800 
 29 H       -4.7730    -1.2160     1.0320 H     1 <1>   0.1500 
 30 H       -2.1610    -2.8100    -2.8700 H     1 <1>   0.0800 
 31 H       -0.8850    -3.9840    -3.0990 H     1 <1>   0.0800 
 32 H       -0.5020    -2.3690    -2.5450 H     1 <1>   0.0800 
 33 H        4.9550    -0.8880    -1.1360 H     1 <1>   0.4500 
 34 H        5.2410    -1.7290     0.2480 H     1 <1>   0.4500 
 35 H        5.9450     1.1010    -0.0750 H     1 <1>   0.0800 
 36 H        7.6640    -1.3590    -0.5170 H     1 <1>   0.0800 
 37 H        8.1910     0.2870    -0.5670 H     1 <1>   0.0800 
 38 H        6.8250    -1.0640     1.8780 H     1 <1>   0.0800 
 39 H        5.8070     0.3150     2.2640 H     1 <1>   0.0800 
 40 H        7.4610     0.5540     1.8100 H     1 <1>   0.0800 
 41 H        6.2910    -0.9950    -2.5610 H     1 <1>   0.0800 
 42 H        7.9200    -0.4640    -2.8330 H     1 <1>   0.0800 
 43 H        6.6800     0.7160    -2.5240 H     1 <1>   0.0800 
@<TRIPOS>BOND
  1   1   2  1   
  2   1   3  1   
  3   2   4  ar  
  4   2   5  ar  
  5   3   6  1   
  6   3  18  1   
  7   3  19  1   
  8   4   7  ar  
  9   4   8  1   
 10   5   9  ar  
 11   5  20  1   
 12   6  10  1   
 13   6  21  1   
 14   6  22  1   
 15   7  11  ar  
 16   7  23  1   
 17   8  12  1   
 18   8  24  1   
 19   8  25  1   
 20   9  11  ar  
 21   9  26  1   
 22  10  13  1   
 23  10  27  1   
 24  10  28  1   
 25  11  29  1   
 26  12  30  1   
 27  12  31  1   
 28  12  32  1   
 29  13  14  1   
 30  13  33  1   
 31  13  34  1   
 32  14  15  1   
 33  14  16  1   
 34  14  35  1   
 35  15  17  1   
 36  15  36  1   
 37  15  37  1   
 38  16  38  1   
 39  16  39  1   
 40  16  40  1   
 41  17  41  1   
 42  17  42  1   
 43  17  43  1   
@<TRIPOS>SUBSTRUCTURE
  1 ****   3 GROUP 4 **** **** 0

# MOE 2024.06 (io_trps.svl 2023.06)
