@<TRIPOS>MOLECULE
NONAME
44 47 1 0 0 
SMALL
USER_CHARGES


@<TRIPOS>ATOM
  1 N       -6.1370     3.8260    -0.8010 N.2   1 <1>  -0.2500 
  2 N       -7.2140     3.7070     0.0220 N.pl3 1 <1>  -0.4640 
  3 C       -5.5280     2.7030    -0.6650 C.2   1 <1>   0.7280 
  4 C       -7.2100     2.5390     0.6260 C.cat 1 <1>   1.0690 
  5 C       -8.3030     4.4340     0.4920 C.ar  1 <1>   0.3020 
  6 N       -6.1630     1.8320     0.2070 N.pl3 1 <1>  -0.6120 
  7 C       -4.2410     2.3380    -1.3710 C.3   1 <1>  -0.1870 
  8 N       -8.2350     2.4160     1.4790 N.pl3 1 <1>  -0.7040 
  9 C       -8.9440     3.6120     1.4110 C.ar  1 <1>   0.3020 
 10 C       -8.7790     5.7060     0.2080 C.ar  1 <1>  -0.1180 
 11 C       -5.7050     0.4790     0.6520 C.3   1 <1>   0.1590 
 12 C      -10.0850     4.0520     2.0710 C.ar  1 <1>  -0.1180 
 13 C       -9.9140     6.1410     0.8650 C.ar  1 <1>  -0.1580 
 14 C       -5.9680    -0.6190    -0.4080 C.3   1 <1>   0.3360 
 15 C      -10.5620     5.3190     1.7900 C.ar  1 <1>  -0.1580 
 16 N       -5.3050    -1.9230    -0.0860 N.4   1 <1>  -0.9610 
 17 C       -5.3940    -2.8500    -1.2570 C.3   1 <1>   0.3360 
 18 C       -5.8500    -2.5920     1.1370 C.3   1 <1>   0.3360 
 19 C       -4.5380    -4.0890    -0.9960 C.3   1 <1>  -0.1680 
 20 C       -5.0060    -3.8240     1.4650 C.3   1 <1>  -0.1680 
 21 C       -4.9620    -4.8070     0.2900 C.3   1 <1>  -0.1680 
 22 H       -4.3950     1.5030    -2.0280 H     1 <1>   0.0710 
 23 H       -3.4760     2.0990    -0.6540 H     1 <1>   0.0710 
 24 H       -3.9010     3.1720    -1.9590 H     1 <1>   0.0710 
 25 H       -8.4520     1.6420     2.1040 H     1 <1>   0.4440 
 26 H       -8.2690     6.3280    -0.5070 H     1 <1>   0.1420 
 27 H       -6.2110     0.2200     1.5670 H     1 <1>   0.0710 
 28 H       -4.6490     0.5260     0.8580 H     1 <1>   0.0710 
 29 H      -10.5860     3.4210     2.7850 H     1 <1>   0.1420 
 30 H      -10.3100     7.1250     0.6660 H     1 <1>   0.1420 
 31 H       -5.5940    -0.2750    -1.3580 H     1 <1>   0.0710 
 32 H       -7.0300    -0.7780    -0.5050 H     1 <1>   0.0710 
 33 H      -11.4460     5.6860     2.2880 H     1 <1>   0.1420 
 34 H       -4.2960    -1.7900     0.0750 H     1 <1>   0.4440 
 35 H       -5.0410    -2.3580    -2.1490 H     1 <1>   0.0710 
 36 H       -6.4180    -3.1470    -1.4140 H     1 <1>   0.0710 
 37 H       -6.8710    -2.8930     0.9660 H     1 <1>   0.0710 
 38 H       -5.8250    -1.9180     1.9770 H     1 <1>   0.0710 
 39 H       -3.5020    -3.8060    -0.9350 H     1 <1>   0.0710 
 40 H       -4.6370    -4.7660    -1.8270 H     1 <1>   0.0710 
 41 H       -5.4250    -4.3190     2.3240 H     1 <1>   0.0710 
 42 H       -4.0070    -3.5190     1.7270 H     1 <1>   0.0710 
 43 H       -4.2740    -5.6080     0.5070 H     1 <1>   0.0710 
 44 H       -5.9370    -5.2440     0.1520 H     1 <1>   0.0710 
@<TRIPOS>BOND
  1   1   2  1   
  2   1   3  2   
  3   2   4  ar  
  4   2   5  1   
  5   3   6  1   
  6   3   7  1   
  7   4   6  ar  
  8   4   8  ar  
  9   5   9  ar  
 10   5  10  ar  
 11   6  11  1   
 12   7  22  1   
 13   7  23  1   
 14   7  24  1   
 15   8   9  1   
 16   8  25  1   
 17   9  12  ar  
 18  10  13  ar  
 19  10  26  1   
 20  11  14  1   
 21  11  27  1   
 22  11  28  1   
 23  12  15  ar  
 24  12  29  1   
 25  13  15  ar  
 26  13  30  1   
 27  14  16  1   
 28  14  31  1   
 29  14  32  1   
 30  15  33  1   
 31  16  17  1   
 32  16  18  1   
 33  16  34  1   
 34  17  19  1   
 35  17  35  1   
 36  17  36  1   
 37  18  20  1   
 38  18  37  1   
 39  18  38  1   
 40  19  21  1   
 41  19  39  1   
 42  19  40  1   
 43  20  21  1   
 44  20  41  1   
 45  20  42  1   
 46  21  43  1   
 47  21  44  1   
@<TRIPOS>SUBSTRUCTURE
  1 ****   6 GROUP 4 **** **** 0

# MOE 2024.06 (io_trps.svl 2023.06)
