@<TRIPOS>MOLECULE
NONAME
43 45 1 0 0 
SMALL
USER_CHARGES


@<TRIPOS>ATOM
  1 O        0.1120     0.8560    -1.7550 O.2   1 <1>  -0.5700 
  2 C        0.1720     1.7390    -0.9190 C.2   1 <1>   0.5440 
  3 N       -0.8870     1.9200    -0.0480 N.am  1 <1>  -0.6600 
  4 C        1.3660     2.5590    -0.8670 C.ar  1 <1>   0.0860 
  5 C       -2.1780     1.2150    -0.2710 C.3   1 <1>   0.1400 
  6 C       -0.7780     2.7190     1.2080 C.3   1 <1>   0.1400 
  7 C        2.6100     1.9890    -0.6140 C.ar  1 <1>  -0.1500 
  8 C        1.3130     3.9370    -1.0750 C.ar  1 <1>  -0.1500 
  9 C       -3.0940     2.0890    -1.1340 C.3   1 <1>  -0.1600 
 10 C       -2.0230     3.5680     1.5100 C.3   1 <1>  -0.1600 
 11 C        3.7700     2.7460    -0.5440 C.ar  1 <1>   0.1170 
 12 C        2.4560     4.7110    -1.0130 C.ar  1 <1>  -0.1500 
 13 C       -3.7060     3.2940    -0.4010 C.3   1 <1>  -0.1600 
 14 C       -2.6860     4.2200     0.2830 C.3   1 <1>  -0.1600 
 15 N        4.9840     2.0920    -0.2910 N.am  1 <1>  -0.5470 
 16 C        3.6770     4.1190    -0.7480 C.ar  1 <1>  -0.1500 
 17 C        6.1750     2.5280     0.2370 C.2   1 <1>   0.7150 
 18 O        6.3050     3.6770     0.6160 O.2   1 <1>  -0.5700 
 19 C        7.2630     1.5870     0.3460 C.2   1 <1>   0.0550 
 20 O        7.1160     0.3230    -0.0480 O.3   1 <1>  -0.2800 
 21 C        8.5320     1.7450     0.8160 C.2   1 <1>  -0.1500 
 22 C        8.2440    -0.3180     0.1560 C.2   1 <1>  -0.0100 
 23 C        9.1670     0.5090     0.6920 C.2   1 <1>  -0.1500 
 24 H       -2.6480     0.9820     0.6690 H     1 <1>   0.0800 
 25 H       -1.9980     0.2830    -0.7800 H     1 <1>   0.0800 
 26 H        0.0700     3.3770     1.1520 H     1 <1>   0.0800 
 27 H       -0.6030     2.0460     2.0300 H     1 <1>   0.0800 
 28 H        2.6570     0.9250    -0.4700 H     1 <1>   0.1500 
 29 H        0.3630     4.3950    -1.2890 H     1 <1>   0.1500 
 30 H       -3.8990     1.4740    -1.4940 H     1 <1>   0.0800 
 31 H       -2.5430     2.4230    -1.9960 H     1 <1>   0.0800 
 32 H       -1.7190     4.3460     2.1880 H     1 <1>   0.0800 
 33 H       -2.7430     2.9700     2.0400 H     1 <1>   0.0800 
 34 H        2.3990     5.7740    -1.1740 H     1 <1>   0.1500 
 35 H       -4.4110     2.9420     0.3320 H     1 <1>   0.0800 
 36 H       -4.2610     3.8720    -1.1190 H     1 <1>   0.0800 
 37 H       -1.9420     4.5440    -0.4230 H     1 <1>   0.0800 
 38 H       -3.2150     5.0960     0.6170 H     1 <1>   0.0800 
 39 H        4.9990     1.0940    -0.4980 H     1 <1>   0.3700 
 40 H        4.5580     4.7330    -0.7090 H     1 <1>   0.1500 
 41 H        8.9730     2.6450     1.2100 H     1 <1>   0.1500 
 42 H        8.3120    -1.3610    -0.1060 H     1 <1>   0.1500 
 43 H       10.1820     0.2910     0.9740 H     1 <1>   0.1500 
@<TRIPOS>BOND
  1   1   2  2   
  2   2   3  am  
  3   2   4  1   
  4   3   5  1   
  5   3   6  1   
  6   4   7  ar  
  7   4   8  ar  
  8   5   9  1   
  9   5  24  1   
 10   5  25  1   
 11   6  10  1   
 12   6  26  1   
 13   6  27  1   
 14   7  11  ar  
 15   7  28  1   
 16   8  12  ar  
 17   8  29  1   
 18   9  13  1   
 19   9  30  1   
 20   9  31  1   
 21  10  14  1   
 22  10  32  1   
 23  10  33  1   
 24  11  15  1   
 25  11  16  ar  
 26  12  16  ar  
 27  12  34  1   
 28  13  14  1   
 29  13  35  1   
 30  13  36  1   
 31  14  37  1   
 32  14  38  1   
 33  15  17  am  
 34  15  39  1   
 35  16  40  1   
 36  17  18  2   
 37  17  19  1   
 38  19  20  1   
 39  19  21  2   
 40  20  22  1   
 41  21  23  1   
 42  21  41  1   
 43  22  23  2   
 44  22  42  1   
 45  23  43  1   
@<TRIPOS>SUBSTRUCTURE
  1 ****   7 GROUP 4 **** **** 0

# MOE 2024.06 (io_trps.svl 2023.06)
