@<TRIPOS>MOLECULE
NONAME
48 50 1 0 0 
SMALL
USER_CHARGES


@<TRIPOS>ATOM
  1 F       -7.8580     0.7500    -0.0320 F     1 <1>  -0.1900 
  2 C       -8.8060    -0.1340     0.1610 C.ar  1 <1>   0.1900 
  3 C       -8.5390    -1.5090     0.1660 C.ar  1 <1>   0.0820 
  4 C      -10.0790     0.3680     0.3590 C.ar  1 <1>  -0.1500 
  5 O       -7.3290    -2.1120    -0.0190 O.3   1 <1>  -0.3630 
  6 C       -9.6080    -2.3680     0.3790 C.ar  1 <1>  -0.1500 
  7 C      -11.1270    -0.5120     0.5690 C.ar  1 <1>  -0.1500 
  8 C       -6.1510    -1.3860    -0.3030 C.3   1 <1>   0.1200 
  9 C      -10.8890    -1.8770     0.5790 C.ar  1 <1>  -0.1500 
 10 C       -4.9920    -2.3730    -0.4850 C.3   1 <1>   0.2000 
 11 O       -4.9560    -3.2430     0.6090 O.3   1 <1>  -0.6800 
 12 C       -3.6280    -1.6580    -0.6050 C.3   1 <1>   0.3430 
 13 N       -2.5210    -2.5710    -0.1860 N.4   1 <1>  -0.9590 
 14 C       -1.3070    -1.8350     0.3240 C.3   1 <1>   0.3430 
 15 C       -2.1570    -3.5810    -1.2470 C.3   1 <1>   0.3430 
 16 C       -0.1840    -2.7900     0.7810 C.3   1 <1>   0.2090 
 17 C       -1.0380    -4.5400    -0.7910 C.3   1 <1>   0.2090 
 18 N        0.1410    -3.7750    -0.2900 N.pl3 1 <1>  -0.8380 
 19 C        1.3100    -4.5040    -0.1090 C.ar  1 <1>   0.1000 
 20 C        2.4080    -4.2520    -0.9210 C.ar  1 <1>  -0.1500 
 21 C        1.4130    -5.4870     0.8700 C.ar  1 <1>  -0.1500 
 22 C        3.5840    -4.9630    -0.7610 C.ar  1 <1>  -0.1500 
 23 C        2.5870    -6.2000     1.0330 C.ar  1 <1>  -0.1500 
 24 C        3.6750    -5.9390     0.2170 C.ar  1 <1>  -0.1500 
 25 H      -10.2470     1.4300     0.3480 H     1 <1>   0.1500 
 26 H       -9.4380    -3.4300     0.3890 H     1 <1>   0.1500 
 27 H      -12.1250    -0.1370     0.7250 H     1 <1>   0.1500 
 28 H       -5.9550    -0.7220     0.5210 H     1 <1>   0.0800 
 29 H       -6.3090    -0.8190    -1.2050 H     1 <1>   0.0800 
 30 H      -11.7050    -2.5610     0.7430 H     1 <1>   0.1500 
 31 H       -5.1710    -2.9630    -1.3670 H     1 <1>   0.0800 
 32 H       -5.8840    -3.4940     0.8340 H     1 <1>   0.4000 
 33 H       -3.6450    -0.8010     0.0480 H     1 <1>   0.0800 
 34 H       -3.4750    -1.3030    -1.6110 H     1 <1>   0.0800 
 35 H       -2.9400    -3.1090     0.5970 H     1 <1>   0.4500 
 36 H       -1.5830    -1.2000     1.1500 H     1 <1>   0.0800 
 37 H       -0.9120    -1.2090    -0.4590 H     1 <1>   0.0800 
 38 H       -1.8150    -3.0680    -2.1300 H     1 <1>   0.0800 
 39 H       -3.0250    -4.1600    -1.5130 H     1 <1>   0.0800 
 40 H       -0.4860    -3.3100     1.6740 H     1 <1>   0.0800 
 41 H        0.6990    -2.2180     1.0140 H     1 <1>   0.0800 
 42 H       -0.7330    -5.1550    -1.6200 H     1 <1>   0.0800 
 43 H       -1.4080    -5.1890    -0.0150 H     1 <1>   0.0800 
 44 H        2.3340    -3.4950    -1.6790 H     1 <1>   0.1500 
 45 H        0.5740    -5.6940     1.5070 H     1 <1>   0.1500 
 46 H        4.4280    -4.7590    -1.3960 H     1 <1>   0.1500 
 47 H        2.6570    -6.9580     1.7930 H     1 <1>   0.1500 
 48 H        4.5890    -6.4930     0.3420 H     1 <1>   0.1500 
@<TRIPOS>BOND
  1   1   2  1   
  2   2   3  ar  
  3   2   4  ar  
  4   3   5  1   
  5   3   6  ar  
  6   4   7  ar  
  7   4  25  1   
  8   5   8  1   
  9   6   9  ar  
 10   6  26  1   
 11   7   9  ar  
 12   7  27  1   
 13   8  10  1   
 14   8  28  1   
 15   8  29  1   
 16   9  30  1   
 17  10  11  1   
 18  10  12  1   
 19  10  31  1   
 20  11  32  1   
 21  12  13  1   
 22  12  33  1   
 23  12  34  1   
 24  13  14  1   
 25  13  15  1   
 26  13  35  1   
 27  14  16  1   
 28  14  36  1   
 29  14  37  1   
 30  15  17  1   
 31  15  38  1   
 32  15  39  1   
 33  16  18  1   
 34  16  40  1   
 35  16  41  1   
 36  17  18  1   
 37  17  42  1   
 38  17  43  1   
 39  18  19  1   
 40  19  20  ar  
 41  19  21  ar  
 42  20  22  ar  
 43  20  44  1   
 44  21  23  ar  
 45  21  45  1   
 46  22  24  ar  
 47  22  46  1   
 48  23  24  ar  
 49  23  47  1   
 50  24  48  1   
@<TRIPOS>SUBSTRUCTURE
  1 ****  13 GROUP 4 **** **** 0

# MOE 2024.06 (io_trps.svl 2023.06)
