@<TRIPOS>MOLECULE
NONAME
51 53 1 0 0 
SMALL
USER_CHARGES


@<TRIPOS>ATOM
  1 S       -0.3160    -1.3650    -1.2360 S.o2  1 <1>   1.4470 
  2 O        0.1240    -2.3070    -2.2430 O.2   1 <1>  -0.6500 
  3 O       -0.3960     0.0360    -1.5900 O.2   1 <1>  -0.6500 
  4 N        0.7890    -1.4560     0.0420 N.am  1 <1>  -0.8490 
  5 C       -1.8820    -1.9180    -0.4810 C.ar  1 <1>  -0.0090 
  6 C        0.5980    -0.4190     1.0620 C.3   1 <1>   0.1960 
  7 C        2.1850    -1.4710    -0.4350 C.3   1 <1>   0.1960 
  8 C       -2.1110    -3.2310    -0.0590 C.ar  1 <1>  -0.1440 
  9 C       -2.8990    -0.9920    -0.2860 C.ar  1 <1>  -0.1500 
 10 C        1.5500    -0.6290     2.2630 C.3   1 <1>   0.1200 
 11 C        3.2120    -1.0070     0.6240 C.3   1 <1>   0.1200 
 12 C       -3.3210    -3.5730     0.5240 C.ar  1 <1>  -0.1500 
 13 C       -1.0550    -4.3200    -0.2170 C.3   1 <1>  -0.0960 
 14 C       -4.1230    -1.3100     0.2970 C.ar  1 <1>   0.0860 
 15 O        2.7590    -1.2610     1.9210 O.3   1 <1>  -0.5600 
 16 C       -4.3100    -2.6280     0.7030 C.ar  1 <1>  -0.1500 
 17 C       -5.1440    -0.2950     0.4750 C.2   1 <1>   0.5440 
 18 O       -4.8280     0.8380     0.7770 O.2   1 <1>  -0.5700 
 19 N       -6.4660    -0.6180     0.2920 N.am  1 <1>  -0.5470 
 20 C       -7.5940     0.2010     0.4270 C.ar  1 <1>   0.1170 
 21 C       -7.8560     1.2740    -0.4290 C.ar  1 <1>  -0.1440 
 22 C       -8.5010    -0.0890     1.4380 C.ar  1 <1>  -0.1500 
 23 C       -9.0060     2.0260    -0.2500 C.ar  1 <1>  -0.1500 
 24 C       -6.9090     1.6440    -1.5620 C.3   1 <1>  -0.0970 
 25 C       -9.6470     0.6660     1.6060 C.ar  1 <1>  -0.1500 
 26 C       -9.9070     1.7290     0.7600 C.ar  1 <1>  -0.1440 
 27 C      -11.1590     2.5680     0.9390 C.3   1 <1>  -0.0970 
 28 H       -0.4180    -0.4280     1.4180 H     1 <1>   0.0800 
 29 H        0.7830     0.5520     0.6320 H     1 <1>   0.0800 
 30 H        2.2880    -0.8380    -1.3000 H     1 <1>   0.0800 
 31 H        2.4280    -2.4730    -0.7440 H     1 <1>   0.0800 
 32 H       -2.7450     0.0300    -0.5970 H     1 <1>   0.1500 
 33 H        1.0700    -1.2500     2.9980 H     1 <1>   0.0800 
 34 H        1.7810     0.3160     2.7200 H     1 <1>   0.0800 
 35 H        3.3930     0.0500     0.5320 H     1 <1>   0.0800 
 36 H        4.1460    -1.5240     0.4880 H     1 <1>   0.0800 
 37 H       -3.4970    -4.5840     0.8500 H     1 <1>   0.1500 
 38 H       -0.1290    -4.0190     0.2390 H     1 <1>   0.0800 
 39 H       -0.8810    -4.5220    -1.2590 H     1 <1>   0.0800 
 40 H       -1.3680    -5.2360     0.2510 H     1 <1>   0.0800 
 41 H       -5.2330    -2.9180     1.1740 H     1 <1>   0.1500 
 42 H       -6.6640    -1.5830     0.0380 H     1 <1>   0.3700 
 43 H       -8.3060    -0.9080     2.1040 H     1 <1>   0.1500 
 44 H       -9.2050     2.8570    -0.9030 H     1 <1>   0.1500 
 45 H       -6.5650     0.7620    -2.0700 H     1 <1>   0.0800 
 46 H       -6.0590     2.1700    -1.1650 H     1 <1>   0.0800 
 47 H       -7.3970     2.2770    -2.2810 H     1 <1>   0.0800 
 48 H      -10.3320     0.4250     2.3990 H     1 <1>   0.1500 
 49 H      -11.5330     2.8900    -0.0160 H     1 <1>   0.0800 
 50 H      -10.9320     3.4350     1.5340 H     1 <1>   0.0800 
 51 H      -11.9280     2.0010     1.4310 H     1 <1>   0.0800 
@<TRIPOS>BOND
  1   1   2  2   
  2   1   3  2   
  3   1   4  am  
  4   1   5  1   
  5   4   6  1   
  6   4   7  1   
  7   5   8  ar  
  8   5   9  ar  
  9   6  10  1   
 10   6  28  1   
 11   6  29  1   
 12   7  11  1   
 13   7  30  1   
 14   7  31  1   
 15   8  12  ar  
 16   8  13  1   
 17   9  14  ar  
 18   9  32  1   
 19  10  15  1   
 20  10  33  1   
 21  10  34  1   
 22  11  15  1   
 23  11  35  1   
 24  11  36  1   
 25  12  16  ar  
 26  12  37  1   
 27  13  38  1   
 28  13  39  1   
 29  13  40  1   
 30  14  16  ar  
 31  14  17  1   
 32  16  41  1   
 33  17  18  2   
 34  17  19  am  
 35  19  20  1   
 36  19  42  1   
 37  20  21  ar  
 38  20  22  ar  
 39  21  23  ar  
 40  21  24  1   
 41  22  25  ar  
 42  22  43  1   
 43  23  26  ar  
 44  23  44  1   
 45  24  45  1   
 46  24  46  1   
 47  24  47  1   
 48  25  26  ar  
 49  25  48  1   
 50  26  27  1   
 51  27  49  1   
 52  27  50  1   
 53  27  51  1   
@<TRIPOS>SUBSTRUCTURE
  1 ****  14 GROUP 4 **** **** 0

# MOE 2024.06 (io_trps.svl 2023.06)
