@<TRIPOS>MOLECULE
NONAME
47 49 1 0 0 
SMALL
USER_CHARGES


@<TRIPOS>ATOM
  1 CL      -1.3530    -2.5070    -2.6480 Cl    1 <1>  -0.1770 
  2 C       -2.6490    -2.4110    -1.4840 C.ar  1 <1>   0.1770 
  3 C       -3.8610    -3.0130    -1.7650 C.ar  1 <1>  -0.1500 
  4 C       -2.4450    -1.7330    -0.2970 C.ar  1 <1>  -0.1500 
  5 C       -4.8870    -2.9320    -0.8390 C.ar  1 <1>  -0.1500 
  6 C       -3.4750    -1.6570     0.6260 C.ar  1 <1>  -0.1500 
  7 C       -4.7010    -2.2550     0.3590 C.ar  1 <1>  -0.1430 
  8 C       -5.8360    -2.1730     1.3700 C.3   1 <1>   0.2540 
  9 N       -6.9820    -1.4270     0.8120 N.3   1 <1>  -0.8100 
 10 C       -8.1460    -1.4570     1.7290 C.3   1 <1>   0.1100 
 11 C       -6.6260    -0.0270     0.4630 C.3   1 <1>   0.1100 
 12 C       -9.3630    -0.6800     1.1670 C.3   1 <1>   0.3430 
 13 C       -7.8250     0.7610    -0.1200 C.3   1 <1>   0.3430 
 14 N       -9.0560    -0.0900    -0.1800 N.4   1 <1>  -0.9590 
 15 C      -10.2100     0.5730    -0.8250 C.3   1 <1>   0.4810 
 16 C      -11.3130    -0.4480    -0.9630 C.2   1 <1>  -0.2880 
 17 C      -12.4910    -0.3960    -0.3160 C.2   1 <1>  -0.1780 
 18 C      -13.5910    -1.3350    -0.3810 C.ar  1 <1>   0.0280 
 19 C      -14.7480    -1.0990     0.3590 C.ar  1 <1>  -0.1500 
 20 C      -13.5500    -2.4910    -1.1600 C.ar  1 <1>  -0.1500 
 21 C      -15.8170    -1.9760     0.3270 C.ar  1 <1>  -0.1500 
 22 C      -14.6160    -3.3730    -1.1950 C.ar  1 <1>  -0.1500 
 23 C      -15.7520    -3.1170    -0.4510 C.ar  1 <1>  -0.1500 
 24 H       -3.9930    -3.5360    -2.6950 H     1 <1>   0.1500 
 25 H       -1.4920    -1.2760    -0.1020 H     1 <1>   0.1500 
 26 H       -5.8340    -3.3980    -1.0500 H     1 <1>   0.1500 
 27 H       -3.3130    -1.1320     1.5520 H     1 <1>   0.1500 
 28 H       -5.4930    -1.7000     2.2750 H     1 <1>   0.0800 
 29 H       -6.1460    -3.1750     1.6150 H     1 <1>   0.0800 
 30 H       -8.4400    -2.4800     1.8980 H     1 <1>   0.0800 
 31 H       -7.8730    -1.0380     2.6830 H     1 <1>   0.0800 
 32 H       -6.2550     0.4860     1.3340 H     1 <1>   0.0800 
 33 H       -5.8370    -0.0250    -0.2700 H     1 <1>   0.0800 
 34 H       -9.6370     0.1000     1.8580 H     1 <1>   0.0800 
 35 H      -10.2000    -1.3560     1.0920 H     1 <1>   0.0800 
 36 H       -7.5660     1.1040    -1.1080 H     1 <1>   0.0800 
 37 H       -8.0060     1.6300     0.4920 H     1 <1>   0.0800 
 38 H       -8.7720    -0.9060    -0.7420 H     1 <1>   0.4500 
 39 H      -10.5460     1.3990    -0.2190 H     1 <1>   0.0800 
 40 H       -9.9350     0.9470    -1.7980 H     1 <1>   0.0800 
 41 H      -11.0570    -1.2360    -1.6490 H     1 <1>   0.1500 
 42 H      -12.6900     0.4280     0.3480 H     1 <1>   0.1500 
 43 H      -14.8220    -0.2180     0.9690 H     1 <1>   0.1500 
 44 H      -12.6850    -2.7170    -1.7510 H     1 <1>   0.1500 
 45 H      -16.7010    -1.7730     0.9070 H     1 <1>   0.1500 
 46 H      -14.5630    -4.2590    -1.8040 H     1 <1>   0.1500 
 47 H      -16.5830    -3.8020    -0.4780 H     1 <1>   0.1500 
@<TRIPOS>BOND
  1   1   2  1   
  2   2   3  ar  
  3   2   4  ar  
  4   3   5  ar  
  5   3  24  1   
  6   4   6  ar  
  7   4  25  1   
  8   5   7  ar  
  9   5  26  1   
 10   6   7  ar  
 11   6  27  1   
 12   7   8  1   
 13   8   9  1   
 14   8  28  1   
 15   8  29  1   
 16   9  10  1   
 17   9  11  1   
 18  10  12  1   
 19  10  30  1   
 20  10  31  1   
 21  11  13  1   
 22  11  32  1   
 23  11  33  1   
 24  12  14  1   
 25  12  34  1   
 26  12  35  1   
 27  13  14  1   
 28  13  36  1   
 29  13  37  1   
 30  14  15  1   
 31  14  38  1   
 32  15  16  1   
 33  15  39  1   
 34  15  40  1   
 35  16  17  2   
 36  16  41  1   
 37  17  18  1   
 38  17  42  1   
 39  18  19  ar  
 40  18  20  ar  
 41  19  21  ar  
 42  19  43  1   
 43  20  22  ar  
 44  20  44  1   
 45  21  23  ar  
 46  21  45  1   
 47  22  23  ar  
 48  22  46  1   
 49  23  47  1   
@<TRIPOS>SUBSTRUCTURE
  1 ****  14 GROUP 4 **** **** 0

# MOE 2024.06 (io_trps.svl 2023.06)
