@<TRIPOS>MOLECULE
NONAME
57 59 1 0 0 
SMALL
USER_CHARGES


@<TRIPOS>ATOM
  1 O        0.2650    -0.6210    -1.2640 O.2   1 <1>  -0.5700 
  2 C        0.2700    -1.7310    -0.7850 C.2   1 <1>   0.4950 
  3 C        1.4340    -2.3200    -0.1920 C.2   1 <1>   0.0290 
  4 C       -1.0500    -2.4760    -0.8590 C.3   1 <1>  -0.0990 
  5 C        1.3450    -3.6670     0.3010 C.2   1 <1>   0.4950 
  6 C        2.5970    -1.5780    -0.1180 C.2   1 <1>  -0.0500 
  7 C       -1.1740    -3.5150     0.2540 C.3   1 <1>   0.0640 
  8 O        2.2710    -4.2790     0.7870 O.2   1 <1>  -0.5700 
  9 C        0.0410    -4.4420     0.2300 C.3   1 <1>  -0.0990 
 10 N        3.7750    -1.9970     0.4130 N.pl3 1 <1>  -0.8690 
 11 C       -2.4780    -4.3000     0.1410 C.ar  1 <1>  -0.1430 
 12 C        5.0760    -1.3170     0.5540 C.3   1 <1>   0.2890 
 13 C       -2.7630    -5.0780    -0.9740 C.ar  1 <1>  -0.1500 
 14 C       -3.4060    -4.2410     1.1710 C.ar  1 <1>  -0.1500 
 15 C        5.0770     0.0400    -0.1470 C.3   1 <1>  -0.1600 
 16 C        6.1270    -2.2210    -0.0790 C.3   1 <1>  -0.1600 
 17 C       -3.9520    -5.7820    -1.0570 C.ar  1 <1>  -0.1500 
 18 C       -4.5950    -4.9440     1.0900 C.ar  1 <1>  -0.1500 
 19 C        6.4490     0.7190    -0.1050 C.3   1 <1>   0.5030 
 20 C        7.5300    -1.6070    -0.0440 C.3   1 <1>   0.5030 
 21 C       -4.8690    -5.7160    -0.0240 C.ar  1 <1>  -0.1500 
 22 N        7.5150    -0.2120    -0.5110 N.4   1 <1>  -0.9060 
 23 C        6.7590     1.3130     1.2720 C.3   1 <1>  -0.2400 
 24 C        6.4880     1.8530    -1.1280 C.3   1 <1>  -0.2400 
 25 C        8.1620    -1.6930     1.3490 C.3   1 <1>  -0.2400 
 26 C        8.4380    -2.3540    -1.0200 C.3   1 <1>  -0.2400 
 27 H       -1.1210    -2.9400    -1.8250 H     1 <1>   0.0800 
 28 H       -1.8580    -1.7710    -0.7740 H     1 <1>   0.0800 
 29 H        2.5680    -0.5750    -0.5160 H     1 <1>   0.1500 
 30 H       -1.1700    -2.9910     1.1960 H     1 <1>   0.0800 
 31 H       -0.0160    -5.1140     1.0690 H     1 <1>   0.0800 
 32 H        0.0500    -5.0370    -0.6640 H     1 <1>   0.0800 
 33 H        3.7700    -2.9600     0.8060 H     1 <1>   0.4000 
 34 H        5.2730    -1.1930     1.6060 H     1 <1>   0.0800 
 35 H       -2.0660    -5.1470    -1.7910 H     1 <1>   0.1500 
 36 H       -3.2150    -3.6470     2.0480 H     1 <1>   0.1500 
 37 H        4.3520     0.6820     0.3210 H     1 <1>   0.0800 
 38 H        4.7810    -0.1000    -1.1720 H     1 <1>   0.0800 
 39 H        5.8420    -2.4120    -1.0990 H     1 <1>   0.0800 
 40 H        6.1380    -3.1670     0.4330 H     1 <1>   0.0800 
 41 H       -4.1640    -6.3820    -1.9240 H     1 <1>   0.1500 
 42 H       -5.3080    -4.8920     1.8940 H     1 <1>   0.1500 
 43 H       -5.7940    -6.2630    -0.0880 H     1 <1>   0.1500 
 44 H        8.4150     0.2130    -0.2830 H     1 <1>   0.4500 
 45 H        7.4700    -0.2590    -1.5300 H     1 <1>   0.4500 
 46 H        6.6020     0.6130     2.0670 H     1 <1>   0.0800 
 47 H        6.0970     2.1400     1.4640 H     1 <1>   0.0800 
 48 H        7.7660     1.6870     1.3190 H     1 <1>   0.0800 
 49 H        6.3020     1.4900    -2.1240 H     1 <1>   0.0800 
 50 H        7.4340     2.3650    -1.1100 H     1 <1>   0.0800 
 51 H        5.7230     2.5760    -0.9020 H     1 <1>   0.0800 
 52 H        7.5120    -1.3260     2.1180 H     1 <1>   0.0800 
 53 H        9.0960    -1.1620     1.3880 H     1 <1>   0.0800 
 54 H        8.3630    -2.7220     1.5900 H     1 <1>   0.0800 
 55 H        8.0560    -2.3070    -2.0250 H     1 <1>   0.0800 
 56 H        8.4930    -3.3940    -0.7460 H     1 <1>   0.0800 
 57 H        9.4390    -1.9600    -1.0030 H     1 <1>   0.0800 
@<TRIPOS>BOND
  1   1   2  2   
  2   2   3  1   
  3   2   4  1   
  4   3   5  1   
  5   3   6  2   
  6   4   7  1   
  7   4  27  1   
  8   4  28  1   
  9   5   8  2   
 10   5   9  1   
 11   6  10  1   
 12   6  29  1   
 13   7   9  1   
 14   7  11  1   
 15   7  30  1   
 16   9  31  1   
 17   9  32  1   
 18  10  12  1   
 19  10  33  1   
 20  11  13  ar  
 21  11  14  ar  
 22  12  15  1   
 23  12  16  1   
 24  12  34  1   
 25  13  17  ar  
 26  13  35  1   
 27  14  18  ar  
 28  14  36  1   
 29  15  19  1   
 30  15  37  1   
 31  15  38  1   
 32  16  20  1   
 33  16  39  1   
 34  16  40  1   
 35  17  21  ar  
 36  17  41  1   
 37  18  21  ar  
 38  18  42  1   
 39  19  22  1   
 40  19  23  1   
 41  19  24  1   
 42  20  22  1   
 43  20  25  1   
 44  20  26  1   
 45  21  43  1   
 46  22  44  1   
 47  22  45  1   
 48  23  46  1   
 49  23  47  1   
 50  23  48  1   
 51  24  49  1   
 52  24  50  1   
 53  24  51  1   
 54  25  52  1   
 55  25  53  1   
 56  25  54  1   
 57  26  55  1   
 58  26  56  1   
 59  26  57  1   
@<TRIPOS>SUBSTRUCTURE
  1 ****   3 GROUP 4 **** **** 0

# MOE 2024.06 (io_trps.svl 2023.06)
