@<TRIPOS>MOLECULE
NONAME
50 52 1 0 0 
SMALL
USER_CHARGES


@<TRIPOS>ATOM
  1 O        0.5320     0.2410    -0.8310 O.3   1 <1>  -0.3630 
  2 C        1.7100     0.7100    -0.3460 C.ar  1 <1>   0.0830 
  3 C       -0.6910     0.8610    -0.5050 C.3   1 <1>   0.0400 
  4 C        2.8570     0.0620    -0.7660 C.ar  1 <1>  -0.1500 
  5 C        1.8120     1.7850     0.5330 C.ar  1 <1>  -0.1500 
  6 C        4.1130     0.4540    -0.3230 C.ar  1 <1>   0.1000 
  7 C        3.0580     2.1920     0.9770 C.ar  1 <1>  -0.1500 
  8 N        5.2430    -0.2450    -0.7530 N.pl3 1 <1>  -0.8380 
  9 C        4.1980     1.5320     0.5540 C.ar  1 <1>  -0.1500 
 10 C        6.5180     0.4670    -1.0730 C.3   1 <1>   0.2090 
 11 C        5.3590    -1.6890    -0.3940 C.3   1 <1>   0.2090 
 12 C        7.5950     0.1960    -0.0010 C.3   1 <1>   0.3430 
 13 C        6.4490    -1.9090     0.6750 C.3   1 <1>   0.3430 
 14 N        7.7650    -1.2760     0.2990 N.4   1 <1>  -0.9590 
 15 C        8.8100    -1.5090     1.3310 C.3   1 <1>   0.4860 
 16 C       10.1280    -0.9850     0.8010 C.ar  1 <1>  -0.1430 
 17 C       10.8100    -1.6750    -0.1920 C.ar  1 <1>  -0.1500 
 18 C       10.6600     0.1960     1.2970 C.ar  1 <1>  -0.1500 
 19 C       12.0000    -1.1780    -0.6920 C.ar  1 <1>  -0.1500 
 20 C       11.8510     0.6890     0.7940 C.ar  1 <1>  -0.1500 
 21 C       12.5250     0.0080    -0.2060 C.ar  1 <1>  -0.1430 
 22 C       13.8350     0.5500    -0.7550 C.3   1 <1>  -0.0170 
 23 C       15.0190     0.0050     0.0450 C.3   1 <1>  -0.2400 
 24 H       -1.4790     0.3350    -1.0140 H     1 <1>   0.0800 
 25 H       -0.6630     1.8850    -0.8350 H     1 <1>   0.0800 
 26 H       -0.8400     0.8020     0.5590 H     1 <1>   0.0800 
 27 H        2.7670    -0.7560    -1.4550 H     1 <1>   0.1500 
 28 H        0.9430     2.3110     0.8770 H     1 <1>   0.1500 
 29 H        3.1370     3.0250     1.6540 H     1 <1>   0.1500 
 30 H        5.1520     1.8600     0.9150 H     1 <1>   0.1500 
 31 H        6.3370     1.5260    -1.1480 H     1 <1>   0.0800 
 32 H        6.8720     0.1340    -2.0330 H     1 <1>   0.0800 
 33 H        5.5900    -2.2560    -1.2790 H     1 <1>   0.0800 
 34 H        4.4170    -2.0470    -0.0140 H     1 <1>   0.0800 
 35 H        7.3090     0.7150     0.8990 H     1 <1>   0.0800 
 36 H        8.5300     0.6140    -0.3380 H     1 <1>   0.0800 
 37 H        6.5780    -2.9670     0.8280 H     1 <1>   0.0800 
 38 H        6.0950    -1.4820     1.5990 H     1 <1>   0.0800 
 39 H        8.1000    -1.7100    -0.5690 H     1 <1>   0.4500 
 40 H        8.9030    -2.5630     1.5370 H     1 <1>   0.0800 
 41 H        8.5530    -1.0020     2.2460 H     1 <1>   0.0800 
 42 H       10.4350    -2.6040    -0.5860 H     1 <1>   0.1500 
 43 H       10.1640     0.7460     2.0790 H     1 <1>   0.1500 
 44 H       12.5260    -1.7190    -1.4610 H     1 <1>   0.1500 
 45 H       12.2600     1.6050     1.1860 H     1 <1>   0.1500 
 46 H       13.8330     1.6250    -0.7080 H     1 <1>   0.0800 
 47 H       13.9400     0.2700    -1.7890 H     1 <1>   0.0800 
 48 H       14.9360     0.2940     1.0780 H     1 <1>   0.0800 
 49 H       15.9420     0.3920    -0.3490 H     1 <1>   0.0800 
 50 H       15.0440    -1.0690    -0.0110 H     1 <1>   0.0800 
@<TRIPOS>BOND
  1   1   2  1   
  2   1   3  1   
  3   2   4  ar  
  4   2   5  ar  
  5   3  24  1   
  6   3  25  1   
  7   3  26  1   
  8   4   6  ar  
  9   4  27  1   
 10   5   7  ar  
 11   5  28  1   
 12   6   8  1   
 13   6   9  ar  
 14   7   9  ar  
 15   7  29  1   
 16   8  10  1   
 17   8  11  1   
 18   9  30  1   
 19  10  12  1   
 20  10  31  1   
 21  10  32  1   
 22  11  13  1   
 23  11  33  1   
 24  11  34  1   
 25  12  14  1   
 26  12  35  1   
 27  12  36  1   
 28  13  14  1   
 29  13  37  1   
 30  13  38  1   
 31  14  15  1   
 32  14  39  1   
 33  15  16  1   
 34  15  40  1   
 35  15  41  1   
 36  16  17  ar  
 37  16  18  ar  
 38  17  19  ar  
 39  17  42  1   
 40  18  20  ar  
 41  18  43  1   
 42  19  21  ar  
 43  19  44  1   
 44  20  21  ar  
 45  20  45  1   
 46  21  22  1   
 47  22  23  1   
 48  22  46  1   
 49  22  47  1   
 50  23  48  1   
 51  23  49  1   
 52  23  50  1   
@<TRIPOS>SUBSTRUCTURE
  1 ****  12 GROUP 4 **** **** 0

# MOE 2024.06 (io_trps.svl 2023.06)
