@<TRIPOS>MOLECULE
NONAME
29 30 1 0 0 
SMALL
USER_CHARGES


@<TRIPOS>ATOM
  1 BR      -1.5600     0.9590    -3.4490 Br    1 <1>  -0.0580 
  2 C       -2.3630     0.5410    -1.7560 C.2   1 <1>   0.0980 
  3 S       -3.7910    -0.4650    -1.8140 S.3   1 <1>  -0.0800 
  4 C       -2.0170     0.8910    -0.5060 C.2   1 <1>  -0.1500 
  5 C       -3.9130    -0.3960    -0.0540 C.2   1 <1>  -0.1400 
  6 C       -2.9130     0.3480     0.4710 C.2   1 <1>  -0.1500 
  7 C       -5.0690    -1.1440     0.5760 C.3   1 <1>   0.5230 
  8 N       -6.3390    -0.5950     0.0280 N.4   1 <1>  -0.9590 
  9 C       -6.5350     0.8340     0.4240 C.3   1 <1>   0.3430 
 10 C       -7.5050    -1.4590     0.3760 C.3   1 <1>   0.3430 
 11 C       -7.7800     1.3950    -0.2580 C.3   1 <1>  -0.1600 
 12 C       -8.7630    -0.9300    -0.3070 C.3   1 <1>  -0.1600 
 13 C       -8.9940     0.5300     0.0700 C.3   1 <1>   0.2000 
 14 O      -10.0730     1.0010    -0.6340 O.3   1 <1>  -0.6800 
 15 H       -1.1720     1.5020    -0.2360 H     1 <1>   0.1500 
 16 H       -2.7490     0.5480     1.5180 H     1 <1>   0.1500 
 17 H       -5.0420    -1.0330     1.6480 H     1 <1>   0.0800 
 18 H       -4.9820    -2.1910     0.3350 H     1 <1>   0.0800 
 19 H       -6.2220    -0.6080    -0.9950 H     1 <1>   0.4500 
 20 H       -5.6770     1.4220     0.1350 H     1 <1>   0.0800 
 21 H       -6.6490     0.9060     1.4940 H     1 <1>   0.0800 
 22 H       -7.6530    -1.4610     1.4450 H     1 <1>   0.0800 
 23 H       -7.3250    -2.4740     0.0570 H     1 <1>   0.0800 
 24 H       -7.6150     1.4350    -1.3200 H     1 <1>   0.0800 
 25 H       -7.9510     2.3960     0.0960 H     1 <1>   0.0800 
 26 H       -9.6070    -1.5160     0.0130 H     1 <1>   0.0800 
 27 H       -8.6620    -1.0360    -1.3730 H     1 <1>   0.0800 
 28 H       -9.2380     0.6110     1.1180 H     1 <1>   0.0800 
 29 H       -9.9230     0.9770    -1.5990 H     1 <1>   0.4000 
@<TRIPOS>BOND
  1   1   2  1   
  2   2   3  1   
  3   2   4  2   
  4   3   5  1   
  5   4   6  1   
  6   4  15  1   
  7   5   6  2   
  8   5   7  1   
  9   6  16  1   
 10   7   8  1   
 11   7  17  1   
 12   7  18  1   
 13   8   9  1   
 14   8  10  1   
 15   8  19  1   
 16   9  11  1   
 17   9  20  1   
 18   9  21  1   
 19  10  12  1   
 20  10  22  1   
 21  10  23  1   
 22  11  13  1   
 23  11  24  1   
 24  11  25  1   
 25  12  13  1   
 26  12  26  1   
 27  12  27  1   
 28  13  14  1   
 29  13  28  1   
 30  14  29  1   
@<TRIPOS>SUBSTRUCTURE
  1 ****   8 GROUP 4 **** **** 0

# MOE 2024.06 (io_trps.svl 2023.06)
