@<TRIPOS>MOLECULE
NONAME
38 39 1 0 0 
SMALL
USER_CHARGES


@<TRIPOS>ATOM
  1 CL       0.7070    -0.5710     0.9650 Cl    1 <1>  -0.1770 
  2 C       -0.3860     0.6350     0.2950 C.ar  1 <1>   0.1770 
  3 C       -1.7380     0.3240     0.2980 C.ar  1 <1>   0.1770 
  4 C        0.0410     1.8660    -0.2270 C.ar  1 <1>   0.0820 
  5 CL      -2.3010    -1.2030     0.9410 Cl    1 <1>  -0.1770 
  6 C       -2.6820     1.2010    -0.2020 C.ar  1 <1>  -0.1500 
  7 O        1.3160     2.3420    -0.3140 O.3   1 <1>  -0.3630 
  8 C       -0.9200     2.7380    -0.7260 C.ar  1 <1>  -0.1500 
  9 C       -2.2670     2.4160    -0.7170 C.ar  1 <1>  -0.1500 
 10 C        2.4600     1.6410     0.0970 C.3   1 <1>   0.1200 
 11 C        3.6720     2.5230    -0.2010 C.3   1 <1>  -0.1600 
 12 C        4.9580     1.8220     0.2320 C.3   1 <1>   0.3430 
 13 N        6.1500     2.6250    -0.1600 N.4   1 <1>  -0.9590 
 14 C        7.3870     1.7920    -0.0910 C.3   1 <1>   0.3430 
 15 C        6.2910     3.8740     0.6510 C.3   1 <1>   0.3430 
 16 C        8.5740     2.5820    -0.6440 C.3   1 <1>  -0.1600 
 17 C        7.4560     4.7080     0.1160 C.3   1 <1>  -0.1600 
 18 C        8.7660     3.9110     0.0960 C.3   1 <1>  -0.1600 
 19 H       -3.7240     0.9340    -0.1870 H     1 <1>   0.1500 
 20 H       -0.6050     3.6850    -1.1280 H     1 <1>   0.1500 
 21 H       -2.9910     3.1110    -1.1110 H     1 <1>   0.1500 
 22 H        2.5100     0.7200    -0.4580 H     1 <1>   0.0800 
 23 H        2.3760     1.4500     1.1540 H     1 <1>   0.0800 
 24 H        3.5510     3.4490     0.3320 H     1 <1>   0.0800 
 25 H        3.7000     2.7150    -1.2590 H     1 <1>   0.0800 
 26 H        5.0020     0.8570    -0.2480 H     1 <1>   0.0800 
 27 H        4.9520     1.6650     1.3000 H     1 <1>   0.0800 
 28 H        6.0360     2.9120    -1.1410 H     1 <1>   0.4500 
 29 H        7.2590     0.8890    -0.6670 H     1 <1>   0.0800 
 30 H        7.5850     1.5160     0.9330 H     1 <1>   0.0800 
 31 H        6.4750     3.6200     1.6830 H     1 <1>   0.0800 
 32 H        5.3870     4.4580     0.6010 H     1 <1>   0.0800 
 33 H        8.4250     2.7640    -1.6950 H     1 <1>   0.0800 
 34 H        9.4670     1.9890    -0.5460 H     1 <1>   0.0800 
 35 H        7.5790     5.5780     0.7380 H     1 <1>   0.0800 
 36 H        7.2210     5.0550    -0.8760 H     1 <1>   0.0800 
 37 H        9.5400     4.4890    -0.3820 H     1 <1>   0.0800 
 38 H        9.0830     3.7160     1.1080 H     1 <1>   0.0800 
@<TRIPOS>BOND
  1   1   2  1   
  2   2   3  ar  
  3   2   4  ar  
  4   3   5  1   
  5   3   6  ar  
  6   4   7  1   
  7   4   8  ar  
  8   6   9  ar  
  9   6  19  1   
 10   7  10  1   
 11   8   9  ar  
 12   8  20  1   
 13   9  21  1   
 14  10  11  1   
 15  10  22  1   
 16  10  23  1   
 17  11  12  1   
 18  11  24  1   
 19  11  25  1   
 20  12  13  1   
 21  12  26  1   
 22  12  27  1   
 23  13  14  1   
 24  13  15  1   
 25  13  28  1   
 26  14  16  1   
 27  14  29  1   
 28  14  30  1   
 29  15  17  1   
 30  15  31  1   
 31  15  32  1   
 32  16  18  1   
 33  16  33  1   
 34  16  34  1   
 35  17  18  1   
 36  17  35  1   
 37  17  36  1   
 38  18  37  1   
 39  18  38  1   
@<TRIPOS>SUBSTRUCTURE
  1 ****  10 GROUP 4 **** **** 0

# MOE 2024.06 (io_trps.svl 2023.06)
