@<TRIPOS>MOLECULE
NONAME
37 38 1 0 0 
SMALL
USER_CHARGES


@<TRIPOS>ATOM
  1 BR      -0.0790     0.2980    -0.3450 Br    1 <1>  -0.1110 
  2 C        1.8190     0.0560    -0.1280 C.ar  1 <1>   0.1110 
  3 C        2.5430     1.0340     0.5260 C.ar  1 <1>  -0.1500 
  4 C        2.4060    -1.0890    -0.6330 C.ar  1 <1>  -0.1500 
  5 C        3.9030     0.8390     0.6700 C.ar  1 <1>   0.1770 
  6 C        3.7720    -1.2690    -0.4800 C.ar  1 <1>  -0.1500 
  7 CL       4.8270     2.0750     1.4980 Cl    1 <1>  -0.1770 
  8 C        4.5360    -0.3010     0.1760 C.ar  1 <1>   0.0830 
  9 O        5.8800    -0.4160     0.3600 O.3   1 <1>  -0.3630 
 10 C        6.6030    -1.5270    -0.1170 C.3   1 <1>   0.1200 
 11 C        8.0710    -1.3310     0.2570 C.3   1 <1>  -0.1600 
 12 C        8.9210    -2.5000    -0.2470 C.3   1 <1>   0.1400 
 13 N       10.3310    -2.2950     0.1330 N.am  1 <1>  -0.4200 
 14 C       10.9020    -2.7440     1.2890 C.2   1 <1>   0.6900 
 15 C       11.2720    -1.6610    -0.6220 C.2   1 <1>   0.5690 
 16 O       10.3410    -3.4120     2.1290 O.2   1 <1>  -0.5700 
 17 N       12.1990    -2.3850     1.3680 N.am  1 <1>  -0.7300 
 18 O       11.0940    -1.1730    -1.7140 O.2   1 <1>  -0.5700 
 19 C       12.6100    -1.6830     0.1460 C.3   1 <1>   0.3610 
 20 C       13.6940    -2.5050    -0.5540 C.3   1 <1>  -0.2400 
 21 C       13.1090    -0.2870     0.5270 C.3   1 <1>  -0.2400 
 22 H        2.0660     1.9160     0.9100 H     1 <1>   0.1500 
 23 H        1.8030    -1.8250    -1.1360 H     1 <1>   0.1500 
 24 H        4.2180    -2.1620    -0.8750 H     1 <1>   0.1500 
 25 H        6.4850    -1.5740    -1.1860 H     1 <1>   0.0800 
 26 H        6.2080    -2.4140     0.3470 H     1 <1>   0.0800 
 27 H        8.1530    -1.2670     1.3290 H     1 <1>   0.0800 
 28 H        8.4260    -0.4160    -0.1850 H     1 <1>   0.0800 
 29 H        8.8530    -2.5710    -1.3200 H     1 <1>   0.0800 
 30 H        8.5720    -3.4250     0.1810 H     1 <1>   0.0800 
 31 H       12.8450    -2.7790     2.0490 H     1 <1>   0.3700 
 32 H       13.3330    -3.4940    -0.7710 H     1 <1>   0.0800 
 33 H       14.5760    -2.5720     0.0570 H     1 <1>   0.0800 
 34 H       13.9590    -2.0330    -1.4840 H     1 <1>   0.0800 
 35 H       12.3430     0.2520     1.0550 H     1 <1>   0.0800 
 36 H       13.3550     0.2640    -0.3630 H     1 <1>   0.0800 
 37 H       13.9870    -0.3530     1.1440 H     1 <1>   0.0800 
@<TRIPOS>BOND
  1   1   2  1   
  2   2   3  ar  
  3   2   4  ar  
  4   3   5  ar  
  5   3  22  1   
  6   4   6  ar  
  7   4  23  1   
  8   5   7  1   
  9   5   8  ar  
 10   6   8  ar  
 11   6  24  1   
 12   8   9  1   
 13   9  10  1   
 14  10  11  1   
 15  10  25  1   
 16  10  26  1   
 17  11  12  1   
 18  11  27  1   
 19  11  28  1   
 20  12  13  1   
 21  12  29  1   
 22  12  30  1   
 23  13  14  am  
 24  13  15  am  
 25  14  16  2   
 26  14  17  am  
 27  15  18  2   
 28  15  19  1   
 29  17  19  1   
 30  17  31  1   
 31  19  20  1   
 32  19  21  1   
 33  20  32  1   
 34  20  33  1   
 35  20  34  1   
 36  21  35  1   
 37  21  36  1   
 38  21  37  1   
@<TRIPOS>SUBSTRUCTURE
  1 ****  11 GROUP 4 **** **** 0

# MOE 2024.06 (io_trps.svl 2023.06)
