@<TRIPOS>MOLECULE
NONAME
28 28 1 0 0 
SMALL
USER_CHARGES


@<TRIPOS>ATOM
  1 CL      -0.9460    -1.4400    -1.7990 Cl    1 <1>  -0.1770 
  2 C        0.3440    -2.1640    -0.8700 C.ar  1 <1>   0.1770 
  3 C        0.0530    -2.7680     0.3470 C.ar  1 <1>  -0.1440 
  4 C        1.6280    -2.1310    -1.3780 C.ar  1 <1>  -0.1500 
  5 C        1.0850    -3.3560     1.0690 C.ar  1 <1>  -0.1500 
  6 C       -1.3660    -2.7760     0.8750 C.3   1 <1>   0.4870 
  7 C        2.6370    -2.7220    -0.6430 C.ar  1 <1>   0.1770 
  8 C        2.3790    -3.3320     0.5710 C.ar  1 <1>  -0.1500 
  9 N       -2.1500    -3.7230     0.0520 N.4   1 <1>  -0.9060 
 10 CL       4.2670    -2.7000    -1.2600 Cl    1 <1>  -0.1770 
 11 C       -3.5740    -3.8310     0.4920 C.3   1 <1>   0.3430 
 12 C       -4.3980    -4.8020    -0.3770 C.3   1 <1>   0.2000 
 13 O       -5.6330    -4.9050     0.2160 O.3   1 <1>  -0.6800 
 14 C       -3.8220    -6.2180    -0.4540 C.3   1 <1>  -0.2400 
 15 H        1.8430    -1.6600    -2.3200 H     1 <1>   0.1500 
 16 H        0.9040    -3.8300     2.0210 H     1 <1>   0.1500 
 17 H       -1.7850    -1.7840     0.8060 H     1 <1>   0.0800 
 18 H       -1.3720    -3.0830     1.9080 H     1 <1>   0.0800 
 19 H        3.1910    -3.7820     1.1190 H     1 <1>   0.1500 
 20 H       -1.6970    -4.6440     0.0820 H     1 <1>   0.4500 
 21 H       -2.1050    -3.3970    -0.9240 H     1 <1>   0.4500 
 22 H       -4.0430    -2.8610     0.4530 H     1 <1>   0.0800 
 23 H       -3.6080    -4.1830     1.5100 H     1 <1>   0.0800 
 24 H       -4.5440    -4.3930    -1.3630 H     1 <1>   0.0800 
 25 H       -6.2140    -5.5220    -0.2780 H     1 <1>   0.4000 
 26 H       -3.6880    -6.6300     0.5320 H     1 <1>   0.0800 
 27 H       -2.8750    -6.2200    -0.9610 H     1 <1>   0.0800 
 28 H       -4.4850    -6.8580    -1.0100 H     1 <1>   0.0800 
@<TRIPOS>BOND
  1   1   2  1   
  2   2   3  ar  
  3   2   4  ar  
  4   3   5  ar  
  5   3   6  1   
  6   4   7  ar  
  7   4  15  1   
  8   5   8  ar  
  9   5  16  1   
 10   6   9  1   
 11   6  17  1   
 12   6  18  1   
 13   7   8  ar  
 14   7  10  1   
 15   8  19  1   
 16   9  11  1   
 17   9  20  1   
 18   9  21  1   
 19  11  12  1   
 20  11  22  1   
 21  11  23  1   
 22  12  13  1   
 23  12  14  1   
 24  12  24  1   
 25  13  25  1   
 26  14  26  1   
 27  14  27  1   
 28  14  28  1   
@<TRIPOS>SUBSTRUCTURE
  1 ****   3 GROUP 4 **** **** 0

# MOE 2024.06 (io_trps.svl 2023.06)
