@<TRIPOS>MOLECULE
NONAME
39 40 1 0 0 
SMALL
USER_CHARGES


@<TRIPOS>ATOM
  1 S        0.3490     0.3460    -1.3010 S.3   1 <1>  -0.0800 
  2 C        1.4000    -0.9200    -0.7580 C.2   1 <1>   0.4420 
  3 C       -0.9680    -0.5650    -0.6420 C.2   1 <1>   0.1980 
  4 N        0.7590    -1.8610    -0.1680 N.2   1 <1>  -0.3380 
  5 N        2.7420    -0.7570    -1.0050 N.am  1 <1>  -0.4940 
  6 N       -0.5920    -1.6560    -0.1110 N.2   1 <1>  -0.3380 
  7 C       -2.3720    -0.0020    -0.7670 C.3   1 <1>   0.0200 
  8 C        3.8120    -1.5530    -0.7640 C.2   1 <1>   0.6900 
  9 C       -2.8590     0.6770     0.5290 C.3   1 <1>  -0.0800 
 10 O        4.9110    -1.0540    -0.8510 O.2   1 <1>  -0.5700 
 11 N        3.7270    -2.8650    -0.4580 N.am  1 <1>  -0.5470 
 12 C       -4.3170     1.1280     0.3760 C.3   1 <1>  -0.2400 
 13 C       -1.9870     1.8790     0.9190 C.3   1 <1>  -0.2400 
 14 C        3.5210    -4.2170    -0.1640 C.ar  1 <1>   0.1170 
 15 C        4.5740    -4.9780     0.3540 C.ar  1 <1>   0.0820 
 16 C        2.2930    -4.8220    -0.3850 C.ar  1 <1>  -0.1500 
 17 O        5.7660    -4.3380     0.5390 O.3   1 <1>  -0.3630 
 18 C        4.3770    -6.3230     0.6500 C.ar  1 <1>  -0.1500 
 19 C        2.1010    -6.1590    -0.0890 C.ar  1 <1>  -0.1500 
 20 C        6.8760    -5.0060     1.0970 C.3   1 <1>   0.0400 
 21 C        3.1420    -6.9100     0.4290 C.ar  1 <1>  -0.1500 
 22 H        3.0270     0.1520    -1.3550 H     1 <1>   0.3700 
 23 H       -3.0320    -0.8180    -1.0030 H     1 <1>   0.0800 
 24 H       -2.4090     0.6940    -1.5850 H     1 <1>   0.0800 
 25 H       -2.8120    -0.0480     1.3260 H     1 <1>   0.0800 
 26 H        4.7360    -2.9140    -0.2730 H     1 <1>   0.3700 
 27 H       -4.4120     1.8600    -0.4070 H     1 <1>   0.0800 
 28 H       -4.6710     1.5630     1.2950 H     1 <1>   0.0800 
 29 H       -4.9480     0.2880     0.1410 H     1 <1>   0.0800 
 30 H       -1.9630     2.6080     0.1270 H     1 <1>   0.0800 
 31 H       -0.9810     1.5660     1.1330 H     1 <1>   0.0800 
 32 H       -2.3780     2.3500     1.8040 H     1 <1>   0.0800 
 33 H        1.4830    -4.2450    -0.7910 H     1 <1>   0.1500 
 34 H        5.1650    -6.9310     1.0500 H     1 <1>   0.1500 
 35 H        1.1400    -6.6130    -0.2620 H     1 <1>   0.1500 
 36 H        6.6160    -5.3560     2.0800 H     1 <1>   0.0800 
 37 H        7.6880    -4.3040     1.1630 H     1 <1>   0.0800 
 38 H        7.1520    -5.8230     0.4550 H     1 <1>   0.0800 
 39 H        2.9890    -7.9500     0.6590 H     1 <1>   0.1500 
@<TRIPOS>BOND
  1   1   2  1   
  2   1   3  1   
  3   2   4  2   
  4   2   5  1   
  5   3   6  2   
  6   3   7  1   
  7   4   6  1   
  8   5   8  am  
  9   5  22  1   
 10   7   9  1   
 11   7  23  1   
 12   7  24  1   
 13   8  10  2   
 14   8  11  am  
 15   9  12  1   
 16   9  13  1   
 17   9  25  1   
 18  11  14  1   
 19  11  26  1   
 20  12  27  1   
 21  12  28  1   
 22  12  29  1   
 23  13  30  1   
 24  13  31  1   
 25  13  32  1   
 26  14  15  ar  
 27  14  16  ar  
 28  15  17  1   
 29  15  18  ar  
 30  16  19  ar  
 31  16  33  1   
 32  17  20  1   
 33  18  21  ar  
 34  18  34  1   
 35  19  21  ar  
 36  19  35  1   
 37  20  36  1   
 38  20  37  1   
 39  20  38  1   
 40  21  39  1   
@<TRIPOS>SUBSTRUCTURE
  1 ****   4 GROUP 4 **** **** 0

# MOE 2024.06 (io_trps.svl 2023.06)
