@<TRIPOS>MOLECULE
NONAME
38 39 1 0 0 
SMALL
USER_CHARGES


@<TRIPOS>ATOM
  1 O        0.6420    -0.4160     0.0970 O.3   1 <1>  -0.6800 
  2 C        1.8460    -1.0030    -0.2410 C.3   1 <1>   0.1200 
  3 C        2.9070     0.1000    -0.3680 C.3   1 <1>  -0.0800 
  4 C        4.2150    -0.4920    -0.9260 C.3   1 <1>   0.3430 
  5 C        3.1400     0.8440     0.9630 C.3   1 <1>  -0.1600 
  6 N        5.4320     0.2350    -0.4410 N.4   1 <1>  -0.9590 
  7 C        4.1880     1.9620     0.7960 C.3   1 <1>  -0.1600 
  8 C        5.2080     1.7020    -0.3180 C.3   1 <1>   0.3430 
  9 C        6.6410    -0.0920    -1.2420 C.3   1 <1>   0.4860 
 10 C        7.8600     0.4260    -0.5030 C.ar  1 <1>  -0.1440 
 11 C        8.3650    -0.2160     0.6250 C.ar  1 <1>  -0.1440 
 12 C        8.4750     1.5800    -0.9720 C.ar  1 <1>  -0.1500 
 13 C        9.4650     0.3250     1.2750 C.ar  1 <1>  -0.1500 
 14 C        7.7680    -1.5030     1.1830 C.3   1 <1>  -0.0970 
 15 C        9.5720     2.1070    -0.3170 C.ar  1 <1>  -0.1500 
 16 C       10.0650     1.4800     0.8100 C.ar  1 <1>  -0.1500 
 17 H       -0.0700    -1.0820     0.1950 H     1 <1>   0.4000 
 18 H        1.7080    -1.5210    -1.1760 H     1 <1>   0.0800 
 19 H        2.1040    -1.7100     0.5300 H     1 <1>   0.0800 
 20 H        2.5400     0.8070    -1.0940 H     1 <1>   0.0800 
 21 H        4.1710    -0.4590    -2.0030 H     1 <1>   0.0800 
 22 H        4.2880    -1.5260    -0.6310 H     1 <1>   0.0800 
 23 H        3.4770     0.1430     1.7080 H     1 <1>   0.0800 
 24 H        2.2190     1.2730     1.3220 H     1 <1>   0.0800 
 25 H        5.6400    -0.0780     0.5150 H     1 <1>   0.4500 
 26 H        4.7050     2.1080     1.7290 H     1 <1>   0.0800 
 27 H        3.6860     2.8880     0.5720 H     1 <1>   0.0800 
 28 H        4.8310     2.0880    -1.2520 H     1 <1>   0.0800 
 29 H        6.1280     2.2140    -0.0830 H     1 <1>   0.0800 
 30 H        6.5780     0.3630    -2.2170 H     1 <1>   0.0800 
 31 H        6.7300    -1.1580    -1.3680 H     1 <1>   0.0800 
 32 H        8.1120     2.0850    -1.8520 H     1 <1>   0.1500 
 33 H        9.8710    -0.1510     2.1520 H     1 <1>   0.1500 
 34 H        7.5300    -2.1930     0.3940 H     1 <1>   0.0800 
 35 H        6.8840    -1.2900     1.7560 H     1 <1>   0.0800 
 36 H        8.4730    -1.9920     1.8330 H     1 <1>   0.0800 
 37 H       10.0470     3.0020    -0.6830 H     1 <1>   0.1500 
 38 H       10.9190     1.8870     1.3230 H     1 <1>   0.1500 
@<TRIPOS>BOND
  1   1   2  1   
  2   1  17  1   
  3   2   3  1   
  4   2  18  1   
  5   2  19  1   
  6   3   4  1   
  7   3   5  1   
  8   3  20  1   
  9   4   6  1   
 10   4  21  1   
 11   4  22  1   
 12   5   7  1   
 13   5  23  1   
 14   5  24  1   
 15   6   8  1   
 16   6   9  1   
 17   6  25  1   
 18   7   8  1   
 19   7  26  1   
 20   7  27  1   
 21   8  28  1   
 22   8  29  1   
 23   9  10  1   
 24   9  30  1   
 25   9  31  1   
 26  10  11  ar  
 27  10  12  ar  
 28  11  13  ar  
 29  11  14  1   
 30  12  15  ar  
 31  12  32  1   
 32  13  16  ar  
 33  13  33  1   
 34  14  34  1   
 35  14  35  1   
 36  14  36  1   
 37  15  16  ar  
 38  15  37  1   
 39  16  38  1   
@<TRIPOS>SUBSTRUCTURE
  1 ****   6 GROUP 4 **** **** 0

# MOE 2024.06 (io_trps.svl 2023.06)
