@<TRIPOS>MOLECULE
NONAME
37 37 1 0 0 
SMALL
USER_CHARGES


@<TRIPOS>ATOM
  1 O       -0.0970     0.3820     0.7240 O.2   1 <1>  -0.5700 
  2 C       -0.0850     1.4600     0.1600 C.2   1 <1>   0.6900 
  3 N       -1.2360     2.1820     0.0130 N.am  1 <1>  -0.6600 
  4 N        1.0720     1.9520    -0.3460 N.am  1 <1>  -0.7300 
  5 C       -1.2710     3.6310    -0.3400 C.3   1 <1>   0.1400 
  6 C       -2.5500     1.5980     0.4150 C.3   1 <1>   0.1400 
  7 C        2.3830     1.2800    -0.2670 C.3   1 <1>   0.1400 
  8 C       -2.5320     4.3140     0.2260 C.3   1 <1>   0.2000 
  9 C       -3.7200     2.2880    -0.3210 C.3   1 <1>   0.2000 
 10 C        3.4710     2.3340    -0.0630 C.3   1 <1>  -0.1600 
 11 O       -3.7030     3.6900    -0.2220 O.3   1 <1>  -0.5600 
 12 C       -2.6280     5.7800    -0.1860 C.3   1 <1>  -0.2400 
 13 C       -5.0770     1.8260     0.2040 C.3   1 <1>  -0.2400 
 14 C        4.8590     1.6870     0.0330 C.3   1 <1>  -0.1600 
 15 C        5.9470     2.7440     0.2400 C.3   1 <1>  -0.2400 
 16 H        1.0030     2.7360    -0.9860 H     1 <1>   0.3700 
 17 H       -1.2610     3.7360    -1.4110 H     1 <1>   0.0800 
 18 H       -0.4010     4.1200     0.0610 H     1 <1>   0.0800 
 19 H       -2.6730     1.7060     1.4780 H     1 <1>   0.0800 
 20 H       -2.5590     0.5460     0.1880 H     1 <1>   0.0800 
 21 H        2.5570     0.7330    -1.1780 H     1 <1>   0.0800 
 22 H        2.3870     0.5840     0.5560 H     1 <1>   0.0800 
 23 H       -2.5190     4.2480     1.3010 H     1 <1>   0.0800 
 24 H       -3.6480     2.0490    -1.3680 H     1 <1>   0.0800 
 25 H        3.2680     2.8740     0.8460 H     1 <1>   0.0800 
 26 H        3.4590     3.0250    -0.8870 H     1 <1>   0.0800 
 27 H       -2.6770     5.8640    -1.2570 H     1 <1>   0.0800 
 28 H       -1.7700     6.3220     0.1670 H     1 <1>   0.0800 
 29 H       -3.5100     6.2210     0.2440 H     1 <1>   0.0800 
 30 H       -5.1820     2.0830     1.2430 H     1 <1>   0.0800 
 31 H       -5.1700     0.7600     0.1000 H     1 <1>   0.0800 
 32 H       -5.8640     2.2940    -0.3590 H     1 <1>   0.0800 
 33 H        5.0670     1.1360    -0.8690 H     1 <1>   0.0800 
 34 H        4.8780     0.9940     0.8590 H     1 <1>   0.0800 
 35 H        5.9630     3.4350    -0.5850 H     1 <1>   0.0800 
 36 H        6.9110     2.2710     0.3070 H     1 <1>   0.0800 
 37 H        5.7720     3.2920     1.1490 H     1 <1>   0.0800 
@<TRIPOS>BOND
  1   1   2  2   
  2   2   3  am  
  3   2   4  am  
  4   3   5  1   
  5   3   6  1   
  6   4   7  1   
  7   4  16  1   
  8   5   8  1   
  9   5  17  1   
 10   5  18  1   
 11   6   9  1   
 12   6  19  1   
 13   6  20  1   
 14   7  10  1   
 15   7  21  1   
 16   7  22  1   
 17   8  11  1   
 18   8  12  1   
 19   8  23  1   
 20   9  11  1   
 21   9  13  1   
 22   9  24  1   
 23  10  14  1   
 24  10  25  1   
 25  10  26  1   
 26  12  27  1   
 27  12  28  1   
 28  12  29  1   
 29  13  30  1   
 30  13  31  1   
 31  13  32  1   
 32  14  15  1   
 33  14  33  1   
 34  14  34  1   
 35  15  35  1   
 36  15  36  1   
 37  15  37  1   
@<TRIPOS>SUBSTRUCTURE
  1 ****   3 GROUP 4 **** **** 0

# MOE 2024.06 (io_trps.svl 2023.06)
