@<TRIPOS>MOLECULE
NONAME
44 45 1 0 0 
SMALL
USER_CHARGES


@<TRIPOS>ATOM
  1 I       -0.2750     0.6000     0.1250 I     1 <1>  -0.0810 
  2 C        1.7420     1.2700     0.0000 C.ar  1 <1>   0.0810 
  3 C        2.7560     0.3900     0.3320 C.ar  1 <1>  -0.1500 
  4 C        1.9850     2.5680    -0.4110 C.ar  1 <1>  -0.1500 
  5 C        4.0670     0.8300     0.2500 C.ar  1 <1>  -0.1500 
  6 C        3.3000     2.9940    -0.4890 C.ar  1 <1>  -0.1500 
  7 C        4.3420     2.1350    -0.1620 C.ar  1 <1>   0.0830 
  8 O        5.5970     2.6410    -0.2690 O.3   1 <1>  -0.3630 
  9 C        6.7290     1.8620     0.0360 C.3   1 <1>   0.1200 
 10 C        7.9680     2.7290    -0.1890 C.3   1 <1>  -0.1600 
 11 C        9.2600     1.9600     0.1230 C.3   1 <1>  -0.1600 
 12 C       10.4920     2.8450    -0.1100 C.3   1 <1>  -0.1600 
 13 C       11.7810     2.0800     0.1970 C.3   1 <1>   0.3430 
 14 N       12.9720     2.9040    -0.1420 N.4   1 <1>  -0.9590 
 15 C       14.1910     2.0470    -0.2250 C.3   1 <1>   0.3430 
 16 C       13.1710     4.0390     0.8110 C.3   1 <1>   0.3430 
 17 C       15.3760     2.8780    -0.7220 C.3   1 <1>  -0.1600 
 18 C       14.3340     4.9130     0.3390 C.3   1 <1>  -0.1600 
 19 C       15.6240     4.1010     0.1700 C.3   1 <1>  -0.1600 
 20 H        2.5280    -0.6120     0.6480 H     1 <1>   0.1500 
 21 H        1.1750     3.2280    -0.6630 H     1 <1>   0.1500 
 22 H        4.8530     0.1460     0.5080 H     1 <1>   0.1500 
 23 H        3.5280     3.9960    -0.8040 H     1 <1>   0.1500 
 24 H        6.7360     1.0050    -0.6150 H     1 <1>   0.0800 
 25 H        6.6590     1.5520     1.0650 H     1 <1>   0.0800 
 26 H        7.9000     3.5960     0.4460 H     1 <1>   0.0800 
 27 H        7.9780     3.0540    -1.2150 H     1 <1>   0.0800 
 28 H        9.3120     1.0880    -0.5090 H     1 <1>   0.0800 
 29 H        9.2360     1.6310     1.1490 H     1 <1>   0.0800 
 30 H       10.4140     3.7120     0.5220 H     1 <1>   0.0800 
 31 H       10.4990     3.1650    -1.1380 H     1 <1>   0.0800 
 32 H       11.7900     1.1760    -0.3910 H     1 <1>   0.0800 
 33 H       11.8050     1.8020     1.2390 H     1 <1>   0.0800 
 34 H       12.8260     3.3110    -1.0750 H     1 <1>   0.4500 
 35 H       14.0210     1.2260    -0.9040 H     1 <1>   0.0800 
 36 H       14.4190     1.6420     0.7470 H     1 <1>   0.0800 
 37 H       13.3850     3.6550     1.7960 H     1 <1>   0.0800 
 38 H       12.2780     4.6410     0.8690 H     1 <1>   0.0800 
 39 H       15.1930     3.1930    -1.7350 H     1 <1>   0.0800 
 40 H       16.2580     2.2610    -0.7320 H     1 <1>   0.0800 
 41 H       14.5000     5.6960     1.0590 H     1 <1>   0.0800 
 42 H       14.0720     5.3850    -0.5920 H     1 <1>   0.0800 
 43 H       16.3940     4.7200    -0.2620 H     1 <1>   0.0800 
 44 H       15.9730     3.7750     1.1370 H     1 <1>   0.0800 
@<TRIPOS>BOND
  1   1   2  1   
  2   2   3  ar  
  3   2   4  ar  
  4   3   5  ar  
  5   3  20  1   
  6   4   6  ar  
  7   4  21  1   
  8   5   7  ar  
  9   5  22  1   
 10   6   7  ar  
 11   6  23  1   
 12   7   8  1   
 13   8   9  1   
 14   9  10  1   
 15   9  24  1   
 16   9  25  1   
 17  10  11  1   
 18  10  26  1   
 19  10  27  1   
 20  11  12  1   
 21  11  28  1   
 22  11  29  1   
 23  12  13  1   
 24  12  30  1   
 25  12  31  1   
 26  13  14  1   
 27  13  32  1   
 28  13  33  1   
 29  14  15  1   
 30  14  16  1   
 31  14  34  1   
 32  15  17  1   
 33  15  35  1   
 34  15  36  1   
 35  16  18  1   
 36  16  37  1   
 37  16  38  1   
 38  17  19  1   
 39  17  39  1   
 40  17  40  1   
 41  18  19  1   
 42  18  41  1   
 43  18  42  1   
 44  19  43  1   
 45  19  44  1   
@<TRIPOS>SUBSTRUCTURE
  1 ****  10 GROUP 4 **** **** 0

# MOE 2024.06 (io_trps.svl 2023.06)
