@<TRIPOS>MOLECULE
NONAME
51 53 1 0 0 
SMALL
USER_CHARGES


@<TRIPOS>ATOM
  1 S        1.3890     0.0840    -2.1260 S.3   1 <1>  -0.0800 
  2 C        0.1890    -0.8600    -1.2550 C.2   1 <1>   0.1040 
  3 C        2.4160     0.2010    -0.7080 C.2   1 <1>  -0.1400 
  4 N       -0.9460    -1.3140    -1.9050 N.am  1 <1>  -0.4940 
  5 C        0.5740    -1.0480     0.0440 C.2   1 <1>  -0.0860 
  6 C        1.8490    -0.4390     0.3280 C.2   1 <1>  -0.1500 
  7 C        3.7140     0.9640    -0.8610 C.3   1 <1>  -0.0600 
  8 C       -1.5470    -1.0160    -3.0980 C.2   1 <1>   0.5690 
  9 C       -0.1930    -1.7540     1.0300 C.2   1 <1>   0.8060 
 10 O       -1.1430    -0.1950    -3.8850 O.2   1 <1>  -0.5700 
 11 C       -2.8300    -1.7870    -3.4150 C.3   1 <1>   0.1710 
 12 O       -1.3190    -2.1740     0.8280 O.2   1 <1>  -0.5700 
 13 O        0.3590    -1.9560     2.2330 O.3   1 <1>  -0.4300 
 14 N       -3.3820    -2.5480    -2.2540 N.3   1 <1>  -0.8100 
 15 C       -0.3270    -2.6540     3.2490 C.3   1 <1>   0.1200 
 16 C       -4.3150    -3.6100    -2.6990 C.3   1 <1>   0.1100 
 17 C       -4.0740    -1.6610    -1.2820 C.3   1 <1>   0.1100 
 18 C        0.5780    -2.7140     4.4750 C.3   1 <1>  -0.2400 
 19 C       -4.8820    -4.4210    -1.5170 C.3   1 <1>   0.2090 
 20 C       -4.6240    -2.4440    -0.0740 C.3   1 <1>   0.2090 
 21 N       -5.5440    -3.5270    -0.5200 N.pl3 1 <1>  -0.8380 
 22 C       -6.3280    -4.1100     0.4570 C.ar  1 <1>   0.4100 
 23 N       -6.0070    -5.3370     0.8540 N.ar  1 <1>  -0.6200 
 24 C       -7.4000    -3.3950     0.9860 C.ar  1 <1>  -0.1500 
 25 C       -6.7700    -5.8560     1.8010 C.ar  1 <1>   0.1600 
 26 C       -8.1850    -3.9460     1.9710 C.ar  1 <1>  -0.1500 
 27 C       -7.8500    -5.2190     2.3860 C.ar  1 <1>  -0.1500 
 28 H       -1.5240    -1.9850    -1.3760 H     1 <1>   0.3700 
 29 H        2.2840    -0.5110     1.3110 H     1 <1>   0.1500 
 30 H        3.5090     1.9780    -1.1510 H     1 <1>   0.0800 
 31 H        4.3220     0.5010    -1.6180 H     1 <1>   0.0800 
 32 H        4.2550     0.9680     0.0670 H     1 <1>   0.0800 
 33 H       -2.5890    -2.4750    -4.2060 H     1 <1>   0.0800 
 34 H       -3.5680    -1.1000    -3.7910 H     1 <1>   0.0800 
 35 H       -0.5560    -3.6440     2.8900 H     1 <1>   0.0800 
 36 H       -1.2410    -2.1280     3.4690 H     1 <1>   0.0800 
 37 H       -3.7990    -4.2850    -3.3590 H     1 <1>   0.0800 
 38 H       -5.1360    -3.1720    -3.2410 H     1 <1>   0.0800 
 39 H       -4.8940    -1.1580    -1.7650 H     1 <1>   0.0800 
 40 H       -3.3930    -0.9110    -0.9180 H     1 <1>   0.0800 
 41 H        1.4890    -3.2330     4.2380 H     1 <1>   0.0800 
 42 H        0.0790    -3.2420     5.2670 H     1 <1>   0.0800 
 43 H        0.8060    -1.7200     4.8170 H     1 <1>   0.0800 
 44 H       -4.0810    -4.9590    -1.0390 H     1 <1>   0.0800 
 45 H       -5.5960    -5.1380    -1.8810 H     1 <1>   0.0800 
 46 H       -5.1450    -1.7700     0.5820 H     1 <1>   0.0800 
 47 H       -3.8050    -2.8770     0.4750 H     1 <1>   0.0800 
 48 H       -7.6000    -2.4130     0.6040 H     1 <1>   0.1500 
 49 H       -6.5180    -6.8490     2.1310 H     1 <1>   0.1500 
 50 H       -9.0190    -3.4150     2.3950 H     1 <1>   0.1500 
 51 H       -8.4200    -5.7110     3.1520 H     1 <1>   0.1500 
@<TRIPOS>BOND
  1   1   2  1   
  2   1   3  1   
  3   2   4  1   
  4   2   5  2   
  5   3   6  2   
  6   3   7  1   
  7   4   8  am  
  8   4  28  1   
  9   5   6  1   
 10   5   9  1   
 11   6  29  1   
 12   7  30  1   
 13   7  31  1   
 14   7  32  1   
 15   8  10  2   
 16   8  11  1   
 17   9  12  2   
 18   9  13  1   
 19  11  14  1   
 20  11  33  1   
 21  11  34  1   
 22  13  15  1   
 23  14  16  1   
 24  14  17  1   
 25  15  18  1   
 26  15  35  1   
 27  15  36  1   
 28  16  19  1   
 29  16  37  1   
 30  16  38  1   
 31  17  20  1   
 32  17  39  1   
 33  17  40  1   
 34  18  41  1   
 35  18  42  1   
 36  18  43  1   
 37  19  21  1   
 38  19  44  1   
 39  19  45  1   
 40  20  21  1   
 41  20  46  1   
 42  20  47  1   
 43  21  22  1   
 44  22  23  ar  
 45  22  24  ar  
 46  23  25  ar  
 47  24  26  ar  
 48  24  48  1   
 49  25  27  ar  
 50  25  49  1   
 51  26  27  ar  
 52  26  50  1   
 53  27  51  1   
@<TRIPOS>SUBSTRUCTURE
  1 ****  12 GROUP 4 **** **** 0

# MOE 2024.06 (io_trps.svl 2023.06)
