@<TRIPOS>MOLECULE
NONAME
48 49 1 0 0 
SMALL
USER_CHARGES


@<TRIPOS>ATOM
  1 O        1.0980    -2.5710     0.1460 O.2   1 <1>  -0.5700 
  2 C        0.1420    -1.8690    -0.1080 C.2   1 <1>   0.7200 
  3 N       -1.1530    -2.2570    -0.0570 N.2   1 <1>  -0.6610 
  4 C        0.3960    -0.4310    -0.5220 C.3   1 <1>  -0.0990 
  5 C       -1.5630    -3.4300     0.2880 C.2   1 <1>   0.5600 
  6 C        0.1790     0.5660     0.6290 C.3   1 <1>  -0.2400 
  7 N       -2.8840    -3.7370     0.3200 N.pl3 1 <1>  -0.5500 
  8 N       -0.7090    -4.4370     0.6320 N.am  1 <1>  -0.4900 
  9 C       -4.0530    -3.0580     0.1390 C.ar  1 <1>   0.7200 
 10 C       -0.9090    -5.7440     0.9660 C.2   1 <1>   0.5690 
 11 N       -5.1190    -3.7960     0.1340 N.ar  1 <1>  -0.6200 
 12 N       -4.0290    -1.7140     0.0030 N.ar  1 <1>  -0.6200 
 13 O       -2.0020    -6.2500     1.0090 O.2   1 <1>  -0.5700 
 14 C        0.3130    -6.5820     1.2970 C.3   1 <1>  -0.0990 
 15 C       -6.3020    -3.1750    -0.0330 C.ar  1 <1>   0.3100 
 16 C       -5.1490    -1.1020    -0.1570 C.ar  1 <1>   0.1670 
 17 C        1.3150    -6.6760     0.1340 C.3   1 <1>  -0.2400 
 18 C       -6.3810    -1.7860    -0.1890 C.ar  1 <1>   0.0000 
 19 C       -7.4820    -3.9290    -0.0520 C.ar  1 <1>  -0.1500 
 20 C       -5.0960     0.4060    -0.3110 C.3   1 <1>  -0.0970 
 21 C       -7.6530    -1.2020    -0.3610 C.ar  1 <1>  -0.1500 
 22 C       -8.7140    -3.3490    -0.2200 C.ar  1 <1>  -0.1430 
 23 C       -8.8000    -1.9550    -0.3770 C.ar  1 <1>  -0.1430 
 24 C       -9.9620    -4.2210    -0.2320 C.3   1 <1>  -0.0970 
 25 C      -10.1480    -1.2740    -0.5650 C.3   1 <1>  -0.0970 
 26 H        1.4050    -0.3490    -0.8830 H     1 <1>   0.0800 
 27 H       -0.2670    -0.1890    -1.3330 H     1 <1>   0.0800 
 28 H        0.8440     0.3410     1.4450 H     1 <1>   0.0800 
 29 H       -0.8360     0.5060     0.9830 H     1 <1>   0.0800 
 30 H        0.3690     1.5690     0.2930 H     1 <1>   0.0800 
 31 H       -3.0660    -4.7200     0.5280 H     1 <1>   0.4000 
 32 H        0.2670    -4.1290     0.6000 H     1 <1>   0.3700 
 33 H        0.7970    -6.1600     2.1600 H     1 <1>   0.0800 
 34 H       -0.0140    -7.5730     1.5590 H     1 <1>   0.0800 
 35 H        1.7110    -5.7060    -0.1130 H     1 <1>   0.0800 
 36 H        0.8350    -7.0870    -0.7370 H     1 <1>   0.0800 
 37 H        2.1350    -7.3180     0.4060 H     1 <1>   0.0800 
 38 H       -7.3800    -4.9910     0.0710 H     1 <1>   0.1500 
 39 H       -5.5060     0.6920    -1.2620 H     1 <1>   0.0800 
 40 H       -4.0790     0.7500    -0.2610 H     1 <1>   0.0800 
 41 H       -5.6540     0.8750     0.4780 H     1 <1>   0.0800 
 42 H       -7.7160    -0.1360    -0.4810 H     1 <1>   0.1500 
 43 H       -9.7070    -5.2570    -0.0990 H     1 <1>   0.0800 
 44 H      -10.4760    -4.1190    -1.1700 H     1 <1>   0.0800 
 45 H      -10.6230    -3.9330     0.5660 H     1 <1>   0.0800 
 46 H      -10.0330    -0.2100    -0.6700 H     1 <1>   0.0800 
 47 H      -10.7790    -1.4610     0.2850 H     1 <1>   0.0800 
 48 H      -10.6310    -1.6480    -1.4500 H     1 <1>   0.0800 
@<TRIPOS>BOND
  1   1   2  2   
  2   2   3  1   
  3   2   4  1   
  4   3   5  2   
  5   4   6  1   
  6   4  26  1   
  7   4  27  1   
  8   5   7  1   
  9   5   8  1   
 10   6  28  1   
 11   6  29  1   
 12   6  30  1   
 13   7   9  1   
 14   7  31  1   
 15   8  10  am  
 16   8  32  1   
 17   9  11  ar  
 18   9  12  ar  
 19  10  13  2   
 20  10  14  1   
 21  11  15  ar  
 22  12  16  ar  
 23  14  17  1   
 24  14  33  1   
 25  14  34  1   
 26  15  18  ar  
 27  15  19  ar  
 28  16  18  ar  
 29  16  20  1   
 30  17  35  1   
 31  17  36  1   
 32  17  37  1   
 33  18  21  ar  
 34  19  22  ar  
 35  19  38  1   
 36  20  39  1   
 37  20  40  1   
 38  20  41  1   
 39  21  23  ar  
 40  21  42  1   
 41  22  23  ar  
 42  22  24  1   
 43  23  25  1   
 44  24  43  1   
 45  24  44  1   
 46  24  45  1   
 47  25  46  1   
 48  25  47  1   
 49  25  48  1   
@<TRIPOS>SUBSTRUCTURE
  1 ****   9 GROUP 4 **** **** 0

# MOE 2024.06 (io_trps.svl 2023.06)
