@<TRIPOS>MOLECULE
NONAME
55 56 1 0 0 
SMALL
USER_CHARGES


@<TRIPOS>ATOM
  1 O       -0.0970     0.3520     0.5130 O.2   1 <1>  -0.5700 
  2 C       -1.2670     0.2370     0.2050 C.2   1 <1>   0.6340 
  3 O       -1.7390    -0.9810    -0.0870 O.3   1 <1>  -0.4300 
  4 C       -2.1800     1.3580     0.1380 C.ar  1 <1>   0.0860 
  5 C       -0.9140    -2.1290    -0.0450 C.3   1 <1>   0.0400 
  6 C       -1.7410     2.6580     0.3920 C.ar  1 <1>  -0.1500 
  7 C       -3.5290     1.2060    -0.1760 C.ar  1 <1>  -0.1500 
  8 C       -2.5620     3.7730     0.3430 C.ar  1 <1>   0.1170 
  9 C       -4.3730     2.2950    -0.2330 C.ar  1 <1>  -0.1500 
 10 N       -1.9070     4.9890     0.6680 N.am  1 <1>  -0.5470 
 11 C       -3.9290     3.5870     0.0160 C.ar  1 <1>   0.1000 
 12 C       -1.9080     6.2550     0.1580 C.2   1 <1>   0.5690 
 13 N       -4.9000     4.5800    -0.1040 N.pl3 1 <1>  -0.8380 
 14 O       -2.7190     6.6930    -0.6220 O.2   1 <1>  -0.5700 
 15 C       -0.8060     7.1830     0.6370 C.3   1 <1>  -0.0990 
 16 C       -5.1120     5.0560    -1.5170 C.3   1 <1>   0.2090 
 17 C       -5.1400     5.4880     1.0720 C.3   1 <1>   0.2090 
 18 C        0.5590     6.8160     0.0320 C.3   1 <1>  -0.1600 
 19 C       -5.8470     6.4030    -1.6510 C.3   1 <1>   0.3430 
 20 C       -5.8440     6.8190     0.7350 C.3   1 <1>   0.3430 
 21 C        1.6610     7.7590     0.5280 C.3   1 <1>  -0.1600 
 22 N       -5.4160     7.3600    -0.5920 N.4   1 <1>  -0.9590 
 23 C        3.0160     7.3810    -0.0750 C.3   1 <1>  -0.2400 
 24 C       -5.8280     8.7540    -0.8670 C.3   1 <1>   0.3430 
 25 C       -5.0100     9.7010     0.0030 C.3   1 <1>  -0.2400 
 26 H       -1.5060    -2.9850    -0.3150 H     1 <1>   0.0800 
 27 H       -0.5280    -2.2440     0.9540 H     1 <1>   0.0800 
 28 H       -0.1040    -2.0020    -0.7430 H     1 <1>   0.0800 
 29 H       -0.7010     2.7870     0.6340 H     1 <1>   0.1500 
 30 H       -3.9220     0.2240    -0.3780 H     1 <1>   0.1500 
 31 H       -5.4100     2.1440    -0.4740 H     1 <1>   0.1500 
 32 H       -1.1220     4.8310     1.3000 H     1 <1>   0.3700 
 33 H       -0.7550     7.1420     1.7100 H     1 <1>   0.0800 
 34 H       -1.0570     8.1910     0.3590 H     1 <1>   0.0800 
 35 H       -5.6640     4.3060    -2.0560 H     1 <1>   0.0800 
 36 H       -4.1530     5.1410    -1.9990 H     1 <1>   0.0800 
 37 H       -4.2060     5.7130     1.5490 H     1 <1>   0.0800 
 38 H       -5.7330     4.9570     1.7960 H     1 <1>   0.0800 
 39 H        0.4960     6.8730    -1.0420 H     1 <1>   0.0800 
 40 H        0.8160     5.8030     0.2930 H     1 <1>   0.0800 
 41 H       -6.9080     6.2330    -1.5780 H     1 <1>   0.0800 
 42 H       -5.6410     6.8110    -2.6270 H     1 <1>   0.0800 
 43 H       -5.6270     7.5280     1.5160 H     1 <1>   0.0800 
 44 H       -6.9090     6.6550     0.7280 H     1 <1>   0.0800 
 45 H        1.7290     7.7110     1.6020 H     1 <1>   0.0800 
 46 H        1.4240     8.7730     0.2540 H     1 <1>   0.0800 
 47 H       -4.3730     7.2980    -0.6040 H     1 <1>   0.4500 
 48 H        3.2860     6.3760     0.2000 H     1 <1>   0.0800 
 49 H        3.7790     8.0490     0.2850 H     1 <1>   0.0800 
 50 H        2.9830     7.4500    -1.1490 H     1 <1>   0.0800 
 51 H       -6.8810     8.8790    -0.6730 H     1 <1>   0.0800 
 52 H       -5.6420     8.9870    -1.9030 H     1 <1>   0.0800 
 53 H       -5.2310     9.5680     1.0450 H     1 <1>   0.0800 
 54 H       -5.2530    10.7160    -0.2580 H     1 <1>   0.0800 
 55 H       -3.9580     9.5560    -0.1680 H     1 <1>   0.0800 
@<TRIPOS>BOND
  1   1   2  2   
  2   2   3  1   
  3   2   4  1   
  4   3   5  1   
  5   4   6  ar  
  6   4   7  ar  
  7   5  26  1   
  8   5  27  1   
  9   5  28  1   
 10   6   8  ar  
 11   6  29  1   
 12   7   9  ar  
 13   7  30  1   
 14   8  10  1   
 15   8  11  ar  
 16   9  11  ar  
 17   9  31  1   
 18  10  12  am  
 19  10  32  1   
 20  11  13  1   
 21  12  14  2   
 22  12  15  1   
 23  13  16  1   
 24  13  17  1   
 25  15  18  1   
 26  15  33  1   
 27  15  34  1   
 28  16  19  1   
 29  16  35  1   
 30  16  36  1   
 31  17  20  1   
 32  17  37  1   
 33  17  38  1   
 34  18  21  1   
 35  18  39  1   
 36  18  40  1   
 37  19  22  1   
 38  19  41  1   
 39  19  42  1   
 40  20  22  1   
 41  20  43  1   
 42  20  44  1   
 43  21  23  1   
 44  21  45  1   
 45  21  46  1   
 46  22  24  1   
 47  22  47  1   
 48  23  48  1   
 49  23  49  1   
 50  23  50  1   
 51  24  25  1   
 52  24  51  1   
 53  24  52  1   
 54  25  53  1   
 55  25  54  1   
 56  25  55  1   
@<TRIPOS>SUBSTRUCTURE
  1 ****   8 GROUP 4 **** **** 0

# MOE 2024.06 (io_trps.svl 2023.06)
