@<TRIPOS>MOLECULE
NONAME
43 44 1 0 0 
SMALL
USER_CHARGES


@<TRIPOS>ATOM
  1 S        0.0950    -0.2990     0.1590 S.3   1 <1>  -0.3710 
  2 C       -1.4670     0.5550    -0.0450 C.2   1 <1>   0.6510 
  3 C        1.3120     1.0910     0.2180 C.3   1 <1>   0.2140 
  4 N       -1.3720     1.8260    -0.1010 N.2   1 <1>  -0.6210 
  5 N       -2.6280    -0.1950    -0.1270 N.am  1 <1>  -0.4200 
  6 C        2.7000     0.4990     0.4170 C.ar  1 <1>  -0.1440 
  7 C       -2.5100     2.5550    -0.2570 C.2   1 <1>   0.0210 
  8 C       -3.8060     0.5370    -0.3040 C.2   1 <1>   0.6160 
  9 C       -2.6360    -1.6940    -0.0310 C.3   1 <1>   0.2200 
 10 C        3.2720     0.4620     1.6790 C.ar  1 <1>  -0.1500 
 11 C        3.4030    -0.0090    -0.6640 C.ar  1 <1>  -0.1500 
 12 O       -2.3600     3.7810    -0.2970 O.3   1 <1>  -0.8500 
 13 C       -3.7430     1.9270    -0.3630 C.2   1 <1>  -0.1240 
 14 O       -4.8880    -0.0740    -0.4070 O.2   1 <1>  -0.5700 
 15 C       -3.1140    -2.3360    -1.3480 C.3   1 <1>  -0.1600 
 16 C       -3.4180    -2.1640     1.2040 C.3   1 <1>  -0.2400 
 17 C        4.5360    -0.0730     1.8580 C.ar  1 <1>  -0.1500 
 18 C        4.6680    -0.5450    -0.4870 C.ar  1 <1>  -0.1500 
 19 C       -5.0070     2.7640    -0.5420 C.3   1 <1>  -0.0220 
 20 C       -2.8010    -3.8370    -1.4350 C.3   1 <1>  -0.2400 
 21 C        5.2350    -0.5760     0.7750 C.ar  1 <1>  -0.1500 
 22 C       -5.6740     3.0340     0.8090 C.3   1 <1>  -0.2400 
 23 H        1.0260     1.7350     1.0310 H     1 <1>   0.0800 
 24 H        1.2330     1.6280    -0.7110 H     1 <1>   0.0800 
 25 H       -1.6370    -2.0500     0.1170 H     1 <1>   0.0800 
 26 H        2.7310     0.8500     2.5240 H     1 <1>   0.1500 
 27 H        2.9630     0.0110    -1.6460 H     1 <1>   0.1500 
 28 H       -2.6210    -1.8400    -2.1670 H     1 <1>   0.0800 
 29 H       -4.1740    -2.2000    -1.4660 H     1 <1>   0.0800 
 30 H       -4.4750    -2.0290     1.0730 H     1 <1>   0.0800 
 31 H       -3.0950    -1.6160     2.0710 H     1 <1>   0.0800 
 32 H       -3.2350    -3.2070     1.3810 H     1 <1>   0.0800 
 33 H        4.9740    -0.0980     2.8410 H     1 <1>   0.1500 
 34 H        5.2070    -0.9380    -1.3300 H     1 <1>   0.1500 
 35 H       -5.6930     2.2570    -1.1960 H     1 <1>   0.0800 
 36 H       -4.7500     3.7010    -1.0050 H     1 <1>   0.0800 
 37 H       -1.7460    -4.0100    -1.3130 H     1 <1>   0.0800 
 38 H       -3.0990    -4.2150    -2.3970 H     1 <1>   0.0800 
 39 H       -3.3350    -4.3830    -0.6780 H     1 <1>   0.0800 
 40 H        6.2170    -0.9930     0.9140 H     1 <1>   0.1500 
 41 H       -5.9550     2.1070     1.2760 H     1 <1>   0.0800 
 42 H       -6.5480     3.6450     0.6760 H     1 <1>   0.0800 
 43 H       -4.9780     3.5520     1.4470 H     1 <1>   0.0800 
@<TRIPOS>BOND
  1   1   2  1   
  2   1   3  1   
  3   2   4  2   
  4   2   5  1   
  5   3   6  1   
  6   3  23  1   
  7   3  24  1   
  8   4   7  1   
  9   5   8  am  
 10   5   9  1   
 11   6  10  ar  
 12   6  11  ar  
 13   7  12  1   
 14   7  13  2   
 15   8  13  1   
 16   8  14  2   
 17   9  15  1   
 18   9  16  1   
 19   9  25  1   
 20  10  17  ar  
 21  10  26  1   
 22  11  18  ar  
 23  11  27  1   
 24  13  19  1   
 25  15  20  1   
 26  15  28  1   
 27  15  29  1   
 28  16  30  1   
 29  16  31  1   
 30  16  32  1   
 31  17  21  ar  
 32  17  33  1   
 33  18  21  ar  
 34  18  34  1   
 35  19  22  1   
 36  19  35  1   
 37  19  36  1   
 38  20  37  1   
 39  20  38  1   
 40  20  39  1   
 41  21  40  1   
 42  22  41  1   
 43  22  42  1   
 44  22  43  1   
@<TRIPOS>SUBSTRUCTURE
  1 ****   2 GROUP 4 **** **** 0

# MOE 2024.06 (io_trps.svl 2023.06)
