@<TRIPOS>MOLECULE
NONAME
34 35 1 0 0 
SMALL
USER_CHARGES


@<TRIPOS>ATOM
  1 CL      -0.1720     1.2200     1.7190 Cl    1 <1>  -0.1770 
  2 C       -1.6580     1.6810     0.9240 C.ar  1 <1>   0.1770 
  3 C       -2.1940     0.8530    -0.0440 C.ar  1 <1>  -0.1500 
  4 C       -2.2730     2.8690     1.2780 C.ar  1 <1>  -0.1500 
  5 C       -3.3690     1.2340    -0.6620 C.ar  1 <1>   0.0830 
  6 C       -3.4530     3.2400     0.6510 C.ar  1 <1>  -0.1500 
  7 O       -3.9100     0.4470    -1.6080 O.3   1 <1>  -0.5330 
  8 C       -4.0160     2.4270    -0.3250 C.ar  1 <1>   0.1000 
  9 N       -5.2060     2.8170    -0.9660 N.pl3 1 <1>  -0.6000 
 10 C       -6.4730     2.2940    -0.8190 C.2   1 <1>  -0.0380 
 11 C       -7.5270     2.7130    -1.5620 C.2   1 <1>  -0.1360 
 12 C       -6.6910     1.2220     0.2540 C.3   1 <1>  -0.0220 
 13 C       -8.8550     2.2370    -1.4350 C.2   1 <1>   0.4950 
 14 C       -7.9230     0.3300    -0.0280 C.3   1 <1>   0.0000 
 15 O       -9.7640     2.6240    -2.1290 O.2   1 <1>  -0.5700 
 16 C       -9.1510     1.2050    -0.3610 C.3   1 <1>  -0.0990 
 17 C       -7.6230    -0.6220    -1.2020 C.3   1 <1>  -0.2400 
 18 C       -8.2300    -0.5260     1.2110 C.3   1 <1>  -0.2400 
 19 H       -1.7080    -0.0660    -0.3120 H     1 <1>   0.1500 
 20 H       -1.8320     3.4920     2.0350 H     1 <1>   0.1500 
 21 H       -3.9410     4.1590     0.9200 H     1 <1>   0.1500 
 22 H       -4.7450     0.8530    -1.9180 H     1 <1>   0.4500 
 23 H       -5.1060     3.6470    -1.5630 H     1 <1>   0.4000 
 24 H       -7.3990     3.4650    -2.3170 H     1 <1>   0.1500 
 25 H       -6.8120     1.7250     1.1970 H     1 <1>   0.0800 
 26 H       -5.8280     0.5870     0.3440 H     1 <1>   0.0800 
 27 H       -9.9690     0.5870    -0.6870 H     1 <1>   0.0800 
 28 H       -9.4730     1.7360     0.5160 H     1 <1>   0.0800 
 29 H       -8.4680    -1.2590    -1.3980 H     1 <1>   0.0800 
 30 H       -7.4000    -0.0790    -2.1030 H     1 <1>   0.0800 
 31 H       -6.7780    -1.2480    -0.9740 H     1 <1>   0.0800 
 32 H       -8.4480     0.0960     2.0620 H     1 <1>   0.0800 
 33 H       -7.3890    -1.1510     1.4570 H     1 <1>   0.0800 
 34 H       -9.0810    -1.1600     1.0320 H     1 <1>   0.0800 
@<TRIPOS>BOND
  1   1   2  1   
  2   2   3  ar  
  3   2   4  ar  
  4   3   5  ar  
  5   3  19  1   
  6   4   6  ar  
  7   4  20  1   
  8   5   7  1   
  9   5   8  ar  
 10   6   8  ar  
 11   6  21  1   
 12   7  22  1   
 13   8   9  1   
 14   9  10  1   
 15   9  23  1   
 16  10  11  2   
 17  10  12  1   
 18  11  13  1   
 19  11  24  1   
 20  12  14  1   
 21  12  25  1   
 22  12  26  1   
 23  13  15  2   
 24  13  16  1   
 25  14  16  1   
 26  14  17  1   
 27  14  18  1   
 28  16  27  1   
 29  16  28  1   
 30  17  29  1   
 31  17  30  1   
 32  17  31  1   
 33  18  32  1   
 34  18  33  1   
 35  18  34  1   
@<TRIPOS>SUBSTRUCTURE
  1 ****  10 GROUP 4 **** **** 0

# MOE 2024.06 (io_trps.svl 2023.06)
