@<TRIPOS>MOLECULE
NONAME
46 46 1 0 0 
SMALL
USER_CHARGES


@<TRIPOS>ATOM
  1 O        1.0290     5.2580    -1.4430 O.2   1 <1>  -0.5700 
  2 C        1.5090     4.5640    -0.5650 C.2   1 <1>   0.5440 
  3 N        2.8520     4.6860    -0.2630 N.am  1 <1>  -0.6600 
  4 C        0.6180     3.6590     0.1390 C.ar  1 <1>   0.0860 
  5 C        3.7470     5.4930    -1.1390 C.3   1 <1>   0.1400 
  6 C        3.4150     4.3300     1.0700 C.3   1 <1>   0.1400 
  7 C       -0.6280     4.1110     0.5670 C.ar  1 <1>  -0.1500 
  8 C        0.9340     2.3230     0.3820 C.ar  1 <1>  -0.1500 
  9 C        4.1990     4.6460    -2.3270 C.3   1 <1>  -0.2400 
 10 C        4.5080     3.2710     0.9300 C.3   1 <1>  -0.2400 
 11 C       -1.5340     3.2750     1.1990 C.ar  1 <1>  -0.1430 
 12 C        0.0500     1.4830     1.0340 C.ar  1 <1>  -0.1500 
 13 C       -1.1840     1.9560     1.4440 C.ar  1 <1>  -0.1500 
 14 C       -2.9010     3.8040     1.5900 C.3   1 <1>   0.4860 
 15 N       -3.6390     4.1590     0.3420 N.4   1 <1>  -0.9590 
 16 C       -4.8550     4.9690     0.6130 C.3   1 <1>   0.3430 
 17 C       -3.9320     2.9440    -0.4660 C.3   1 <1>   0.3430 
 18 C       -4.4490     6.3860     1.0040 C.3   1 <1>  -0.2400 
 19 C       -4.1740     3.3450    -1.9170 C.3   1 <1>  -0.2400 
 20 H        4.6040     5.8320    -0.5840 H     1 <1>   0.0800 
 21 H        3.2210     6.3630    -1.4950 H     1 <1>   0.0800 
 22 H        2.6410     3.9620     1.7200 H     1 <1>   0.0800 
 23 H        3.8250     5.2150     1.5280 H     1 <1>   0.0800 
 24 H       -0.8670     5.1440     0.3780 H     1 <1>   0.1500 
 25 H        1.8820     1.9420     0.0450 H     1 <1>   0.1500 
 26 H        4.7250     3.7710    -1.9920 H     1 <1>   0.0800 
 27 H        4.8550     5.2230    -2.9530 H     1 <1>   0.0800 
 28 H        3.3470     4.3490    -2.9110 H     1 <1>   0.0800 
 29 H        4.1380     2.4090     0.4080 H     1 <1>   0.0800 
 30 H        4.8370     2.9640     1.9060 H     1 <1>   0.0800 
 31 H        5.3550     3.6700     0.4030 H     1 <1>   0.0800 
 32 H        0.3240     0.4570     1.2180 H     1 <1>   0.1500 
 33 H       -1.8590     1.2830     1.9460 H     1 <1>   0.1500 
 34 H       -2.7720     4.6740     2.2110 H     1 <1>   0.0800 
 35 H       -3.4440     3.0600     2.1490 H     1 <1>   0.0800 
 36 H       -2.9910     4.7260    -0.2210 H     1 <1>   0.4500 
 37 H       -5.4420     4.5170     1.3970 H     1 <1>   0.0800 
 38 H       -5.4650     5.0220    -0.2740 H     1 <1>   0.0800 
 39 H       -4.7920     2.4260    -0.0710 H     1 <1>   0.0800 
 40 H       -3.0900     2.2700    -0.4380 H     1 <1>   0.0800 
 41 H       -3.9210     6.4060     1.9400 H     1 <1>   0.0800 
 42 H       -5.3360     6.9840     1.1200 H     1 <1>   0.0800 
 43 H       -3.8460     6.8370     0.2360 H     1 <1>   0.0800 
 44 H       -5.0510     3.9570    -2.0210 H     1 <1>   0.0800 
 45 H       -4.3240     2.4570    -2.5050 H     1 <1>   0.0800 
 46 H       -3.3190     3.8610    -2.3160 H     1 <1>   0.0800 
@<TRIPOS>BOND
  1   1   2  2   
  2   2   3  am  
  3   2   4  1   
  4   3   5  1   
  5   3   6  1   
  6   4   7  ar  
  7   4   8  ar  
  8   5   9  1   
  9   5  20  1   
 10   5  21  1   
 11   6  10  1   
 12   6  22  1   
 13   6  23  1   
 14   7  11  ar  
 15   7  24  1   
 16   8  12  ar  
 17   8  25  1   
 18   9  26  1   
 19   9  27  1   
 20   9  28  1   
 21  10  29  1   
 22  10  30  1   
 23  10  31  1   
 24  11  13  ar  
 25  11  14  1   
 26  12  13  ar  
 27  12  32  1   
 28  13  33  1   
 29  14  15  1   
 30  14  34  1   
 31  14  35  1   
 32  15  16  1   
 33  15  17  1   
 34  15  36  1   
 35  16  18  1   
 36  16  37  1   
 37  16  38  1   
 38  17  19  1   
 39  17  39  1   
 40  17  40  1   
 41  18  41  1   
 42  18  42  1   
 43  18  43  1   
 44  19  44  1   
 45  19  45  1   
 46  19  46  1   
@<TRIPOS>SUBSTRUCTURE
  1 ****   7 GROUP 4 **** **** 0

# MOE 2024.06 (io_trps.svl 2023.06)
