@<TRIPOS>MOLECULE
NONAME
38 39 1 0 0 
SMALL
USER_CHARGES


@<TRIPOS>ATOM
  1 O       -1.0240    -0.1870    -1.3900 O.2   1 <1>  -0.5700 
  2 C       -1.9470    -0.8490    -0.9630 C.2   1 <1>   0.7060 
  3 O       -3.1340    -0.2680    -0.8210 O.3   1 <1>  -0.2330 
  4 C       -1.8310    -2.2200    -0.6050 C.2   1 <1>  -0.1360 
  5 C       -4.2220    -0.9250    -0.3620 C.ar  1 <1>   0.0820 
  6 C       -2.8760    -2.9480    -0.1350 C.2   1 <1>  -0.1670 
  7 C       -4.1610    -2.2870    -0.0020 C.ar  1 <1>   0.0280 
  8 C       -5.3900    -0.1870    -0.2720 C.ar  1 <1>  -0.1500 
  9 C       -2.7050    -4.4250     0.2510 C.3   1 <1>  -0.0220 
 10 C       -5.3740    -2.8540     0.4510 C.ar  1 <1>   0.0830 
 11 C       -6.5530    -0.7710     0.1840 C.ar  1 <1>   0.0830 
 12 C       -1.2900    -5.0050     0.1070 C.3   1 <1>  -0.1600 
 13 O       -5.4500    -4.1570     0.8050 O.3   1 <1>  -0.2330 
 14 C       -6.5310    -2.1030     0.5660 C.ar  1 <1>  -0.1500 
 15 O       -7.6730    -0.0110     0.2460 O.3   1 <1>  -0.2330 
 16 C       -1.2480    -6.4770     0.5330 C.3   1 <1>  -0.2400 
 17 C       -6.2860    -5.0560     0.2850 C.2   1 <1>   0.6590 
 18 C       -8.9150    -0.4120    -0.0240 C.2   1 <1>   0.6590 
 19 O       -6.4830    -6.0960     0.8510 O.2   1 <1>  -0.5700 
 20 C       -6.9380    -4.7800    -1.0560 C.3   1 <1>  -0.1790 
 21 O       -9.1880    -1.5110    -0.4320 O.2   1 <1>  -0.5700 
 22 C       -9.9910     0.6180     0.2110 C.3   1 <1>  -0.1790 
 23 H       -0.8430    -2.6110    -0.7410 H     1 <1>   0.1500 
 24 H       -5.3880     0.8490    -0.5610 H     1 <1>   0.1500 
 25 H       -3.3640    -5.0170    -0.3600 H     1 <1>   0.0800 
 26 H       -3.0040    -4.5440     1.2790 H     1 <1>   0.0800 
 27 H       -0.6050    -4.4470     0.7230 H     1 <1>   0.0800 
 28 H       -0.9690    -4.9330    -0.9180 H     1 <1>   0.0800 
 29 H       -7.4230    -2.5580     0.9600 H     1 <1>   0.1500 
 30 H       -1.5440    -6.5810     1.5620 H     1 <1>   0.0800 
 31 H       -0.2500    -6.8640     0.4240 H     1 <1>   0.0800 
 32 H       -1.9110    -7.0660    -0.0780 H     1 <1>   0.0800 
 33 H       -6.2200    -4.3750    -1.7430 H     1 <1>   0.0800 
 34 H       -7.7540    -4.0910    -0.9370 H     1 <1>   0.0800 
 35 H       -7.3240    -5.6980    -1.4600 H     1 <1>   0.0800 
 36 H       -9.8060     1.4790    -0.4030 H     1 <1>   0.0800 
 37 H       -9.9940     0.9090     1.2440 H     1 <1>   0.0800 
 38 H      -10.9510     0.2060    -0.0410 H     1 <1>   0.0800 
@<TRIPOS>BOND
  1   1   2  2   
  2   2   3  1   
  3   2   4  1   
  4   3   5  1   
  5   4   6  2   
  6   4  23  1   
  7   5   7  ar  
  8   5   8  ar  
  9   6   7  1   
 10   6   9  1   
 11   7  10  ar  
 12   8  11  ar  
 13   8  24  1   
 14   9  12  1   
 15   9  25  1   
 16   9  26  1   
 17  10  13  1   
 18  10  14  ar  
 19  11  14  ar  
 20  11  15  1   
 21  12  16  1   
 22  12  27  1   
 23  12  28  1   
 24  13  17  1   
 25  14  29  1   
 26  15  18  1   
 27  16  30  1   
 28  16  31  1   
 29  16  32  1   
 30  17  19  2   
 31  17  20  1   
 32  18  21  2   
 33  18  22  1   
 34  20  33  1   
 35  20  34  1   
 36  20  35  1   
 37  22  36  1   
 38  22  37  1   
 39  22  38  1   
@<TRIPOS>SUBSTRUCTURE
  1 ****  10 GROUP 4 **** **** 0

# MOE 2024.06 (io_trps.svl 2023.06)
