@<TRIPOS>MOLECULE
NONAME
41 43 1 0 0 
SMALL
USER_CHARGES


@<TRIPOS>ATOM
  1 S        0.2010     0.1780    -1.2420 S.3   1 <1>  -0.0800 
  2 C        0.9590     1.4610    -0.3190 C.2   1 <1>  -0.0360 
  3 C       -1.3850     0.8360    -0.9240 C.2   1 <1>  -0.1400 
  4 N        2.3630     1.4380    -0.2450 N.pl3 1 <1>   0.3790 
  5 C        0.0360     2.3340     0.1900 C.2   1 <1>  -0.0860 
  6 C       -1.3130     1.9380    -0.1620 C.2   1 <1>  -0.1810 
  7 C       -2.6120     0.1500    -1.4840 C.3   1 <1>   0.0200 
  8 C        3.2410     2.1810    -0.9850 C.2   1 <1>  -0.3320 
  9 C        3.1300     0.6280     0.5560 C.2   1 <1>  -0.3320 
 10 C        0.3800     3.5000     0.9730 C.2   1 <1>   0.8060 
 11 C       -2.5880     2.6570     0.2660 C.3   1 <1>   0.0210 
 12 C       -3.8260     1.0810    -1.3280 C.3   1 <1>  -0.1600 
 13 C        4.5400     1.8590    -0.6690 C.2   1 <1>  -0.0860 
 14 C        2.7500     3.2040    -2.0020 C.3   1 <1>  -0.0600 
 15 C        4.4420     0.8600     0.3200 C.2   1 <1>  -0.1500 
 16 C        2.5270    -0.3510     1.5500 C.3   1 <1>  -0.0600 
 17 O        1.4190     3.6040     1.5930 O.2   1 <1>  -0.5700 
 18 O       -0.4760     4.5290     1.0030 O.3   1 <1>  -0.4300 
 19 C       -3.8370     1.7790     0.0460 C.3   1 <1>  -0.1600 
 20 C        5.7800     2.3760    -1.1790 C.2   1 <1>   0.5960 
 21 C       -0.2030     5.7090     1.7350 C.3   1 <1>   0.0400 
 22 O        6.8810     2.0040    -0.8510 O.2   1 <1>  -0.5700 
 23 H       -2.7750    -0.7650    -0.9420 H     1 <1>   0.0800 
 24 H       -2.4630    -0.0880    -2.5220 H     1 <1>   0.0800 
 25 H       -2.6820     3.5640    -0.3050 H     1 <1>   0.0800 
 26 H       -2.5320     2.9180     1.3080 H     1 <1>   0.0800 
 27 H       -4.7320     0.5160    -1.4630 H     1 <1>   0.0800 
 28 H       -3.7880     1.8330    -2.0980 H     1 <1>   0.0800 
 29 H        2.1000     2.7300    -2.7170 H     1 <1>   0.0800 
 30 H        3.5690     3.6510    -2.5340 H     1 <1>   0.0800 
 31 H        2.2030     3.9840    -1.5030 H     1 <1>   0.0800 
 32 H        5.2950     0.3940     0.7850 H     1 <1>   0.1500 
 33 H        1.9060     0.1750     2.2530 H     1 <1>   0.0800 
 34 H        3.3060    -0.8580     2.0900 H     1 <1>   0.0800 
 35 H        1.9310    -1.0830     1.0360 H     1 <1>   0.0800 
 36 H       -4.7200     2.3860     0.1400 H     1 <1>   0.0800 
 37 H       -3.8720     1.0270     0.8160 H     1 <1>   0.0800 
 38 H        5.7180     3.1560    -1.9140 H     1 <1>   0.0600 
 39 H       -1.0310     6.3850     1.6130 H     1 <1>   0.0800 
 40 H        0.6990     6.1550     1.3540 H     1 <1>   0.0800 
 41 H       -0.0810     5.4550     2.7740 H     1 <1>   0.0800 
@<TRIPOS>BOND
  1   1   2  1   
  2   1   3  1   
  3   2   4  1   
  4   2   5  2   
  5   3   6  2   
  6   3   7  1   
  7   4   8  1   
  8   4   9  1   
  9   5   6  1   
 10   5  10  1   
 11   6  11  1   
 12   7  12  1   
 13   7  23  1   
 14   7  24  1   
 15   8  13  2   
 16   8  14  1   
 17   9  15  2   
 18   9  16  1   
 19  10  17  2   
 20  10  18  1   
 21  11  19  1   
 22  11  25  1   
 23  11  26  1   
 24  12  19  1   
 25  12  27  1   
 26  12  28  1   
 27  13  15  1   
 28  13  20  1   
 29  14  29  1   
 30  14  30  1   
 31  14  31  1   
 32  15  32  1   
 33  16  33  1   
 34  16  34  1   
 35  16  35  1   
 36  18  21  1   
 37  19  36  1   
 38  19  37  1   
 39  20  22  2   
 40  20  38  1   
 41  21  39  1   
 42  21  40  1   
 43  21  41  1   
@<TRIPOS>SUBSTRUCTURE
  1 ****   2 GROUP 4 **** **** 0

# MOE 2024.06 (io_trps.svl 2023.06)
