@<TRIPOS>MOLECULE
NONAME
55 58 1 0 0 
SMALL
USER_CHARGES


@<TRIPOS>ATOM
  1 O       -1.6040     0.5170     1.0110 O.3   1 <1>  -0.3630 
  2 C       -2.3900     0.7930    -0.0700 C.ar  1 <1>   0.0820 
  3 C       -0.3840    -0.1570     0.7680 C.3   1 <1>   0.0400 
  4 C       -3.6860     0.2590    -0.1710 C.ar  1 <1>   0.0820 
  5 C       -1.9220     1.6410    -1.0810 C.ar  1 <1>   0.0820 
  6 O       -4.2840    -0.5540     0.7570 O.3   1 <1>  -0.3630 
  7 C       -4.4700     0.5660    -1.2830 C.ar  1 <1>  -0.1430 
  8 O       -0.7100     2.2420    -1.0360 O.3   1 <1>  -0.3630 
  9 C       -2.7040     1.9090    -2.1900 C.ar  1 <1>  -0.1500 
 10 C       -3.5420    -1.3910     1.6230 C.3   1 <1>   0.0400 
 11 C       -3.9740     1.3770    -2.2920 C.ar  1 <1>  -0.1500 
 12 C       -5.8810     0.0210    -1.3950 C.3   1 <1>   0.4860 
 13 C       -0.5630     3.2890    -0.1020 C.3   1 <1>   0.0400 
 14 N       -6.6750     0.5370    -0.2510 N.4   1 <1>  -0.9590 
 15 C       -7.9720    -0.1770    -0.1010 C.3   1 <1>   0.3430 
 16 C       -6.8010     2.0250    -0.2780 C.3   1 <1>   0.3430 
 17 C       -8.6680     0.2800     1.1750 C.3   1 <1>  -0.1600 
 18 C       -7.4840     2.5090     0.9950 C.3   1 <1>  -0.1600 
 19 C       -8.8220     1.8020     1.2250 C.3   1 <1>   0.2820 
 20 C       -9.9280     2.3140     0.2870 C.ar  1 <1>  -0.1430 
 21 C       -9.4000     2.2170     2.5680 C.2   1 <1>  -0.2880 
 22 C      -10.9300     2.9040     1.0420 C.ar  1 <1>   0.0280 
 23 C      -10.0410     2.2650    -1.0950 C.ar  1 <1>  -0.1500 
 24 C      -10.5790     2.8290     2.4240 C.2   1 <1>  -0.1780 
 25 C      -12.0500     3.4470     0.4320 C.ar  1 <1>  -0.1500 
 26 C      -11.1610     2.8090    -1.7060 C.ar  1 <1>  -0.1500 
 27 C      -12.1610     3.3970    -0.9460 C.ar  1 <1>  -0.1500 
 28 H       -0.0270    -0.5510     1.7020 H     1 <1>   0.0800 
 29 H        0.3360     0.5350     0.3730 H     1 <1>   0.0800 
 30 H       -0.5540    -0.9580     0.0700 H     1 <1>   0.0800 
 31 H       -2.3100     2.5420    -2.9660 H     1 <1>   0.1500 
 32 H       -3.1200    -0.7940     2.4120 H     1 <1>   0.0800 
 33 H       -2.7670    -1.8830     1.0610 H     1 <1>   0.0800 
 34 H       -4.2080    -2.1220     2.0430 H     1 <1>   0.0800 
 35 H       -4.5630     1.6070    -3.1650 H     1 <1>   0.1500 
 36 H       -5.8400    -1.0560    -1.3590 H     1 <1>   0.0800 
 37 H       -6.3270     0.3190    -2.3290 H     1 <1>   0.0800 
 38 H        0.4270     3.6950    -0.2050 H     1 <1>   0.0800 
 39 H       -0.6990     2.9030     0.8920 H     1 <1>   0.0800 
 40 H       -1.2960     4.0480    -0.3130 H     1 <1>   0.0800 
 41 H       -6.0770     0.3020     0.5620 H     1 <1>   0.4500 
 42 H       -7.8050    -1.2410    -0.0530 H     1 <1>   0.0800 
 43 H       -8.6050     0.0250    -0.9490 H     1 <1>   0.0800 
 44 H       -7.3750     2.3320    -1.1360 H     1 <1>   0.0800 
 45 H       -5.8250     2.4780    -0.3490 H     1 <1>   0.0800 
 46 H       -8.1020    -0.0560     2.0250 H     1 <1>   0.0800 
 47 H       -9.6410    -0.1760     1.2340 H     1 <1>   0.0800 
 48 H       -7.6490     3.5700     0.9300 H     1 <1>   0.0800 
 49 H       -6.8300     2.3340     1.8310 H     1 <1>   0.0800 
 50 H       -8.8610     2.0060     3.4740 H     1 <1>   0.1500 
 51 H       -9.2880     1.8200    -1.7140 H     1 <1>   0.1500 
 52 H      -11.2200     3.2300     3.1910 H     1 <1>   0.1500 
 53 H      -12.8200     3.9010     1.0290 H     1 <1>   0.1500 
 54 H      -11.2610     2.7770    -2.7780 H     1 <1>   0.1500 
 55 H      -13.0270     3.8160    -1.4300 H     1 <1>   0.1500 
@<TRIPOS>BOND
  1   1   2  1   
  2   1   3  1   
  3   2   4  ar  
  4   2   5  ar  
  5   3  28  1   
  6   3  29  1   
  7   3  30  1   
  8   4   6  1   
  9   4   7  ar  
 10   5   8  1   
 11   5   9  ar  
 12   6  10  1   
 13   7  11  ar  
 14   7  12  1   
 15   8  13  1   
 16   9  11  ar  
 17   9  31  1   
 18  10  32  1   
 19  10  33  1   
 20  10  34  1   
 21  11  35  1   
 22  12  14  1   
 23  12  36  1   
 24  12  37  1   
 25  13  38  1   
 26  13  39  1   
 27  13  40  1   
 28  14  15  1   
 29  14  16  1   
 30  14  41  1   
 31  15  17  1   
 32  15  42  1   
 33  15  43  1   
 34  16  18  1   
 35  16  44  1   
 36  16  45  1   
 37  17  19  1   
 38  17  46  1   
 39  17  47  1   
 40  18  19  1   
 41  18  48  1   
 42  18  49  1   
 43  19  20  1   
 44  19  21  1   
 45  20  22  ar  
 46  20  23  ar  
 47  21  24  2   
 48  21  50  1   
 49  22  24  1   
 50  22  25  ar  
 51  23  26  ar  
 52  23  51  1   
 53  24  52  1   
 54  25  27  ar  
 55  25  53  1   
 56  26  27  ar  
 57  26  54  1   
 58  27  55  1   
@<TRIPOS>SUBSTRUCTURE
  1 ****  16 GROUP 4 **** **** 0

# MOE 2024.06 (io_trps.svl 2023.06)
