@<TRIPOS>MOLECULE
NONAME
23 24 1 0 0 
SMALL
USER_CHARGES


@<TRIPOS>ATOM
  1 S        0.3810    -0.4490    -1.5840 S.3   1 <1>  -0.2820 
  2 C        1.5830    -1.5080    -0.8950 C.2   1 <1>   0.6510 
  3 C       -0.8150    -1.0620    -0.4440 C.2   1 <1>   0.5300 
  4 N        2.7820    -1.5450    -1.3180 N.2   1 <1>  -0.6610 
  5 N        0.9940    -2.2250     0.1130 N.am  1 <1>  -0.0580 
  6 N       -0.3650    -1.9490     0.3400 N.2   1 <1>  -0.5120 
  7 C       -2.2130    -0.4780    -0.5300 C.3   1 <1>  -0.0990 
  8 C        3.6330    -2.4110    -0.7030 C.2   1 <1>   0.7200 
  9 C        1.7580    -3.1400     0.8140 C.2   1 <1>   0.5690 
 10 C       -2.2870     1.0030    -0.1190 C.3   1 <1>  -0.1600 
 11 O        4.7750    -2.4910    -1.0580 O.2   1 <1>  -0.5700 
 12 C        3.2080    -3.3080     0.4400 C.3   1 <1>  -0.0380 
 13 O        1.3320    -3.8190     1.7140 O.2   1 <1>  -0.5700 
 14 C       -1.8470     1.2280     1.3320 C.3   1 <1>  -0.2400 
 15 H       -2.8620    -1.0550     0.1060 H     1 <1>   0.0800 
 16 H       -2.5660    -0.5870    -1.5390 H     1 <1>   0.0800 
 17 H       -3.3020     1.3440    -0.2310 H     1 <1>   0.0800 
 18 H       -1.6720     1.5960    -0.7750 H     1 <1>   0.0800 
 19 H        3.8160    -3.0870     1.2960 H     1 <1>   0.0800 
 20 H        3.3790    -4.3290     0.1600 H     1 <1>   0.0800 
 21 H       -2.4460     0.6390     2.0050 H     1 <1>   0.0800 
 22 H       -1.9660     2.2650     1.5940 H     1 <1>   0.0800 
 23 H       -0.8130     0.9650     1.4690 H     1 <1>   0.0800 
@<TRIPOS>BOND
  1   1   2  1   
  2   1   3  1   
  3   2   4  2   
  4   2   5  1   
  5   3   6  2   
  6   3   7  1   
  7   4   8  1   
  8   5   6  1   
  9   5   9  am  
 10   7  10  1   
 11   7  15  1   
 12   7  16  1   
 13   8  11  2   
 14   8  12  1   
 15   9  12  1   
 16   9  13  2   
 17  10  14  1   
 18  10  17  1   
 19  10  18  1   
 20  12  19  1   
 21  12  20  1   
 22  14  21  1   
 23  14  22  1   
 24  14  23  1   
@<TRIPOS>SUBSTRUCTURE
  1 ****   5 GROUP 4 **** **** 0

# MOE 2024.06 (io_trps.svl 2023.06)
