@<TRIPOS>MOLECULE
NONAME
59 64 1 0 0 
SMALL
USER_CHARGES


@<TRIPOS>ATOM
  1 N       -0.3130    -0.1640     0.6780 N.4   1 <1>  -0.9590 
  2 C       -1.3500    -1.2100     1.0120 C.3   1 <1>   0.4230 
  3 C       -0.2850     0.3180    -0.7530 C.3   1 <1>   0.3430 
  4 C        1.0480    -0.6550     1.1170 C.3   1 <1>   0.3430 
  5 C       -1.5790    -2.3410    -0.0230 C.3   1 <1>  -0.0800 
  6 C       -2.7050    -0.5950     1.4220 C.3   1 <1>  -0.0800 
  7 C        0.8450     1.3460    -1.0400 C.3   1 <1>   0.3430 
  8 C        2.1960     0.3570     0.8340 C.3   1 <1>   0.3430 
  9 C       -2.3470    -3.4530     0.7290 C.3   1 <1>  -0.1600 
 10 C       -2.4610    -1.9230    -1.2290 C.3   1 <1>  -0.1600 
 11 C       -3.4800    -1.7020     2.1700 C.3   1 <1>  -0.1600 
 12 C       -3.5510    -0.1540     0.2060 C.3   1 <1>  -0.1600 
 13 N        2.2110     0.8800    -0.5910 N.4   1 <1>  -0.9590 
 14 C       -3.7020    -2.9130     1.2410 C.3   1 <1>  -0.0800 
 15 C       -3.8000    -1.3500    -0.7340 C.3   1 <1>  -0.0800 
 16 C        3.2290     1.9640    -0.8340 C.3   1 <1>   0.4230 
 17 C       -4.5450    -2.4530     0.0390 C.3   1 <1>  -0.1600 
 18 C        4.7800     1.4670    -0.6570 C.3   1 <1>  -0.0800 
 19 C        3.0130     3.3060     0.1440 C.3   1 <1>  -0.1600 
 20 C        4.6280     2.6140     0.0190 C.3   1 <1>  -0.1600 
 21 C        6.2510     1.9140    -0.1000 C.3   1 <1>  -0.1600 
 22 C        4.4790     3.7330     0.7340 C.3   1 <1>  -0.0800 
 23 C        6.0420     3.2650     0.8630 C.3   1 <1>  -0.1600 
 24 H       -0.5730     0.6360     1.2740 H     1 <1>   0.4500 
 25 H       -0.9960    -1.7040     1.9030 H     1 <1>   0.0800 
 26 H       -1.2310     0.7630    -1.0100 H     1 <1>   0.0800 
 27 H       -0.1380    -0.5250    -1.4070 H     1 <1>   0.0800 
 28 H        1.2740    -1.5780     0.6080 H     1 <1>   0.0800 
 29 H        1.0310    -0.8710     2.1730 H     1 <1>   0.0800 
 30 H       -0.6410    -2.7440    -0.3620 H     1 <1>   0.0800 
 31 H       -2.5600     0.2300     2.0960 H     1 <1>   0.0800 
 32 H        0.5990     2.2690    -0.5400 H     1 <1>   0.0800 
 33 H        0.8650     1.5540    -2.0990 H     1 <1>   0.0800 
 34 H        3.1370    -0.1190     1.0580 H     1 <1>   0.0800 
 35 H        2.0920     1.1810     1.5200 H     1 <1>   0.0800 
 36 H       -1.7670    -3.8170     1.5600 H     1 <1>   0.0800 
 37 H       -2.5200    -4.2910     0.0740 H     1 <1>   0.0800 
 38 H       -1.9850    -1.2160    -1.8750 H     1 <1>   0.0800 
 39 H       -2.6600    -2.7900    -1.8380 H     1 <1>   0.0800 
 40 H       -4.4320    -1.3240     2.5030 H     1 <1>   0.0800 
 41 H       -2.9390    -2.0140     3.0480 H     1 <1>   0.0800 
 42 H       -3.0830     0.6490    -0.3280 H     1 <1>   0.0800 
 43 H       -4.5010     0.2200     0.5520 H     1 <1>   0.0800 
 44 H        2.5070     0.1090    -1.2100 H     1 <1>   0.4500 
 45 H       -4.2280    -3.6890     1.7720 H     1 <1>   0.0800 
 46 H       -4.4000    -1.0390    -1.5740 H     1 <1>   0.0800 
 47 H        3.1320     2.2990    -1.8560 H     1 <1>   0.0800 
 48 H       -5.4980    -2.0830     0.3800 H     1 <1>   0.0800 
 49 H       -4.7420    -3.2890    -0.6110 H     1 <1>   0.0800 
 50 H        4.6790     0.5040    -0.1820 H     1 <1>   0.0800 
 51 H        2.3360     3.1250     0.9610 H     1 <1>   0.0800 
 52 H        2.6060     4.1180    -0.4400 H     1 <1>   0.0800 
 53 H        4.8790     3.2560    -0.9390 H     1 <1>   0.0800 
 54 H        4.4020     1.9890     0.9910 H     1 <1>   0.0800 
 55 H        6.9090     2.1490    -0.9260 H     1 <1>   0.0800 
 56 H        6.7190     1.1210     0.4620 H     1 <1>   0.0800 
 57 H        4.6020     4.7150     0.2930 H     1 <1>   0.0800 
 58 H        6.7110     4.0540     0.5530 H     1 <1>   0.0800 
 59 H        6.2800     3.0330     1.8910 H     1 <1>   0.0800 
@<TRIPOS>BOND
  1   1   2  1   
  2   1   3  1   
  3   1   4  1   
  4   1  24  1   
  5   2   5  1   
  6   2   6  1   
  7   2  25  1   
  8   3   7  1   
  9   3  26  1   
 10   3  27  1   
 11   4   8  1   
 12   4  28  1   
 13   4  29  1   
 14   5   9  1   
 15   5  10  1   
 16   5  30  1   
 17   6  11  1   
 18   6  12  1   
 19   6  31  1   
 20   7  13  1   
 21   7  32  1   
 22   7  33  1   
 23   8  13  1   
 24   8  34  1   
 25   8  35  1   
 26   9  14  1   
 27   9  36  1   
 28   9  37  1   
 29  10  15  1   
 30  10  38  1   
 31  10  39  1   
 32  11  14  1   
 33  11  40  1   
 34  11  41  1   
 35  12  15  1   
 36  12  42  1   
 37  12  43  1   
 38  13  16  1   
 39  13  44  1   
 40  14  17  1   
 41  14  45  1   
 42  15  17  1   
 43  15  46  1   
 44  16  18  1   
 45  16  19  1   
 46  16  47  1   
 47  17  48  1   
 48  17  49  1   
 49  18  20  1   
 50  18  21  1   
 51  18  50  1   
 52  19  22  1   
 53  19  51  1   
 54  19  52  1   
 55  20  22  1   
 56  20  53  1   
 57  20  54  1   
 58  21  23  1   
 59  21  55  1   
 60  21  56  1   
 61  22  23  1   
 62  22  57  1   
 63  23  58  1   
 64  23  59  1   
@<TRIPOS>SUBSTRUCTURE
  1 ****   1 GROUP 4 **** **** 0

# MOE 2024.06 (io_trps.svl 2023.06)
