@<TRIPOS>MOLECULE
NONAME
47 48 1 0 0 
SMALL
USER_CHARGES


@<TRIPOS>ATOM
  1 O        0.0520    -0.2260     1.1850 O.2   1 <1>  -0.5700 
  2 C        0.0750    -0.9740     0.2270 C.2   1 <1>   0.6900 
  3 N        1.2340    -1.4360    -0.3200 N.am  1 <1>  -0.5470 
  4 N       -1.0940    -1.3760    -0.3320 N.am  1 <1>  -0.7300 
  5 C        2.5730    -1.1220    -0.0440 C.ar  1 <1>   0.1170 
  6 C       -2.4070    -0.9870     0.1980 C.3   1 <1>   0.2200 
  7 C        3.5570    -2.0340    -0.4030 C.ar  1 <1>  -0.1500 
  8 C        2.9680     0.0700     0.5560 C.ar  1 <1>  -0.1500 
  9 C       -3.4360    -2.0680    -0.1100 C.3   1 <1>  -0.1600 
 10 C       -2.8300     0.3420    -0.4170 C.3   1 <1>  -0.1600 
 11 C        4.8970    -1.7790    -0.1710 C.ar  1 <1>   0.0830 
 12 C        4.3050     0.3370     0.7940 C.ar  1 <1>  -0.1500 
 13 C       -4.8140    -1.6360     0.3880 C.3   1 <1>   0.3430 
 14 C       -4.2120     0.7400     0.0890 C.3   1 <1>   0.3430 
 15 O        5.7760    -2.7370    -0.5600 O.3   1 <1>  -0.3630 
 16 C        5.2730    -0.5830     0.4340 C.ar  1 <1>  -0.1500 
 17 N       -5.2160    -0.3290    -0.2300 N.4   1 <1>  -0.9590 
 18 C        7.1620    -2.5880    -0.3440 C.3   1 <1>   0.0400 
 19 C       -6.6060     0.0730     0.1430 C.3   1 <1>   0.4230 
 20 C       -7.5970    -1.0220    -0.2600 C.3   1 <1>  -0.2400 
 21 C       -6.9900     1.3690    -0.5740 C.3   1 <1>  -0.2400 
 22 H        1.1120    -2.2190    -0.9520 H     1 <1>   0.3700 
 23 H       -1.0710    -1.8340    -1.2400 H     1 <1>   0.3700 
 24 H       -2.3290    -0.8710     1.2690 H     1 <1>   0.0800 
 25 H        3.2900    -2.9640    -0.8680 H     1 <1>   0.1500 
 26 H        2.2330     0.8000     0.8390 H     1 <1>   0.1500 
 27 H       -3.1550    -2.9770     0.3930 H     1 <1>   0.0800 
 28 H       -3.4800    -2.2630    -1.1660 H     1 <1>   0.0800 
 29 H       -2.8380     0.2810    -1.4910 H     1 <1>   0.0800 
 30 H       -2.1250     1.1030    -0.1290 H     1 <1>   0.0800 
 31 H        4.5890     1.2640     1.2620 H     1 <1>   0.1500 
 32 H       -4.7940    -1.5380     1.4620 H     1 <1>   0.0800 
 33 H       -5.5250    -2.4050     0.1330 H     1 <1>   0.0800 
 34 H       -4.4910     1.6700    -0.3790 H     1 <1>   0.0800 
 35 H       -4.1720     0.8980     1.1550 H     1 <1>   0.0800 
 36 H        6.3030    -0.3520     0.6300 H     1 <1>   0.1500 
 37 H       -5.2190    -0.4540    -1.2500 H     1 <1>   0.4500 
 38 H        7.6540    -3.4670    -0.7190 H     1 <1>   0.0800 
 39 H        7.3410    -2.4910     0.7120 H     1 <1>   0.0800 
 40 H        7.5060    -1.7200    -0.8770 H     1 <1>   0.0800 
 41 H       -6.6690     0.2290     1.2100 H     1 <1>   0.0800 
 42 H       -7.4940    -1.2770    -1.3000 H     1 <1>   0.0800 
 43 H       -8.6040    -0.6740    -0.1040 H     1 <1>   0.0800 
 44 H       -7.4840    -1.9020     0.3450 H     1 <1>   0.0800 
 45 H       -6.8430     1.2850    -1.6370 H     1 <1>   0.0800 
 46 H       -6.4390     2.2100    -0.1960 H     1 <1>   0.0800 
 47 H       -8.0300     1.5850    -0.4010 H     1 <1>   0.0800 
@<TRIPOS>BOND
  1   1   2  2   
  2   2   3  am  
  3   2   4  am  
  4   3   5  1   
  5   3  22  1   
  6   4   6  1   
  7   4  23  1   
  8   5   7  ar  
  9   5   8  ar  
 10   6   9  1   
 11   6  10  1   
 12   6  24  1   
 13   7  11  ar  
 14   7  25  1   
 15   8  12  ar  
 16   8  26  1   
 17   9  13  1   
 18   9  27  1   
 19   9  28  1   
 20  10  14  1   
 21  10  29  1   
 22  10  30  1   
 23  11  15  1   
 24  11  16  ar  
 25  12  16  ar  
 26  12  31  1   
 27  13  17  1   
 28  13  32  1   
 29  13  33  1   
 30  14  17  1   
 31  14  34  1   
 32  14  35  1   
 33  15  18  1   
 34  16  36  1   
 35  17  19  1   
 36  17  37  1   
 37  18  38  1   
 38  18  39  1   
 39  18  40  1   
 40  19  20  1   
 41  19  21  1   
 42  19  41  1   
 43  20  42  1   
 44  20  43  1   
 45  20  44  1   
 46  21  45  1   
 47  21  46  1   
 48  21  47  1   
@<TRIPOS>SUBSTRUCTURE
  1 ****   2 GROUP 4 **** **** 0

# MOE 2024.06 (io_trps.svl 2023.06)
