@<TRIPOS>MOLECULE
NONAME
47 49 1 0 0 
SMALL
USER_CHARGES


@<TRIPOS>ATOM
  1 S        0.3870     0.0630     1.0960 S.o2  1 <1>   1.4470 
  2 O        0.0220     0.0850     2.4940 O.2   1 <1>  -0.6500 
  3 O       -0.1540     1.0520     0.1930 O.2   1 <1>  -0.6500 
  4 N        2.1120     0.2410     1.0440 N.am  1 <1>  -0.6930 
  5 C        0.1070    -1.5970     0.4150 C.ar  1 <1>  -0.0090 
  6 C        2.7840     0.6810    -0.0870 C.ar  1 <1>   0.1990 
  7 C        2.8960    -0.2420     2.2210 C.3   1 <1>   0.2570 
  8 C        0.1700    -2.7290     1.2270 C.ar  1 <1>  -0.1500 
  9 C       -0.1610    -1.7770    -0.9420 C.ar  1 <1>  -0.1500 
 10 C        3.3650     1.9430    -0.1060 C.ar  1 <1>  -0.1500 
 11 C        2.9150    -0.1320    -1.2080 C.ar  1 <1>  -0.1500 
 12 C        3.2110    -1.7370     2.1550 C.2   1 <1>   0.5690 
 13 C       -0.0170    -4.0000     0.7110 C.ar  1 <1>  -0.1500 
 14 C       -0.3530    -3.0390    -1.4790 C.ar  1 <1>  -0.1500 
 15 C        4.0660     2.3810    -1.2140 C.ar  1 <1>  -0.1500 
 16 C        3.6150     0.3030    -2.3190 C.ar  1 <1>  -0.1500 
 17 O        2.8660    -2.4530     3.0640 O.2   1 <1>  -0.5700 
 18 N        3.8640    -2.2210     1.0660 N.am  1 <1>  -0.7300 
 19 C       -0.2750    -4.1320    -0.6390 C.ar  1 <1>   0.1900 
 20 C        4.1930     1.5600    -2.3220 C.ar  1 <1>  -0.1500 
 21 C        4.2110    -3.6290     0.8220 C.3   1 <1>   0.2200 
 22 F       -0.4470    -5.3250    -1.1360 F     1 <1>  -0.1900 
 23 C        5.7070    -3.7210     0.5550 C.3   1 <1>  -0.1600 
 24 C        3.5870    -4.0650    -0.4990 C.3   1 <1>  -0.1600 
 25 C        5.8850    -3.2960    -0.9050 C.3   1 <1>  -0.1600 
 26 C        4.5620    -3.6320    -1.6030 C.3   1 <1>  -0.1600 
 27 H        2.3630    -0.0370     3.1320 H     1 <1>   0.0800 
 28 H        3.8270     0.2920     2.2670 H     1 <1>   0.0800 
 29 H        0.3690    -2.6160     2.2820 H     1 <1>   0.1500 
 30 H       -0.2220    -0.9130    -1.5860 H     1 <1>   0.1500 
 31 H        3.2570     2.5820     0.7510 H     1 <1>   0.1500 
 32 H        2.4710    -1.1100    -1.2110 H     1 <1>   0.1500 
 33 H        0.0370    -4.8700     1.3410 H     1 <1>   0.1500 
 34 H       -0.5600    -3.1770    -2.5250 H     1 <1>   0.1500 
 35 H        4.5100     3.3620    -1.2190 H     1 <1>   0.1500 
 36 H        3.7100    -0.3320    -3.1830 H     1 <1>   0.1500 
 37 H        4.1220    -1.5870     0.3080 H     1 <1>   0.3700 
 38 H        4.7370     1.9020    -3.1860 H     1 <1>   0.1500 
 39 H        3.9010    -4.2500     1.6480 H     1 <1>   0.0800 
 40 H        6.0090    -4.7480     0.6600 H     1 <1>   0.0800 
 41 H        6.2820    -3.1210     1.2390 H     1 <1>   0.0800 
 42 H        2.6010    -3.6590    -0.6360 H     1 <1>   0.0800 
 43 H        3.5150    -5.1390    -0.5010 H     1 <1>   0.0800 
 44 H        6.7170    -3.8040    -1.3620 H     1 <1>   0.0800 
 45 H        6.0590    -2.2340    -0.9540 H     1 <1>   0.0800 
 46 H        4.1880    -2.7670    -2.1210 H     1 <1>   0.0800 
 47 H        4.6950    -4.4290    -2.3150 H     1 <1>   0.0800 
@<TRIPOS>BOND
  1   1   2  2   
  2   1   3  2   
  3   1   4  am  
  4   1   5  1   
  5   4   6  1   
  6   4   7  1   
  7   5   8  ar  
  8   5   9  ar  
  9   6  10  ar  
 10   6  11  ar  
 11   7  12  1   
 12   7  27  1   
 13   7  28  1   
 14   8  13  ar  
 15   8  29  1   
 16   9  14  ar  
 17   9  30  1   
 18  10  15  ar  
 19  10  31  1   
 20  11  16  ar  
 21  11  32  1   
 22  12  17  2   
 23  12  18  am  
 24  13  19  ar  
 25  13  33  1   
 26  14  19  ar  
 27  14  34  1   
 28  15  20  ar  
 29  15  35  1   
 30  16  20  ar  
 31  16  36  1   
 32  18  21  1   
 33  18  37  1   
 34  19  22  1   
 35  20  38  1   
 36  21  23  1   
 37  21  24  1   
 38  21  39  1   
 39  23  25  1   
 40  23  40  1   
 41  23  41  1   
 42  24  26  1   
 43  24  42  1   
 44  24  43  1   
 45  25  26  1   
 46  25  44  1   
 47  25  45  1   
 48  26  46  1   
 49  26  47  1   
@<TRIPOS>SUBSTRUCTURE
  1 ****  18 GROUP 4 **** **** 0

# MOE 2024.06 (io_trps.svl 2023.06)
