@<TRIPOS>MOLECULE
NONAME
31 32 1 0 0 
SMALL
USER_CHARGES


@<TRIPOS>ATOM
  1 S       -0.0770     0.2310    -0.5880 S.3   1 <1>  -0.0800 
  2 C       -1.6150     0.6850     0.1260 C.2   1 <1>  -0.1400 
  3 C        0.7490     1.5390     0.2340 C.2   1 <1>  -0.1100 
  4 C       -1.4590     1.7600     0.9280 C.2   1 <1>  -0.1500 
  5 C       -2.7890    -0.1860    -0.2770 C.3   1 <1>   0.5230 
  6 C       -0.1130     2.2440     0.9870 C.2   1 <1>  -0.1500 
  7 N       -4.0700     0.4660     0.1070 N.4   1 <1>  -0.9590 
  8 C       -5.1780    -0.5270     0.0760 C.3   1 <1>   0.3430 
  9 C       -4.3100     1.6780    -0.7330 C.3   1 <1>   0.3430 
 10 C       -6.4700     0.0260     0.6810 C.3   1 <1>  -0.1600 
 11 C       -5.1430     2.6920     0.0480 C.3   1 <1>  -0.1600 
 12 C       -7.1660     1.0570    -0.2190 C.3   1 <1>  -0.1600 
 13 C       -6.6660     2.4970    -0.0410 C.3   1 <1>  -0.1600 
 14 H        1.8080     1.6430     0.0660 H     1 <1>   0.1500 
 15 H       -2.2210     2.2580     1.5020 H     1 <1>   0.1500 
 16 H       -2.6930    -1.1400     0.2150 H     1 <1>   0.0800 
 17 H       -2.7660    -0.3500    -1.3420 H     1 <1>   0.0800 
 18 H        0.1460     3.0980     1.5920 H     1 <1>   0.1500 
 19 H       -3.9530     0.7810     1.0760 H     1 <1>   0.4500 
 20 H       -4.8880    -1.3980     0.6420 H     1 <1>   0.0800 
 21 H       -5.3650    -0.8390    -0.9390 H     1 <1>   0.0800 
 22 H       -4.7980     1.4170    -1.6590 H     1 <1>   0.0800 
 23 H       -3.3640     2.1390    -0.9720 H     1 <1>   0.0800 
 24 H       -6.3000     0.4210     1.6680 H     1 <1>   0.0800 
 25 H       -7.1420    -0.8070     0.7920 H     1 <1>   0.0800 
 26 H       -4.9220     3.6720    -0.3410 H     1 <1>   0.0800 
 27 H       -4.8360     2.6990     1.0790 H     1 <1>   0.0800 
 28 H       -8.2210     1.0520     0.0070 H     1 <1>   0.0800 
 29 H       -7.0740     0.7620    -1.2510 H     1 <1>   0.0800 
 30 H       -7.0430     3.0770    -0.8680 H     1 <1>   0.0800 
 31 H       -7.1110     2.9140     0.8490 H     1 <1>   0.0800 
@<TRIPOS>BOND
  1   1   2  1   
  2   1   3  1   
  3   2   4  2   
  4   2   5  1   
  5   3   6  2   
  6   3  14  1   
  7   4   6  1   
  8   4  15  1   
  9   5   7  1   
 10   5  16  1   
 11   5  17  1   
 12   6  18  1   
 13   7   8  1   
 14   7   9  1   
 15   7  19  1   
 16   8  10  1   
 17   8  20  1   
 18   8  21  1   
 19   9  11  1   
 20   9  22  1   
 21   9  23  1   
 22  10  12  1   
 23  10  24  1   
 24  10  25  1   
 25  11  13  1   
 26  11  26  1   
 27  11  27  1   
 28  12  13  1   
 29  12  28  1   
 30  12  29  1   
 31  13  30  1   
 32  13  31  1   
@<TRIPOS>SUBSTRUCTURE
  1 ****   7 GROUP 4 **** **** 0

# MOE 2024.06 (io_trps.svl 2023.06)
