@<TRIPOS>MOLECULE
NONAME
40 42 1 0 0 
SMALL
USER_CHARGES


@<TRIPOS>ATOM
  1 CL      -1.6990     1.8800     2.8720 Cl    1 <1>  -0.1770 
  2 C       -2.3500     1.7160     1.2600 C.ar  1 <1>   0.1770 
  3 C       -1.7150     2.2910     0.1720 C.ar  1 <1>   0.1770 
  4 C       -3.5220     0.9990     1.0900 C.ar  1 <1>  -0.1500 
  5 CL      -0.2380     3.2020     0.3730 Cl    1 <1>  -0.1770 
  6 C       -2.2490     2.1520    -1.0960 C.ar  1 <1>  -0.1500 
  7 C       -4.0700     0.8620    -0.1800 C.ar  1 <1>  -0.1440 
  8 C       -3.4250     1.4370    -1.2700 C.ar  1 <1>  -0.1500 
  9 C       -5.3630     0.0880    -0.3770 C.3   1 <1>   0.4870 
 10 N       -6.4980     0.9040     0.1360 N.4   1 <1>  -0.9590 
 11 C       -7.7870     0.1150     0.1440 C.3   1 <1>   0.3430 
 12 C       -6.6590     2.1930    -0.6410 C.3   1 <1>   0.3430 
 13 C       -8.9920     0.9460     0.6380 C.3   1 <1>   0.2090 
 14 C       -7.8540     3.0390    -0.1530 C.3   1 <1>   0.2090 
 15 N       -9.1000     2.2200    -0.1280 N.pl3 1 <1>  -0.8380 
 16 C      -10.2940     2.9190     0.0060 C.ar  1 <1>   0.1000 
 17 C      -10.6290     3.5600     1.1980 C.ar  1 <1>  -0.1500 
 18 C      -11.1730     2.9800    -1.0710 C.ar  1 <1>  -0.1500 
 19 C      -11.8230     4.2510     1.3150 C.ar  1 <1>  -0.1500 
 20 C      -12.3700     3.6670    -0.9700 C.ar  1 <1>  -0.1500 
 21 C      -12.6720     4.2910     0.2250 C.ar  1 <1>   0.1900 
 22 F      -13.8020     4.9430     0.3290 F     1 <1>  -0.1900 
 23 H       -3.9790     0.5580     1.9590 H     1 <1>   0.1500 
 24 H       -1.7420     2.5990    -1.9350 H     1 <1>   0.1500 
 25 H       -3.8220     1.3340    -2.2670 H     1 <1>   0.1500 
 26 H       -5.3040    -0.8450     0.1620 H     1 <1>   0.0800 
 27 H       -5.5060    -0.1330    -1.4220 H     1 <1>   0.0800 
 28 H       -6.2770     1.1650     1.1040 H     1 <1>   0.4500 
 29 H       -7.6840    -0.7560     0.7700 H     1 <1>   0.0800 
 30 H       -8.0090    -0.2210    -0.8560 H     1 <1>   0.0800 
 31 H       -6.8170     1.9690    -1.6830 H     1 <1>   0.0800 
 32 H       -5.7610     2.7850    -0.5650 H     1 <1>   0.0800 
 33 H       -8.8860     1.1610     1.6870 H     1 <1>   0.0800 
 34 H       -9.8970     0.3770     0.5060 H     1 <1>   0.0800 
 35 H       -7.9950     3.8760    -0.8160 H     1 <1>   0.0800 
 36 H       -7.6530     3.4270     0.8300 H     1 <1>   0.0800 
 37 H       -9.9570     3.5180     2.0340 H     1 <1>   0.1500 
 38 H      -10.9110     2.4850    -1.9880 H     1 <1>   0.1500 
 39 H      -12.0970     4.7510     2.2270 H     1 <1>   0.1500 
 40 H      -13.0570     3.7220    -1.7950 H     1 <1>   0.1500 
@<TRIPOS>BOND
  1   1   2  1   
  2   2   3  ar  
  3   2   4  ar  
  4   3   5  1   
  5   3   6  ar  
  6   4   7  ar  
  7   4  23  1   
  8   6   8  ar  
  9   6  24  1   
 10   7   8  ar  
 11   7   9  1   
 12   8  25  1   
 13   9  10  1   
 14   9  26  1   
 15   9  27  1   
 16  10  11  1   
 17  10  12  1   
 18  10  28  1   
 19  11  13  1   
 20  11  29  1   
 21  11  30  1   
 22  12  14  1   
 23  12  31  1   
 24  12  32  1   
 25  13  15  1   
 26  13  33  1   
 27  13  34  1   
 28  14  15  1   
 29  14  35  1   
 30  14  36  1   
 31  15  16  1   
 32  16  17  ar  
 33  16  18  ar  
 34  17  19  ar  
 35  17  37  1   
 36  18  20  ar  
 37  18  38  1   
 38  19  21  ar  
 39  19  39  1   
 40  20  21  ar  
 41  20  40  1   
 42  21  22  1   
@<TRIPOS>SUBSTRUCTURE
  1 ****  12 GROUP 4 **** **** 0

# MOE 2024.06 (io_trps.svl 2023.06)
