@<TRIPOS>MOLECULE
NONAME
33 35 1 0 0 
SMALL
USER_CHARGES


@<TRIPOS>ATOM
  1 O       -8.0900     0.1270     1.7930 O.3   1 <1>  -0.6800 
  2 C       -7.2100     0.4070     0.7820 C.3   1 <1>   0.2800 
  3 C       -5.8110    -0.0040     1.2560 C.3   1 <1>  -0.1600 
  4 C       -7.6020    -0.3970    -0.4660 C.3   1 <1>  -0.1600 
  5 C       -7.2430     1.9100     0.4760 C.3   1 <1>  -0.1600 
  6 C       -4.7740     0.2810     0.1420 C.3   1 <1>   0.0000 
  7 C       -6.5930    -0.1020    -1.5930 C.3   1 <1>  -0.0800 
  8 C       -6.2320     2.2130    -0.6470 C.3   1 <1>  -0.0800 
  9 C       -5.1790    -0.5080    -1.1300 C.3   1 <1>  -0.1600 
 10 C       -4.8220     1.7930    -0.1890 C.3   1 <1>  -0.1600 
 11 C       -3.3450    -0.0740     0.6030 C.3   1 <1>   0.3430 
 12 C       -6.6110     1.4060    -1.9040 C.3   1 <1>  -0.1600 
 13 N       -3.2310    -1.5020     1.0040 N.4   1 <1>  -0.8530 
 14 H       -8.9870     0.4110     1.5350 H     1 <1>   0.4000 
 15 H       -5.5670     0.5540     2.1440 H     1 <1>   0.0800 
 16 H       -5.8390    -1.0490     1.5030 H     1 <1>   0.0800 
 17 H       -8.5900    -0.1170    -0.7890 H     1 <1>   0.0800 
 18 H       -7.6050    -1.4490    -0.2420 H     1 <1>   0.0800 
 19 H       -6.9880     2.4720     1.3570 H     1 <1>   0.0800 
 20 H       -8.2280     2.2030     0.1590 H     1 <1>   0.0800 
 21 H       -6.8650    -0.6560    -2.4770 H     1 <1>   0.0800 
 22 H       -6.2460     3.2660    -0.8740 H     1 <1>   0.0800 
 23 H       -5.1770    -1.5680    -0.9460 H     1 <1>   0.0800 
 24 H       -4.4820    -0.3120    -1.9280 H     1 <1>   0.0800 
 25 H       -4.1180     2.0270    -0.9690 H     1 <1>   0.0800 
 26 H       -4.5510     2.3740     0.6770 H     1 <1>   0.0800 
 27 H       -3.0850     0.5560     1.4390 H     1 <1>   0.0800 
 28 H       -2.6560     0.1370    -0.1990 H     1 <1>   0.0800 
 29 H       -5.9220     1.6250    -2.7020 H     1 <1>   0.0800 
 30 H       -7.5920     1.6970    -2.2400 H     1 <1>   0.0800 
 31 H       -3.8860    -1.7050     1.7670 H     1 <1>   0.4500 
 32 H       -2.2820    -1.7290     1.3220 H     1 <1>   0.4500 
 33 H       -3.4680    -2.1140     0.2160 H     1 <1>   0.4500 
@<TRIPOS>BOND
  1   1   2  1   
  2   1  14  1   
  3   2   3  1   
  4   2   4  1   
  5   2   5  1   
  6   3   6  1   
  7   3  15  1   
  8   3  16  1   
  9   4   7  1   
 10   4  17  1   
 11   4  18  1   
 12   5   8  1   
 13   5  19  1   
 14   5  20  1   
 15   6   9  1   
 16   6  10  1   
 17   6  11  1   
 18   7   9  1   
 19   7  12  1   
 20   7  21  1   
 21   8  10  1   
 22   8  12  1   
 23   8  22  1   
 24   9  23  1   
 25   9  24  1   
 26  10  25  1   
 27  10  26  1   
 28  11  13  1   
 29  11  27  1   
 30  11  28  1   
 31  12  29  1   
 32  12  30  1   
 33  13  31  1   
 34  13  32  1   
 35  13  33  1   
@<TRIPOS>SUBSTRUCTURE
  1 ****   6 GROUP 4 **** **** 0

# MOE 2024.06 (io_trps.svl 2023.06)
