@<TRIPOS>MOLECULE
NONAME
36 38 1 0 0 
SMALL
USER_CHARGES


@<TRIPOS>ATOM
  1 O       -0.0220     2.9850     2.1360 O.2   1 <1>  -0.5700 
  2 C       -0.1130     2.6690     0.9710 C.2   1 <1>   0.5690 
  3 N       -1.2560     2.1410     0.4670 N.am  1 <1>  -0.7300 
  4 C        1.0900     2.8740     0.0350 C.3   1 <1>   0.2610 
  5 C       -2.5210     1.9560     1.1960 C.3   1 <1>   0.2840 
  6 O        0.7990     2.5480    -1.3000 O.3   1 <1>  -0.5600 
  7 C        2.2900     1.9960     0.3690 C.3   1 <1>  -0.1600 
  8 C       -3.6660     2.4850     0.3440 C.ar  1 <1>  -0.1440 
  9 C        1.9780     2.3070    -1.9990 C.3   1 <1>   0.1200 
 10 C        3.0110     1.8640    -0.9640 C.3   1 <1>  -0.1600 
 11 C       -3.9040     3.8800     0.2320 C.ar  1 <1>   0.0000 
 12 C       -4.4660     1.5870    -0.3130 C.ar  1 <1>  -0.1500 
 13 C       -4.9880     4.3160    -0.5660 C.ar  1 <1>   0.0000 
 14 C       -3.1200     4.8720     0.8690 C.ar  1 <1>  -0.1500 
 15 C       -5.5340     2.0240    -1.1020 C.ar  1 <1>  -0.1500 
 16 C       -5.7860     3.3600    -1.2230 C.ar  1 <1>  -0.1500 
 17 C       -5.2450     5.6970    -0.6860 C.ar  1 <1>  -0.1500 
 18 C       -3.3920     6.2050     0.7350 C.ar  1 <1>  -0.1500 
 19 C       -4.4690     6.6250    -0.0520 C.ar  1 <1>  -0.1500 
 20 H       -1.2910     1.9900    -0.5460 H     1 <1>   0.3700 
 21 H        1.3740     3.9110     0.0570 H     1 <1>   0.0800 
 22 H       -2.4900     2.4640     2.1450 H     1 <1>   0.0800 
 23 H       -2.6570     0.9070     1.3910 H     1 <1>   0.0800 
 24 H        1.9440     1.0340     0.7050 H     1 <1>   0.0800 
 25 H        2.9010     2.4380     1.1360 H     1 <1>   0.0800 
 26 H        2.2750     3.2220    -2.4820 H     1 <1>   0.0800 
 27 H        1.7880     1.5460    -2.7370 H     1 <1>   0.0800 
 28 H        3.3280     0.8510    -1.1420 H     1 <1>   0.0800 
 29 H        3.8690     2.5120    -1.0090 H     1 <1>   0.0800 
 30 H       -4.2930     0.5270    -0.2380 H     1 <1>   0.1500 
 31 H       -2.2850     4.5750     1.4760 H     1 <1>   0.1500 
 32 H       -6.1460     1.2970    -1.6070 H     1 <1>   0.1500 
 33 H       -6.6050     3.7040    -1.8270 H     1 <1>   0.1500 
 34 H       -6.0740     6.0120    -1.2940 H     1 <1>   0.1500 
 35 H       -2.7850     6.9430     1.2280 H     1 <1>   0.1500 
 36 H       -4.6700     7.6780    -0.1470 H     1 <1>   0.1500 
@<TRIPOS>BOND
  1   1   2  2   
  2   2   3  am  
  3   2   4  1   
  4   3   5  1   
  5   3  20  1   
  6   4   6  1   
  7   4   7  1   
  8   4  21  1   
  9   5   8  1   
 10   5  22  1   
 11   5  23  1   
 12   6   9  1   
 13   7  10  1   
 14   7  24  1   
 15   7  25  1   
 16   8  11  ar  
 17   8  12  ar  
 18   9  10  1   
 19   9  26  1   
 20   9  27  1   
 21  10  28  1   
 22  10  29  1   
 23  11  13  ar  
 24  11  14  ar  
 25  12  15  ar  
 26  12  30  1   
 27  13  16  ar  
 28  13  17  ar  
 29  14  18  ar  
 30  14  31  1   
 31  15  16  ar  
 32  15  32  1   
 33  16  33  1   
 34  17  19  ar  
 35  17  34  1   
 36  18  19  ar  
 37  18  35  1   
 38  19  36  1   
@<TRIPOS>SUBSTRUCTURE
  1 ****   3 GROUP 4 **** **** 0

# MOE 2024.06 (io_trps.svl 2023.06)
