@<TRIPOS>MOLECULE
NONAME
47 49 1 0 0 
SMALL
USER_CHARGES


@<TRIPOS>ATOM
  1 O       -3.1190    -7.2570     0.1930 O.3   1 <1>  -0.3630 
  2 C       -3.8640    -6.2030     0.6100 C.ar  1 <1>   0.0830 
  3 C       -1.7130    -7.2400     0.2820 C.3   1 <1>   0.1200 
  4 C       -3.3300    -5.0570     1.1940 C.ar  1 <1>  -0.1500 
  5 C       -5.2350    -6.3000     0.4320 C.ar  1 <1>  -0.1500 
  6 C       -1.1900    -8.5640    -0.2810 C.3   1 <1>   0.1100 
  7 C       -4.1660    -4.0260     1.5880 C.ar  1 <1>  -0.1500 
  8 C       -6.0700    -5.2690     0.8270 C.ar  1 <1>  -0.1500 
  9 N        0.2870    -8.6450    -0.2270 N.3   1 <1>  -0.8100 
 10 C       -5.5350    -4.1310     1.4050 C.ar  1 <1>  -0.1500 
 11 C        0.7370   -10.0500    -0.3780 C.3   1 <1>   0.1100 
 12 C        0.9330    -7.7870    -1.2560 C.3   1 <1>   0.1100 
 13 C        2.2760   -10.1930    -0.2670 C.3   1 <1>   0.3430 
 14 C        2.4720    -7.9570    -1.3020 C.3   1 <1>   0.3430 
 15 N        2.9450    -8.8550    -0.1970 N.4   1 <1>  -0.9590 
 16 C        4.4220    -8.9170    -0.0530 C.3   1 <1>   0.4860 
 17 C        4.9500    -7.5130     0.1640 C.ar  1 <1>  -0.1430 
 18 C        4.7350    -6.8600     1.3700 C.ar  1 <1>  -0.1500 
 19 C        5.6450    -6.8660    -0.8480 C.ar  1 <1>  -0.1500 
 20 C        5.2020    -5.5710     1.5570 C.ar  1 <1>  -0.1500 
 21 C        6.1110    -5.5760    -0.6590 C.ar  1 <1>  -0.1500 
 22 C        5.8870    -4.9280     0.5420 C.ar  1 <1>  -0.1500 
 23 H       -1.4410    -7.1410     1.3180 H     1 <1>   0.0800 
 24 H       -1.3560    -6.4050    -0.2920 H     1 <1>   0.0800 
 25 H       -2.2740    -4.9470     1.3510 H     1 <1>   0.1500 
 26 H       -5.6440    -7.1870    -0.0170 H     1 <1>   0.1500 
 27 H       -1.5320    -8.6860    -1.2950 H     1 <1>   0.0800 
 28 H       -1.6110    -9.3550     0.3180 H     1 <1>   0.0800 
 29 H       -3.7540    -3.1400     2.0400 H     1 <1>   0.1500 
 30 H       -7.1330    -5.3530     0.6840 H     1 <1>   0.1500 
 31 H       -6.1820    -3.3290     1.7130 H     1 <1>   0.1500 
 32 H        0.4140   -10.4340    -1.3320 H     1 <1>   0.0800 
 33 H        0.2800   -10.6580     0.3840 H     1 <1>   0.0800 
 34 H        0.7150    -6.7530    -1.0490 H     1 <1>   0.0800 
 35 H        0.5290    -8.0110    -2.2300 H     1 <1>   0.0800 
 36 H        2.6400   -10.7480    -1.1170 H     1 <1>   0.0800 
 37 H        2.5060   -10.7620     0.6190 H     1 <1>   0.0800 
 38 H        2.9300    -6.9840    -1.2130 H     1 <1>   0.0800 
 39 H        2.7570    -8.3660    -2.2570 H     1 <1>   0.0800 
 40 H        2.5520    -8.4100     0.6460 H     1 <1>   0.4500 
 41 H        4.8650    -9.3420    -0.9380 H     1 <1>   0.0800 
 42 H        4.6870    -9.5320     0.7920 H     1 <1>   0.0800 
 43 H        4.2100    -7.3420     2.1780 H     1 <1>   0.1500 
 44 H        5.8370    -7.3520    -1.7900 H     1 <1>   0.1500 
 45 H        5.0360    -5.0640     2.4930 H     1 <1>   0.1500 
 46 H        6.6520    -5.0740    -1.4440 H     1 <1>   0.1500 
 47 H        6.2520    -3.9250     0.6890 H     1 <1>   0.1500 
@<TRIPOS>BOND
  1   1   2  1   
  2   1   3  1   
  3   2   4  ar  
  4   2   5  ar  
  5   3   6  1   
  6   3  23  1   
  7   3  24  1   
  8   4   7  ar  
  9   4  25  1   
 10   5   8  ar  
 11   5  26  1   
 12   6   9  1   
 13   6  27  1   
 14   6  28  1   
 15   7  10  ar  
 16   7  29  1   
 17   8  10  ar  
 18   8  30  1   
 19   9  11  1   
 20   9  12  1   
 21  10  31  1   
 22  11  13  1   
 23  11  32  1   
 24  11  33  1   
 25  12  14  1   
 26  12  34  1   
 27  12  35  1   
 28  13  15  1   
 29  13  36  1   
 30  13  37  1   
 31  14  15  1   
 32  14  38  1   
 33  14  39  1   
 34  15  16  1   
 35  15  40  1   
 36  16  17  1   
 37  16  41  1   
 38  16  42  1   
 39  17  18  ar  
 40  17  19  ar  
 41  18  20  ar  
 42  18  43  1   
 43  19  21  ar  
 44  19  44  1   
 45  20  22  ar  
 46  20  45  1   
 47  21  22  ar  
 48  21  46  1   
 49  22  47  1   
@<TRIPOS>SUBSTRUCTURE
  1 ****  12 GROUP 4 **** **** 0

# MOE 2024.06 (io_trps.svl 2023.06)
