@<TRIPOS>MOLECULE
NONAME
42 43 1 0 0 
SMALL
USER_CHARGES


@<TRIPOS>ATOM
  1 O       -0.3690     2.0730     2.4460 O.2   1 <1>  -0.5700 
  2 C       -0.9840     2.5280     1.5080 C.2   1 <1>   0.6900 
  3 N       -0.4250     2.8620     0.3150 N.am  1 <1>  -0.4200 
  4 N       -2.3140     2.7210     1.5070 N.am  1 <1>  -0.7300 
  5 C       -1.4050     3.1960    -0.5690 C.2   1 <1>   0.5690 
  6 C        0.9970     2.6080    -0.0310 C.3   1 <1>   0.2010 
  7 C       -2.7710     3.1540     0.1600 C.3   1 <1>   0.5050 
  8 O       -1.2030     3.4840    -1.7280 O.2   1 <1>  -0.5700 
  9 C        1.3200     1.1280    -0.2020 C.2   1 <1>   0.6590 
 10 C       -3.6380     1.9810    -0.3880 C.ar  1 <1>  -0.1440 
 11 C       -3.3850     4.6160     0.2960 C.3   1 <1>   0.0000 
 12 O        0.4860     0.3040    -0.4860 O.2   1 <1>  -0.5700 
 13 O        2.5970     0.8010    -0.0320 O.3   1 <1>  -0.4300 
 14 C       -4.9740     2.0760    -0.7810 C.ar  1 <1>  -0.1500 
 15 C       -3.0450     0.7220    -0.4960 C.ar  1 <1>  -0.1500 
 16 C       -2.3420     5.6230     0.8500 C.3   1 <1>  -0.2400 
 17 C       -4.5660     4.6780     1.2990 C.3   1 <1>  -0.2400 
 18 C       -3.8280     5.2150    -1.0610 C.3   1 <1>  -0.2400 
 19 C        3.0400    -0.5360    -0.1450 C.3   1 <1>   0.0400 
 20 C       -5.6730     0.9790    -1.2540 C.ar  1 <1>  -0.1500 
 21 C       -3.7370    -0.3780    -0.9680 C.ar  1 <1>  -0.1500 
 22 C       -5.0570    -0.2520    -1.3490 C.ar  1 <1>  -0.1500 
 23 H       -2.9200     2.1220     2.0650 H     1 <1>   0.3700 
 24 H        1.6160     3.0030     0.7530 H     1 <1>   0.0800 
 25 H        1.2390     3.1190    -0.9440 H     1 <1>   0.0800 
 26 H       -5.5190     2.9940    -0.7390 H     1 <1>   0.1500 
 27 H       -2.0190     0.5650    -0.2120 H     1 <1>   0.1500 
 28 H       -1.9810     5.3230     1.8180 H     1 <1>   0.0800 
 29 H       -2.7810     6.6000     0.9600 H     1 <1>   0.0800 
 30 H       -1.4980     5.7260     0.1910 H     1 <1>   0.0800 
 31 H       -4.9800     5.6710     1.3320 H     1 <1>   0.0800 
 32 H       -5.3610     4.0040     1.0610 H     1 <1>   0.0800 
 33 H       -4.2290     4.4370     2.2920 H     1 <1>   0.0800 
 34 H       -2.9820     5.3550    -1.7110 H     1 <1>   0.0800 
 35 H       -4.2840     6.1790    -0.9180 H     1 <1>   0.0800 
 36 H       -4.5280     4.6020    -1.5890 H     1 <1>   0.0800 
 37 H        4.1000    -0.5620     0.0330 H     1 <1>   0.0800 
 38 H        2.8210    -0.8930    -1.1370 H     1 <1>   0.0800 
 39 H        2.5260    -1.1360     0.5870 H     1 <1>   0.0800 
 40 H       -6.7020     1.0850    -1.5500 H     1 <1>   0.1500 
 41 H       -3.2420    -1.3310    -1.0390 H     1 <1>   0.1500 
 42 H       -5.5990    -1.1060    -1.7170 H     1 <1>   0.1500 
@<TRIPOS>BOND
  1   1   2  2   
  2   2   3  am  
  3   2   4  am  
  4   3   5  am  
  5   3   6  1   
  6   4   7  1   
  7   4  23  1   
  8   5   7  1   
  9   5   8  2   
 10   6   9  1   
 11   6  24  1   
 12   6  25  1   
 13   7  10  1   
 14   7  11  1   
 15   9  12  2   
 16   9  13  1   
 17  10  14  ar  
 18  10  15  ar  
 19  11  16  1   
 20  11  17  1   
 21  11  18  1   
 22  13  19  1   
 23  14  20  ar  
 24  14  26  1   
 25  15  21  ar  
 26  15  27  1   
 27  16  28  1   
 28  16  29  1   
 29  16  30  1   
 30  17  31  1   
 31  17  32  1   
 32  17  33  1   
 33  18  34  1   
 34  18  35  1   
 35  18  36  1   
 36  19  37  1   
 37  19  38  1   
 38  19  39  1   
 39  20  22  ar  
 40  20  40  1   
 41  21  22  ar  
 42  21  41  1   
 43  22  42  1   
@<TRIPOS>SUBSTRUCTURE
  1 ****   5 GROUP 4 **** **** 0

# MOE 2024.06 (io_trps.svl 2023.06)
