@<TRIPOS>MOLECULE
NONAME
41 44 1 0 0 
SMALL
USER_CHARGES


@<TRIPOS>ATOM
  1 O       -0.7820    -0.3350     0.4400 O.2   1 <1>  -0.5760 
  2 C       -1.3210    -1.4110     0.3250 C.2   1 <1>   0.6850 
  3 N       -2.7020    -1.5430     0.2510 N.am  1 <1>  -0.4430 
  4 N       -0.5350    -2.5270     0.2680 N.am  1 <1>  -0.4960 
  5 C       -3.2200    -2.8240     0.1300 C.2   1 <1>   0.4190 
  6 C       -3.5980    -0.3520     0.3110 C.3   1 <1>   0.0500 
  7 C       -1.0240    -3.7960     0.1470 C.2   1 <1>   0.6980 
  8 N       -4.5360    -3.1940     0.0530 N.pl3 1 <1>  -0.7050 
  9 C       -2.4470    -3.9390     0.0760 C.2   1 <1>   0.2690 
 10 O       -0.2510    -4.7320     0.1090 O.2   1 <1>  -0.5760 
 11 C       -4.5540    -4.5180    -0.0450 C.cat 1 <1>   1.0680 
 12 N       -3.3400    -5.0080    -0.0390 N.pl3 1 <1>  -0.7680 
 13 N       -5.5080    -5.4430    -0.1330 N.pl3 1 <1>  -0.5810 
 14 C       -3.3390    -6.4800    -0.1240 C.3   1 <1>   0.3460 
 15 C       -6.8880    -5.2410    -0.1960 C.ar  1 <1>   0.3030 
 16 C       -4.8580    -6.7890    -0.1790 C.3   1 <1>   0.1590 
 17 C       -7.7220    -5.7740     0.7760 C.ar  1 <1>  -0.1590 
 18 C       -7.4410    -4.4860    -1.2220 C.ar  1 <1>  -0.1590 
 19 C       -9.0850    -5.5440     0.7310 C.ar  1 <1>  -0.1590 
 20 C       -8.8040    -4.2570    -1.2670 C.ar  1 <1>  -0.1590 
 21 C       -9.6320    -4.7830    -0.2890 C.ar  1 <1>  -0.1530 
 22 C      -11.1310    -4.5290    -0.3350 C.3   1 <1>  -0.0270 
 23 C      -11.4820    -3.2430     0.4150 C.3   1 <1>  -0.2480 
 24 H        0.4730    -2.3940     0.3240 H     1 <1>   0.3630 
 25 H       -3.0260     0.5600     0.2880 H     1 <1>   0.0700 
 26 H       -4.1690    -0.3720     1.2220 H     1 <1>   0.0700 
 27 H       -4.2660    -0.3510    -0.5320 H     1 <1>   0.0700 
 28 H       -5.3650    -2.6030     0.0920 H     1 <1>   0.4430 
 29 H       -2.8780    -6.9170     0.7450 H     1 <1>   0.0700 
 30 H       -2.8360    -6.8150    -1.0160 H     1 <1>   0.0700 
 31 H       -5.1140    -7.3010    -1.0910 H     1 <1>   0.0700 
 32 H       -5.1580    -7.3860     0.6660 H     1 <1>   0.0700 
 33 H       -7.3150    -6.3650     1.5760 H     1 <1>   0.1410 
 34 H       -6.8170    -4.0800    -1.9970 H     1 <1>   0.1410 
 35 H       -9.7250    -5.9570     1.4940 H     1 <1>   0.1410 
 36 H       -9.2280    -3.6700    -2.0650 H     1 <1>   0.1410 
 37 H      -11.6550    -5.3580     0.1070 H     1 <1>   0.0700 
 38 H      -11.4550    -4.4480    -1.3580 H     1 <1>   0.0700 
 39 H      -11.1800    -3.3200     1.4450 H     1 <1>   0.0700 
 40 H      -12.5440    -3.0740     0.3790 H     1 <1>   0.0700 
 41 H      -10.9830    -2.4020    -0.0310 H     1 <1>   0.0700 
@<TRIPOS>BOND
  1   1   2  2   
  2   2   3  am  
  3   2   4  am  
  4   3   5  1   
  5   3   6  1   
  6   4   7  am  
  7   4  24  1   
  8   5   8  1   
  9   5   9  2   
 10   6  25  1   
 11   6  26  1   
 12   6  27  1   
 13   7   9  1   
 14   7  10  2   
 15   8  11  ar  
 16   8  28  1   
 17   9  12  1   
 18  11  12  ar  
 19  11  13  ar  
 20  12  14  1   
 21  13  15  1   
 22  13  16  1   
 23  14  16  1   
 24  14  29  1   
 25  14  30  1   
 26  15  17  ar  
 27  15  18  ar  
 28  16  31  1   
 29  16  32  1   
 30  17  19  ar  
 31  17  33  1   
 32  18  20  ar  
 33  18  34  1   
 34  19  21  ar  
 35  19  35  1   
 36  20  21  ar  
 37  20  36  1   
 38  21  22  1   
 39  22  23  1   
 40  22  37  1   
 41  22  38  1   
 42  23  39  1   
 43  23  40  1   
 44  23  41  1   
@<TRIPOS>SUBSTRUCTURE
  1 ****  11 GROUP 4 **** **** 0

# MOE 2024.06 (io_trps.svl 2023.06)
