@<TRIPOS>MOLECULE
NONAME
47 48 1 0 0 
SMALL
USER_CHARGES


@<TRIPOS>ATOM
  1 O       -2.2480     1.3570    -1.7800 O.2   1 <1>  -0.5700 
  2 C       -1.7480     1.7330    -0.7470 C.2   1 <1>   0.6590 
  3 O       -1.3830     0.8790     0.2090 O.3   1 <1>  -0.4300 
  4 C       -1.4970     3.2350    -0.4900 C.3   1 <1>   0.2510 
  5 C       -1.4940    -0.5190     0.0680 C.3   1 <1>   0.1200 
  6 N       -0.0640     3.6200    -0.2820 N.3   1 <1>  -0.8100 
  7 C       -2.3350     3.7030     0.7150 C.3   1 <1>  -0.1600 
  8 C       -0.2780    -1.0400    -0.6970 C.3   1 <1>  -0.2400 
  9 C        0.0950     5.0740    -0.1110 C.3   1 <1>   0.1100 
 10 C        0.8010     3.0960    -1.3670 C.3   1 <1>   0.2530 
 11 C       -2.1920     5.2080     0.9640 C.3   1 <1>  -0.1600 
 12 C       -0.7090     5.5650     1.0950 C.3   1 <1>  -0.1600 
 13 C        2.2840     3.2970    -1.0760 C.ar  1 <1>  -0.1430 
 14 C        2.9870     2.4040    -0.2720 C.ar  1 <1>   0.0820 
 15 C        2.9630     4.3730    -1.6310 C.ar  1 <1>  -0.1500 
 16 O        2.3730     1.3280     0.2640 O.3   1 <1>  -0.3630 
 17 C        4.3390     2.5810    -0.0270 C.ar  1 <1>  -0.1500 
 18 C        4.3120     4.5560    -1.3820 C.ar  1 <1>  -0.1500 
 19 C        1.8380     1.5100     1.5560 C.3   1 <1>   0.0400 
 20 C        5.0080     3.6660    -0.5800 C.ar  1 <1>   0.0820 
 21 O        6.3280     3.9180    -0.3890 O.3   1 <1>  -0.3630 
 22 C        7.1290     3.0530     0.3840 C.3   1 <1>   0.0400 
 23 H       -1.8550     3.7540    -1.3610 H     1 <1>   0.0800 
 24 H       -2.4120    -0.7520    -0.4460 H     1 <1>   0.0800 
 25 H       -1.5260    -0.9440     1.0560 H     1 <1>   0.0800 
 26 H       -2.0170     3.1610     1.5890 H     1 <1>   0.0800 
 27 H       -3.3710     3.4680     0.5420 H     1 <1>   0.0800 
 28 H       -0.2530    -0.6250    -1.6890 H     1 <1>   0.0800 
 29 H       -0.3330    -2.1100    -0.7790 H     1 <1>   0.0800 
 30 H        0.6280    -0.7830    -0.1790 H     1 <1>   0.0800 
 31 H       -0.2270     5.5860    -1.0020 H     1 <1>   0.0800 
 32 H        1.1300     5.3110     0.0640 H     1 <1>   0.0800 
 33 H        0.5430     3.5720    -2.2980 H     1 <1>   0.0800 
 34 H        0.6400     2.0390    -1.4890 H     1 <1>   0.0800 
 35 H       -2.7170     5.4840     1.8620 H     1 <1>   0.0800 
 36 H       -2.6220     5.7530     0.1410 H     1 <1>   0.0800 
 37 H       -0.6000     6.6310     1.1860 H     1 <1>   0.0800 
 38 H       -0.3020     5.1160     1.9850 H     1 <1>   0.0800 
 39 H        2.4430     5.0730    -2.2600 H     1 <1>   0.1500 
 40 H        4.8380     1.8620     0.5900 H     1 <1>   0.1500 
 41 H        4.8360     5.3920    -1.8100 H     1 <1>   0.1500 
 42 H        1.1720     2.3540     1.5480 H     1 <1>   0.0800 
 43 H        2.6440     1.6790     2.2460 H     1 <1>   0.0800 
 44 H        1.2960     0.6220     1.8240 H     1 <1>   0.0800 
 45 H        8.1310     3.4410     0.3880 H     1 <1>   0.0800 
 46 H        7.1170     2.0750    -0.0630 H     1 <1>   0.0800 
 47 H        6.7430     3.0230     1.3870 H     1 <1>   0.0800 
@<TRIPOS>BOND
  1   1   2  2   
  2   2   3  1   
  3   2   4  1   
  4   3   5  1   
  5   4   6  1   
  6   4   7  1   
  7   4  23  1   
  8   5   8  1   
  9   5  24  1   
 10   5  25  1   
 11   6   9  1   
 12   6  10  1   
 13   7  11  1   
 14   7  26  1   
 15   7  27  1   
 16   8  28  1   
 17   8  29  1   
 18   8  30  1   
 19   9  12  1   
 20   9  31  1   
 21   9  32  1   
 22  10  13  1   
 23  10  33  1   
 24  10  34  1   
 25  11  12  1   
 26  11  35  1   
 27  11  36  1   
 28  12  37  1   
 29  12  38  1   
 30  13  14  ar  
 31  13  15  ar  
 32  14  16  1   
 33  14  17  ar  
 34  15  18  ar  
 35  15  39  1   
 36  16  19  1   
 37  17  20  ar  
 38  17  40  1   
 39  18  20  ar  
 40  18  41  1   
 41  19  42  1   
 42  19  43  1   
 43  19  44  1   
 44  20  21  1   
 45  21  22  1   
 46  22  45  1   
 47  22  46  1   
 48  22  47  1   
@<TRIPOS>SUBSTRUCTURE
  1 ****  10 GROUP 4 **** **** 0

# MOE 2024.06 (io_trps.svl 2023.06)
