@<TRIPOS>MOLECULE
NONAME
37 37 1 0 0 
SMALL
USER_CHARGES


@<TRIPOS>ATOM
  1 F        0.1630     0.4770     1.6050 F     1 <1>  -0.1900 
  2 C       -0.6870     1.0230     0.7710 C.ar  1 <1>   0.1900 
  3 C       -0.2580     1.7980    -0.3150 C.ar  1 <1>   0.0830 
  4 C       -2.0270     0.7900     1.0220 C.ar  1 <1>  -0.1500 
  5 O        1.0290     2.0920    -0.6590 O.3   1 <1>  -0.3630 
  6 C       -1.2330     2.3340    -1.1440 C.ar  1 <1>  -0.1500 
  7 C       -2.9780     1.3380     0.1790 C.ar  1 <1>  -0.1500 
  8 C        2.1360     1.6300     0.0720 C.3   1 <1>   0.1200 
  9 C       -2.5790     2.1080    -0.9020 C.ar  1 <1>  -0.1500 
 10 C        3.3920     2.1620    -0.6150 C.3   1 <1>  -0.1600 
 11 C        4.6410     1.6990     0.1250 C.3   1 <1>   0.3430 
 12 N        5.8370     2.2370    -0.5730 N.4   1 <1>  -0.9060 
 13 C        7.1450     1.8970    -0.0060 C.3   1 <1>   0.5030 
 14 C        8.1840     2.5650    -0.9000 C.3   1 <1>  -0.2400 
 15 C        7.2510     2.4480     1.4150 C.3   1 <1>  -0.2400 
 16 C        7.3390     0.3820    -0.0250 C.3   1 <1>  -0.2400 
 17 H       -2.3190     0.1900     1.8650 H     1 <1>   0.1500 
 18 H       -0.9330     2.9330    -1.9850 H     1 <1>   0.1500 
 19 H       -4.0260     1.1660     0.3610 H     1 <1>   0.1500 
 20 H        2.1170     0.5530     0.0670 H     1 <1>   0.0800 
 21 H        2.0550     2.0040     1.0790 H     1 <1>   0.0800 
 22 H       -3.3190     2.5340    -1.5580 H     1 <1>   0.1500 
 23 H        3.3470     3.2370    -0.6210 H     1 <1>   0.0800 
 24 H        3.4080     1.7950    -1.6260 H     1 <1>   0.0800 
 25 H        4.6720     0.6210     0.1410 H     1 <1>   0.0800 
 26 H        4.6110     2.0570     1.1420 H     1 <1>   0.0800 
 27 H        5.7740     3.2590    -0.6070 H     1 <1>   0.4500 
 28 H        5.8310     1.9130    -1.5450 H     1 <1>   0.4500 
 29 H        8.0650     3.6340    -0.9060 H     1 <1>   0.0800 
 30 H        8.1260     2.1950    -1.9090 H     1 <1>   0.0800 
 31 H        9.1740     2.3510    -0.5330 H     1 <1>   0.0800 
 32 H        6.5710     1.9540     2.0850 H     1 <1>   0.0800 
 33 H        7.0660     3.5080     1.4360 H     1 <1>   0.0800 
 34 H        8.2440     2.2830     1.7940 H     1 <1>   0.0800 
 35 H        6.6590    -0.1150     0.6430 H     1 <1>   0.0800 
 36 H        8.3360     0.1410     0.3010 H     1 <1>   0.0800 
 37 H        7.2160    -0.0130    -1.0180 H     1 <1>   0.0800 
@<TRIPOS>BOND
  1   1   2  1   
  2   2   3  ar  
  3   2   4  ar  
  4   3   5  1   
  5   3   6  ar  
  6   4   7  ar  
  7   4  17  1   
  8   5   8  1   
  9   6   9  ar  
 10   6  18  1   
 11   7   9  ar  
 12   7  19  1   
 13   8  10  1   
 14   8  20  1   
 15   8  21  1   
 16   9  22  1   
 17  10  11  1   
 18  10  23  1   
 19  10  24  1   
 20  11  12  1   
 21  11  25  1   
 22  11  26  1   
 23  12  13  1   
 24  12  27  1   
 25  12  28  1   
 26  13  14  1   
 27  13  15  1   
 28  13  16  1   
 29  14  29  1   
 30  14  30  1   
 31  14  31  1   
 32  15  32  1   
 33  15  33  1   
 34  15  34  1   
 35  16  35  1   
 36  16  36  1   
 37  16  37  1   
@<TRIPOS>SUBSTRUCTURE
  1 ****   8 GROUP 4 **** **** 0

# MOE 2024.06 (io_trps.svl 2023.06)
