@<TRIPOS>MOLECULE
NONAME
46 48 1 0 0 
SMALL
USER_CHARGES


@<TRIPOS>ATOM
  1 CL       1.0090     0.2560    -3.8370 Cl    1 <1>  -0.1770 
  2 C        1.9170    -0.7690    -2.7560 C.ar  1 <1>   0.1770 
  3 C        1.3100    -1.8780    -2.2060 C.ar  1 <1>  -0.1500 
  4 C        3.2310    -0.4520    -2.4720 C.ar  1 <1>  -0.1500 
  5 C        2.0130    -2.7230    -1.3480 C.ar  1 <1>   0.0860 
  6 C        3.9450    -1.2630    -1.6100 C.ar  1 <1>  -0.1500 
  7 C        3.3430    -2.3870    -1.0470 C.ar  1 <1>   0.0830 
  8 C        1.3570    -3.9020    -0.8160 C.2   1 <1>   0.5440 
  9 O        4.0120    -3.1710    -0.1770 O.3   1 <1>  -0.3630 
 10 O        0.2380    -3.8410    -0.3340 O.2   1 <1>  -0.5700 
 11 N        1.9180    -5.1540    -0.8760 N.am  1 <1>  -0.6600 
 12 C        5.4110    -3.3410    -0.2230 C.3   1 <1>   0.2630 
 13 C        1.2410    -6.1840    -1.7260 C.3   1 <1>   0.1400 
 14 C        2.4730    -5.7270     0.3960 C.3   1 <1>   0.1400 
 15 C        5.7180    -4.6550     0.4760 C.ar  1 <1>  -0.1430 
 16 C        0.1670    -6.9780    -0.9390 C.3   1 <1>   0.3430 
 17 C        1.4430    -6.6020     1.1470 C.3   1 <1>   0.3430 
 18 C        5.6230    -4.7480     1.8560 C.ar  1 <1>  -0.1500 
 19 C        6.0770    -5.7760    -0.2580 C.ar  1 <1>  -0.1500 
 20 N        0.0910    -6.5400     0.4950 N.4   1 <1>  -0.9590 
 21 C        5.8810    -5.9470     2.4970 C.ar  1 <1>  -0.1500 
 22 C        6.3360    -6.9760     0.3820 C.ar  1 <1>  -0.1500 
 23 C       -0.9860    -7.2090     1.2750 C.3   1 <1>   0.2630 
 24 C        6.2370    -7.0620     1.7590 C.ar  1 <1>  -0.1500 
 25 H        0.2830    -2.0900    -2.4460 H     1 <1>   0.1500 
 26 H        3.6780     0.4200    -2.9160 H     1 <1>   0.1500 
 27 H        4.9610    -1.0020    -1.3750 H     1 <1>   0.1500 
 28 H        5.8750    -2.5130     0.2840 H     1 <1>   0.0800 
 29 H        5.7250    -3.3700    -1.2520 H     1 <1>   0.0800 
 30 H        1.9800    -6.8630    -2.1140 H     1 <1>   0.0800 
 31 H        0.7750    -5.7020    -2.5690 H     1 <1>   0.0800 
 32 H        2.7750    -4.9280     1.0500 H     1 <1>   0.0800 
 33 H        3.3520    -6.3070     0.1770 H     1 <1>   0.0800 
 34 H        0.3950    -8.0290    -0.9920 H     1 <1>   0.0800 
 35 H       -0.7890    -6.8260    -1.4130 H     1 <1>   0.0800 
 36 H        1.3760    -6.2560     2.1660 H     1 <1>   0.0800 
 37 H        1.7940    -7.6200     1.1690 H     1 <1>   0.0800 
 38 H        5.3470    -3.8830     2.4370 H     1 <1>   0.1500 
 39 H        6.1580    -5.7210    -1.3300 H     1 <1>   0.1500 
 40 H       -0.1070    -5.5130     0.4230 H     1 <1>   0.4500 
 41 H        5.8120    -6.0110     3.5690 H     1 <1>   0.1500 
 42 H        6.6210    -7.8410    -0.1920 H     1 <1>   0.1500 
 43 H       -0.7940    -8.2670     1.3500 H     1 <1>   0.0800 
 44 H       -1.9390    -7.0620     0.7930 H     1 <1>   0.0800 
 45 H       -1.0390    -6.7930     2.2680 H     1 <1>   0.0800 
 46 H        6.4460    -7.9940     2.2570 H     1 <1>   0.1500 
@<TRIPOS>BOND
  1   1   2  1   
  2   2   3  ar  
  3   2   4  ar  
  4   3   5  ar  
  5   3  25  1   
  6   4   6  ar  
  7   4  26  1   
  8   5   7  ar  
  9   5   8  1   
 10   6   7  ar  
 11   6  27  1   
 12   7   9  1   
 13   8  10  2   
 14   8  11  am  
 15   9  12  1   
 16  11  13  1   
 17  11  14  1   
 18  12  15  1   
 19  12  28  1   
 20  12  29  1   
 21  13  16  1   
 22  13  30  1   
 23  13  31  1   
 24  14  17  1   
 25  14  32  1   
 26  14  33  1   
 27  15  18  ar  
 28  15  19  ar  
 29  16  20  1   
 30  16  34  1   
 31  16  35  1   
 32  17  20  1   
 33  17  36  1   
 34  17  37  1   
 35  18  21  ar  
 36  18  38  1   
 37  19  22  ar  
 38  19  39  1   
 39  20  23  1   
 40  20  40  1   
 41  21  24  ar  
 42  21  41  1   
 43  22  24  ar  
 44  22  42  1   
 45  23  43  1   
 46  23  44  1   
 47  23  45  1   
 48  24  46  1   
@<TRIPOS>SUBSTRUCTURE
  1 ****  11 GROUP 4 **** **** 0

# MOE 2024.06 (io_trps.svl 2023.06)
