@<TRIPOS>MOLECULE
NONAME
38 39 1 0 0 
SMALL
USER_CHARGES


@<TRIPOS>ATOM
  1 S       -0.5040     0.3110    -0.8390 S.3   1 <1>  -0.3320 
  2 C       -0.6770     2.0640    -0.4560 C.ar  1 <1>   0.1020 
  3 C       -0.2950    -0.4480     0.8280 C.3   1 <1>  -0.0100 
  4 C       -1.9060     2.7160    -0.5810 C.ar  1 <1>   0.1170 
  5 C        0.4600     2.7410    -0.0530 C.ar  1 <1>  -0.1500 
  6 N       -3.0960     2.0810    -0.9520 N.am  1 <1>  -0.5470 
  7 C       -1.9510     4.0790    -0.3170 C.ar  1 <1>  -0.1500 
  8 C        0.3900     4.0970     0.2190 C.ar  1 <1>  -0.1500 
  9 C       -3.8410     1.2070    -0.2190 C.2   1 <1>   0.5690 
 10 C       -0.8160     4.7650     0.0820 C.ar  1 <1>  -0.1500 
 11 O       -3.4330     0.7140     0.8100 O.2   1 <1>  -0.5700 
 12 C       -5.2480     0.8730    -0.7520 C.3   1 <1>  -0.0190 
 13 C       -6.2560     2.0330    -0.5190 C.3   1 <1>  -0.1860 
 14 C       -5.8270    -0.4690    -0.2230 C.3   1 <1>  -0.1600 
 15 C       -5.8450     3.3350    -1.2090 C.2   1 <1>   0.9060 
 16 C       -6.5400     2.2130     0.9940 C.3   1 <1>  -0.1600 
 17 C       -6.8980    -0.3100     0.8740 C.3   1 <1>  -0.1600 
 18 O       -6.1660     4.4220    -0.7240 O.co2 1 <1>  -0.9000 
 19 O       -5.1730     3.2680    -2.2470 O.co2 1 <1>  -0.9000 
 20 C       -6.5990     0.8890     1.7810 C.3   1 <1>  -0.1600 
 21 H       -0.3010    -1.5160     0.7050 H     1 <1>   0.0800 
 22 H       -1.1220    -0.1280     1.4370 H     1 <1>   0.0800 
 23 H        0.6380    -0.1050     1.2340 H     1 <1>   0.0800 
 24 H        1.3900     2.2110     0.0380 H     1 <1>   0.1500 
 25 H       -3.6660     2.5910    -1.6570 H     1 <1>   0.3700 
 26 H       -2.8930     4.5950    -0.4220 H     1 <1>   0.1500 
 27 H        1.2700     4.6320     0.5310 H     1 <1>   0.1500 
 28 H       -0.8790     5.8190     0.2850 H     1 <1>   0.1500 
 29 H       -5.1320     0.7520    -1.8150 H     1 <1>   0.0800 
 30 H       -7.1770     1.7540    -0.9930 H     1 <1>   0.0800 
 31 H       -5.0270    -1.0860     0.1470 H     1 <1>   0.0800 
 32 H       -6.2710    -1.0010    -1.0450 H     1 <1>   0.0800 
 33 H       -7.4710     2.7430     1.0990 H     1 <1>   0.0800 
 34 H       -5.7740     2.8350     1.4270 H     1 <1>   0.0800 
 35 H       -6.9490    -1.2100     1.4610 H     1 <1>   0.0800 
 36 H       -7.8600    -0.1610     0.4150 H     1 <1>   0.0800 
 37 H       -7.3430     0.9640     2.5540 H     1 <1>   0.0800 
 38 H       -5.6490     0.7260     2.2600 H     1 <1>   0.0800 
@<TRIPOS>BOND
  1   1   2  1   
  2   1   3  1   
  3   2   4  ar  
  4   2   5  ar  
  5   3  21  1   
  6   3  22  1   
  7   3  23  1   
  8   4   6  1   
  9   4   7  ar  
 10   5   8  ar  
 11   5  24  1   
 12   6   9  am  
 13   6  25  1   
 14   7  10  ar  
 15   7  26  1   
 16   8  10  ar  
 17   8  27  1   
 18   9  11  2   
 19   9  12  1   
 20  10  28  1   
 21  12  13  1   
 22  12  14  1   
 23  12  29  1   
 24  13  15  1   
 25  13  16  1   
 26  13  30  1   
 27  14  17  1   
 28  14  31  1   
 29  14  32  1   
 30  15  18  ar  
 31  15  19  ar  
 32  16  20  1   
 33  16  33  1   
 34  16  34  1   
 35  17  20  1   
 36  17  35  1   
 37  17  36  1   
 38  20  37  1   
 39  20  38  1   
@<TRIPOS>SUBSTRUCTURE
  1 ****   6 GROUP 4 **** **** 0

# MOE 2024.06 (io_trps.svl 2023.06)
