@<TRIPOS>MOLECULE
NONAME
35 36 1 0 0 
SMALL
USER_CHARGES


@<TRIPOS>ATOM
  1 BR       0.6840    -0.4690     0.9540 Br    1 <1>  -0.1110 
  2 C       -1.0670    -1.2690     0.8370 C.ar  1 <1>   0.1110 
  3 C       -1.3940    -2.0640    -0.2520 C.ar  1 <1>   0.0830 
  4 C       -1.9590    -1.0210     1.8610 C.ar  1 <1>  -0.1500 
  5 O       -0.4580    -2.2620    -1.2170 O.3   1 <1>  -0.3630 
  6 C       -2.6710    -2.6180    -0.2960 C.ar  1 <1>  -0.1500 
  7 C       -3.2220    -1.5830     1.7930 C.ar  1 <1>  -0.1500 
  8 C       -0.6720    -3.1520    -2.2900 C.3   1 <1>   0.0400 
  9 C       -3.5980    -2.3850     0.7170 C.ar  1 <1>  -0.0090 
 10 S       -5.2710    -3.0750     0.6130 S.o2  1 <1>   1.2950 
 11 O       -5.8030    -3.1920     1.9550 O.2   1 <1>  -0.6500 
 12 O       -5.2240    -4.2560    -0.2260 O.2   1 <1>  -0.6500 
 13 N       -6.1490    -1.8020    -0.2470 N.pl3 1 <1>   0.3170 
 14 C       -7.4620    -1.7960    -0.6170 C.2   1 <1>   0.0060 
 15 C       -5.6820    -0.6080    -0.7020 C.2   1 <1>  -0.3020 
 16 N       -7.8240    -0.7190    -1.2420 N.2   1 <1>  -0.5650 
 17 C       -8.4190    -2.9520    -0.3050 C.3   1 <1>   0.1000 
 18 C       -6.7100     0.0270    -1.2980 C.2   1 <1>   0.0770 
 19 C       -9.4420    -3.1560    -1.4300 C.3   1 <1>  -0.2400 
 20 C       -9.1450    -2.6870     1.0180 C.3   1 <1>  -0.2400 
 21 H       -1.6680    -0.4030     2.6920 H     1 <1>   0.1500 
 22 H       -2.9630    -3.2420    -1.1220 H     1 <1>   0.1500 
 23 H       -3.9230    -1.3980     2.5920 H     1 <1>   0.1500 
 24 H        0.2240    -3.1770    -2.8850 H     1 <1>   0.0800 
 25 H       -1.4940    -2.7950    -2.8850 H     1 <1>   0.0800 
 26 H       -0.8760    -4.1330    -1.8980 H     1 <1>   0.0800 
 27 H       -4.6670    -0.2760    -0.5830 H     1 <1>   0.1500 
 28 H       -7.8670    -3.8710    -0.2130 H     1 <1>   0.0800 
 29 H       -6.7120     0.9950    -1.7730 H     1 <1>   0.1500 
 30 H      -10.0630    -2.2830    -1.5370 H     1 <1>   0.0800 
 31 H      -10.0690    -4.0030    -1.2200 H     1 <1>   0.0800 
 32 H       -8.9330    -3.3260    -2.3620 H     1 <1>   0.0800 
 33 H       -9.7160    -1.7780     0.9510 H     1 <1>   0.0800 
 34 H       -8.4390    -2.5890     1.8230 H     1 <1>   0.0800 
 35 H       -9.8120    -3.4990     1.2490 H     1 <1>   0.0800 
@<TRIPOS>BOND
  1   1   2  1   
  2   2   3  ar  
  3   2   4  ar  
  4   3   5  1   
  5   3   6  ar  
  6   4   7  ar  
  7   4  21  1   
  8   5   8  1   
  9   6   9  ar  
 10   6  22  1   
 11   7   9  ar  
 12   7  23  1   
 13   8  24  1   
 14   8  25  1   
 15   8  26  1   
 16   9  10  1   
 17  10  11  2   
 18  10  12  2   
 19  10  13  1   
 20  13  14  1   
 21  13  15  1   
 22  14  16  2   
 23  14  17  1   
 24  15  18  2   
 25  15  27  1   
 26  16  18  1   
 27  17  19  1   
 28  17  20  1   
 29  17  28  1   
 30  18  29  1   
 31  19  30  1   
 32  19  31  1   
 33  19  32  1   
 34  20  33  1   
 35  20  34  1   
 36  20  35  1   
@<TRIPOS>SUBSTRUCTURE
  1 ****   9 GROUP 4 **** **** 0

# MOE 2024.06 (io_trps.svl 2023.06)
