@<TRIPOS>MOLECULE
NONAME
38 40 1 0 0 
SMALL
USER_CHARGES


@<TRIPOS>ATOM
  1 CL      -1.0370     1.2310     2.2310 Cl    1 <1>  -0.1240 
  2 C       -1.8170     0.1520     1.1080 C.2   1 <1>   0.1640 
  3 S       -3.4230    -0.3970     1.5330 S.3   1 <1>  -0.0800 
  4 C       -1.4070    -0.3560    -0.0650 C.2   1 <1>  -0.1500 
  5 C       -3.5310    -1.3480     0.0460 C.2   1 <1>  -0.0220 
  6 C       -2.3860    -1.2130    -0.6630 C.2   1 <1>  -0.1500 
  7 S       -5.0390    -2.3050    -0.2460 S.o2  1 <1>   1.5000 
  8 O       -5.2280    -2.4820    -1.6700 O.2   1 <1>  -0.6500 
  9 O       -5.0430    -3.4690     0.6120 O.2   1 <1>  -0.6500 
 10 N       -6.2880    -1.2880     0.2830 N.am  1 <1>  -0.8490 
 11 C       -6.5180    -0.1530    -0.6340 C.3   1 <1>   0.1960 
 12 C       -7.5370    -2.0400     0.4980 C.3   1 <1>   0.1960 
 13 C       -7.6060     0.7990    -0.1060 C.3   1 <1>   0.1400 
 14 C       -8.6540    -1.1400     1.0540 C.3   1 <1>   0.1400 
 15 N       -8.8650     0.0480     0.1740 N.am  1 <1>  -0.6600 
 16 C      -10.0910     0.4890    -0.2680 C.2   1 <1>   0.7150 
 17 O      -10.1960     1.6460    -0.6300 O.2   1 <1>  -0.5700 
 18 C      -11.2340    -0.3770    -0.3080 C.2   1 <1>  -0.2370 
 19 N      -12.4850     0.0020     0.0580 N.pl3 1 <1>   0.3140 
 20 C      -11.3560    -1.6760    -0.7020 C.2   1 <1>  -0.1500 
 21 N      -13.3730    -0.9960    -0.0610 N.2   1 <1>  -0.7070 
 22 C      -12.9120     1.3260     0.5430 C.3   1 <1>   0.0160 
 23 C      -12.6880    -1.9960    -0.5240 C.2   1 <1>   0.1390 
 24 H       -0.4560    -0.1640    -0.5310 H     1 <1>   0.1500 
 25 H       -2.1900    -1.6970    -1.6050 H     1 <1>   0.1500 
 26 H       -6.8190    -0.5150    -1.6040 H     1 <1>   0.0800 
 27 H       -5.6050     0.4040    -0.7570 H     1 <1>   0.0800 
 28 H       -7.3640    -2.8350     1.2030 H     1 <1>   0.0800 
 29 H       -7.8630    -2.4840    -0.4280 H     1 <1>   0.0800 
 30 H       -7.7820     1.5710    -0.8350 H     1 <1>   0.0800 
 31 H       -7.2630     1.2680     0.8000 H     1 <1>   0.0800 
 32 H       -8.3660    -0.7990     2.0340 H     1 <1>   0.0800 
 33 H       -9.5580    -1.7100     1.1650 H     1 <1>   0.0800 
 34 H      -10.5930    -2.3310    -1.0820 H     1 <1>   0.1500 
 35 H      -12.2770     1.6310     1.3530 H     1 <1>   0.0800 
 36 H      -13.9290     1.2680     0.8820 H     1 <1>   0.0800 
 37 H      -12.8400     2.0330    -0.2620 H     1 <1>   0.0800 
 38 H      -13.1250    -2.9570    -0.7410 H     1 <1>   0.1500 
@<TRIPOS>BOND
  1   1   2  1   
  2   2   3  1   
  3   2   4  2   
  4   3   5  1   
  5   4   6  1   
  6   4  24  1   
  7   5   6  2   
  8   5   7  1   
  9   6  25  1   
 10   7   8  2   
 11   7   9  2   
 12   7  10  am  
 13  10  11  1   
 14  10  12  1   
 15  11  13  1   
 16  11  26  1   
 17  11  27  1   
 18  12  14  1   
 19  12  28  1   
 20  12  29  1   
 21  13  15  1   
 22  13  30  1   
 23  13  31  1   
 24  14  15  1   
 25  14  32  1   
 26  14  33  1   
 27  15  16  am  
 28  16  17  2   
 29  16  18  1   
 30  18  19  1   
 31  18  20  2   
 32  19  21  1   
 33  19  22  1   
 34  20  23  1   
 35  20  34  1   
 36  21  23  2   
 37  22  35  1   
 38  22  36  1   
 39  22  37  1   
 40  23  38  1   
@<TRIPOS>SUBSTRUCTURE
  1 ****  11 GROUP 4 **** **** 0

# MOE 2024.06 (io_trps.svl 2023.06)
