@<TRIPOS>MOLECULE
NONAME
39 41 1 0 0 
SMALL
USER_CHARGES


@<TRIPOS>ATOM
  1 O        0.8660     0.7650     0.8920 O.2   1 <1>  -0.5700 
  2 C        0.2910     1.7070     0.3900 C.2   1 <1>   0.6410 
  3 C        0.9940     2.7350    -0.3630 C.2   1 <1>  -0.1240 
  4 C       -1.1300     1.8330     0.5060 C.2   1 <1>  -0.2370 
  5 C        2.2390     2.6120    -0.8620 C.2   1 <1>  -0.3000 
  6 C        0.2220     4.0500    -0.5670 C.3   1 <1>  -0.0220 
  7 N       -1.9650     1.0130     1.2180 N.pl3 1 <1>   0.0330 
  8 C       -1.8800     2.7900    -0.0990 C.2   1 <1>  -0.1810 
  9 C       -1.2510     3.8500    -0.9800 C.3   1 <1>   0.0210 
 10 C       -3.2530     1.4610     1.0590 C.ar  1 <1>  -0.1520 
 11 C       -3.2300     2.5800     0.2320 C.ar  1 <1>   0.0000 
 12 C       -4.4580     0.9760     1.5750 C.ar  1 <1>  -0.1500 
 13 C       -4.4300     3.2260    -0.0880 C.ar  1 <1>  -0.1500 
 14 C       -5.6300     1.6200     1.2540 C.ar  1 <1>  -0.1500 
 15 C       -5.6190     2.7540     0.4170 C.ar  1 <1>   0.0830 
 16 O       -6.7470     3.4330     0.0660 O.3   1 <1>  -0.3630 
 17 C       -8.0170     3.0280     0.5310 C.3   1 <1>   0.1200 
 18 C       -9.0930     3.9710    -0.0290 C.3   1 <1>  -0.0800 
 19 C      -10.4690     3.6010     0.5400 C.3   1 <1>  -0.2400 
 20 C       -9.1410     3.9330    -1.5640 C.3   1 <1>  -0.2400 
 21 H        2.7600     3.3740    -1.4130 H     1 <1>   0.1500 
 22 H        2.8330     1.7200    -0.7460 H     1 <1>   0.1500 
 23 H        0.7150     4.6670    -1.2970 H     1 <1>   0.0800 
 24 H        0.2350     4.5830     0.3680 H     1 <1>   0.0800 
 25 H       -1.6590     0.1970     1.7590 H     1 <1>   0.2700 
 26 H       -1.3050     3.5280    -2.0050 H     1 <1>   0.0800 
 27 H       -1.7880     4.7770    -0.8820 H     1 <1>   0.0800 
 28 H       -4.4560     0.1090     2.2120 H     1 <1>   0.1500 
 29 H       -4.4150     4.0880    -0.7270 H     1 <1>   0.1500 
 30 H       -6.5520     1.2430     1.6530 H     1 <1>   0.1500 
 31 H       -8.0070     3.0700     1.6060 H     1 <1>   0.0800 
 32 H       -8.1930     2.0190     0.2010 H     1 <1>   0.0800 
 33 H       -8.8570     4.9730     0.2880 H     1 <1>   0.0800 
 34 H      -10.7450     2.6030     0.2480 H     1 <1>   0.0800 
 35 H      -11.2170     4.2840     0.1770 H     1 <1>   0.0800 
 36 H      -10.4560     3.6560     1.6140 H     1 <1>   0.0800 
 37 H       -9.3570     2.9390    -1.9130 H     1 <1>   0.0800 
 38 H       -9.8990     4.6020    -1.9320 H     1 <1>   0.0800 
 39 H       -8.1950     4.2400    -1.9750 H     1 <1>   0.0800 
@<TRIPOS>BOND
  1   1   2  2   
  2   2   3  1   
  3   2   4  1   
  4   3   5  2   
  5   3   6  1   
  6   4   7  1   
  7   4   8  2   
  8   5  21  1   
  9   5  22  1   
 10   6   9  1   
 11   6  23  1   
 12   6  24  1   
 13   7  10  1   
 14   7  25  1   
 15   8   9  1   
 16   8  11  1   
 17   9  26  1   
 18   9  27  1   
 19  10  11  ar  
 20  10  12  ar  
 21  11  13  ar  
 22  12  14  ar  
 23  12  28  1   
 24  13  15  ar  
 25  13  29  1   
 26  14  15  ar  
 27  14  30  1   
 28  15  16  1   
 29  16  17  1   
 30  17  18  1   
 31  17  31  1   
 32  17  32  1   
 33  18  19  1   
 34  18  20  1   
 35  18  33  1   
 36  19  34  1   
 37  19  35  1   
 38  19  36  1   
 39  20  37  1   
 40  20  38  1   
 41  20  39  1   
@<TRIPOS>SUBSTRUCTURE
  1 ****  11 GROUP 4 **** **** 0

# MOE 2024.06 (io_trps.svl 2023.06)
