@<TRIPOS>MOLECULE
NONAME
51 52 1 0 0 
SMALL
USER_CHARGES


@<TRIPOS>ATOM
  1 S        1.4840     3.1130     1.3920 S.o2  1 <1>   1.3330 
  2 O        1.5060     1.7820     1.9420 O.2   1 <1>  -0.6500 
  3 O        2.7210     3.8290     1.1930 O.2   1 <1>  -0.6500 
  4 N        0.7270     3.0530    -0.1600 N.am  1 <1>  -0.6930 
  5 C        0.3680     4.1420     2.3210 C.3   1 <1>  -0.1350 
  6 C       -0.4780     2.3840    -0.3480 C.ar  1 <1>   0.1990 
  7 C        1.6030     3.2530    -1.3550 C.3   1 <1>   0.2570 
  8 C       -1.6810     3.0710    -0.5600 C.ar  1 <1>  -0.1440 
  9 C       -0.4820     0.9950    -0.3270 C.ar  1 <1>  -0.1500 
 10 C        2.5980     2.1180    -1.6190 C.2   1 <1>   0.5690 
 11 C       -2.8630     2.3530    -0.7260 C.ar  1 <1>  -0.1440 
 12 C       -1.7210     4.6010    -0.6110 C.3   1 <1>  -0.0970 
 13 C       -1.6520     0.2870    -0.4990 C.ar  1 <1>  -0.1500 
 14 O        2.3590     1.3580    -2.5280 O.2   1 <1>  -0.5700 
 15 N        3.7200     2.0240    -0.8380 N.am  1 <1>  -0.5470 
 16 C       -2.8390     0.9660    -0.6950 C.ar  1 <1>  -0.1500 
 17 C       -4.2040     3.0420    -0.9460 C.3   1 <1>  -0.0970 
 18 C        4.8020     1.1200    -0.8460 C.ar  1 <1>   0.1170 
 19 C        5.6040     1.0280     0.2950 C.ar  1 <1>   0.0830 
 20 C        5.1190     0.3200    -1.9380 C.ar  1 <1>  -0.1500 
 21 O        5.3230     1.7980     1.3760 O.3   1 <1>  -0.3630 
 22 C        6.6890     0.1710     0.3410 C.ar  1 <1>  -0.1500 
 23 C        6.2000    -0.5550    -1.8930 C.ar  1 <1>   0.0830 
 24 C        4.6570     1.1350     2.4260 C.3   1 <1>   0.0400 
 25 C        6.9840    -0.6230    -0.7530 C.ar  1 <1>  -0.1500 
 26 O        6.5520    -1.3730    -2.9210 O.3   1 <1>  -0.3620 
 27 C        5.7560    -1.4540    -4.0830 C.3   1 <1>   0.0400 
 28 H        0.7390     4.2780     3.3180 H     1 <1>   0.0800 
 29 H       -0.5990     3.6820     2.3730 H     1 <1>   0.0800 
 30 H        0.2720     5.1020     1.8540 H     1 <1>   0.0800 
 31 H        2.1470     4.1730    -1.2500 H     1 <1>   0.0800 
 32 H        0.9770     3.3490    -2.2250 H     1 <1>   0.0800 
 33 H        0.4430     0.4670    -0.1740 H     1 <1>   0.1500 
 34 H       -0.7420     5.0390    -0.6420 H     1 <1>   0.0800 
 35 H       -2.2320     4.9800     0.2540 H     1 <1>   0.0800 
 36 H       -2.2420     4.9260    -1.4930 H     1 <1>   0.0800 
 37 H       -1.6390    -0.7880    -0.4800 H     1 <1>   0.1500 
 38 H        3.7520     2.6610    -0.0270 H     1 <1>   0.3700 
 39 H       -3.7460     0.4020    -0.8260 H     1 <1>   0.1500 
 40 H       -4.2080     3.5410    -1.8980 H     1 <1>   0.0800 
 41 H       -4.3870     3.7610    -0.1690 H     1 <1>   0.0800 
 42 H       -5.0100     2.3300    -0.9370 H     1 <1>   0.0800 
 43 H        4.5180     0.3910    -2.8210 H     1 <1>   0.1500 
 44 H        7.2990     0.1280     1.2250 H     1 <1>   0.1500 
 45 H        4.3350     1.8720     3.1400 H     1 <1>   0.0800 
 46 H        5.3360     0.4410     2.8880 H     1 <1>   0.0800 
 47 H        3.8030     0.6150     2.0280 H     1 <1>   0.0800 
 48 H        7.8210    -1.2960    -0.7300 H     1 <1>   0.1500 
 49 H        6.1870    -2.1930    -4.7340 H     1 <1>   0.0800 
 50 H        5.7520    -0.4950    -4.5710 H     1 <1>   0.0800 
 51 H        4.7590    -1.7480    -3.8050 H     1 <1>   0.0800 
@<TRIPOS>BOND
  1   1   2  2   
  2   1   3  2   
  3   1   4  am  
  4   1   5  1   
  5   4   6  1   
  6   4   7  1   
  7   5  28  1   
  8   5  29  1   
  9   5  30  1   
 10   6   8  ar  
 11   6   9  ar  
 12   7  10  1   
 13   7  31  1   
 14   7  32  1   
 15   8  11  ar  
 16   8  12  1   
 17   9  13  ar  
 18   9  33  1   
 19  10  14  2   
 20  10  15  am  
 21  11  16  ar  
 22  11  17  1   
 23  12  34  1   
 24  12  35  1   
 25  12  36  1   
 26  13  16  ar  
 27  13  37  1   
 28  15  18  1   
 29  15  38  1   
 30  16  39  1   
 31  17  40  1   
 32  17  41  1   
 33  17  42  1   
 34  18  19  ar  
 35  18  20  ar  
 36  19  21  1   
 37  19  22  ar  
 38  20  23  ar  
 39  20  43  1   
 40  21  24  1   
 41  22  25  ar  
 42  22  44  1   
 43  23  25  ar  
 44  23  26  1   
 45  24  45  1   
 46  24  46  1   
 47  24  47  1   
 48  25  48  1   
 49  26  27  1   
 50  27  49  1   
 51  27  50  1   
 52  27  51  1   
@<TRIPOS>SUBSTRUCTURE
  1 ****  10 GROUP 4 **** **** 0

# MOE 2024.06 (io_trps.svl 2023.06)
