@<TRIPOS>MOLECULE
NONAME
31 31 1 0 0 
SMALL
USER_CHARGES


@<TRIPOS>ATOM
  1 S        0.1330     0.1970    -0.7660 S.3   1 <1>  -0.3710 
  2 C       -1.6390     0.0700    -0.6310 C.2   1 <1>   0.6500 
  3 C        0.8430    -1.3570    -0.0480 C.3   1 <1>   0.0700 
  4 O       -2.3240     0.9590    -1.0380 O.2   1 <1>  -0.5700 
  5 C       -2.2030    -1.1800     0.0040 C.3   1 <1>  -0.1790 
  6 C        2.3780    -1.2920    -0.0920 C.3   1 <1>  -0.0190 
  7 C        2.9730    -2.6630     0.2190 C.2   1 <1>   0.5690 
  8 C        2.9280    -0.2260     0.8780 C.3   1 <1>  -0.2400 
  9 O        2.3290    -3.4440     0.8780 O.2   1 <1>  -0.5700 
 10 N        4.2250    -2.9280    -0.2650 N.am  1 <1>  -0.5470 
 11 C        5.0310    -4.0750    -0.1790 C.ar  1 <1>   0.1170 
 12 C        6.3970    -3.9440    -0.4070 C.ar  1 <1>  -0.1500 
 13 C        4.5300    -5.3410     0.1080 C.ar  1 <1>  -0.1500 
 14 C        7.2390    -5.0400    -0.3480 C.ar  1 <1>  -0.1500 
 15 C        5.3680    -6.4400     0.1700 C.ar  1 <1>  -0.1500 
 16 C        6.7250    -6.2920    -0.0580 C.ar  1 <1>  -0.1500 
 17 H        0.4790    -2.1760    -0.6440 H     1 <1>   0.0800 
 18 H        0.4890    -1.4520     0.9640 H     1 <1>   0.0800 
 19 H       -1.8620    -1.2640     1.0180 H     1 <1>   0.0800 
 20 H       -1.9100    -2.0450    -0.5590 H     1 <1>   0.0800 
 21 H       -3.2760    -1.1190     0.0070 H     1 <1>   0.0800 
 22 H        2.6650    -1.0310    -1.0950 H     1 <1>   0.0800 
 23 H        2.6350    -0.4570     1.8880 H     1 <1>   0.0800 
 24 H        2.5550     0.7510     0.6270 H     1 <1>   0.0800 
 25 H        4.0020    -0.1960     0.8350 H     1 <1>   0.0800 
 26 H        4.6740    -2.1430    -0.7310 H     1 <1>   0.3700 
 27 H        6.8120    -2.9790    -0.6310 H     1 <1>   0.1500 
 28 H        3.4800    -5.4810     0.2830 H     1 <1>   0.1500 
 29 H        8.2940    -4.9230    -0.5250 H     1 <1>   0.1500 
 30 H        4.9630    -7.4110     0.3960 H     1 <1>   0.1500 
 31 H        7.3770    -7.1470    -0.0090 H     1 <1>   0.1500 
@<TRIPOS>BOND
  1   1   2  1   
  2   1   3  1   
  3   2   4  2   
  4   2   5  1   
  5   3   6  1   
  6   3  17  1   
  7   3  18  1   
  8   5  19  1   
  9   5  20  1   
 10   5  21  1   
 11   6   7  1   
 12   6   8  1   
 13   6  22  1   
 14   7   9  2   
 15   7  10  am  
 16   8  23  1   
 17   8  24  1   
 18   8  25  1   
 19  10  11  1   
 20  10  26  1   
 21  11  12  ar  
 22  11  13  ar  
 23  12  14  ar  
 24  12  27  1   
 25  13  15  ar  
 26  13  28  1   
 27  14  16  ar  
 28  14  29  1   
 29  15  16  ar  
 30  15  30  1   
 31  16  31  1   
@<TRIPOS>SUBSTRUCTURE
  1 ****   7 GROUP 4 **** **** 0

# MOE 2024.06 (io_trps.svl 2023.06)
