@<TRIPOS>MOLECULE
NONAME
53 54 1 0 0 
SMALL
USER_CHARGES


@<TRIPOS>ATOM
  1 S       -1.8550    -1.3740     1.5770 S.o2  1 <1>   1.3330 
  2 O       -0.9360    -0.3230     1.9400 O.2   1 <1>  -0.6500 
  3 O       -3.1390    -1.4580     2.2300 O.2   1 <1>  -0.6500 
  4 N       -1.0510    -2.8960     1.7910 N.am  1 <1>  -0.6930 
  5 C       -2.1110    -1.3290    -0.1850 C.3   1 <1>  -0.1350 
  6 C        0.2370    -3.0760     1.2910 C.ar  1 <1>   0.1990 
  7 C       -1.8140    -4.1210     2.1980 C.3   1 <1>   0.3370 
  8 C        1.3130    -2.3940     1.8430 C.ar  1 <1>  -0.1500 
  9 C        0.4750    -3.9420     0.2280 C.ar  1 <1>  -0.1500 
 10 C       -2.9300    -4.5490     1.2180 C.2   1 <1>   0.5690 
 11 C       -2.2590    -4.0300     3.6650 C.3   1 <1>  -0.2400 
 12 C        2.5960    -2.5640     1.3530 C.ar  1 <1>  -0.1440 
 13 C        1.7530    -4.1270    -0.2700 C.ar  1 <1>  -0.1440 
 14 O       -2.7180    -5.5140     0.5190 O.2   1 <1>  -0.5700 
 15 N       -4.0960    -3.8360     1.1390 N.am  1 <1>  -0.5470 
 16 C        2.8100    -3.4340     0.2960 C.ar  1 <1>  -0.1500 
 17 C        3.7610    -1.8070     1.9640 C.3   1 <1>  -0.0970 
 18 C        2.0040    -5.0760    -1.4280 C.3   1 <1>  -0.0970 
 19 C       -5.1930    -3.9800     0.2690 C.ar  1 <1>   0.1170 
 20 C       -5.8790    -2.8420    -0.1660 C.ar  1 <1>   0.0830 
 21 C       -5.6310    -5.2280    -0.1580 C.ar  1 <1>  -0.1500 
 22 O       -5.4230    -1.6290     0.2620 O.3   1 <1>  -0.3630 
 23 C       -6.9770    -2.9700    -1.0080 C.ar  1 <1>  -0.1500 
 24 C       -6.7230    -5.3570    -0.9990 C.ar  1 <1>  -0.1430 
 25 C       -6.2650    -0.4970     0.2570 C.3   1 <1>   0.0400 
 26 C       -7.3950    -4.2230    -1.4210 C.ar  1 <1>  -0.1500 
 27 C       -7.1800    -6.7320    -1.4530 C.3   1 <1>  -0.0970 
 28 H       -2.6290    -0.4300    -0.4550 H     1 <1>   0.0800 
 29 H       -2.6960    -2.1670    -0.5060 H     1 <1>   0.0800 
 30 H       -1.1680    -1.3490    -0.6950 H     1 <1>   0.0800 
 31 H       -1.1100    -4.9350     2.1790 H     1 <1>   0.0800 
 32 H        1.1330    -1.7240     2.6650 H     1 <1>   0.1500 
 33 H       -0.3480    -4.4740    -0.2140 H     1 <1>   0.1500 
 34 H       -3.0620    -3.3310     3.8030 H     1 <1>   0.0800 
 35 H       -1.4280    -3.7430     4.2820 H     1 <1>   0.0800 
 36 H       -2.6060    -4.9940     3.9900 H     1 <1>   0.0800 
 37 H       -4.1110    -2.9450     1.6620 H     1 <1>   0.3700 
 38 H        3.8060    -3.5720    -0.0870 H     1 <1>   0.1500 
 39 H        3.4100    -0.9600     2.5270 H     1 <1>   0.0800 
 40 H        4.4190    -1.4510     1.1920 H     1 <1>   0.0800 
 41 H        4.3120    -2.4550     2.6210 H     1 <1>   0.0800 
 42 H        1.1260    -5.6550    -1.6480 H     1 <1>   0.0800 
 43 H        2.8040    -5.7510    -1.1830 H     1 <1>   0.0800 
 44 H        2.2770    -4.5170    -2.3050 H     1 <1>   0.0800 
 45 H       -5.1120    -6.1080     0.1760 H     1 <1>   0.1500 
 46 H       -7.5140    -2.1090    -1.3590 H     1 <1>   0.1500 
 47 H       -5.7660     0.2890     0.7950 H     1 <1>   0.0800 
 48 H       -7.1890    -0.7460     0.7490 H     1 <1>   0.0800 
 49 H       -6.4370    -0.1920    -0.7590 H     1 <1>   0.0800 
 50 H       -8.2460    -4.3120    -2.0730 H     1 <1>   0.1500 
 51 H       -6.3550    -7.4200    -1.4590 H     1 <1>   0.0800 
 52 H       -7.5870    -6.6830    -2.4470 H     1 <1>   0.0800 
 53 H       -7.9360    -7.1030    -0.7840 H     1 <1>   0.0800 
@<TRIPOS>BOND
  1   1   2  2   
  2   1   3  2   
  3   1   4  am  
  4   1   5  1   
  5   4   6  1   
  6   4   7  1   
  7   5  28  1   
  8   5  29  1   
  9   5  30  1   
 10   6   8  ar  
 11   6   9  ar  
 12   7  10  1   
 13   7  11  1   
 14   7  31  1   
 15   8  12  ar  
 16   8  32  1   
 17   9  13  ar  
 18   9  33  1   
 19  10  14  2   
 20  10  15  am  
 21  11  34  1   
 22  11  35  1   
 23  11  36  1   
 24  12  16  ar  
 25  12  17  1   
 26  13  16  ar  
 27  13  18  1   
 28  15  19  1   
 29  15  37  1   
 30  16  38  1   
 31  17  39  1   
 32  17  40  1   
 33  17  41  1   
 34  18  42  1   
 35  18  43  1   
 36  18  44  1   
 37  19  20  ar  
 38  19  21  ar  
 39  20  22  1   
 40  20  23  ar  
 41  21  24  ar  
 42  21  45  1   
 43  22  25  1   
 44  23  26  ar  
 45  23  46  1   
 46  24  26  ar  
 47  24  27  1   
 48  25  47  1   
 49  25  48  1   
 50  25  49  1   
 51  26  50  1   
 52  27  51  1   
 53  27  52  1   
 54  27  53  1   
@<TRIPOS>SUBSTRUCTURE
  1 ****  10 GROUP 4 **** **** 0

# MOE 2024.06 (io_trps.svl 2023.06)
