@<TRIPOS>MOLECULE
NONAME
23 23 1 0 0 
SMALL
USER_CHARGES


@<TRIPOS>ATOM
  1 F       -2.3270    -0.5970     2.2800 F     1 <1>  -0.3400 
  2 C       -1.7630    -0.8160     1.0960 C.3   1 <1>   1.0200 
  3 F       -0.6830    -1.5530     1.3420 F     1 <1>  -0.3400 
  4 F       -1.3150     0.3670     0.6800 F     1 <1>  -0.3400 
  5 C       -2.7460    -1.5070     0.0930 C.3   1 <1>   0.3440 
  6 O       -2.2010    -1.7670    -1.1740 O.3   1 <1>  -0.6800 
  7 C       -4.0440    -0.7340    -0.1430 C.ar  1 <1>  -0.1440 
  8 C       -5.2400    -1.2190     0.3650 C.ar  1 <1>  -0.1500 
  9 C       -4.0520     0.4510    -0.8680 C.ar  1 <1>  -0.1500 
 10 C       -6.4300    -0.5390     0.1600 C.ar  1 <1>   0.0830 
 11 C       -5.2360     1.1370    -1.0770 C.ar  1 <1>  -0.1500 
 12 O       -7.5450    -1.0930     0.6950 O.3   1 <1>  -0.3630 
 13 C       -6.4240     0.6480    -0.5660 C.ar  1 <1>  -0.1500 
 14 C       -8.8040    -0.4670     0.5760 C.3   1 <1>   0.0400 
 15 H       -2.9900    -2.4650     0.5150 H     1 <1>   0.0800 
 16 H       -2.9320    -1.9190    -1.8050 H     1 <1>   0.4000 
 17 H       -5.2740    -2.1330     0.9310 H     1 <1>   0.1500 
 18 H       -3.1360     0.8470    -1.2740 H     1 <1>   0.1500 
 19 H       -5.2290     2.0560    -1.6380 H     1 <1>   0.1500 
 20 H       -7.3280     1.1990    -0.7430 H     1 <1>   0.1500 
 21 H       -9.5290    -1.0760     1.0850 H     1 <1>   0.0800 
 22 H       -9.0580    -0.3890    -0.4660 H     1 <1>   0.0800 
 23 H       -8.7550     0.5040     1.0360 H     1 <1>   0.0800 
@<TRIPOS>BOND
  1   1   2  1   
  2   2   3  1   
  3   2   4  1   
  4   2   5  1   
  5   5   6  1   
  6   5   7  1   
  7   5  15  1   
  8   6  16  1   
  9   7   8  ar  
 10   7   9  ar  
 11   8  10  ar  
 12   8  17  1   
 13   9  11  ar  
 14   9  18  1   
 15  10  12  1   
 16  10  13  ar  
 17  11  13  ar  
 18  11  19  1   
 19  12  14  1   
 20  13  20  1   
 21  14  21  1   
 22  14  22  1   
 23  14  23  1   
@<TRIPOS>SUBSTRUCTURE
  1 ****   7 GROUP 4 **** **** 0

# MOE 2024.06 (io_trps.svl 2023.06)
