@<TRIPOS>MOLECULE
NONAME
45 46 1 0 0 
SMALL
USER_CHARGES


@<TRIPOS>ATOM
  1 CL       1.0640     0.1820    -1.2440 Cl    1 <1>  -0.1770 
  2 C        1.6250    -1.4490    -0.9790 C.ar  1 <1>   0.1770 
  3 C        1.9200    -1.8640     0.3050 C.ar  1 <1>  -0.1500 
  4 C        1.7670    -2.3000    -2.0580 C.ar  1 <1>  -0.1500 
  5 C        2.3640    -3.1600     0.5120 C.ar  1 <1>  -0.1500 
  6 C        2.2110    -3.5950    -1.8450 C.ar  1 <1>  -0.1500 
  7 C        2.5090    -4.0310    -0.5600 C.ar  1 <1>  -0.1430 
  8 C        2.9860    -5.4540    -0.3210 C.3   1 <1>   0.2640 
  9 O        4.3370    -5.4110     0.0270 O.3   1 <1>  -0.5600 
 10 C        4.9270    -6.6560     0.2420 C.3   1 <1>   0.1200 
 11 C        6.4060    -6.4290     0.5890 C.3   1 <1>   0.2000 
 12 O        6.9390    -5.5290    -0.3330 O.3   1 <1>  -0.6800 
 13 C        7.2450    -7.7240     0.5730 C.3   1 <1>   0.3430 
 14 N        8.6890    -7.4030     0.3600 N.4   1 <1>  -0.9590 
 15 C        9.4460    -8.5010    -0.3190 C.3   1 <1>   0.3430 
 16 C        9.3750    -6.8910     1.5750 C.3   1 <1>   0.3430 
 17 C       10.9720    -8.2710    -0.2850 C.3   1 <1>  -0.0800 
 18 C       10.6870    -6.2090     1.1670 C.3   1 <1>  -0.1600 
 19 C       11.3270    -6.7840    -0.1110 C.3   1 <1>  -0.1600 
 20 C       11.6300    -8.8320    -1.5520 C.3   1 <1>  -0.2400 
 21 H        1.8040    -1.1810     1.1270 H     1 <1>   0.1500 
 22 H        1.5330    -1.9510    -3.0470 H     1 <1>   0.1500 
 23 H        2.6000    -3.4880     1.5090 H     1 <1>   0.1500 
 24 H        2.3230    -4.2580    -2.6860 H     1 <1>   0.1500 
 25 H        2.8740    -6.0480    -1.2120 H     1 <1>   0.0800 
 26 H        2.4320    -5.9020     0.4860 H     1 <1>   0.0800 
 27 H        4.8350    -7.2410    -0.6580 H     1 <1>   0.0800 
 28 H        4.4160    -7.1510     1.0510 H     1 <1>   0.0800 
 29 H        6.4650    -5.9690     1.5610 H     1 <1>   0.0800 
 30 H        6.2410    -4.8490    -0.5060 H     1 <1>   0.4000 
 31 H        6.8960    -8.3350    -0.2430 H     1 <1>   0.0800 
 32 H        7.1040    -8.2770     1.4860 H     1 <1>   0.0800 
 33 H        8.6530    -6.5920    -0.2890 H     1 <1>   0.4500 
 34 H        9.1230    -8.5590    -1.3460 H     1 <1>   0.0800 
 35 H        9.2280    -9.4460     0.1500 H     1 <1>   0.0800 
 36 H        9.5870    -7.7130     2.2390 H     1 <1>   0.0800 
 37 H        8.7500    -6.1820     2.0940 H     1 <1>   0.0800 
 38 H       11.3700    -8.8130     0.5560 H     1 <1>   0.0800 
 39 H       11.3770    -6.3040     1.9870 H     1 <1>   0.0800 
 40 H       10.5110    -5.1560     1.0290 H     1 <1>   0.0800 
 41 H       10.9690    -6.2340    -0.9660 H     1 <1>   0.0800 
 42 H       12.3960    -6.6550    -0.0690 H     1 <1>   0.0800 
 43 H       11.2760    -8.3190    -2.4300 H     1 <1>   0.0800 
 44 H       11.4160    -9.8820    -1.6580 H     1 <1>   0.0800 
 45 H       12.6990    -8.7150    -1.5010 H     1 <1>   0.0800 
@<TRIPOS>BOND
  1   1   2  1   
  2   2   3  ar  
  3   2   4  ar  
  4   3   5  ar  
  5   3  21  1   
  6   4   6  ar  
  7   4  22  1   
  8   5   7  ar  
  9   5  23  1   
 10   6   7  ar  
 11   6  24  1   
 12   7   8  1   
 13   8   9  1   
 14   8  25  1   
 15   8  26  1   
 16   9  10  1   
 17  10  11  1   
 18  10  27  1   
 19  10  28  1   
 20  11  12  1   
 21  11  13  1   
 22  11  29  1   
 23  12  30  1   
 24  13  14  1   
 25  13  31  1   
 26  13  32  1   
 27  14  15  1   
 28  14  16  1   
 29  14  33  1   
 30  15  17  1   
 31  15  34  1   
 32  15  35  1   
 33  16  18  1   
 34  16  36  1   
 35  16  37  1   
 36  17  19  1   
 37  17  20  1   
 38  17  38  1   
 39  18  19  1   
 40  18  39  1   
 41  18  40  1   
 42  19  41  1   
 43  19  42  1   
 44  20  43  1   
 45  20  44  1   
 46  20  45  1   
@<TRIPOS>SUBSTRUCTURE
  1 ****  12 GROUP 4 **** **** 0

# MOE 2024.06 (io_trps.svl 2023.06)
