@<TRIPOS>MOLECULE
NONAME
43 44 1 0 0 
SMALL
USER_CHARGES


@<TRIPOS>ATOM
  1 S        0.0150     0.0190     0.3710 S.o2  1 <1>   1.3330 
  2 O        0.2350    -0.3020     1.7620 O.2   1 <1>  -0.6500 
  3 O       -1.1220     0.8240    -0.0130 O.2   1 <1>  -0.6500 
  4 N        1.4160     0.7700    -0.2180 N.am  1 <1>  -0.8490 
  5 C       -0.0560    -1.4880    -0.5740 C.3   1 <1>  -0.1350 
  6 C        2.6440     0.1960     0.3610 C.3   1 <1>   0.1960 
  7 C        1.3730     2.2180     0.0160 C.3   1 <1>   0.1960 
  8 C        3.8860     0.7800    -0.3290 C.3   1 <1>  -0.0190 
  9 C        2.5730     2.9040    -0.6490 C.3   1 <1>  -0.1600 
 10 C        5.1640     0.1500     0.2100 C.2   1 <1>   0.5690 
 11 C        3.9050     2.3110    -0.1730 C.3   1 <1>  -0.1600 
 12 O        5.1620    -0.3450     1.3110 O.2   1 <1>  -0.5700 
 13 N        6.2710     0.1840    -0.5900 N.am  1 <1>  -0.5470 
 14 C        7.5660    -0.2730    -0.3080 C.ar  1 <1>   0.1170 
 15 C        7.8740    -1.6150    -0.0500 C.ar  1 <1>  -0.1440 
 16 C        8.5850     0.6710    -0.3070 C.ar  1 <1>  -0.1500 
 17 C        9.1910    -1.9770     0.2320 C.ar  1 <1>  -0.1440 
 18 C        6.7740    -2.6780    -0.0770 C.3   1 <1>  -0.0970 
 19 C        9.8890     0.3070    -0.0440 C.ar  1 <1>  -0.1500 
 20 C       10.1880    -1.0140     0.2280 C.ar  1 <1>  -0.1500 
 21 C        9.5890    -3.4110     0.5560 C.3   1 <1>  -0.0970 
 22 H       -0.9390    -2.0380    -0.3150 H     1 <1>   0.0800 
 23 H        0.8000    -2.0990    -0.3730 H     1 <1>   0.0800 
 24 H       -0.0870    -1.2620    -1.6210 H     1 <1>   0.0800 
 25 H        2.6450    -0.8730     0.2340 H     1 <1>   0.0800 
 26 H        2.6820     0.4010     1.4200 H     1 <1>   0.0800 
 27 H        1.3700     2.4170     1.0760 H     1 <1>   0.0800 
 28 H        0.4700     2.6310    -0.4040 H     1 <1>   0.0800 
 29 H        3.8170     0.5330    -1.3730 H     1 <1>   0.0800 
 30 H        2.5450     3.9560    -0.4280 H     1 <1>   0.0800 
 31 H        2.4820     2.7930    -1.7160 H     1 <1>   0.0800 
 32 H        4.7170     2.7370    -0.7370 H     1 <1>   0.0800 
 33 H        4.0550     2.5590     0.8650 H     1 <1>   0.0800 
 34 H        6.1860     0.7120    -1.4560 H     1 <1>   0.3700 
 35 H        8.3560     1.7010    -0.5060 H     1 <1>   0.1500 
 36 H        5.9830    -2.4020    -0.7490 H     1 <1>   0.0800 
 37 H        6.3630    -2.7920     0.9100 H     1 <1>   0.0800 
 38 H        7.1490    -3.6270    -0.4110 H     1 <1>   0.0800 
 39 H       10.6700     1.0470    -0.0440 H     1 <1>   0.1500 
 40 H       11.2080    -1.2850     0.4390 H     1 <1>   0.1500 
 41 H        8.9380    -3.8150     1.3100 H     1 <1>   0.0800 
 42 H       10.5960    -3.4580     0.9300 H     1 <1>   0.0800 
 43 H        9.5270    -4.0190    -0.3280 H     1 <1>   0.0800 
@<TRIPOS>BOND
  1   1   2  2   
  2   1   3  2   
  3   1   4  am  
  4   1   5  1   
  5   4   6  1   
  6   4   7  1   
  7   5  22  1   
  8   5  23  1   
  9   5  24  1   
 10   6   8  1   
 11   6  25  1   
 12   6  26  1   
 13   7   9  1   
 14   7  27  1   
 15   7  28  1   
 16   8  10  1   
 17   8  11  1   
 18   8  29  1   
 19   9  11  1   
 20   9  30  1   
 21   9  31  1   
 22  10  12  2   
 23  10  13  am  
 24  11  32  1   
 25  11  33  1   
 26  13  14  1   
 27  13  34  1   
 28  14  15  ar  
 29  14  16  ar  
 30  15  17  ar  
 31  15  18  1   
 32  16  19  ar  
 33  16  35  1   
 34  17  20  ar  
 35  17  21  1   
 36  18  36  1   
 37  18  37  1   
 38  18  38  1   
 39  19  20  ar  
 40  19  39  1   
 41  20  40  1   
 42  21  41  1   
 43  21  42  1   
 44  21  43  1   
@<TRIPOS>SUBSTRUCTURE
  1 ****  10 GROUP 4 **** **** 0

# MOE 2024.06 (io_trps.svl 2023.06)
