@<TRIPOS>MOLECULE
NONAME
41 44 1 0 0 
SMALL
USER_CHARGES


@<TRIPOS>ATOM
  1 O        0.9010    -0.2720     1.1290 O.2   1 <1>  -0.5760 
  2 C        1.8510    -0.8940     0.7000 C.2   1 <1>   0.6850 
  3 N        1.6780    -2.1940     0.2320 N.am  1 <1>  -0.4270 
  4 N        3.1090    -0.3030     0.6780 N.am  1 <1>  -0.4430 
  5 C        2.7490    -2.9340    -0.2530 C.2   1 <1>   0.6980 
  6 C        0.3110    -2.8020     0.2820 C.3   1 <1>   0.0500 
  7 C        4.1630    -1.0340     0.1660 C.2   1 <1>   0.4190 
  8 C        3.3090     1.0920     1.1720 C.3   1 <1>   0.0500 
  9 O        2.6050    -4.0830    -0.6350 O.2   1 <1>  -0.5760 
 10 C        4.0310    -2.3040    -0.2880 C.2   1 <1>   0.2690 
 11 N        5.4680    -0.6440     0.0250 N.pl3 1 <1>  -0.7050 
 12 N        5.3090    -2.6830    -0.7120 N.pl3 1 <1>  -0.7680 
 13 C        6.1150    -1.6720    -0.5080 C.cat 1 <1>   1.0680 
 14 C        6.0090    -3.8350    -1.3100 C.3   1 <1>   0.3470 
 15 N        7.3710    -1.9050    -0.8780 N.pl3 1 <1>  -0.5810 
 16 C        7.4560    -3.2900    -1.4310 C.3   1 <1>   0.1590 
 17 C        8.4670    -1.0530    -0.7330 C.ar  1 <1>   0.3030 
 18 C        9.0330    -0.8020     0.5190 C.ar  1 <1>  -0.1530 
 19 C        8.9820    -0.4230    -1.8580 C.ar  1 <1>  -0.1590 
 20 C       10.0910     0.0870     0.6180 C.ar  1 <1>  -0.1590 
 21 C        8.5350    -1.4850     1.7900 C.3   1 <1>  -0.1060 
 22 C       10.0390     0.4600    -1.7490 C.ar  1 <1>  -0.1590 
 23 C       10.5910     0.7170    -0.5080 C.ar  1 <1>  -0.1590 
 24 H       -0.4270    -2.0750    -0.0080 H     1 <1>   0.0700 
 25 H        0.1000    -3.1300     1.2850 H     1 <1>   0.0700 
 26 H        0.2350    -3.6440    -0.3840 H     1 <1>   0.0700 
 27 H        2.5320     1.3630     1.8680 H     1 <1>   0.0700 
 28 H        3.2810     1.7780     0.3430 H     1 <1>   0.0700 
 29 H        4.2530     1.1800     1.6790 H     1 <1>   0.0700 
 30 H        5.8950     0.2500     0.2560 H     1 <1>   0.4430 
 31 H        5.5950    -4.0790    -2.2740 H     1 <1>   0.0700 
 32 H        5.9610    -4.6930    -0.6610 H     1 <1>   0.0700 
 33 H        7.7750    -3.2700    -2.4590 H     1 <1>   0.0700 
 34 H        8.1410    -3.8860    -0.8520 H     1 <1>   0.0700 
 35 H        8.5570    -0.6180    -2.8260 H     1 <1>   0.1410 
 36 H       10.5440     0.2980     1.5730 H     1 <1>   0.1410 
 37 H        7.6060    -1.0510     2.1120 H     1 <1>   0.0700 
 38 H        9.2510    -1.3710     2.5860 H     1 <1>   0.0700 
 39 H        8.3970    -2.5380     1.6260 H     1 <1>   0.0700 
 40 H       10.4360     0.9480    -2.6240 H     1 <1>   0.1410 
 41 H       11.4150     1.4050    -0.4180 H     1 <1>   0.1410 
@<TRIPOS>BOND
  1   1   2  2   
  2   2   3  am  
  3   2   4  am  
  4   3   5  am  
  5   3   6  1   
  6   4   7  1   
  7   4   8  1   
  8   5   9  2   
  9   5  10  1   
 10   6  24  1   
 11   6  25  1   
 12   6  26  1   
 13   7  10  2   
 14   7  11  1   
 15   8  27  1   
 16   8  28  1   
 17   8  29  1   
 18  10  12  1   
 19  11  13  ar  
 20  11  30  1   
 21  12  13  ar  
 22  12  14  1   
 23  13  15  ar  
 24  14  16  1   
 25  14  31  1   
 26  14  32  1   
 27  15  16  1   
 28  15  17  1   
 29  16  33  1   
 30  16  34  1   
 31  17  18  ar  
 32  17  19  ar  
 33  18  20  ar  
 34  18  21  1   
 35  19  22  ar  
 36  19  35  1   
 37  20  23  ar  
 38  20  36  1   
 39  21  37  1   
 40  21  38  1   
 41  21  39  1   
 42  22  23  ar  
 43  22  40  1   
 44  23  41  1   
@<TRIPOS>SUBSTRUCTURE
  1 ****  13 GROUP 4 **** **** 0

# MOE 2024.06 (io_trps.svl 2023.06)
