@<TRIPOS>MOLECULE
NONAME
30 30 1 0 0 
SMALL
USER_CHARGES


@<TRIPOS>ATOM
  1 O        0.5270     0.6340     0.1040 O.2   1 <1>  -0.5700 
  2 C        0.4180     1.8360     0.0950 C.2   1 <1>   0.5690 
  3 N        1.5560     2.5720    -0.0100 N.am  1 <1>  -0.7300 
  4 C       -0.9820     2.4880     0.1640 C.3   1 <1>   0.2610 
  5 C        1.7070     4.0520    -0.0160 C.3   1 <1>   0.3400 
  6 O       -0.9970     3.4890     1.1800 O.3   1 <1>  -0.3630 
  7 C       -2.1180     1.4850     0.4620 C.3   1 <1>  -0.1600 
  8 C        3.0240     4.4720    -0.5850 C.1   1 <1>   0.3570 
  9 C       -1.3130     4.7890     0.9520 C.ar  1 <1>   0.0820 
 10 C       -3.5210     2.1100     0.4890 C.3   1 <1>  -0.2400 
 11 N        4.0300     4.7880    -1.0130 N.1   1 <1>  -0.5570 
 12 C       -2.0330     5.2400    -0.1500 C.ar  1 <1>  -0.1500 
 13 C       -0.8640     5.7030     1.8930 C.ar  1 <1>  -0.1500 
 14 C       -2.2710     6.5940    -0.3140 C.ar  1 <1>  -0.1500 
 15 C       -1.1030     7.0550     1.7280 C.ar  1 <1>  -0.1500 
 16 C       -1.8040     7.5020     0.6210 C.ar  1 <1>  -0.1500 
 17 H        2.4270     2.0350    -0.0340 H     1 <1>   0.3700 
 18 H       -1.1510     2.9400    -0.7910 H     1 <1>   0.0800 
 19 H        1.6340     4.4190     0.9920 H     1 <1>   0.0800 
 20 H        0.9240     4.4970    -0.6030 H     1 <1>   0.0800 
 21 H       -1.9180     1.0080     1.4070 H     1 <1>   0.0800 
 22 H       -2.1010     0.7150    -0.2900 H     1 <1>   0.0800 
 23 H       -3.5880     2.8630     1.2550 H     1 <1>   0.0800 
 24 H       -4.2540     1.3510     0.6990 H     1 <1>   0.0800 
 25 H       -3.7570     2.5550    -0.4610 H     1 <1>   0.0800 
 26 H       -2.4290     4.5640    -0.8830 H     1 <1>   0.1500 
 27 H       -0.3270     5.3500     2.7550 H     1 <1>   0.1500 
 28 H       -2.8260     6.9450    -1.1680 H     1 <1>   0.1500 
 29 H       -0.7490     7.7600     2.4610 H     1 <1>   0.1500 
 30 H       -1.9910     8.5540     0.4910 H     1 <1>   0.1500 
@<TRIPOS>BOND
  1   1   2  2   
  2   2   3  am  
  3   2   4  1   
  4   3   5  1   
  5   3  17  1   
  6   4   6  1   
  7   4   7  1   
  8   4  18  1   
  9   5   8  1   
 10   5  19  1   
 11   5  20  1   
 12   6   9  1   
 13   7  10  1   
 14   7  21  1   
 15   7  22  1   
 16   8  11  3   
 17   9  12  ar  
 18   9  13  ar  
 19  10  23  1   
 20  10  24  1   
 21  10  25  1   
 22  12  14  ar  
 23  12  26  1   
 24  13  15  ar  
 25  13  27  1   
 26  14  16  ar  
 27  14  28  1   
 28  15  16  ar  
 29  15  29  1   
 30  16  30  1   
@<TRIPOS>SUBSTRUCTURE
  1 ****   6 GROUP 4 **** **** 0

# MOE 2024.06 (io_trps.svl 2023.06)
