@<TRIPOS>MOLECULE
NONAME
29 31 1 0 0 
SMALL
USER_CHARGES


@<TRIPOS>ATOM
  1 O       -0.2320     0.2610    -0.0650 O.2   1 <1>  -0.5700 
  2 C       -0.0100     1.4010     0.2630 C.2   1 <1>   0.5770 
  3 N        1.2520     1.9170     0.3890 N.am  1 <1>  -0.5470 
  4 C       -1.1850     2.3220     0.5670 C.3   1 <1>   0.0530 
  5 C        2.5150     1.3260     0.1940 C.ar  1 <1>   0.1170 
  6 C       -2.4530     2.1060    -0.3050 C.3   1 <1>   0.0000 
  7 C       -1.0980     3.7390    -0.0640 C.3   1 <1>   0.0000 
  8 C        3.5850     2.1310    -0.1390 C.ar  1 <1>  -0.1500 
  9 C        2.7230    -0.0590     0.3460 C.ar  1 <1>  -0.1500 
 10 C       -2.6280     3.6460    -0.2900 C.3   1 <1>   0.0000 
 11 C        4.8550     1.5710    -0.3270 C.ar  1 <1>   0.0000 
 12 C        3.9640    -0.6210     0.1630 C.ar  1 <1>  -0.1500 
 13 C        5.0320     0.2140    -0.1780 C.ar  1 <1>  -0.1520 
 14 C        6.1330     2.0510    -0.6620 C.2   1 <1>   0.1390 
 15 N        6.3540    -0.0200    -0.4240 N.pl3 1 <1>   0.3000 
 16 N        7.0250     1.1180    -0.7200 N.2   1 <1>  -0.7070 
 17 H        1.2860     2.9090     0.6150 H     1 <1>   0.3700 
 18 H       -1.4220     2.3640     1.6170 H     1 <1>   0.0000 
 19 H       -3.2410     1.5730     0.1960 H     1 <1>   0.0000 
 20 H       -2.2340     1.7290    -1.2900 H     1 <1>   0.0000 
 21 H       -0.5470     3.7600    -0.9900 H     1 <1>   0.0000 
 22 H       -0.8060     4.5080     0.6290 H     1 <1>   0.0000 
 23 H        3.4670     3.1900    -0.2640 H     1 <1>   0.1500 
 24 H        1.8930    -0.6880     0.6130 H     1 <1>   0.1500 
 25 H       -3.1960     3.9920     0.5570 H     1 <1>   0.0000 
 26 H       -2.9570     4.0570    -1.2290 H     1 <1>   0.0000 
 27 H        4.1150    -1.6800     0.2770 H     1 <1>   0.1500 
 28 H        6.3440     3.0900    -0.8500 H     1 <1>   0.1500 
 29 H        6.8080    -0.9390    -0.3960 H     1 <1>   0.2700 
@<TRIPOS>BOND
  1   1   2  2   
  2   2   3  am  
  3   2   4  1   
  4   3   5  1   
  5   3  17  1   
  6   4   6  1   
  7   4   7  1   
  8   4  18  1   
  9   5   8  ar  
 10   5   9  ar  
 11   6  10  1   
 12   6  19  1   
 13   6  20  1   
 14   7  10  1   
 15   7  21  1   
 16   7  22  1   
 17   8  11  ar  
 18   8  23  1   
 19   9  12  ar  
 20   9  24  1   
 21  10  25  1   
 22  10  26  1   
 23  11  13  ar  
 24  11  14  1   
 25  12  13  ar  
 26  12  27  1   
 27  13  15  1   
 28  14  16  2   
 29  14  28  1   
 30  15  16  1   
 31  15  29  1   
@<TRIPOS>SUBSTRUCTURE
  1 ****   5 GROUP 4 **** **** 0

# MOE 2024.06 (io_trps.svl 2023.06)
