@<TRIPOS>MOLECULE
NONAME
32 34 1 0 0 
SMALL
USER_CHARGES


@<TRIPOS>ATOM
  1 O       -0.8780    -0.3590     2.0320 O.2   1 <1>  -0.5700 
  2 C       -0.8210    -1.4260     1.4600 C.2   1 <1>   0.6900 
  3 N       -1.9650    -2.1210     1.1870 N.am  1 <1>  -0.3680 
  4 N        0.3670    -1.9260     1.0920 N.am  1 <1>  -0.8000 
  5 N       -2.0860    -3.3510     0.5430 N.2   1 <1>  -0.5120 
  6 C       -3.2150    -3.9020     0.3470 C.2   1 <1>   0.3280 
  7 C       -3.3290    -5.2500    -0.3600 C.3   1 <1>  -0.0190 
  8 C       -4.5950    -3.3630     0.7510 C.3   1 <1>  -0.0190 
  9 C       -4.1950    -5.0790    -1.6250 C.3   1 <1>  -0.1600 
 10 C       -4.0060    -6.2570     0.5910 C.3   1 <1>  -0.1600 
 11 C       -5.4550    -3.2040    -0.5200 C.3   1 <1>  -0.1600 
 12 C       -5.2660    -4.3810     1.6950 C.3   1 <1>  -0.1600 
 13 C       -5.5940    -4.5610    -1.2370 C.3   1 <1>  -0.0800 
 14 C       -5.4040    -5.7450     0.9900 C.3   1 <1>  -0.0800 
 15 C       -6.2580    -5.5710    -0.2810 C.3   1 <1>  -0.1600 
 16 H       -2.8000    -1.6370     1.5160 H     1 <1>   0.3700 
 17 H        1.2300    -1.4260     1.2850 H     1 <1>   0.3700 
 18 H        0.3980    -2.8240     0.6120 H     1 <1>   0.3700 
 19 H       -2.3500    -5.6040    -0.6320 H     1 <1>   0.0800 
 20 H       -4.5210    -2.4150     1.2490 H     1 <1>   0.0800 
 21 H       -4.2810    -6.0200    -2.1390 H     1 <1>   0.0800 
 22 H       -3.7200    -4.3820    -2.2940 H     1 <1>   0.0800 
 23 H       -3.3990    -6.3840     1.4710 H     1 <1>   0.0800 
 24 H       -4.0900    -7.2160     0.1090 H     1 <1>   0.0800 
 25 H       -4.9930    -2.4890    -1.1790 H     1 <1>   0.0800 
 26 H       -6.4290    -2.8270    -0.2580 H     1 <1>   0.0800 
 27 H       -6.2370    -4.0230     1.9900 H     1 <1>   0.0800 
 28 H       -4.6720    -4.4920     2.5860 H     1 <1>   0.0800 
 29 H       -6.1970    -4.4450    -2.1220 H     1 <1>   0.0800 
 30 H       -5.8760    -6.4520     1.6510 H     1 <1>   0.0800 
 31 H       -6.3710    -6.5200    -0.7760 H     1 <1>   0.0800 
 32 H       -7.2420    -5.2260    -0.0140 H     1 <1>   0.0800 
@<TRIPOS>BOND
  1   1   2  2   
  2   2   3  am  
  3   2   4  am  
  4   3   5  1   
  5   3  16  1   
  6   4  17  1   
  7   4  18  1   
  8   5   6  2   
  9   6   7  1   
 10   6   8  1   
 11   7   9  1   
 12   7  10  1   
 13   7  19  1   
 14   8  11  1   
 15   8  12  1   
 16   8  20  1   
 17   9  13  1   
 18   9  21  1   
 19   9  22  1   
 20  10  14  1   
 21  10  23  1   
 22  10  24  1   
 23  11  13  1   
 24  11  25  1   
 25  11  26  1   
 26  12  14  1   
 27  12  27  1   
 28  12  28  1   
 29  13  15  1   
 30  13  29  1   
 31  14  15  1   
 32  14  30  1   
 33  15  31  1   
 34  15  32  1   
@<TRIPOS>SUBSTRUCTURE
  1 ****   6 GROUP 4 **** **** 0

# MOE 2024.06 (io_trps.svl 2023.06)
