@<TRIPOS>MOLECULE
NONAME
45 47 1 0 0 
SMALL
USER_CHARGES


@<TRIPOS>ATOM
  1 O        0.5340    -0.2070    -0.9960 O.3   1 <1>  -0.3630 
  2 C        1.6660    -0.7650    -0.5010 C.ar  1 <1>   0.0830 
  3 C       -0.1380     0.8260    -0.3090 C.3   1 <1>   0.0400 
  4 C        2.2790    -0.3600     0.6810 C.ar  1 <1>  -0.1500 
  5 C        2.2240    -1.7970    -1.2350 C.ar  1 <1>  -0.1500 
  6 C        3.4380    -0.9830     1.1100 C.ar  1 <1>  -0.1500 
  7 C        3.3820    -2.4200    -0.8050 C.ar  1 <1>  -0.1500 
  8 C        3.9980    -2.0120     0.3680 C.ar  1 <1>  -0.1430 
  9 C        5.2810    -2.6770     0.8260 C.3   1 <1>  -0.0170 
 10 C        6.4550    -1.9470     0.1770 C.3   1 <1>   0.3430 
 11 N        7.7530    -2.5520     0.5920 N.4   1 <1>  -0.9060 
 12 C        8.9300    -1.9060    -0.0420 C.3   1 <1>   0.4230 
 13 C       10.1620    -2.8010     0.1270 C.3   1 <1>  -0.0170 
 14 C        9.1860    -0.5350     0.5920 C.3   1 <1>  -0.1600 
 15 C       11.4310    -2.1030    -0.3340 C.ar  1 <1>  -0.1430 
 16 C       10.3090     0.1870    -0.1620 C.3   1 <1>  -0.0170 
 17 C       11.4980    -0.7180    -0.4550 C.ar  1 <1>  -0.1430 
 18 C       12.5460    -2.8730    -0.6250 C.ar  1 <1>  -0.1500 
 19 C       12.6810    -0.1280    -0.8690 C.ar  1 <1>  -0.1500 
 20 C       13.7230    -2.2750    -1.0380 C.ar  1 <1>  -0.1500 
 21 C       13.7910    -0.9010    -1.1600 C.ar  1 <1>  -0.1500 
 22 H       -1.0080     1.0940    -0.8800 H     1 <1>   0.0800 
 23 H        0.5190     1.6730    -0.2240 H     1 <1>   0.0800 
 24 H       -0.4330     0.4660     0.6600 H     1 <1>   0.0800 
 25 H        1.8670     0.4340     1.2750 H     1 <1>   0.1500 
 26 H        1.7400    -2.1080    -2.1430 H     1 <1>   0.1500 
 27 H        3.8910    -0.6550     2.0300 H     1 <1>   0.1500 
 28 H        3.7860    -3.2230    -1.3970 H     1 <1>   0.1500 
 29 H        5.2700    -3.7110     0.5310 H     1 <1>   0.0800 
 30 H        5.3490    -2.6220     1.8980 H     1 <1>   0.0800 
 31 H        6.4190    -0.9080     0.4640 H     1 <1>   0.0800 
 32 H        6.3500    -1.9980    -0.8950 H     1 <1>   0.0800 
 33 H        7.7520    -3.5480     0.3410 H     1 <1>   0.4500 
 34 H        7.8580    -2.4970     1.6120 H     1 <1>   0.4500 
 35 H        8.7500    -1.7740    -1.0980 H     1 <1>   0.0800 
 36 H       10.0330    -3.7000    -0.4490 H     1 <1>   0.0800 
 37 H       10.2920    -3.0660     1.1620 H     1 <1>   0.0800 
 38 H        9.4870    -0.6560     1.6180 H     1 <1>   0.0800 
 39 H        8.3090     0.0860     0.5590 H     1 <1>   0.0800 
 40 H       10.6360     1.0360     0.4140 H     1 <1>   0.0800 
 41 H        9.9320     0.5580    -1.1010 H     1 <1>   0.0800 
 42 H       12.5150    -3.9450    -0.5320 H     1 <1>   0.1500 
 43 H       12.7500     0.9420    -0.9700 H     1 <1>   0.1500 
 44 H       14.5860    -2.8780    -1.2630 H     1 <1>   0.1500 
 45 H       14.7050    -0.4330    -1.4810 H     1 <1>   0.1500 
@<TRIPOS>BOND
  1   1   2  1   
  2   1   3  1   
  3   2   4  ar  
  4   2   5  ar  
  5   3  22  1   
  6   3  23  1   
  7   3  24  1   
  8   4   6  ar  
  9   4  25  1   
 10   5   7  ar  
 11   5  26  1   
 12   6   8  ar  
 13   6  27  1   
 14   7   8  ar  
 15   7  28  1   
 16   8   9  1   
 17   9  10  1   
 18   9  29  1   
 19   9  30  1   
 20  10  11  1   
 21  10  31  1   
 22  10  32  1   
 23  11  12  1   
 24  11  33  1   
 25  11  34  1   
 26  12  13  1   
 27  12  14  1   
 28  12  35  1   
 29  13  15  1   
 30  13  36  1   
 31  13  37  1   
 32  14  16  1   
 33  14  38  1   
 34  14  39  1   
 35  15  17  ar  
 36  15  18  ar  
 37  16  17  1   
 38  16  40  1   
 39  16  41  1   
 40  17  19  ar  
 41  18  20  ar  
 42  18  42  1   
 43  19  21  ar  
 44  19  43  1   
 45  20  21  ar  
 46  20  44  1   
 47  21  45  1   
@<TRIPOS>SUBSTRUCTURE
  1 ****  10 GROUP 4 **** **** 0

# MOE 2024.06 (io_trps.svl 2023.06)
