@<TRIPOS>MOLECULE
NONAME
45 47 1 0 0 
SMALL
USER_CHARGES


@<TRIPOS>ATOM
  1 O       -0.3320    -0.9020    -1.4670 O.3   1 <1>  -0.3630 
  2 C       -1.3170    -1.0900    -0.5310 C.ar  1 <1>   0.0820 
  3 C       -0.4320     0.1200    -2.4370 C.3   1 <1>   0.0400 
  4 C       -1.1300    -2.0850     0.4470 C.ar  1 <1>   0.1000 
  5 C       -2.4850    -0.3320    -0.5240 C.ar  1 <1>  -0.1500 
  6 N        0.0080    -2.9020     0.5250 N.pl3 1 <1>  -0.8380 
  7 C       -2.1200    -2.2830     1.3980 C.ar  1 <1>  -0.1500 
  8 C       -3.4590    -0.5490     0.4360 C.ar  1 <1>  -0.1500 
  9 C        1.2620    -2.1710     0.8800 C.3   1 <1>   0.2090 
 10 C        0.1570    -3.8540    -0.6160 C.3   1 <1>   0.2090 
 11 C       -3.2760    -1.5250     1.3980 C.ar  1 <1>  -0.1500 
 12 C        2.4360    -3.1470     1.0860 C.3   1 <1>   0.3430 
 13 C        1.3420    -4.8140    -0.3930 C.3   1 <1>   0.3430 
 14 N        2.6200    -4.0770    -0.0890 N.4   1 <1>  -0.9590 
 15 C        3.7740    -4.9910     0.1030 C.3   1 <1>   0.4860 
 16 C        5.0290    -4.1480     0.1950 C.ar  1 <1>  -0.1430 
 17 C        5.4820    -3.4570    -0.9190 C.ar  1 <1>  -0.1500 
 18 C        5.7280    -4.0460     1.3910 C.ar  1 <1>  -0.1500 
 19 C        6.6070    -2.6590    -0.8280 C.ar  1 <1>   0.0820 
 20 C        6.8600    -3.2500     1.4740 C.ar  1 <1>  -0.1500 
 21 O        7.0110    -1.9910    -1.9160 O.3   1 <1>  -0.5330 
 22 C        7.3020    -2.5520     0.3650 C.ar  1 <1>  -0.1500 
 23 H        0.4580     0.0990    -3.0400 H     1 <1>   0.0800 
 24 H       -0.5120     1.0700    -1.9390 H     1 <1>   0.0800 
 25 H       -1.2940    -0.0660    -3.0540 H     1 <1>   0.0800 
 26 H       -2.6660     0.4330    -1.2530 H     1 <1>   0.1500 
 27 H       -1.9790    -3.0410     2.1450 H     1 <1>   0.1500 
 28 H       -4.3590     0.0410     0.4350 H     1 <1>   0.1500 
 29 H        1.0980    -1.6130     1.7860 H     1 <1>   0.0800 
 30 H        1.5120    -1.4690     0.1040 H     1 <1>   0.0800 
 31 H        0.3020    -3.3090    -1.5330 H     1 <1>   0.0800 
 32 H       -0.7510    -4.4240    -0.7160 H     1 <1>   0.0800 
 33 H       -4.0320    -1.6940     2.1450 H     1 <1>   0.1500 
 34 H        2.2420    -3.7210     1.9770 H     1 <1>   0.0800 
 35 H        3.3360    -2.5760     1.2490 H     1 <1>   0.0800 
 36 H        1.4670    -5.4230    -1.2720 H     1 <1>   0.0800 
 37 H        1.0940    -5.4620     0.4310 H     1 <1>   0.0800 
 38 H        2.8420    -3.4770    -0.8930 H     1 <1>   0.4500 
 39 H        3.8590    -5.6660    -0.7340 H     1 <1>   0.0800 
 40 H        3.6480    -5.5710     1.0030 H     1 <1>   0.0800 
 41 H        4.9840    -3.5200    -1.8700 H     1 <1>   0.1500 
 42 H        5.4060    -4.5800     2.2690 H     1 <1>   0.1500 
 43 H        7.4000    -3.1750     2.4030 H     1 <1>   0.1500 
 44 H        7.8310    -1.4830    -1.7780 H     1 <1>   0.4500 
 45 H        8.1800    -1.9340     0.4340 H     1 <1>   0.1500 
@<TRIPOS>BOND
  1   1   2  1   
  2   1   3  1   
  3   2   4  ar  
  4   2   5  ar  
  5   3  23  1   
  6   3  24  1   
  7   3  25  1   
  8   4   6  1   
  9   4   7  ar  
 10   5   8  ar  
 11   5  26  1   
 12   6   9  1   
 13   6  10  1   
 14   7  11  ar  
 15   7  27  1   
 16   8  11  ar  
 17   8  28  1   
 18   9  12  1   
 19   9  29  1   
 20   9  30  1   
 21  10  13  1   
 22  10  31  1   
 23  10  32  1   
 24  11  33  1   
 25  12  14  1   
 26  12  34  1   
 27  12  35  1   
 28  13  14  1   
 29  13  36  1   
 30  13  37  1   
 31  14  15  1   
 32  14  38  1   
 33  15  16  1   
 34  15  39  1   
 35  15  40  1   
 36  16  17  ar  
 37  16  18  ar  
 38  17  19  ar  
 39  17  41  1   
 40  18  20  ar  
 41  18  42  1   
 42  19  21  1   
 43  19  22  ar  
 44  20  22  ar  
 45  20  43  1   
 46  21  44  1   
 47  22  45  1   
@<TRIPOS>SUBSTRUCTURE
  1 ****   9 GROUP 4 **** **** 0

# MOE 2024.06 (io_trps.svl 2023.06)
