@<TRIPOS>MOLECULE
NONAME
40 41 1 0 0 
SMALL
USER_CHARGES


@<TRIPOS>ATOM
  1 O       -3.4090     3.2470    -1.1970 O.2   1 <1>  -0.5700 
  2 C       -4.1940     2.3580    -0.9580 C.2   1 <1>   0.8050 
  3 O       -3.6980     1.1170    -1.0820 O.3   1 <1>  -0.4300 
  4 C       -5.5610     2.6040    -0.5320 C.2   1 <1>   0.0550 
  5 C       -4.1950    -0.0210    -0.4200 C.3   1 <1>   0.1200 
  6 O       -6.4990     1.6460    -0.6540 O.3   1 <1>  -0.2800 
  7 C       -6.1390     3.7190    -0.0010 C.2   1 <1>  -0.1810 
  8 C       -3.0890    -1.0840    -0.4370 C.3   1 <1>   0.3430 
  9 C       -7.6600     2.1310    -0.2200 C.ar  1 <1>   0.1400 
 10 C       -7.4990     3.4330     0.2100 C.ar  1 <1>   0.0000 
 11 C       -5.5340     5.0730     0.3350 C.3   1 <1>  -0.0590 
 12 N       -3.4710    -2.3410     0.2940 N.4   1 <1>  -0.9590 
 13 C       -8.8860     1.4810    -0.1800 C.ar  1 <1>  -0.1500 
 14 C       -8.6010     4.1270     0.7130 C.ar  1 <1>  -0.1500 
 15 C       -2.2800    -3.2380     0.4250 C.3   1 <1>   0.2630 
 16 C       -4.5940    -3.0720    -0.3770 C.3   1 <1>   0.2630 
 17 C       -9.9790     2.1750     0.3190 C.ar  1 <1>   0.0830 
 18 C       -9.8250     3.4930     0.7640 C.ar  1 <1>  -0.1500 
 19 O      -11.2250     1.6540     0.4090 O.3   1 <1>  -0.3630 
 20 C      -11.5200     0.3610    -0.0700 C.3   1 <1>   0.0400 
 21 H       -5.0650    -0.3610    -0.9540 H     1 <1>   0.0800 
 22 H       -4.4480     0.2550     0.5890 H     1 <1>   0.0800 
 23 H       -2.2110    -0.6600     0.0220 H     1 <1>   0.0800 
 24 H       -2.8500    -1.3210    -1.4620 H     1 <1>   0.0800 
 25 H       -4.4720     5.0840     0.1710 H     1 <1>   0.0800 
 26 H       -5.7190     5.3110     1.3670 H     1 <1>   0.0800 
 27 H       -5.9800     5.8340    -0.2800 H     1 <1>   0.0800 
 28 H       -3.7730    -2.0820     1.2480 H     1 <1>   0.4500 
 29 H       -8.9520     0.4730    -0.5350 H     1 <1>   0.1500 
 30 H       -8.4860     5.1400     1.0520 H     1 <1>   0.1500 
 31 H       -1.9250    -3.5350    -0.5490 H     1 <1>   0.0800 
 32 H       -2.5370    -4.1240     0.9820 H     1 <1>   0.0800 
 33 H       -1.4820    -2.7290     0.9410 H     1 <1>   0.0800 
 34 H       -4.3160    -3.3440    -1.3830 H     1 <1>   0.0800 
 35 H       -5.4770    -2.4560    -0.4180 H     1 <1>   0.0800 
 36 H       -4.8330    -3.9720     0.1670 H     1 <1>   0.0800 
 37 H      -10.6900     4.0050     1.1460 H     1 <1>   0.1500 
 38 H      -12.5690     0.1800     0.0830 H     1 <1>   0.0800 
 39 H      -10.9420    -0.3570     0.4840 H     1 <1>   0.0800 
 40 H      -11.2910     0.3160    -1.1200 H     1 <1>   0.0800 
@<TRIPOS>BOND
  1   1   2  2   
  2   2   3  1   
  3   2   4  1   
  4   3   5  1   
  5   4   6  1   
  6   4   7  2   
  7   5   8  1   
  8   5  21  1   
  9   5  22  1   
 10   6   9  1   
 11   7  10  1   
 12   7  11  1   
 13   8  12  1   
 14   8  23  1   
 15   8  24  1   
 16   9  10  ar  
 17   9  13  ar  
 18  10  14  ar  
 19  11  25  1   
 20  11  26  1   
 21  11  27  1   
 22  12  15  1   
 23  12  16  1   
 24  12  28  1   
 25  13  17  ar  
 26  13  29  1   
 27  14  18  ar  
 28  14  30  1   
 29  15  31  1   
 30  15  32  1   
 31  15  33  1   
 32  16  34  1   
 33  16  35  1   
 34  16  36  1   
 35  17  18  ar  
 36  17  19  1   
 37  18  37  1   
 38  19  20  1   
 39  20  38  1   
 40  20  39  1   
 41  20  40  1   
@<TRIPOS>SUBSTRUCTURE
  1 ****   6 GROUP 4 **** **** 0

# MOE 2024.06 (io_trps.svl 2023.06)
