@<TRIPOS>MOLECULE
NONAME
47 48 1 0 0 
SMALL
USER_CHARGES


@<TRIPOS>ATOM
  1 CL      -0.9260     0.4640    -0.5090 Cl    1 <1>  -0.1770 
  2 C       -0.4680     2.1460    -0.4050 C.ar  1 <1>   0.1770 
  3 C       -1.3450     3.1180    -0.8570 C.ar  1 <1>  -0.1440 
  4 C        0.7620     2.4740     0.1430 C.ar  1 <1>  -0.1500 
  5 C       -0.9450     4.4360    -0.7320 C.ar  1 <1>   0.1900 
  6 C       -2.6810     2.7590    -1.4700 C.3   1 <1>   0.4860 
  7 C        1.1350     3.8050     0.2500 C.ar  1 <1>  -0.1500 
  8 F       -1.7560     5.3770    -1.1320 F     1 <1>  -0.1900 
  9 C        0.2750     4.7990    -0.1890 C.ar  1 <1>  -0.1500 
 10 N       -3.5940     2.2550    -0.4090 N.4   1 <1>  -0.9590 
 11 C       -4.8130     1.6310    -1.0180 C.3   1 <1>   0.3430 
 12 C       -3.9490     3.3310     0.5650 C.3   1 <1>   0.3430 
 13 C       -5.7270     1.0270     0.0520 C.3   1 <1>  -0.0190 
 14 C       -4.8260     2.7520     1.6770 C.3   1 <1>  -0.1600 
 15 C       -6.9720     0.5120    -0.6620 C.2   1 <1>   0.5690 
 16 C       -6.0890     2.0880     1.1110 C.3   1 <1>  -0.1600 
 17 O       -7.4550     1.2720    -1.4690 O.2   1 <1>  -0.5700 
 18 N       -7.5050    -0.7350    -0.4310 N.am  1 <1>  -0.6600 
 19 C       -6.9070    -1.7960     0.4330 C.3   1 <1>   0.1400 
 20 C       -8.7210    -1.1680    -1.1840 C.3   1 <1>   0.1400 
 21 C       -7.1860    -1.5250     1.9110 C.3   1 <1>  -0.2400 
 22 C       -9.9600    -1.0430    -0.3020 C.3   1 <1>  -0.2400 
 23 H        1.4240     1.6950     0.4830 H     1 <1>   0.1500 
 24 H       -2.5280     1.9950    -2.2150 H     1 <1>   0.0800 
 25 H       -3.1130     3.6200    -1.9540 H     1 <1>   0.0800 
 26 H        2.0910     4.0670     0.6740 H     1 <1>   0.1500 
 27 H        0.5470     5.8390    -0.1140 H     1 <1>   0.1500 
 28 H       -3.0790     1.5240     0.1010 H     1 <1>   0.4500 
 29 H       -4.5280     0.8580    -1.7140 H     1 <1>   0.0800 
 30 H       -5.3670     2.3790    -1.5630 H     1 <1>   0.0800 
 31 H       -4.4860     4.1190     0.0590 H     1 <1>   0.0800 
 32 H       -3.0560     3.7550     0.9960 H     1 <1>   0.0800 
 33 H       -5.2020     0.2180     0.5180 H     1 <1>   0.0800 
 34 H       -5.1130     3.5470     2.3440 H     1 <1>   0.0800 
 35 H       -4.2570     2.0410     2.2510 H     1 <1>   0.0800 
 36 H       -6.6570     1.6400     1.9090 H     1 <1>   0.0800 
 37 H       -6.7140     2.8420     0.6610 H     1 <1>   0.0800 
 38 H       -5.8480    -1.8620     0.2580 H     1 <1>   0.0800 
 39 H       -7.3290    -2.7530     0.1710 H     1 <1>   0.0800 
 40 H       -8.6060    -2.1850    -1.5190 H     1 <1>   0.0800 
 41 H       -8.8540    -0.5580    -2.0620 H     1 <1>   0.0800 
 42 H       -6.6780    -0.6440     2.2490 H     1 <1>   0.0800 
 43 H       -6.8340    -2.3550     2.4970 H     1 <1>   0.0800 
 44 H       -8.2400    -1.4160     2.0860 H     1 <1>   0.0800 
 45 H       -9.9190    -1.7380     0.5160 H     1 <1>   0.0800 
 46 H      -10.8370    -1.2620    -0.8840 H     1 <1>   0.0800 
 47 H      -10.0450    -0.0400     0.0760 H     1 <1>   0.0800 
@<TRIPOS>BOND
  1   1   2  1   
  2   2   3  ar  
  3   2   4  ar  
  4   3   5  ar  
  5   3   6  1   
  6   4   7  ar  
  7   4  23  1   
  8   5   8  1   
  9   5   9  ar  
 10   6  10  1   
 11   6  24  1   
 12   6  25  1   
 13   7   9  ar  
 14   7  26  1   
 15   9  27  1   
 16  10  11  1   
 17  10  12  1   
 18  10  28  1   
 19  11  13  1   
 20  11  29  1   
 21  11  30  1   
 22  12  14  1   
 23  12  31  1   
 24  12  32  1   
 25  13  15  1   
 26  13  16  1   
 27  13  33  1   
 28  14  16  1   
 29  14  34  1   
 30  14  35  1   
 31  15  17  2   
 32  15  18  am  
 33  16  36  1   
 34  16  37  1   
 35  18  19  1   
 36  18  20  1   
 37  19  21  1   
 38  19  38  1   
 39  19  39  1   
 40  20  22  1   
 41  20  40  1   
 42  20  41  1   
 43  21  42  1   
 44  21  43  1   
 45  21  44  1   
 46  22  45  1   
 47  22  46  1   
 48  22  47  1   
@<TRIPOS>SUBSTRUCTURE
  1 ****  10 GROUP 4 **** **** 0

# MOE 2024.06 (io_trps.svl 2023.06)
