@<TRIPOS>MOLECULE
NONAME
52 54 1 0 0 
SMALL
USER_CHARGES


@<TRIPOS>ATOM
  1 F        0.2030    -0.8800    -1.5230 F     1 <1>  -0.1900 
  2 C        1.3550    -1.3060    -1.0860 C.ar  1 <1>   0.1900 
  3 C        2.3680    -1.5480    -1.9940 C.ar  1 <1>  -0.1500 
  4 C        1.5260    -1.5030     0.2710 C.ar  1 <1>  -0.1500 
  5 C        3.5890    -1.9970    -1.5210 C.ar  1 <1>  -0.1500 
  6 C        2.7540    -1.9520     0.7250 C.ar  1 <1>  -0.1500 
  7 C        3.8110    -2.2000    -0.1550 C.ar  1 <1>   0.0860 
  8 C        5.0930    -2.6640     0.3430 C.2   1 <1>   0.5440 
  9 O        5.1230    -3.5840     1.1380 O.2   1 <1>  -0.5700 
 10 N        6.2820    -2.0840    -0.0470 N.am  1 <1>  -0.6600 
 11 C        6.4030    -0.6650    -0.5020 C.3   1 <1>   0.1400 
 12 C        7.6020    -2.7200     0.2610 C.3   1 <1>   0.1400 
 13 C        7.2010     0.1780     0.5100 C.3   1 <1>   0.1400 
 14 C        8.3720    -1.8930     1.2980 C.3   1 <1>   0.1400 
 15 N        8.5060    -0.4700     0.8510 N.am  1 <1>  -0.6600 
 16 C        9.7380     0.0920     0.5840 C.2   1 <1>   0.5440 
 17 O       10.6920    -0.6470     0.4240 O.2   1 <1>  -0.5700 
 18 C        9.9260     1.5260     0.4700 C.ar  1 <1>   0.0860 
 19 C        9.3360     2.4160     1.3640 C.ar  1 <1>  -0.1500 
 20 C       10.7180     2.0610    -0.5440 C.ar  1 <1>  -0.1500 
 21 C        9.4920     3.7840     1.2500 C.ar  1 <1>   0.0830 
 22 C       10.9120     3.4320    -0.6740 C.ar  1 <1>   0.0830 
 23 O        8.8210     4.5210     2.1790 O.3   1 <1>  -0.3630 
 24 C       10.3050     4.3040     0.2340 C.ar  1 <1>   0.0830 
 25 O       11.6840     3.9660    -1.6660 O.3   1 <1>  -0.3630 
 26 C        8.2720     5.7770     1.8390 C.3   1 <1>   0.0400 
 27 O       10.5170     5.6410     0.1230 O.3   1 <1>  -0.3630 
 28 C       12.3630     3.1540    -2.6000 C.3   1 <1>   0.0400 
 29 C       11.7560     6.1110     0.6050 C.3   1 <1>   0.0400 
 30 H        2.1950    -1.3910    -3.0440 H     1 <1>   0.1500 
 31 H        0.7140    -1.3120     0.9500 H     1 <1>   0.1500 
 32 H        4.3860    -2.2020    -2.2150 H     1 <1>   0.1500 
 33 H        2.9070    -2.1220     1.7780 H     1 <1>   0.1500 
 34 H        5.4330    -0.2210    -0.6310 H     1 <1>   0.0800 
 35 H        6.9070    -0.6440    -1.4530 H     1 <1>   0.0800 
 36 H        8.1850    -2.7840    -0.6410 H     1 <1>   0.0800 
 37 H        7.4650    -3.7200     0.6330 H     1 <1>   0.0800 
 38 H        6.6210     0.2920     1.4100 H     1 <1>   0.0800 
 39 H        7.3590     1.1550     0.0910 H     1 <1>   0.0800 
 40 H        9.3400    -2.3340     1.4590 H     1 <1>   0.0800 
 41 H        7.8410    -1.9220     2.2330 H     1 <1>   0.0800 
 42 H        8.7380     2.0310     2.1700 H     1 <1>   0.1500 
 43 H       11.1780     1.3670    -1.2210 H     1 <1>   0.1500 
 44 H        7.4870     6.0000     2.5380 H     1 <1>   0.0800 
 45 H        7.8770     5.7330     0.8400 H     1 <1>   0.0800 
 46 H        9.0430     6.5240     1.9100 H     1 <1>   0.0800 
 47 H       12.9150     3.7970    -3.2610 H     1 <1>   0.0800 
 48 H       11.6410     2.5880    -3.1610 H     1 <1>   0.0800 
 49 H       13.0390     2.5050    -2.0720 H     1 <1>   0.0800 
 50 H       11.7740     7.1800     0.4980 H     1 <1>   0.0800 
 51 H       12.5490     5.6710     0.0290 H     1 <1>   0.0800 
 52 H       11.8490     5.8390     1.6420 H     1 <1>   0.0800 
@<TRIPOS>BOND
  1   1   2  1   
  2   2   3  ar  
  3   2   4  ar  
  4   3   5  ar  
  5   3  30  1   
  6   4   6  ar  
  7   4  31  1   
  8   5   7  ar  
  9   5  32  1   
 10   6   7  ar  
 11   6  33  1   
 12   7   8  1   
 13   8   9  2   
 14   8  10  am  
 15  10  11  1   
 16  10  12  1   
 17  11  13  1   
 18  11  34  1   
 19  11  35  1   
 20  12  14  1   
 21  12  36  1   
 22  12  37  1   
 23  13  15  1   
 24  13  38  1   
 25  13  39  1   
 26  14  15  1   
 27  14  40  1   
 28  14  41  1   
 29  15  16  am  
 30  16  17  2   
 31  16  18  1   
 32  18  19  ar  
 33  18  20  ar  
 34  19  21  ar  
 35  19  42  1   
 36  20  22  ar  
 37  20  43  1   
 38  21  23  1   
 39  21  24  ar  
 40  22  24  ar  
 41  22  25  1   
 42  23  26  1   
 43  24  27  1   
 44  25  28  1   
 45  26  44  1   
 46  26  45  1   
 47  26  46  1   
 48  27  29  1   
 49  28  47  1   
 50  28  48  1   
 51  28  49  1   
 52  29  50  1   
 53  29  51  1   
 54  29  52  1   
@<TRIPOS>SUBSTRUCTURE
  1 ****  13 GROUP 4 **** **** 0

# MOE 2024.06 (io_trps.svl 2023.06)
