@<TRIPOS>MOLECULE
NONAME
46 48 1 0 0 
SMALL
USER_CHARGES


@<TRIPOS>ATOM
  1 CL       1.1430     1.0390     2.1990 Cl    1 <1>  -0.1770 
  2 C        2.7500     0.7500     1.5760 C.ar  1 <1>   0.1770 
  3 C        3.8470     1.0920     2.3450 C.ar  1 <1>  -0.1500 
  4 C        2.9000     0.1840     0.3230 C.ar  1 <1>  -0.1500 
  5 C        5.1180     0.8610     1.8470 C.ar  1 <1>  -0.1500 
  6 C        4.1750    -0.0420    -0.1650 C.ar  1 <1>  -0.1500 
  7 C        5.2930     0.2920     0.5880 C.ar  1 <1>   0.1000 
  8 N        6.5580     0.0510     0.0690 N.pl3 1 <1>  -0.8380 
  9 C        7.3660     1.2560    -0.2850 C.3   1 <1>   0.2090 
 10 C        7.3790    -0.9780     0.7710 C.3   1 <1>   0.2090 
 11 C        8.6340     0.8620    -1.0670 C.3   1 <1>   0.1100 
 12 C        8.6460    -1.3240    -0.0350 C.3   1 <1>   0.1100 
 13 N        9.4630    -0.1250    -0.3310 N.3   1 <1>  -0.8100 
 14 C       10.6760    -0.4950    -1.1230 C.3   1 <1>   0.1710 
 15 C       11.7190     0.6210    -1.2440 C.2   1 <1>   0.5690 
 16 O       12.4570     0.6470    -2.2000 O.2   1 <1>  -0.5700 
 17 N       11.7690     1.5520    -0.2600 N.am  1 <1>  -0.7300 
 18 C       12.6390     2.7320    -0.2050 C.3   1 <1>   0.2200 
 19 C       13.2270     2.8410     1.1960 C.3   1 <1>  -0.1600 
 20 C       11.7740     3.9810    -0.3190 C.3   1 <1>  -0.1600 
 21 C       12.1390     3.4970     2.0560 C.3   1 <1>  -0.1600 
 22 C       11.1930     4.2100     1.0810 C.3   1 <1>  -0.1600 
 23 H        3.7040     1.5300     3.3150 H     1 <1>   0.1500 
 24 H        2.0320    -0.0730    -0.2570 H     1 <1>   0.1500 
 25 H        5.9810     1.1200     2.4310 H     1 <1>   0.1500 
 26 H        4.3210    -0.4800    -1.1360 H     1 <1>   0.1500 
 27 H        7.6520     1.7760     0.6120 H     1 <1>   0.0800 
 28 H        6.7670     1.9190    -0.8840 H     1 <1>   0.0800 
 29 H        6.7880    -1.8670     0.9090 H     1 <1>   0.0800 
 30 H        7.6670    -0.6120     1.7410 H     1 <1>   0.0800 
 31 H        9.2080     1.7520    -1.2560 H     1 <1>   0.0800 
 32 H        8.3350     0.4530    -2.0170 H     1 <1>   0.0800 
 33 H        8.3480    -1.8000    -0.9540 H     1 <1>   0.0800 
 34 H        9.2340    -2.0250     0.5310 H     1 <1>   0.0800 
 35 H       10.3860    -0.8020    -2.1120 H     1 <1>   0.0800 
 36 H       11.1640    -1.3280    -0.6500 H     1 <1>   0.0800 
 37 H       11.0590     1.4790     0.4730 H     1 <1>   0.3700 
 38 H       13.3970     2.6820    -0.9710 H     1 <1>   0.0800 
 39 H       14.0810     3.4930     1.1560 H     1 <1>   0.0800 
 40 H       13.5420     1.8860     1.5790 H     1 <1>   0.0800 
 41 H       11.0170     3.8820    -1.0760 H     1 <1>   0.0800 
 42 H       12.4090     4.8110    -0.5740 H     1 <1>   0.0800 
 43 H       12.5740     4.1880     2.7580 H     1 <1>   0.0800 
 44 H       11.5980     2.7430     2.6010 H     1 <1>   0.0800 
 45 H       10.2120     3.7690     1.1440 H     1 <1>   0.0800 
 46 H       11.1170     5.2610     1.2990 H     1 <1>   0.0800 
@<TRIPOS>BOND
  1   1   2  1   
  2   2   3  ar  
  3   2   4  ar  
  4   3   5  ar  
  5   3  23  1   
  6   4   6  ar  
  7   4  24  1   
  8   5   7  ar  
  9   5  25  1   
 10   6   7  ar  
 11   6  26  1   
 12   7   8  1   
 13   8   9  1   
 14   8  10  1   
 15   9  11  1   
 16   9  27  1   
 17   9  28  1   
 18  10  12  1   
 19  10  29  1   
 20  10  30  1   
 21  11  13  1   
 22  11  31  1   
 23  11  32  1   
 24  12  13  1   
 25  12  33  1   
 26  12  34  1   
 27  13  14  1   
 28  14  15  1   
 29  14  35  1   
 30  14  36  1   
 31  15  16  2   
 32  15  17  am  
 33  17  18  1   
 34  17  37  1   
 35  18  19  1   
 36  18  20  1   
 37  18  38  1   
 38  19  21  1   
 39  19  39  1   
 40  19  40  1   
 41  20  22  1   
 42  20  41  1   
 43  20  42  1   
 44  21  22  1   
 45  21  43  1   
 46  21  44  1   
 47  22  45  1   
 48  22  46  1   
@<TRIPOS>SUBSTRUCTURE
  1 ****   9 GROUP 4 **** **** 0

# MOE 2024.06 (io_trps.svl 2023.06)
