@<TRIPOS>MOLECULE
NONAME
49 50 1 0 0 
SMALL
USER_CHARGES


@<TRIPOS>ATOM
  1 S       -0.1840     0.0270    -0.9740 S.o2  1 <1>   1.3330 
  2 O        0.0420     1.2650    -1.6840 O.2   1 <1>  -0.6500 
  3 O        0.0200    -1.2360    -1.6460 O.2   1 <1>  -0.6500 
  4 N       -1.7650     0.0630    -0.3650 N.am  1 <1>  -0.8490 
  5 C        0.7990     0.0140     0.5090 C.3   1 <1>  -0.1350 
  6 C       -2.7060    -0.6230    -1.2550 C.3   1 <1>   0.1960 
  7 C       -2.2070     1.4260    -0.0500 C.3   1 <1>   0.1960 
  8 C       -4.0940    -0.7020    -0.6130 C.3   1 <1>  -0.1600 
  9 C       -3.5690     1.3990     0.6440 C.3   1 <1>  -0.1600 
 10 C       -4.6160     0.6910    -0.2310 C.3   1 <1>  -0.0190 
 11 C       -5.9760     0.6060     0.4580 C.2   1 <1>   0.5690 
 12 O       -6.0460     0.1480     1.5720 O.2   1 <1>  -0.5700 
 13 N       -7.0600     1.0700    -0.2310 N.am  1 <1>  -0.5470 
 14 C       -8.3930     1.1710     0.1880 C.ar  1 <1>   0.1170 
 15 C       -8.9950     2.4320     0.3230 C.ar  1 <1>  -0.1440 
 16 C       -9.1420     0.0150     0.4370 C.ar  1 <1>  -0.1440 
 17 C      -10.3260     2.5010     0.7120 C.ar  1 <1>  -0.1500 
 18 C       -8.2760     3.7710     0.0860 C.3   1 <1>   0.0630 
 19 C      -10.4660     0.1190     0.8270 C.ar  1 <1>  -0.1500 
 20 C       -8.5510    -1.3830     0.2900 C.3   1 <1>  -0.0970 
 21 C      -11.0580     1.3580     0.9640 C.ar  1 <1>  -0.1500 
 22 C       -7.7540     3.9380    -1.3480 C.3   1 <1>  -0.2400 
 23 C       -7.1740     4.0260     1.1200 C.3   1 <1>  -0.2400 
 24 H        0.6220     0.9000     1.0840 H     1 <1>   0.0800 
 25 H        1.8400    -0.0320     0.2570 H     1 <1>   0.0800 
 26 H        0.5510    -0.8430     1.1050 H     1 <1>   0.0800 
 27 H       -2.3650    -1.6280    -1.4430 H     1 <1>   0.0800 
 28 H       -2.7570    -0.1050    -2.1990 H     1 <1>   0.0800 
 29 H       -2.2690     2.0090    -0.9550 H     1 <1>   0.0800 
 30 H       -1.4910     1.8990     0.6020 H     1 <1>   0.0800 
 31 H       -4.0330    -1.3220     0.2660 H     1 <1>   0.0800 
 32 H       -4.7760    -1.1730    -1.2980 H     1 <1>   0.0800 
 33 H       -3.8870     2.4060     0.8480 H     1 <1>   0.0800 
 34 H       -3.4700     0.8890     1.5870 H     1 <1>   0.0800 
 35 H       -4.7300     1.2620    -1.1350 H     1 <1>   0.0800 
 36 H       -6.8720     1.5420    -1.1100 H     1 <1>   0.3700 
 37 H      -10.8140     3.4520     0.8290 H     1 <1>   0.1500 
 38 H       -9.0000     4.5560     0.2250 H     1 <1>   0.0800 
 39 H      -11.0450    -0.7640     1.0280 H     1 <1>   0.1500 
 40 H       -7.9440    -1.4470    -0.5940 H     1 <1>   0.0800 
 41 H       -9.3270    -2.1230     0.2160 H     1 <1>   0.0800 
 42 H       -7.9450    -1.6120     1.1480 H     1 <1>   0.0800 
 43 H      -12.0880     1.4310     1.2670 H     1 <1>   0.1500 
 44 H       -6.8770     3.3470    -1.5260 H     1 <1>   0.0800 
 45 H       -7.4980     4.9680    -1.5220 H     1 <1>   0.0800 
 46 H       -8.5180     3.6560    -2.0500 H     1 <1>   0.0800 
 47 H       -6.3590     3.3390     1.0050 H     1 <1>   0.0800 
 48 H       -7.5750     3.9080     2.1120 H     1 <1>   0.0800 
 49 H       -6.7950     5.0270     1.0220 H     1 <1>   0.0800 
@<TRIPOS>BOND
  1   1   2  2   
  2   1   3  2   
  3   1   4  am  
  4   1   5  1   
  5   4   6  1   
  6   4   7  1   
  7   5  24  1   
  8   5  25  1   
  9   5  26  1   
 10   6   8  1   
 11   6  27  1   
 12   6  28  1   
 13   7   9  1   
 14   7  29  1   
 15   7  30  1   
 16   8  10  1   
 17   8  31  1   
 18   8  32  1   
 19   9  10  1   
 20   9  33  1   
 21   9  34  1   
 22  10  11  1   
 23  10  35  1   
 24  11  12  2   
 25  11  13  am  
 26  13  14  1   
 27  13  36  1   
 28  14  15  ar  
 29  14  16  ar  
 30  15  17  ar  
 31  15  18  1   
 32  16  19  ar  
 33  16  20  1   
 34  17  21  ar  
 35  17  37  1   
 36  18  22  1   
 37  18  23  1   
 38  18  38  1   
 39  19  21  ar  
 40  19  39  1   
 41  20  40  1   
 42  20  41  1   
 43  20  42  1   
 44  21  43  1   
 45  22  44  1   
 46  22  45  1   
 47  22  46  1   
 48  23  47  1   
 49  23  48  1   
 50  23  49  1   
@<TRIPOS>SUBSTRUCTURE
  1 ****  11 GROUP 4 **** **** 0

# MOE 2024.06 (io_trps.svl 2023.06)
