@<TRIPOS>MOLECULE
NONAME
31 32 1 0 0 
SMALL
USER_CHARGES


@<TRIPOS>ATOM
  1 F       -0.8900    -1.2360     1.2010 F     1 <1>  -0.1900 
  2 C       -0.3900    -2.2700     0.5790 C.ar  1 <1>   0.1900 
  3 C        0.9800    -2.4190     0.5250 C.ar  1 <1>  -0.1500 
  4 C       -1.2600    -3.1730    -0.0040 C.ar  1 <1>  -0.1500 
  5 C        1.5200    -3.5170    -0.1380 C.ar  1 <1>   0.1170 
  6 C       -0.7260    -4.2650    -0.6660 C.ar  1 <1>  -0.1500 
  7 N        2.9010    -3.7310    -0.2510 N.am  1 <1>  -0.5470 
  8 C        0.6490    -4.4290    -0.7300 C.ar  1 <1>  -0.1500 
  9 C        3.9360    -3.3070     0.5290 C.2   1 <1>   0.6900 
 10 O        3.7570    -2.7230     1.5780 O.2   1 <1>  -0.5700 
 11 N        5.1900    -3.5730     0.0940 N.am  1 <1>  -0.7300 
 12 C        6.4260    -3.1960     0.8000 C.3   1 <1>   0.2200 
 13 C        7.1720    -2.1630    -0.0350 C.3   1 <1>  -0.1600 
 14 C        7.3710    -4.3910     0.8050 C.3   1 <1>  -0.1600 
 15 C        7.9260    -2.9580    -1.1080 C.3   1 <1>  -0.1600 
 16 C        8.0580    -4.3880    -0.5660 C.3   1 <1>  -0.1600 
 17 H        1.6110    -1.6860     0.9920 H     1 <1>   0.1500 
 18 H       -2.3220    -3.0200     0.0620 H     1 <1>   0.1500 
 19 H       -1.3800    -4.9840    -1.1290 H     1 <1>   0.1500 
 20 H        3.1810    -4.3910    -0.9670 H     1 <1>   0.3700 
 21 H        1.0490    -5.2830    -1.2450 H     1 <1>   0.1500 
 22 H        5.3430    -3.9110    -0.8510 H     1 <1>   0.3700 
 23 H        6.2100    -2.8410     1.7950 H     1 <1>   0.0800 
 24 H        7.8870    -1.6680     0.5990 H     1 <1>   0.0800 
 25 H        6.5120    -1.4220    -0.4500 H     1 <1>   0.0800 
 26 H        6.8590    -5.3140     1.0140 H     1 <1>   0.0800 
 27 H        8.1130    -4.2310     1.5670 H     1 <1>   0.0800 
 28 H        8.8910    -2.5200    -1.3010 H     1 <1>   0.0800 
 29 H        7.3600    -2.9670    -2.0240 H     1 <1>   0.0800 
 30 H        7.5610    -5.0750    -1.2290 H     1 <1>   0.0800 
 31 H        9.0910    -4.6800    -0.4760 H     1 <1>   0.0800 
@<TRIPOS>BOND
  1   1   2  1   
  2   2   3  ar  
  3   2   4  ar  
  4   3   5  ar  
  5   3  17  1   
  6   4   6  ar  
  7   4  18  1   
  8   5   7  1   
  9   5   8  ar  
 10   6   8  ar  
 11   6  19  1   
 12   7   9  am  
 13   7  20  1   
 14   8  21  1   
 15   9  10  2   
 16   9  11  am  
 17  11  12  1   
 18  11  22  1   
 19  12  13  1   
 20  12  14  1   
 21  12  23  1   
 22  13  15  1   
 23  13  24  1   
 24  13  25  1   
 25  14  16  1   
 26  14  26  1   
 27  14  27  1   
 28  15  16  1   
 29  15  28  1   
 30  15  29  1   
 31  16  30  1   
 32  16  31  1   
@<TRIPOS>SUBSTRUCTURE
  1 ****   9 GROUP 4 **** **** 0

# MOE 2024.06 (io_trps.svl 2023.06)
