@<TRIPOS>MOLECULE
NONAME
58 60 1 0 0 
SMALL
USER_CHARGES


@<TRIPOS>ATOM
  1 O        0.2060    -1.0910    -0.7020 O.3   1 <1>  -0.3630 
  2 C       -1.0900    -1.4730    -0.8010 C.ar  1 <1>   0.0830 
  3 C        0.7420    -0.9120     0.5950 C.3   1 <1>   0.2640 
  4 C       -1.6020    -2.6320    -0.2090 C.ar  1 <1>   0.0830 
  5 C       -1.9330    -0.6550    -1.5330 C.ar  1 <1>  -0.1500 
  6 C        2.0150    -0.0850     0.5010 C.ar  1 <1>  -0.1440 
  7 O       -0.8360    -3.5110     0.4770 O.3   1 <1>  -0.3630 
  8 C       -2.9520    -2.9210    -0.3160 C.ar  1 <1>  -0.1500 
  9 C       -3.2800    -0.9550    -1.6470 C.ar  1 <1>  -0.1500 
 10 C        2.1770     1.0460     1.2880 C.ar  1 <1>  -0.1500 
 11 C        3.0320    -0.4570    -0.3650 C.ar  1 <1>  -0.1500 
 12 C        0.1010    -4.2490    -0.2800 C.3   1 <1>   0.0400 
 13 C       -3.8000    -2.0830    -1.0280 C.ar  1 <1>  -0.1430 
 14 C        3.3390     1.7940     1.2110 C.ar  1 <1>  -0.1500 
 15 C        4.1950     0.2890    -0.4440 C.ar  1 <1>  -0.1500 
 16 C       -5.2780    -2.4020    -1.1220 C.3   1 <1>   0.4860 
 17 C        4.3500     1.4150     0.3450 C.ar  1 <1>  -0.1500 
 18 N       -5.9000    -2.1080     0.2080 N.4   1 <1>  -0.9590 
 19 C       -7.2360    -2.7260     0.4700 C.3   1 <1>   0.4230 
 20 C       -5.8950    -0.6280     0.4680 C.3   1 <1>   0.2630 
 21 C       -7.1080    -4.2450     0.6140 C.3   1 <1>  -0.1600 
 22 C       -8.2730    -2.3800    -0.6070 C.3   1 <1>  -0.1600 
 23 C       -8.4660    -4.8710     0.9380 C.3   1 <1>   0.3430 
 24 C       -9.6230    -3.0200    -0.2760 C.3   1 <1>   0.3430 
 25 N       -9.4660    -4.4950    -0.1060 N.4   1 <1>  -0.9590 
 26 C      -10.7950    -5.1210     0.2070 C.3   1 <1>   0.2630 
 27 H        0.9620    -1.8750     1.0170 H     1 <1>   0.0800 
 28 H        0.0060    -0.4140     1.2000 H     1 <1>   0.0800 
 29 H       -1.5230     0.2200    -2.0070 H     1 <1>   0.1500 
 30 H       -3.3080    -3.8180     0.1590 H     1 <1>   0.1500 
 31 H       -3.9050    -0.2950    -2.2260 H     1 <1>   0.1500 
 32 H        1.3990     1.3530     1.9660 H     1 <1>   0.1500 
 33 H        2.9170    -1.3290    -0.9860 H     1 <1>   0.1500 
 34 H        0.6160    -4.9220     0.3830 H     1 <1>   0.0800 
 35 H        0.8050    -3.5760    -0.7360 H     1 <1>   0.0800 
 36 H       -0.4230    -4.8060    -1.0360 H     1 <1>   0.0800 
 37 H        3.4570     2.6700     1.8240 H     1 <1>   0.1500 
 38 H        4.9780    -0.0060    -1.1210 H     1 <1>   0.1500 
 39 H       -5.3910    -3.4430    -1.3730 H     1 <1>   0.0800 
 40 H       -5.7370    -1.8090    -1.8960 H     1 <1>   0.0800 
 41 H        5.2540     1.9960     0.2840 H     1 <1>   0.1500 
 42 H       -5.2310    -2.5010     0.8880 H     1 <1>   0.4500 
 43 H       -7.5990    -2.3430     1.4120 H     1 <1>   0.0800 
 44 H       -6.5100    -0.1120    -0.2520 H     1 <1>   0.0800 
 45 H       -4.8910    -0.2390     0.3990 H     1 <1>   0.0800 
 46 H       -6.2690    -0.4160     1.4580 H     1 <1>   0.0800 
 47 H       -6.4320    -4.4770     1.4180 H     1 <1>   0.0800 
 48 H       -6.7290    -4.6950    -0.2860 H     1 <1>   0.0800 
 49 H       -7.9610    -2.7230    -1.5770 H     1 <1>   0.0800 
 50 H       -8.4130    -1.3150    -0.6550 H     1 <1>   0.0800 
 51 H       -8.8040    -4.5280     1.9040 H     1 <1>   0.0800 
 52 H       -8.3680    -5.9450     0.9830 H     1 <1>   0.0800 
 53 H      -10.3250    -2.8140    -1.0700 H     1 <1>   0.0800 
 54 H      -10.0160    -2.5900     0.6330 H     1 <1>   0.0800 
 55 H       -9.1620    -4.8980    -1.0080 H     1 <1>   0.4500 
 56 H      -11.1790    -4.7470     1.1430 H     1 <1>   0.0800 
 57 H      -10.6990    -6.1930     0.2790 H     1 <1>   0.0800 
 58 H      -11.5090    -4.8970    -0.5700 H     1 <1>   0.0800 
@<TRIPOS>BOND
  1   1   2  1   
  2   1   3  1   
  3   2   4  ar  
  4   2   5  ar  
  5   3   6  1   
  6   3  27  1   
  7   3  28  1   
  8   4   7  1   
  9   4   8  ar  
 10   5   9  ar  
 11   5  29  1   
 12   6  10  ar  
 13   6  11  ar  
 14   7  12  1   
 15   8  13  ar  
 16   8  30  1   
 17   9  13  ar  
 18   9  31  1   
 19  10  14  ar  
 20  10  32  1   
 21  11  15  ar  
 22  11  33  1   
 23  12  34  1   
 24  12  35  1   
 25  12  36  1   
 26  13  16  1   
 27  14  17  ar  
 28  14  37  1   
 29  15  17  ar  
 30  15  38  1   
 31  16  18  1   
 32  16  39  1   
 33  16  40  1   
 34  17  41  1   
 35  18  19  1   
 36  18  20  1   
 37  18  42  1   
 38  19  21  1   
 39  19  22  1   
 40  19  43  1   
 41  20  44  1   
 42  20  45  1   
 43  20  46  1   
 44  21  23  1   
 45  21  47  1   
 46  21  48  1   
 47  22  24  1   
 48  22  49  1   
 49  22  50  1   
 50  23  25  1   
 51  23  51  1   
 52  23  52  1   
 53  24  25  1   
 54  24  53  1   
 55  24  54  1   
 56  25  26  1   
 57  25  55  1   
 58  26  56  1   
 59  26  57  1   
 60  26  58  1   
@<TRIPOS>SUBSTRUCTURE
  1 ****   8 GROUP 4 **** **** 0

# MOE 2024.06 (io_trps.svl 2023.06)
