@<TRIPOS>MOLECULE
NONAME
36 38 1 0 0 
SMALL
USER_CHARGES


@<TRIPOS>ATOM
  1 S       -0.0170     0.2410    -0.1170 S.3   1 <1>  -0.0800 
  2 C       -1.6050    -0.5090     0.0010 C.ar  1 <1>   0.2970 
  3 C        0.8240    -1.3360    -0.1120 C.2   1 <1>  -0.0450 
  4 N       -2.7130     0.2080     0.0550 N.ar  1 <1>  -0.5670 
  5 C       -1.4720    -1.8880     0.0270 C.ar  1 <1>   0.0000 
  6 C       -0.1050    -2.3370    -0.0630 C.2   1 <1>   0.0830 
  7 C        2.2510    -1.3380    -0.1350 C.2   1 <1>   0.7150 
  8 C       -3.8130    -0.5200     0.1530 C.ar  1 <1>   0.1670 
  9 C       -2.6450    -2.6200     0.1340 C.ar  1 <1>  -0.1500 
 10 N        0.1860    -3.6900    -0.1200 N.pl3 1 <1>  -0.8830 
 11 O        2.9180    -0.3680    -0.4380 O.2   1 <1>  -0.5700 
 12 N        2.9470    -2.4420     0.2170 N.am  1 <1>  -0.8000 
 13 C       -3.8330    -1.9190     0.1960 C.ar  1 <1>  -0.1430 
 14 C       -5.1050     0.2830     0.1990 C.3   1 <1>  -0.0170 
 15 C       -5.1340    -2.7030     0.3270 C.3   1 <1>  -0.0170 
 16 C       -6.3310    -0.5270     0.6410 C.3   1 <1>  -0.1600 
 17 C       -6.3740    -1.8870    -0.0730 C.3   1 <1>  -0.0800 
 18 C       -7.6520    -2.6850     0.2530 C.3   1 <1>  -0.1600 
 19 C       -8.9300    -2.0420    -0.3020 C.3   1 <1>  -0.2400 
 20 H       -2.6200    -3.6930     0.1720 H     1 <1>   0.1500 
 21 H       -0.5960    -4.3430    -0.2380 H     1 <1>   0.4000 
 22 H        1.0140    -3.9820    -0.6520 H     1 <1>   0.4000 
 23 H        3.9530    -2.3360     0.3400 H     1 <1>   0.3700 
 24 H        2.4860    -3.1600     0.7760 H     1 <1>   0.3700 
 25 H       -5.2780     0.6770    -0.7860 H     1 <1>   0.0800 
 26 H       -4.9760     1.1190     0.8640 H     1 <1>   0.0800 
 27 H       -5.2290    -3.0190     1.3510 H     1 <1>   0.0800 
 28 H       -5.0820    -3.5860    -0.2860 H     1 <1>   0.0800 
 29 H       -7.2110     0.0490     0.4230 H     1 <1>   0.0800 
 30 H       -6.2900    -0.6810     1.7050 H     1 <1>   0.0800 
 31 H       -6.3370    -1.7210    -1.1370 H     1 <1>   0.0800 
 32 H       -7.7490    -2.8020     1.3190 H     1 <1>   0.0800 
 33 H       -7.5660    -3.6690    -0.1740 H     1 <1>   0.0800 
 34 H       -9.1400    -1.1080     0.1870 H     1 <1>   0.0800 
 35 H       -9.7670    -2.6980    -0.1390 H     1 <1>   0.0800 
 36 H       -8.8370    -1.8690    -1.3600 H     1 <1>   0.0800 
@<TRIPOS>BOND
  1   1   2  1   
  2   1   3  1   
  3   2   4  ar  
  4   2   5  ar  
  5   3   6  2   
  6   3   7  1   
  7   4   8  ar  
  8   5   6  1   
  9   5   9  ar  
 10   6  10  1   
 11   7  11  2   
 12   7  12  am  
 13   8  13  ar  
 14   8  14  1   
 15   9  13  ar  
 16   9  20  1   
 17  10  21  1   
 18  10  22  1   
 19  12  23  1   
 20  12  24  1   
 21  13  15  1   
 22  14  16  1   
 23  14  25  1   
 24  14  26  1   
 25  15  17  1   
 26  15  27  1   
 27  15  28  1   
 28  16  17  1   
 29  16  29  1   
 30  16  30  1   
 31  17  18  1   
 32  17  31  1   
 33  18  19  1   
 34  18  32  1   
 35  18  33  1   
 36  19  34  1   
 37  19  35  1   
 38  19  36  1   
@<TRIPOS>SUBSTRUCTURE
  1 ****   5 GROUP 4 **** **** 0

# MOE 2024.06 (io_trps.svl 2023.06)
