@<TRIPOS>MOLECULE
NONAME
49 51 1 0 0 
SMALL
USER_CHARGES


@<TRIPOS>ATOM
  1 O        2.2990    -3.2700    -0.6030 O.2   1 <1>  -0.5700 
  2 C        2.6780    -4.3740    -0.2900 C.2   1 <1>   0.5690 
  3 N        1.8330    -5.3960     0.0620 N.am  1 <1>  -0.5470 
  4 C        4.2000    -4.6100    -0.2960 C.3   1 <1>   0.4040 
  5 C        0.4310    -5.4080     0.1670 C.ar  1 <1>   0.1170 
  6 N        5.0120    -3.3300    -0.2170 N.4   1 <1>  -0.9590 
  7 C       -0.2340    -6.6220     0.0230 C.ar  1 <1>  -0.1500 
  8 C       -0.3240    -4.2670     0.4290 C.ar  1 <1>  -0.1500 
  9 C        6.4520    -3.4670    -0.5790 C.3   1 <1>   0.4230 
 10 C        4.8110    -2.6720     1.1110 C.3   1 <1>   0.3430 
 11 C       -1.6110    -6.6960     0.1290 C.ar  1 <1>  -0.1500 
 12 C       -1.7020    -4.3350     0.5360 C.ar  1 <1>  -0.1500 
 13 C        7.1100    -2.0800    -0.5850 C.3   1 <1>  -0.1600 
 14 C        6.6000    -4.1080    -1.9590 C.3   1 <1>  -0.2400 
 15 C        5.4430    -1.2820     1.1130 C.3   1 <1>  -0.1600 
 16 C       -2.3510    -5.5530     0.3790 C.ar  1 <1>   0.0820 
 17 C        6.9290    -1.3410     0.7460 C.3   1 <1>  -0.1600 
 18 O       -3.7010    -5.6680     0.4820 O.3   1 <1>  -0.1650 
 19 C       -4.5450    -4.7440    -0.0440 C.ar  1 <1>   0.0820 
 20 C       -4.2580    -4.0620    -1.2220 C.ar  1 <1>  -0.1500 
 21 C       -5.7370    -4.4990     0.6200 C.ar  1 <1>  -0.1500 
 22 C       -5.1560    -3.1330    -1.7180 C.ar  1 <1>  -0.1500 
 23 C       -6.6340    -3.5710     0.1210 C.ar  1 <1>  -0.1500 
 24 C       -6.3430    -2.8870    -1.0480 C.ar  1 <1>  -0.1500 
 25 H        2.2450    -6.3160     0.2220 H     1 <1>   0.3700 
 26 H        4.4290    -5.1260    -1.2100 H     1 <1>   0.0800 
 27 H        4.4600    -5.2520     0.5270 H     1 <1>   0.0800 
 28 H        4.5790    -2.6910    -0.9020 H     1 <1>   0.4500 
 29 H        0.3200    -7.5210    -0.1760 H     1 <1>   0.1500 
 30 H        0.1540    -3.3140     0.5570 H     1 <1>   0.1500 
 31 H        6.9500    -4.0810     0.1540 H     1 <1>   0.0800 
 32 H        5.2600    -3.2700     1.8880 H     1 <1>   0.0800 
 33 H        3.7570    -2.5750     1.3210 H     1 <1>   0.0800 
 34 H       -2.1200    -7.6370     0.0170 H     1 <1>   0.1500 
 35 H       -2.2710    -3.4470     0.7460 H     1 <1>   0.1500 
 36 H        6.6970    -1.4860    -1.3830 H     1 <1>   0.0800 
 37 H        8.1630    -2.1870    -0.7800 H     1 <1>   0.0800 
 38 H        6.0170    -3.5840    -2.6960 H     1 <1>   0.0800 
 39 H        6.3250    -5.1460    -1.9440 H     1 <1>   0.0800 
 40 H        7.6320    -4.0670    -2.2640 H     1 <1>   0.0800 
 41 H        5.3350    -0.8470     2.0920 H     1 <1>   0.0800 
 42 H        4.9150    -0.6490     0.4210 H     1 <1>   0.0800 
 43 H        7.3270    -0.3430     0.6680 H     1 <1>   0.0800 
 44 H        7.4750    -1.8520     1.5220 H     1 <1>   0.0800 
 45 H       -3.3430    -4.2570    -1.7530 H     1 <1>   0.1500 
 46 H       -5.9570    -5.0360     1.5250 H     1 <1>   0.1500 
 47 H       -4.9320    -2.6030    -2.6280 H     1 <1>   0.1500 
 48 H       -7.5580    -3.3820     0.6390 H     1 <1>   0.1500 
 49 H       -7.0400    -2.1650    -1.4360 H     1 <1>   0.1500 
@<TRIPOS>BOND
  1   1   2  2   
  2   2   3  am  
  3   2   4  1   
  4   3   5  1   
  5   3  25  1   
  6   4   6  1   
  7   4  26  1   
  8   4  27  1   
  9   5   7  ar  
 10   5   8  ar  
 11   6   9  1   
 12   6  10  1   
 13   6  28  1   
 14   7  11  ar  
 15   7  29  1   
 16   8  12  ar  
 17   8  30  1   
 18   9  13  1   
 19   9  14  1   
 20   9  31  1   
 21  10  15  1   
 22  10  32  1   
 23  10  33  1   
 24  11  16  ar  
 25  11  34  1   
 26  12  16  ar  
 27  12  35  1   
 28  13  17  1   
 29  13  36  1   
 30  13  37  1   
 31  14  38  1   
 32  14  39  1   
 33  14  40  1   
 34  15  17  1   
 35  15  41  1   
 36  15  42  1   
 37  16  18  1   
 38  17  43  1   
 39  17  44  1   
 40  18  19  1   
 41  19  20  ar  
 42  19  21  ar  
 43  20  22  ar  
 44  20  45  1   
 45  21  23  ar  
 46  21  46  1   
 47  22  24  ar  
 48  22  47  1   
 49  23  24  ar  
 50  23  48  1   
 51  24  49  1   
@<TRIPOS>SUBSTRUCTURE
  1 ****   8 GROUP 4 **** **** 0

# MOE 2024.06 (io_trps.svl 2023.06)
