@<TRIPOS>MOLECULE
NONAME
42 43 1 0 0 
SMALL
USER_CHARGES


@<TRIPOS>ATOM
  1 BR       1.6450     2.2820    -1.8790 Br    1 <1>  -0.1110 
  2 C        2.9940     1.1660    -1.0770 C.ar  1 <1>   0.1110 
  3 C        3.7490     0.3450    -1.8930 C.ar  1 <1>  -0.1500 
  4 C        3.1730     1.2150     0.2920 C.ar  1 <1>  -0.1500 
  5 C        4.7200    -0.4570    -1.3160 C.ar  1 <1>  -0.1500 
  6 C        4.1450     0.4100     0.8590 C.ar  1 <1>  -0.1500 
  7 C        4.9220    -0.4240     0.0650 C.ar  1 <1>   0.0830 
  8 O        5.8520    -1.1740     0.7080 O.3   1 <1>  -0.3630 
  9 C        6.7470    -2.0060    -0.0010 C.3   1 <1>   0.1200 
 10 C        7.6870    -2.6820     1.0070 C.3   1 <1>   0.2000 
 11 O        8.2410    -1.6990     1.8330 O.3   1 <1>  -0.6800 
 12 C        8.8300    -3.4880     0.3460 C.3   1 <1>   0.3430 
 13 N       10.0500    -2.6380     0.1630 N.4   1 <1>  -0.9590 
 14 C       10.1090    -1.9710    -1.1650 C.3   1 <1>   0.3430 
 15 C       11.2850    -3.3690     0.5460 C.3   1 <1>   0.3430 
 16 C       10.7480    -0.5920    -1.0130 C.3   1 <1>  -0.1600 
 17 C       12.4760    -2.4260     0.7290 C.3   1 <1>  -0.1600 
 18 C       12.2860    -0.5730    -1.0590 C.3   1 <1>  -0.1600 
 19 C       13.0060    -1.8470    -0.5910 C.3   1 <1>  -0.1600 
 20 H        3.5760     0.3360    -2.9550 H     1 <1>   0.1500 
 21 H        2.5650     1.8660     0.8950 H     1 <1>   0.1500 
 22 H        5.2980    -1.0940    -1.9580 H     1 <1>   0.1500 
 23 H        4.3050     0.4270     1.9230 H     1 <1>   0.1500 
 24 H        7.2960    -1.3930    -0.6920 H     1 <1>   0.0800 
 25 H        6.1720    -2.7430    -0.5350 H     1 <1>   0.0800 
 26 H        7.1020    -3.3430     1.6240 H     1 <1>   0.0800 
 27 H        7.5110    -1.1280     2.1720 H     1 <1>   0.4000 
 28 H        8.5070    -3.9110    -0.5910 H     1 <1>   0.0800 
 29 H        9.0670    -4.3070     1.0060 H     1 <1>   0.0800 
 30 H        9.9080    -1.8930     0.8750 H     1 <1>   0.4500 
 31 H        9.1100    -1.8380    -1.5440 H     1 <1>   0.0800 
 32 H       10.6600    -2.5690    -1.8730 H     1 <1>   0.0800 
 33 H       11.5220    -4.1100    -0.2010 H     1 <1>   0.0800 
 34 H       11.1160    -3.8800     1.4800 H     1 <1>   0.0800 
 35 H       10.4040    -0.1350    -0.1010 H     1 <1>   0.0800 
 36 H       10.3950     0.0310    -1.8170 H     1 <1>   0.0800 
 37 H       13.2690    -3.0080     1.1670 H     1 <1>   0.0800 
 38 H       12.2410    -1.6430     1.4290 H     1 <1>   0.0800 
 39 H       12.6300     0.2590    -0.4670 H     1 <1>   0.0800 
 40 H       12.6000    -0.3760    -2.0710 H     1 <1>   0.0800 
 41 H       12.9660    -2.5970    -1.3630 H     1 <1>   0.0800 
 42 H       14.0470    -1.5980    -0.4610 H     1 <1>   0.0800 
@<TRIPOS>BOND
  1   1   2  1   
  2   2   3  ar  
  3   2   4  ar  
  4   3   5  ar  
  5   3  20  1   
  6   4   6  ar  
  7   4  21  1   
  8   5   7  ar  
  9   5  22  1   
 10   6   7  ar  
 11   6  23  1   
 12   7   8  1   
 13   8   9  1   
 14   9  10  1   
 15   9  24  1   
 16   9  25  1   
 17  10  11  1   
 18  10  12  1   
 19  10  26  1   
 20  11  27  1   
 21  12  13  1   
 22  12  28  1   
 23  12  29  1   
 24  13  14  1   
 25  13  15  1   
 26  13  30  1   
 27  14  16  1   
 28  14  31  1   
 29  14  32  1   
 30  15  17  1   
 31  15  33  1   
 32  15  34  1   
 33  16  18  1   
 34  16  35  1   
 35  16  36  1   
 36  17  19  1   
 37  17  37  1   
 38  17  38  1   
 39  18  19  1   
 40  18  39  1   
 41  18  40  1   
 42  19  41  1   
 43  19  42  1   
@<TRIPOS>SUBSTRUCTURE
  1 ****   9 GROUP 4 **** **** 0

# MOE 2024.06 (io_trps.svl 2023.06)
