@<TRIPOS>MOLECULE
NONAME
35 36 1 0 0 
SMALL
USER_CHARGES


@<TRIPOS>ATOM
  1 BR      -1.6700     1.2100     2.2370 Br    1 <1>  -0.1110 
  2 C       -0.7880     2.3800     0.9840 C.ar  1 <1>   0.1110 
  3 C       -1.2550     2.4660    -0.3200 C.ar  1 <1>  -0.1440 
  4 C        0.2940     3.1100     1.4360 C.ar  1 <1>  -0.1500 
  5 C       -0.5930     3.3170    -1.1940 C.ar  1 <1>  -0.1500 
  6 C       -2.4490     1.6540    -0.7800 C.3   1 <1>   0.4870 
  7 C        0.9380     3.9570     0.5520 C.ar  1 <1>  -0.1500 
  8 C        0.4950     4.0580    -0.7570 C.ar  1 <1>  -0.1500 
  9 N       -3.6890     2.2050    -0.1640 N.4   1 <1>  -0.9590 
 10 C       -4.8600     1.3220    -0.4150 C.3   1 <1>   0.3430 
 11 C       -3.9420     3.6190    -0.5650 C.3   1 <1>   0.3430 
 12 C       -6.0560     1.8260     0.3890 C.3   1 <1>  -0.1600 
 13 C       -5.1200     4.1690     0.2350 C.3   1 <1>  -0.1600 
 14 C       -6.3850     3.3010     0.0880 C.3   1 <1>  -0.0190 
 15 C       -7.4930     3.8040     1.0110 C.2   1 <1>   0.5690 
 16 O       -7.3190     3.7890     2.2000 O.2   1 <1>  -0.5700 
 17 N       -8.6510     4.2590     0.5020 N.am  1 <1>  -0.8000 
 18 H        0.6290     3.0180     2.4550 H     1 <1>   0.1500 
 19 H       -0.9060     3.4150    -2.2200 H     1 <1>   0.1500 
 20 H       -2.3120     0.6280    -0.4790 H     1 <1>   0.0800 
 21 H       -2.5210     1.6860    -1.8540 H     1 <1>   0.0800 
 22 H        1.7860     4.5360     0.8810 H     1 <1>   0.1500 
 23 H        1.0080     4.7170    -1.4400 H     1 <1>   0.1500 
 24 H       -3.5200     2.2130     0.8530 H     1 <1>   0.4500 
 25 H       -4.6320     0.3100    -0.1180 H     1 <1>   0.0800 
 26 H       -5.1020     1.3230    -1.4660 H     1 <1>   0.0800 
 27 H       -4.1620     3.6690    -1.6190 H     1 <1>   0.0800 
 28 H       -3.0690     4.2230    -0.3700 H     1 <1>   0.0800 
 29 H       -5.8470     1.7030     1.4390 H     1 <1>   0.0800 
 30 H       -6.9140     1.2160     0.1650 H     1 <1>   0.0800 
 31 H       -5.3340     5.1710    -0.0970 H     1 <1>   0.0800 
 32 H       -4.8380     4.2340     1.2720 H     1 <1>   0.0800 
 33 H       -6.7320     3.3730    -0.9270 H     1 <1>   0.0800 
 34 H       -9.3720     4.5880     1.1470 H     1 <1>   0.3700 
 35 H       -8.8860     4.3090    -0.4890 H     1 <1>   0.3700 
@<TRIPOS>BOND
  1   1   2  1   
  2   2   3  ar  
  3   2   4  ar  
  4   3   5  ar  
  5   3   6  1   
  6   4   7  ar  
  7   4  18  1   
  8   5   8  ar  
  9   5  19  1   
 10   6   9  1   
 11   6  20  1   
 12   6  21  1   
 13   7   8  ar  
 14   7  22  1   
 15   8  23  1   
 16   9  10  1   
 17   9  11  1   
 18   9  24  1   
 19  10  12  1   
 20  10  25  1   
 21  10  26  1   
 22  11  13  1   
 23  11  27  1   
 24  11  28  1   
 25  12  14  1   
 26  12  29  1   
 27  12  30  1   
 28  13  14  1   
 29  13  31  1   
 30  13  32  1   
 31  14  15  1   
 32  14  33  1   
 33  15  16  2   
 34  15  17  am  
 35  17  34  1   
 36  17  35  1   
@<TRIPOS>SUBSTRUCTURE
  1 ****   9 GROUP 4 **** **** 0

# MOE 2024.06 (io_trps.svl 2023.06)
