@<TRIPOS>MOLECULE
NONAME
53 54 1 0 0 
SMALL
USER_CHARGES


@<TRIPOS>ATOM
  1 O        3.5910    -0.9480     1.1240 O.2   1 <1>  -0.5700 
  2 C        2.6810    -0.9630     0.3230 C.2   1 <1>   0.5690 
  3 N        1.4010    -1.2950     0.6870 N.am  1 <1>  -0.6600 
  4 C        3.0440    -0.5950    -1.1150 C.3   1 <1>  -0.0190 
  5 C        0.1950    -1.0690    -0.1590 C.3   1 <1>   0.1400 
  6 C        1.1160    -1.7410     2.0820 C.3   1 <1>   0.1400 
  7 C        4.4050    -1.2310    -1.4460 C.3   1 <1>   0.3430 
  8 C        3.0470     0.9440    -1.3080 C.3   1 <1>  -0.1600 
  9 C       -0.2250    -2.3700    -0.8370 C.3   1 <1>  -0.2400 
 10 C        1.4800    -3.2160     2.2440 C.3   1 <1>  -0.2400 
 11 N        5.4890    -0.3800    -0.8870 N.4   1 <1>  -0.9590 
 12 C        4.2560     1.4210    -2.1320 C.3   1 <1>  -0.1600 
 13 C        5.5980     0.9650    -1.5360 C.3   1 <1>   0.3430 
 14 C        6.7920    -1.0830    -0.7700 C.3   1 <1>   0.4860 
 15 C        7.7950    -0.1660    -0.0940 C.ar  1 <1>  -0.1440 
 16 C        7.7240     0.1430     1.2620 C.ar  1 <1>  -0.1440 
 17 C        8.8060     0.3860    -0.8700 C.ar  1 <1>  -0.1500 
 18 C        8.6540     1.0140     1.8070 C.ar  1 <1>  -0.1500 
 19 C        6.6630    -0.4310     2.1950 C.3   1 <1>  -0.0970 
 20 C        9.7300     1.2490    -0.3110 C.ar  1 <1>  -0.1500 
 21 C        9.6550     1.5720     1.0310 C.ar  1 <1>  -0.1440 
 22 C       10.6650     2.5200     1.6520 C.3   1 <1>  -0.0970 
 23 H        2.3330    -1.0400    -1.7840 H     1 <1>   0.0800 
 24 H        0.3940    -0.3180    -0.9030 H     1 <1>   0.0800 
 25 H       -0.6140    -0.6990     0.4500 H     1 <1>   0.0800 
 26 H        0.0750    -1.5970     2.3170 H     1 <1>   0.0800 
 27 H        1.6930    -1.1510     2.7740 H     1 <1>   0.0800 
 28 H        4.5220    -1.3090    -2.5150 H     1 <1>   0.0800 
 29 H        4.4460    -2.2210    -1.0200 H     1 <1>   0.0800 
 30 H        3.0840     1.4290    -0.3460 H     1 <1>   0.0800 
 31 H        2.1320     1.2540    -1.7840 H     1 <1>   0.0800 
 32 H        0.5860    -2.7870    -1.4040 H     1 <1>   0.0800 
 33 H       -1.0470    -2.1800    -1.5040 H     1 <1>   0.0800 
 34 H       -0.5530    -3.0850    -0.1050 H     1 <1>   0.0800 
 35 H        0.9090    -3.8280     1.5710 H     1 <1>   0.0800 
 36 H        1.2670    -3.5290     3.2500 H     1 <1>   0.0800 
 37 H        2.5290    -3.3640     2.0620 H     1 <1>   0.0800 
 38 H        5.1930    -0.2090     0.0940 H     1 <1>   0.4500 
 39 H        4.2520     2.4960    -2.1970 H     1 <1>   0.0800 
 40 H        4.1750     1.0480    -3.1380 H     1 <1>   0.0800 
 41 H        6.3390     0.9410    -2.3180 H     1 <1>   0.0800 
 42 H        5.9270     1.6800    -0.7970 H     1 <1>   0.0800 
 43 H        7.1530    -1.3560    -1.7480 H     1 <1>   0.0800 
 44 H        6.6780    -1.9810    -0.1860 H     1 <1>   0.0800 
 45 H        8.8910     0.1520    -1.9170 H     1 <1>   0.1500 
 46 H        8.6050     1.2630     2.8540 H     1 <1>   0.1500 
 47 H        6.3650    -1.4210     1.9050 H     1 <1>   0.0800 
 48 H        5.7980     0.2080     2.2100 H     1 <1>   0.0800 
 49 H        7.0460    -0.4930     3.1990 H     1 <1>   0.0800 
 50 H       10.5100     1.6690    -0.9230 H     1 <1>   0.1500 
 51 H       11.0640     3.1880     0.9100 H     1 <1>   0.0800 
 52 H       11.4740     1.9570     2.0820 H     1 <1>   0.0800 
 53 H       10.2030     3.1080     2.4240 H     1 <1>   0.0800 
@<TRIPOS>BOND
  1   1   2  2   
  2   2   3  am  
  3   2   4  1   
  4   3   5  1   
  5   3   6  1   
  6   4   7  1   
  7   4   8  1   
  8   4  23  1   
  9   5   9  1   
 10   5  24  1   
 11   5  25  1   
 12   6  10  1   
 13   6  26  1   
 14   6  27  1   
 15   7  11  1   
 16   7  28  1   
 17   7  29  1   
 18   8  12  1   
 19   8  30  1   
 20   8  31  1   
 21   9  32  1   
 22   9  33  1   
 23   9  34  1   
 24  10  35  1   
 25  10  36  1   
 26  10  37  1   
 27  11  13  1   
 28  11  14  1   
 29  11  38  1   
 30  12  13  1   
 31  12  39  1   
 32  12  40  1   
 33  13  41  1   
 34  13  42  1   
 35  14  15  1   
 36  14  43  1   
 37  14  44  1   
 38  15  16  ar  
 39  15  17  ar  
 40  16  18  ar  
 41  16  19  1   
 42  17  20  ar  
 43  17  45  1   
 44  18  21  ar  
 45  18  46  1   
 46  19  47  1   
 47  19  48  1   
 48  19  49  1   
 49  20  21  ar  
 50  20  50  1   
 51  21  22  1   
 52  22  51  1   
 53  22  52  1   
 54  22  53  1   
@<TRIPOS>SUBSTRUCTURE
  1 ****  11 GROUP 4 **** **** 0

# MOE 2024.06 (io_trps.svl 2023.06)
