@<TRIPOS>MOLECULE
NONAME
25 25 1 0 0 
SMALL
USER_CHARGES


@<TRIPOS>ATOM
  1 S        0.1470    -0.1950    -0.4190 S.3   1 <1>  -0.4100 
  2 C       -1.3230    -0.9880     0.3080 C.3   1 <1>   0.2300 
  3 P       -1.8770    -2.3980    -0.7350 P.3   1 <1>   1.0390 
  4 C       -0.9100    -1.3390     1.7470 C.3   1 <1>  -0.2400 
  5 C       -2.3540     0.1510     0.3710 C.3   1 <1>  -0.2400 
  6 O       -3.1430    -2.9460    -0.1470 O.co2 1 <1>  -0.9500 
  7 O       -1.8480    -1.9470    -2.1660 O.co2 1 <1>  -0.9500 
  8 C       -0.5650    -3.6340    -0.4980 C.ar  1 <1>  -0.1390 
  9 C       -0.6770    -4.6400     0.4550 C.ar  1 <1>  -0.1500 
 10 C        0.6100    -3.6110    -1.2400 C.ar  1 <1>  -0.1500 
 11 C        0.3290    -5.5670     0.6710 C.ar  1 <1>  -0.1500 
 12 C        1.6280    -4.5280    -1.0390 C.ar  1 <1>  -0.1500 
 13 C        1.4890    -5.5110    -0.0780 C.ar  1 <1>  -0.1500 
 14 H       -0.1510    -0.4050    -1.7430 H     1 <1>   0.1800 
 15 H       -0.6130    -0.4610     2.2890 H     1 <1>   0.0800 
 16 H       -0.0900    -2.0340     1.7360 H     1 <1>   0.0800 
 17 H       -1.7390    -1.8020     2.2520 H     1 <1>   0.0800 
 18 H       -1.9810     0.9900     0.9270 H     1 <1>   0.0800 
 19 H       -3.2560    -0.2110     0.8320 H     1 <1>   0.0800 
 20 H       -2.5970     0.4660    -0.6290 H     1 <1>   0.0800 
 21 H       -1.5860    -4.6880     1.0320 H     1 <1>   0.1500 
 22 H        0.7140    -2.8500    -1.9960 H     1 <1>   0.1500 
 23 H        0.2000    -6.3290     1.4180 H     1 <1>   0.1500 
 24 H        2.5200    -4.4730    -1.6350 H     1 <1>   0.1500 
 25 H        2.2740    -6.2270     0.0840 H     1 <1>   0.1500 
@<TRIPOS>BOND
  1   1   2  1   
  2   1  14  1   
  3   2   3  1   
  4   2   4  1   
  5   2   5  1   
  6   3   6  ar  
  7   3   7  ar  
  8   3   8  1   
  9   4  15  1   
 10   4  16  1   
 11   4  17  1   
 12   5  18  1   
 13   5  19  1   
 14   5  20  1   
 15   8   9  ar  
 16   8  10  ar  
 17   9  11  ar  
 18   9  21  1   
 19  10  12  ar  
 20  10  22  1   
 21  11  13  ar  
 22  11  23  1   
 23  12  13  ar  
 24  12  24  1   
 25  13  25  1   
@<TRIPOS>SUBSTRUCTURE
  1 ****   8 GROUP 4 **** **** 0

# MOE 2024.06 (io_trps.svl 2023.06)
