@<TRIPOS>MOLECULE
NONAME
33 34 1 0 0 
SMALL
USER_CHARGES


@<TRIPOS>ATOM
  1 O       -0.8890    -0.1210     0.4090 O.2   1 <1>  -0.5700 
  2 C       -1.7830     0.6930     0.3000 C.2   1 <1>   0.7060 
  3 O       -3.0390     0.2530     0.2020 O.3   1 <1>  -0.2320 
  4 C       -1.5580     2.1020     0.2700 C.2   1 <1>  -0.1360 
  5 C       -4.0980     1.0860     0.0780 C.ar  1 <1>   0.0830 
  6 C       -2.5740     2.9850     0.1480 C.2   1 <1>  -0.1670 
  7 C       -3.9150     2.4770     0.0470 C.ar  1 <1>   0.0280 
  8 C       -5.3600     0.5260    -0.0170 C.ar  1 <1>  -0.1500 
  9 C       -2.3170     4.4850     0.1180 C.3   1 <1>  -0.1020 
 10 C       -5.0570     3.2720    -0.0820 C.ar  1 <1>  -0.1500 
 11 C       -6.4800     1.3350    -0.1450 C.ar  1 <1>   0.0830 
 12 C       -6.3220     2.7230    -0.1750 C.ar  1 <1>  -0.1430 
 13 O       -7.7370     0.8360    -0.2450 O.3   1 <1>  -0.3630 
 14 C       -7.5260     3.6490    -0.3140 C.3   1 <1>  -0.0170 
 15 C       -8.0000    -0.5470    -0.2630 C.3   1 <1>   0.1200 
 16 C       -7.9000     3.8320    -1.7870 C.3   1 <1>  -0.2400 
 17 C       -9.5060    -0.7370    -0.4120 C.3   1 <1>  -0.2400 
 18 H       -0.5320     2.4020     0.3510 H     1 <1>   0.1500 
 19 H       -5.4370    -0.5430     0.0130 H     1 <1>   0.1500 
 20 H       -2.8250     4.9640     0.9360 H     1 <1>   0.0800 
 21 H       -2.6700     4.9030    -0.8080 H     1 <1>   0.0800 
 22 H       -1.2660     4.6970     0.2040 H     1 <1>   0.0800 
 23 H       -4.9530     4.3400    -0.1120 H     1 <1>   0.1500 
 24 H       -7.3010     4.6080     0.1180 H     1 <1>   0.0800 
 25 H       -8.3650     3.2460     0.2260 H     1 <1>   0.0800 
 26 H       -7.6510    -0.9720     0.6630 H     1 <1>   0.0800 
 27 H       -7.4760    -0.9820    -1.0960 H     1 <1>   0.0800 
 28 H       -7.0730     4.2510    -2.3320 H     1 <1>   0.0800 
 29 H       -8.7460     4.4900    -1.8760 H     1 <1>   0.0800 
 30 H       -8.1550     2.8810    -2.2210 H     1 <1>   0.0800 
 31 H      -10.0190    -0.2830     0.4170 H     1 <1>   0.0800 
 32 H       -9.7410    -1.7860    -0.4300 H     1 <1>   0.0800 
 33 H       -9.8450    -0.2930    -1.3310 H     1 <1>   0.0800 
@<TRIPOS>BOND
  1   1   2  2   
  2   2   3  1   
  3   2   4  1   
  4   3   5  1   
  5   4   6  2   
  6   4  18  1   
  7   5   7  ar  
  8   5   8  ar  
  9   6   7  1   
 10   6   9  1   
 11   7  10  ar  
 12   8  11  ar  
 13   8  19  1   
 14   9  20  1   
 15   9  21  1   
 16   9  22  1   
 17  10  12  ar  
 18  10  23  1   
 19  11  12  ar  
 20  11  13  1   
 21  12  14  1   
 22  13  15  1   
 23  14  16  1   
 24  14  24  1   
 25  14  25  1   
 26  15  17  1   
 27  15  26  1   
 28  15  27  1   
 29  16  28  1   
 30  16  29  1   
 31  16  30  1   
 32  17  31  1   
 33  17  32  1   
 34  17  33  1   
@<TRIPOS>SUBSTRUCTURE
  1 ****   5 GROUP 4 **** **** 0

# MOE 2024.06 (io_trps.svl 2023.06)
