@<TRIPOS>MOLECULE
NONAME
34 35 1 0 0 
SMALL
USER_CHARGES


@<TRIPOS>ATOM
  1 BR      -1.1200     1.5770     0.2160 Br    1 <1>  -0.1110 
  2 C       -2.2630     0.0300     0.1910 C.ar  1 <1>   0.1110 
  3 C       -3.6300     0.2130     0.2240 C.ar  1 <1>  -0.1500 
  4 C       -1.6830    -1.2210     0.1410 C.ar  1 <1>  -0.1500 
  5 C       -4.4820    -0.8920     0.2010 C.ar  1 <1>   0.0860 
  6 C       -2.5130    -2.3270     0.1280 C.ar  1 <1>  -0.1500 
  7 C       -5.9220    -0.7130     0.2190 C.2   1 <1>   0.5440 
  8 C       -3.8890    -2.1610     0.1610 C.ar  1 <1>  -0.1500 
  9 O       -6.4130     0.2450     0.7750 O.2   1 <1>  -0.5700 
 10 N       -6.7250    -1.6200    -0.4290 N.am  1 <1>  -0.4940 
 11 C       -8.0920    -1.7850    -0.4710 C.2   1 <1>   0.4420 
 12 S       -9.1780    -0.8830     0.5440 S.3   1 <1>  -0.0800 
 13 N       -8.7150    -2.6150    -1.2250 N.2   1 <1>  -0.3380 
 14 C      -10.4740    -1.7580    -0.1950 C.2   1 <1>   0.1980 
 15 N      -10.0720    -2.5930    -1.0650 N.2   1 <1>  -0.3380 
 16 C      -11.8890    -1.4500     0.2490 C.3   1 <1>   0.0200 
 17 C      -12.3480    -0.1120    -0.3230 C.3   1 <1>   0.1200 
 18 O      -13.6440     0.1270     0.1200 O.3   1 <1>  -0.5600 
 19 C      -14.1880     1.3170    -0.3410 C.3   1 <1>   0.1200 
 20 C      -15.5960     1.4280     0.2290 C.3   1 <1>  -0.2400 
 21 H       -4.0370     1.2080     0.2670 H     1 <1>   0.1500 
 22 H       -0.6120    -1.3240     0.1160 H     1 <1>   0.1500 
 23 H       -2.0870    -3.3160     0.0960 H     1 <1>   0.1500 
 24 H       -4.5090    -3.0410     0.1670 H     1 <1>   0.1500 
 25 H       -6.2390    -2.2710    -1.0400 H     1 <1>   0.3700 
 26 H      -11.9270    -1.4200     1.3220 H     1 <1>   0.0800 
 27 H      -12.5420    -2.2280    -0.1020 H     1 <1>   0.0800 
 28 H      -12.3480    -0.1450    -1.4000 H     1 <1>   0.0800 
 29 H      -11.7130     0.6870     0.0200 H     1 <1>   0.0800 
 30 H      -14.2150     1.2950    -1.4180 H     1 <1>   0.0800 
 31 H      -13.5760     2.1360    -0.0020 H     1 <1>   0.0800 
 32 H      -16.1950     0.6000    -0.1040 H     1 <1>   0.0800 
 33 H      -16.0550     2.3410    -0.1050 H     1 <1>   0.0800 
 34 H      -15.5590     1.4350     1.3040 H     1 <1>   0.0800 
@<TRIPOS>BOND
  1   1   2  1   
  2   2   3  ar  
  3   2   4  ar  
  4   3   5  ar  
  5   3  21  1   
  6   4   6  ar  
  7   4  22  1   
  8   5   7  1   
  9   5   8  ar  
 10   6   8  ar  
 11   6  23  1   
 12   7   9  2   
 13   7  10  am  
 14   8  24  1   
 15  10  11  1   
 16  10  25  1   
 17  11  12  1   
 18  11  13  2   
 19  12  14  1   
 20  13  15  1   
 21  14  15  2   
 22  14  16  1   
 23  16  17  1   
 24  16  26  1   
 25  16  27  1   
 26  17  18  1   
 27  17  28  1   
 28  17  29  1   
 29  18  19  1   
 30  19  20  1   
 31  19  30  1   
 32  19  31  1   
 33  20  32  1   
 34  20  33  1   
 35  20  34  1   
@<TRIPOS>SUBSTRUCTURE
  1 ****  11 GROUP 4 **** **** 0

# MOE 2024.06 (io_trps.svl 2023.06)
