@<TRIPOS>MOLECULE
NONAME
31 32 1 0 0 
SMALL
USER_CHARGES


@<TRIPOS>ATOM
  1 CL      -1.5180     1.6880    -2.5270 Cl    1 <1>  -0.1770 
  2 C       -0.8430     2.4540    -1.1070 C.ar  1 <1>   0.1770 
  3 C       -1.5210     2.4520     0.1160 C.ar  1 <1>   0.0860 
  4 C        0.3970     3.0490    -1.2610 C.ar  1 <1>  -0.1500 
  5 C       -2.8260     1.8530     0.3240 C.2   1 <1>   0.5440 
  6 C       -0.8730     3.0740     1.1860 C.ar  1 <1>  -0.1500 
  7 C        1.0060     3.6620    -0.1820 C.ar  1 <1>  -0.1500 
  8 O       -3.0720     1.3010     1.3850 O.2   1 <1>  -0.5700 
  9 N       -3.8070     1.9120    -0.6270 N.am  1 <1>  -0.4300 
 10 C        0.3670     3.6710     1.0440 C.ar  1 <1>  -0.1500 
 11 N       -5.2210     1.5860    -0.4090 N.am  1 <1>  -0.4300 
 12 C       -6.2030     2.4650    -0.0730 C.2   1 <1>   0.5690 
 13 O       -6.0330     3.6690    -0.0830 O.2   1 <1>  -0.5700 
 14 C       -7.5760     1.9040     0.3190 C.3   1 <1>   0.2610 
 15 O       -7.6470     0.5100     0.1620 O.3   1 <1>  -0.5600 
 16 C       -8.7320     2.4210    -0.5310 C.3   1 <1>  -0.1600 
 17 C       -8.9770     0.1070     0.0940 C.3   1 <1>   0.1200 
 18 C       -9.7580     1.3000    -0.4560 C.3   1 <1>  -0.1600 
 19 H        0.8840     3.0290    -2.2200 H     1 <1>   0.1500 
 20 H       -1.3580     3.0870     2.1480 H     1 <1>   0.1500 
 21 H        1.9720     4.1270    -0.2940 H     1 <1>   0.1500 
 22 H       -3.5780     2.3060    -1.5460 H     1 <1>   0.3700 
 23 H        0.8370     4.1440     1.8910 H     1 <1>   0.1500 
 24 H       -5.4670     0.5890    -0.3440 H     1 <1>   0.3700 
 25 H       -7.7570     2.1190     1.3570 H     1 <1>   0.0800 
 26 H       -8.3980     2.5560    -1.5450 H     1 <1>   0.0800 
 27 H       -9.1060     3.3580    -0.1570 H     1 <1>   0.0800 
 28 H       -9.3020    -0.1470     1.0890 H     1 <1>   0.0800 
 29 H       -9.0440    -0.7550    -0.5470 H     1 <1>   0.0800 
 30 H      -10.1680     1.0780    -1.4250 H     1 <1>   0.0800 
 31 H      -10.5610     1.5490     0.2150 H     1 <1>   0.0800 
@<TRIPOS>BOND
  1   1   2  1   
  2   2   3  ar  
  3   2   4  ar  
  4   3   5  1   
  5   3   6  ar  
  6   4   7  ar  
  7   4  19  1   
  8   5   8  2   
  9   5   9  am  
 10   6  10  ar  
 11   6  20  1   
 12   7  10  ar  
 13   7  21  1   
 14   9  11  1   
 15   9  22  1   
 16  10  23  1   
 17  11  12  am  
 18  11  24  1   
 19  12  13  2   
 20  12  14  1   
 21  14  15  1   
 22  14  16  1   
 23  14  25  1   
 24  15  17  1   
 25  16  18  1   
 26  16  26  1   
 27  16  27  1   
 28  17  18  1   
 29  17  28  1   
 30  17  29  1   
 31  18  30  1   
 32  18  31  1   
@<TRIPOS>SUBSTRUCTURE
  1 ****   9 GROUP 4 **** **** 0

# MOE 2024.06 (io_trps.svl 2023.06)
