@<TRIPOS>MOLECULE
NONAME
48 51 1 0 0 
SMALL
USER_CHARGES


@<TRIPOS>ATOM
  1 S        0.3800     0.3260    -0.3080 S.3   1 <1>  -0.4600 
  2 C        0.0990    -1.3040    -1.1020 C.3   1 <1>   0.4320 
  3 C        1.9970     0.2730     0.5440 C.3   1 <1>   0.1310 
  4 C       -0.9980    -2.0850    -0.3770 C.ar  1 <1>  -0.1440 
  5 C        1.3540    -2.1360    -1.2310 C.2   1 <1>  -0.1240 
  6 C        2.1140    -0.8920     1.5180 C.2   1 <1>   0.5690 
  7 C       -1.2220    -1.9950     0.9920 C.ar  1 <1>  -0.1500 
  8 C       -1.7950    -2.9400    -1.1250 C.ar  1 <1>  -0.1500 
  9 C        1.6990    -2.7500    -2.4300 C.2   1 <1>   0.6160 
 10 C        2.2630    -2.5250    -0.2900 C.2   1 <1>   0.2090 
 11 O        2.0960    -0.6960     2.7050 O.2   1 <1>  -0.5700 
 12 N        2.3020    -2.1430     1.0340 N.am  1 <1>  -0.5390 
 13 C       -2.2210    -2.7410     1.5930 C.ar  1 <1>  -0.1500 
 14 C       -2.7940    -3.6860    -0.5240 C.ar  1 <1>  -0.1500 
 15 O        1.0890    -2.7340    -3.5070 O.2   1 <1>  -0.5700 
 16 N        2.8150    -3.4810    -2.2250 N.am  1 <1>  -0.4100 
 17 N        3.1760    -3.3680    -0.8450 N.pl3 1 <1>  -0.4890 
 18 C       -3.0110    -3.5920     0.8400 C.ar  1 <1>  -0.1430 
 19 C        4.6130    -3.5340    -0.4780 C.3   1 <1>   0.2890 
 20 C       -4.1070    -4.4080     1.5010 C.3   1 <1>  -0.0970 
 21 C        4.7640    -4.3480     0.8150 C.3   1 <1>  -0.1600 
 22 C        5.3310    -2.1790    -0.3830 C.3   1 <1>  -0.1600 
 23 C        6.2450    -4.5320     1.1790 C.3   1 <1>  -0.1600 
 24 C        6.8110    -2.3650    -0.0190 C.3   1 <1>  -0.1600 
 25 C        6.9650    -3.1790     1.2740 C.3   1 <1>  -0.1600 
 26 H       -0.2580    -1.0540    -2.0860 H     1 <1>   0.0800 
 27 H        2.0940     1.2020     1.0750 H     1 <1>   0.0800 
 28 H        2.7570     0.2140    -0.2130 H     1 <1>   0.0800 
 29 H       -0.6290    -1.3460     1.6110 H     1 <1>   0.1500 
 30 H       -1.6410    -3.0340    -2.1870 H     1 <1>   0.1500 
 31 H        2.4970    -2.8580     1.7320 H     1 <1>   0.3700 
 32 H       -2.3780    -2.6530     2.6530 H     1 <1>   0.1500 
 33 H       -3.4000    -4.3400    -1.1240 H     1 <1>   0.1500 
 34 H        2.8520    -4.3860    -2.7030 H     1 <1>   0.3700 
 35 H        5.0840    -4.0950    -1.2670 H     1 <1>   0.0800 
 36 H       -3.8420    -4.6380     2.5170 H     1 <1>   0.0800 
 37 H       -4.2580    -5.3320     0.9720 H     1 <1>   0.0800 
 38 H       -5.0260    -3.8500     1.4980 H     1 <1>   0.0800 
 39 H        4.3040    -5.3110     0.6860 H     1 <1>   0.0800 
 40 H        4.2760    -3.8430     1.6270 H     1 <1>   0.0800 
 41 H        4.8690    -1.5710     0.3720 H     1 <1>   0.0800 
 42 H        5.2550    -1.6700    -1.3280 H     1 <1>   0.0800 
 43 H        6.7250    -5.1390     0.4300 H     1 <1>   0.0800 
 44 H        6.3240    -5.0490     2.1200 H     1 <1>   0.0800 
 45 H        7.2760    -1.4020     0.1050 H     1 <1>   0.0800 
 46 H        7.3170    -2.8730    -0.8220 H     1 <1>   0.0800 
 47 H        8.0110    -3.3420     1.4740 H     1 <1>   0.0800 
 48 H        6.5590    -2.6180     2.0990 H     1 <1>   0.0800 
@<TRIPOS>BOND
  1   1   2  1   
  2   1   3  1   
  3   2   4  1   
  4   2   5  1   
  5   2  26  1   
  6   3   6  1   
  7   3  27  1   
  8   3  28  1   
  9   4   7  ar  
 10   4   8  ar  
 11   5   9  1   
 12   5  10  2   
 13   6  11  2   
 14   6  12  am  
 15   7  13  ar  
 16   7  29  1   
 17   8  14  ar  
 18   8  30  1   
 19   9  15  2   
 20   9  16  am  
 21  10  12  1   
 22  10  17  1   
 23  12  31  1   
 24  13  18  ar  
 25  13  32  1   
 26  14  18  ar  
 27  14  33  1   
 28  16  17  1   
 29  16  34  1   
 30  17  19  1   
 31  18  20  1   
 32  19  21  1   
 33  19  22  1   
 34  19  35  1   
 35  20  36  1   
 36  20  37  1   
 37  20  38  1   
 38  21  23  1   
 39  21  39  1   
 40  21  40  1   
 41  22  24  1   
 42  22  41  1   
 43  22  42  1   
 44  23  25  1   
 45  23  43  1   
 46  23  44  1   
 47  24  25  1   
 48  24  45  1   
 49  24  46  1   
 50  25  47  1   
 51  25  48  1   
@<TRIPOS>SUBSTRUCTURE
  1 ****  10 GROUP 4 **** **** 0

# MOE 2024.06 (io_trps.svl 2023.06)
