@<TRIPOS>MOLECULE
NONAME
35 36 1 0 0 
SMALL
USER_CHARGES


@<TRIPOS>ATOM
  1 S        0.0420    -0.5840    -1.1270 S.3   1 <1>  -0.4600 
  2 C        1.6380     0.1880    -1.5000 C.3   1 <1>   0.0700 
  3 C        0.5220    -2.2410    -0.5740 C.3   1 <1>   0.0700 
  4 C        2.5600     0.0450    -0.2820 C.3   1 <1>   0.3430 
  5 C        1.5660    -2.1120     0.5430 C.3   1 <1>   0.3430 
  6 N        2.8070    -1.3940     0.0930 N.4   1 <1>  -0.9590 
  7 C        3.8850    -1.5000     1.1130 C.3   1 <1>   0.4860 
  8 C        5.1780    -1.0190     0.4850 C.ar  1 <1>  -0.1430 
  9 C        5.8820    -1.7920    -0.4350 C.ar  1 <1>  -0.1430 
 10 C        5.6540     0.2370     0.8390 C.ar  1 <1>  -0.1500 
 11 C        7.0370    -1.2770    -1.0020 C.ar  1 <1>  -0.1500 
 12 C        5.4500    -3.1950    -0.8470 C.3   1 <1>  -0.0970 
 13 C        6.8080     0.7440     0.2690 C.ar  1 <1>  -0.1430 
 14 C        7.4960    -0.0200    -0.6560 C.ar  1 <1>  -0.1500 
 15 C        7.3300     2.1170     0.6550 C.3   1 <1>  -0.0970 
 16 H        1.4430     1.2230    -1.7190 H     1 <1>   0.0800 
 17 H        2.0460    -0.2930    -2.3710 H     1 <1>   0.0800 
 18 H        0.9040    -2.7760    -1.4240 H     1 <1>   0.0800 
 19 H       -0.3720    -2.7220    -0.2170 H     1 <1>   0.0800 
 20 H        2.1200     0.5690     0.5510 H     1 <1>   0.0800 
 21 H        3.4970     0.5240    -0.5170 H     1 <1>   0.0800 
 22 H        1.8250    -3.1020     0.8830 H     1 <1>   0.0800 
 23 H        1.1220    -1.5830     1.3720 H     1 <1>   0.0800 
 24 H        3.1830    -1.8550    -0.7450 H     1 <1>   0.4500 
 25 H        4.0040    -2.5230     1.4310 H     1 <1>   0.0800 
 26 H        3.6470    -0.9000     1.9770 H     1 <1>   0.0800 
 27 H        5.1320     0.8360     1.5650 H     1 <1>   0.1500 
 28 H        7.5980    -1.8510    -1.7190 H     1 <1>   0.1500 
 29 H        4.6750    -3.1470    -1.5910 H     1 <1>   0.0800 
 30 H        5.1060    -3.7600    -0.0010 H     1 <1>   0.0800 
 31 H        6.2810    -3.7310    -1.2710 H     1 <1>   0.0800 
 32 H        8.3970     0.3590    -1.1070 H     1 <1>   0.1500 
 33 H        6.5430     2.7300     1.0560 H     1 <1>   0.0800 
 34 H        7.7410     2.6150    -0.2050 H     1 <1>   0.0800 
 35 H        8.1030     2.0170     1.3960 H     1 <1>   0.0800 
@<TRIPOS>BOND
  1   1   2  1   
  2   1   3  1   
  3   2   4  1   
  4   2  16  1   
  5   2  17  1   
  6   3   5  1   
  7   3  18  1   
  8   3  19  1   
  9   4   6  1   
 10   4  20  1   
 11   4  21  1   
 12   5   6  1   
 13   5  22  1   
 14   5  23  1   
 15   6   7  1   
 16   6  24  1   
 17   7   8  1   
 18   7  25  1   
 19   7  26  1   
 20   8   9  ar  
 21   8  10  ar  
 22   9  11  ar  
 23   9  12  1   
 24  10  13  ar  
 25  10  27  1   
 26  11  14  ar  
 27  11  28  1   
 28  12  29  1   
 29  12  30  1   
 30  12  31  1   
 31  13  14  ar  
 32  13  15  1   
 33  14  32  1   
 34  15  33  1   
 35  15  34  1   
 36  15  35  1   
@<TRIPOS>SUBSTRUCTURE
  1 ****   8 GROUP 4 **** **** 0

# MOE 2024.06 (io_trps.svl 2023.06)
