@<TRIPOS>MOLECULE
NONAME
42 45 1 0 0 
SMALL
USER_CHARGES


@<TRIPOS>ATOM
  1 S       -0.0540     0.0020    -0.4810 S.3   1 <1>  -0.0800 
  2 C       -1.6540     0.7080    -0.2930 C.ar  1 <1>   0.2970 
  3 C        0.7030     1.5850    -0.7960 C.2   1 <1>  -0.0450 
  4 N       -2.6920    -0.0490    -0.0100 N.ar  1 <1>  -0.5670 
  5 C       -1.6020     2.0790    -0.4880 C.ar  1 <1>   0.0000 
  6 C       -0.2650     2.5510    -0.7730 C.2   1 <1>   0.0830 
  7 C        2.1120     1.6140    -1.0030 C.2   1 <1>   0.8050 
  8 C       -3.8240     0.6240     0.0950 C.ar  1 <1>   0.1660 
  9 C       -2.8160     2.7700    -0.3970 C.ar  1 <1>   0.0530 
 10 N       -0.0150     3.8870    -1.0130 N.pl3 1 <1>  -0.8830 
 11 O        2.7600     0.6670    -1.4080 O.2   1 <1>  -0.5700 
 12 O        2.8040     2.7320    -0.7510 O.3   1 <1>  -0.4300 
 13 C       -3.9410     2.0060    -0.0780 C.ar  1 <1>  -0.1430 
 14 C       -5.0270    -0.2430     0.4420 C.3   1 <1>  -0.0170 
 15 C       -2.9070     4.1850    -0.6420 C.2   1 <1>   0.0870 
 16 C        2.8030     3.2760     0.5540 C.3   1 <1>   0.0400 
 17 C       -5.2950     2.7080     0.0670 C.3   1 <1>  -0.0170 
 18 C       -6.3750     0.4470     0.2080 C.3   1 <1>  -0.1600 
 19 O       -2.4550     5.0530     0.2530 O.3   1 <1>  -0.2800 
 20 C       -3.4020     4.8730    -1.7060 C.2   1 <1>  -0.1500 
 21 C       -6.3470     1.8600     0.7870 C.3   1 <1>  -0.1600 
 22 C       -2.6500     6.2700    -0.2030 C.2   1 <1>  -0.0400 
 23 C       -3.2350     6.2280    -1.4190 C.2   1 <1>  -0.1500 
 24 C       -2.2220     7.4450     0.6490 C.3   1 <1>  -0.0600 
 25 H       -0.7600     4.5900    -0.8810 H     1 <1>   0.4000 
 26 H        0.8980     4.2480    -1.3120 H     1 <1>   0.4000 
 27 H       -4.9440    -0.5190     1.4780 H     1 <1>   0.0800 
 28 H       -4.9910    -1.1480    -0.1390 H     1 <1>   0.0800 
 29 H        3.2370     2.5560     1.2270 H     1 <1>   0.0800 
 30 H        1.7970     3.5070     0.8570 H     1 <1>   0.0800 
 31 H        3.3980     4.1710     0.5470 H     1 <1>   0.0800 
 32 H       -5.6560     2.9520    -0.9170 H     1 <1>   0.0800 
 33 H       -5.1760     3.6290     0.6110 H     1 <1>   0.0800 
 34 H       -7.1590    -0.1280     0.6700 H     1 <1>   0.0800 
 35 H       -6.5750     0.4940    -0.8490 H     1 <1>   0.0800 
 36 H       -3.8380     4.4690    -2.6020 H     1 <1>   0.1500 
 37 H       -7.3140     2.3210     0.6820 H     1 <1>   0.0800 
 38 H       -6.1130     1.8140     1.8380 H     1 <1>   0.0800 
 39 H       -3.5250     7.0450    -2.0550 H     1 <1>   0.1500 
 40 H       -1.1650     7.3940     0.8360 H     1 <1>   0.0800 
 41 H       -2.7440     7.4190     1.5890 H     1 <1>   0.0800 
 42 H       -2.4470     8.3690     0.1500 H     1 <1>   0.0800 
@<TRIPOS>BOND
  1   1   2  1   
  2   1   3  1   
  3   2   4  ar  
  4   2   5  ar  
  5   3   6  2   
  6   3   7  1   
  7   4   8  ar  
  8   5   6  1   
  9   5   9  ar  
 10   6  10  1   
 11   7  11  2   
 12   7  12  1   
 13   8  13  ar  
 14   8  14  1   
 15   9  13  ar  
 16   9  15  1   
 17  10  25  1   
 18  10  26  1   
 19  12  16  1   
 20  13  17  1   
 21  14  18  1   
 22  14  27  1   
 23  14  28  1   
 24  15  19  1   
 25  15  20  2   
 26  16  29  1   
 27  16  30  1   
 28  16  31  1   
 29  17  21  1   
 30  17  32  1   
 31  17  33  1   
 32  18  21  1   
 33  18  34  1   
 34  18  35  1   
 35  19  22  1   
 36  20  23  1   
 37  20  36  1   
 38  21  37  1   
 39  21  38  1   
 40  22  23  2   
 41  22  24  1   
 42  23  39  1   
 43  24  40  1   
 44  24  41  1   
 45  24  42  1   
@<TRIPOS>SUBSTRUCTURE
  1 ****   5 GROUP 4 **** **** 0

# MOE 2024.06 (io_trps.svl 2023.06)
