@<TRIPOS>MOLECULE
NONAME
43 44 1 0 0 
SMALL
USER_CHARGES


@<TRIPOS>ATOM
  1 S        0.3040     0.2270     1.0210 S.3   1 <1>  -0.3320 
  2 C        1.7390     1.0100     0.2560 C.ar  1 <1>   0.1020 
  3 C       -0.9240     1.5670     1.3420 C.3   1 <1>  -0.0100 
  4 C        2.7780     0.1810    -0.1260 C.ar  1 <1>  -0.1500 
  5 C        1.8120     2.3790     0.0510 C.ar  1 <1>  -0.1500 
  6 C        3.9060     0.7250    -0.7140 C.ar  1 <1>  -0.1500 
  7 C        2.9450     2.9140    -0.5370 C.ar  1 <1>  -0.1500 
  8 C        4.0050     2.0970    -0.9160 C.ar  1 <1>   0.1000 
  9 N        5.1510     2.6310    -1.4890 N.pl3 1 <1>  -0.8690 
 10 C        5.9460     3.5630    -0.6840 C.3   1 <1>   0.2890 
 11 C        6.3140     4.7580    -1.5550 C.3   1 <1>  -0.1600 
 12 C        7.1940     2.8480    -0.1800 C.3   1 <1>  -0.1600 
 13 C        7.2340     5.7080    -0.7970 C.3   1 <1>   0.3430 
 14 C        8.0990     3.8260     0.5630 C.3   1 <1>   0.3430 
 15 N        8.4480     4.9760    -0.3280 N.4   1 <1>  -0.9590 
 16 C        9.3950     5.9230     0.3260 C.3   1 <1>   0.3430 
 17 C       10.7880     5.2980     0.4380 C.3   1 <1>  -0.1600 
 18 C       11.7950     6.3080     1.0000 C.3   1 <1>  -0.2400 
 19 H       -1.7970     1.1110     1.7740 H     1 <1>   0.0800 
 20 H       -1.1620     2.0320     0.4020 H     1 <1>   0.0800 
 21 H       -0.4820     2.2670     2.0280 H     1 <1>   0.0800 
 22 H        2.6970    -0.8790     0.0350 H     1 <1>   0.1500 
 23 H        1.0090     3.0280     0.3370 H     1 <1>   0.1500 
 24 H        4.7100     0.0800    -1.0150 H     1 <1>   0.1500 
 25 H        3.0070     3.9710    -0.7150 H     1 <1>   0.1500 
 26 H        5.7250     1.9280    -1.9660 H     1 <1>   0.4000 
 27 H        5.3630     3.9010     0.1590 H     1 <1>   0.0800 
 28 H        5.4150     5.2810    -1.8300 H     1 <1>   0.0800 
 29 H        6.7960     4.4280    -2.4580 H     1 <1>   0.0800 
 30 H        7.7360     2.4100    -0.9980 H     1 <1>   0.0800 
 31 H        6.9020     2.0620     0.4930 H     1 <1>   0.0800 
 32 H        6.7060     6.1200     0.0480 H     1 <1>   0.0800 
 33 H        7.5190     6.5210    -1.4460 H     1 <1>   0.0800 
 34 H        8.9930     3.3110     0.8770 H     1 <1>   0.0800 
 35 H        7.5920     4.1870     1.4440 H     1 <1>   0.0800 
 36 H        8.9200     4.5970    -1.1610 H     1 <1>   0.4500 
 37 H        9.0350     6.1960     1.3050 H     1 <1>   0.0800 
 38 H        9.4720     6.8220    -0.2650 H     1 <1>   0.0800 
 39 H       11.1270     4.9840    -0.5340 H     1 <1>   0.0800 
 40 H       10.7680     4.4450     1.0930 H     1 <1>   0.0800 
 41 H       11.8730     7.1700     0.3600 H     1 <1>   0.0800 
 42 H       12.7700     5.8550     1.0710 H     1 <1>   0.0800 
 43 H       11.5050     6.6330     1.9850 H     1 <1>   0.0800 
@<TRIPOS>BOND
  1   1   2  1   
  2   1   3  1   
  3   2   4  ar  
  4   2   5  ar  
  5   3  19  1   
  6   3  20  1   
  7   3  21  1   
  8   4   6  ar  
  9   4  22  1   
 10   5   7  ar  
 11   5  23  1   
 12   6   8  ar  
 13   6  24  1   
 14   7   8  ar  
 15   7  25  1   
 16   8   9  1   
 17   9  10  1   
 18   9  26  1   
 19  10  11  1   
 20  10  12  1   
 21  10  27  1   
 22  11  13  1   
 23  11  28  1   
 24  11  29  1   
 25  12  14  1   
 26  12  30  1   
 27  12  31  1   
 28  13  15  1   
 29  13  32  1   
 30  13  33  1   
 31  14  15  1   
 32  14  34  1   
 33  14  35  1   
 34  15  16  1   
 35  15  36  1   
 36  16  17  1   
 37  16  37  1   
 38  16  38  1   
 39  17  18  1   
 40  17  39  1   
 41  17  40  1   
 42  18  41  1   
 43  18  42  1   
 44  18  43  1   
@<TRIPOS>SUBSTRUCTURE
  1 ****  10 GROUP 4 **** **** 0

# MOE 2024.06 (io_trps.svl 2023.06)
