@<TRIPOS>MOLECULE
NONAME
37 38 1 0 0 
SMALL
USER_CHARGES


@<TRIPOS>ATOM
  1 CL       2.2110    -2.2830    -1.5500 Cl    1 <1>  -0.1770 
  2 C        0.7130    -3.0800    -1.1190 C.ar  1 <1>   0.1770 
  3 C        0.6690    -3.9390    -0.0230 C.ar  1 <1>   0.0830 
  4 C       -0.4120    -2.8440    -1.8850 C.ar  1 <1>  -0.1500 
  5 O        1.7690    -4.1800     0.7230 O.3   1 <1>  -0.3630 
  6 C       -0.5170    -4.5820     0.3000 C.ar  1 <1>  -0.1500 
  7 C       -1.5870    -3.4870    -1.5420 C.ar  1 <1>   0.1770 
  8 C        2.1210    -3.1890     1.6820 C.3   1 <1>   0.1810 
  9 C       -1.6530    -4.3520    -0.4620 C.ar  1 <1>  -0.1500 
 10 CL      -3.0220    -3.2020    -2.4930 Cl    1 <1>  -0.1770 
 11 C        3.6240    -3.1670     1.9190 C.2   1 <1>   0.5690 
 12 O        4.0250    -2.7130     2.9620 O.2   1 <1>  -0.5700 
 13 N        4.4330    -3.6460     0.9370 N.am  1 <1>  -0.4930 
 14 C        5.8120    -3.7300     0.8540 C.2   1 <1>   0.5790 
 15 N        6.6760    -3.3010     1.7700 N.2   1 <1>  -0.2270 
 16 N        6.3470    -4.2560    -0.1800 N.2   1 <1>  -0.7070 
 17 N        7.8340    -3.5640     1.3050 N.2   1 <1>  -0.4180 
 18 N        7.6250    -4.1400     0.1340 N.pl3 1 <1>   0.5800 
 19 C        8.7140    -4.6060    -0.7470 C.3   1 <1>   0.0960 
 20 C        8.9980    -6.1020    -0.5380 C.3   1 <1>  -0.1600 
 21 C       10.1320    -6.5850    -1.4510 C.3   1 <1>  -0.1600 
 22 C       10.4080    -8.0760    -1.2380 C.3   1 <1>  -0.2400 
 23 H       -0.3760    -2.1790    -2.7280 H     1 <1>   0.1500 
 24 H       -0.5480    -5.2560     1.1380 H     1 <1>   0.1500 
 25 H        1.6100    -3.4170     2.6000 H     1 <1>   0.0800 
 26 H        1.8080    -2.2230     1.3300 H     1 <1>   0.0800 
 27 H       -2.5830    -4.8390    -0.2260 H     1 <1>   0.1500 
 28 H        3.9740    -4.0320     0.1170 H     1 <1>   0.3700 
 29 H        9.5920    -4.0280    -0.5290 H     1 <1>   0.0800 
 30 H        8.4220    -4.4220    -1.7640 H     1 <1>   0.0800 
 31 H        8.1050    -6.6650    -0.7500 H     1 <1>   0.0800 
 32 H        9.2720    -6.2700     0.4910 H     1 <1>   0.0800 
 33 H       11.0300    -6.0280    -1.2450 H     1 <1>   0.0800 
 34 H        9.8650    -6.4210    -2.4820 H     1 <1>   0.0800 
 35 H       10.7000    -8.2640    -0.2200 H     1 <1>   0.0800 
 36 H       11.2050    -8.3990    -1.8860 H     1 <1>   0.0800 
 37 H        9.5320    -8.6590    -1.4610 H     1 <1>   0.0800 
@<TRIPOS>BOND
  1   1   2  1   
  2   2   3  ar  
  3   2   4  ar  
  4   3   5  1   
  5   3   6  ar  
  6   4   7  ar  
  7   4  23  1   
  8   5   8  1   
  9   6   9  ar  
 10   6  24  1   
 11   7   9  ar  
 12   7  10  1   
 13   8  11  1   
 14   8  25  1   
 15   8  26  1   
 16   9  27  1   
 17  11  12  2   
 18  11  13  am  
 19  13  14  1   
 20  13  28  1   
 21  14  15  1   
 22  14  16  2   
 23  15  17  2   
 24  16  18  1   
 25  17  18  1   
 26  18  19  1   
 27  19  20  1   
 28  19  29  1   
 29  19  30  1   
 30  20  21  1   
 31  20  31  1   
 32  20  32  1   
 33  21  22  1   
 34  21  33  1   
 35  21  34  1   
 36  22  35  1   
 37  22  36  1   
 38  22  37  1   
@<TRIPOS>SUBSTRUCTURE
  1 ****  13 GROUP 4 **** **** 0

# MOE 2024.06 (io_trps.svl 2023.06)
