@<TRIPOS>MOLECULE
NONAME
49 51 1 0 0 
SMALL
USER_CHARGES


@<TRIPOS>ATOM
  1 O       -0.0480     1.8270    -1.5710 O.2   1 <1>  -0.5700 
  2 C       -0.2480     2.0870    -0.4020 C.2   1 <1>   0.5440 
  3 N        0.7410     1.8290     0.5050 N.am  1 <1>  -0.7300 
  4 C       -1.5100     2.6750     0.0120 C.ar  1 <1>   0.0860 
  5 C        2.0310     1.1590     0.1850 C.3   1 <1>   0.1400 
  6 C       -2.0720     2.4260     1.2650 C.ar  1 <1>  -0.1500 
  7 C       -2.2200     3.5130    -0.8470 C.ar  1 <1>  -0.1500 
  8 C        2.9950     2.1360    -0.4880 C.3   1 <1>   0.1200 
  9 C       -3.2820     2.9820     1.6390 C.ar  1 <1>  -0.1500 
 10 C       -3.4300     4.0740    -0.4820 C.ar  1 <1>  -0.1500 
 11 O        4.2560     1.5440    -0.5470 O.3   1 <1>  -0.5600 
 12 C       -3.9760     3.8050     0.7640 C.ar  1 <1>  -0.1430 
 13 C        5.2000     2.3040    -1.2290 C.3   1 <1>   0.0400 
 14 C       -5.3200     4.3910     1.1580 C.3   1 <1>   0.4860 
 15 N       -6.3800     3.7210     0.3610 N.4   1 <1>  -0.9590 
 16 C       -7.7110     4.3570     0.5500 C.3   1 <1>   0.4860 
 17 C       -6.4650     2.2520     0.6180 C.3   1 <1>   0.3430 
 18 C       -8.7410     3.6800    -0.3380 C.ar  1 <1>  -0.1430 
 19 C       -7.3120     1.5830    -0.4660 C.3   1 <1>  -0.0170 
 20 C       -8.5640     2.3800    -0.8030 C.ar  1 <1>  -0.1430 
 21 C       -9.8900     4.3790    -0.6810 C.ar  1 <1>  -0.1500 
 22 C       -9.5350     1.7980    -1.6020 C.ar  1 <1>  -0.1500 
 23 C      -10.8550     3.7910    -1.4790 C.ar  1 <1>  -0.1500 
 24 C      -10.6780     2.5000    -1.9390 C.ar  1 <1>  -0.1500 
 25 H        0.6560     2.1790     1.4600 H     1 <1>   0.3700 
 26 H        1.8490     0.3310    -0.4780 H     1 <1>   0.0800 
 27 H        2.4710     0.7880     1.0940 H     1 <1>   0.0800 
 28 H       -1.5540     1.7780     1.9520 H     1 <1>   0.1500 
 29 H       -1.8060     3.7200    -1.8210 H     1 <1>   0.1500 
 30 H        3.0750     3.0430     0.0840 H     1 <1>   0.0800 
 31 H        2.6610     2.3500    -1.4890 H     1 <1>   0.0800 
 32 H       -3.6740     2.7610     2.6190 H     1 <1>   0.1500 
 33 H       -3.9300     4.7200    -1.1840 H     1 <1>   0.1500 
 34 H        6.1330     1.7700    -1.2140 H     1 <1>   0.0800 
 35 H        5.3160     3.2530    -0.7370 H     1 <1>   0.0800 
 36 H        4.8760     2.4400    -2.2470 H     1 <1>   0.0800 
 37 H       -5.3160     5.4510     0.9570 H     1 <1>   0.0800 
 38 H       -5.4920     4.2430     2.2120 H     1 <1>   0.0800 
 39 H       -6.1420     3.8280    -0.6320 H     1 <1>   0.4500 
 40 H       -7.6590     5.4030     0.2960 H     1 <1>   0.0800 
 41 H       -8.0220     4.2690     1.5780 H     1 <1>   0.0800 
 42 H       -6.9160     2.0780     1.5820 H     1 <1>   0.0800 
 43 H       -5.4820     1.8080     0.6170 H     1 <1>   0.0800 
 44 H       -7.5870     0.5970    -0.1340 H     1 <1>   0.0800 
 45 H       -6.7190     1.4690    -1.3560 H     1 <1>   0.0800 
 46 H      -10.0540     5.3850    -0.3330 H     1 <1>   0.1500 
 47 H       -9.4120     0.7930    -1.9710 H     1 <1>   0.1500 
 48 H      -11.7460     4.3350    -1.7430 H     1 <1>   0.1500 
 49 H      -11.4290     2.0420    -2.5600 H     1 <1>   0.1500 
@<TRIPOS>BOND
  1   1   2  2   
  2   2   3  am  
  3   2   4  1   
  4   3   5  1   
  5   3  25  1   
  6   4   6  ar  
  7   4   7  ar  
  8   5   8  1   
  9   5  26  1   
 10   5  27  1   
 11   6   9  ar  
 12   6  28  1   
 13   7  10  ar  
 14   7  29  1   
 15   8  11  1   
 16   8  30  1   
 17   8  31  1   
 18   9  12  ar  
 19   9  32  1   
 20  10  12  ar  
 21  10  33  1   
 22  11  13  1   
 23  12  14  1   
 24  13  34  1   
 25  13  35  1   
 26  13  36  1   
 27  14  15  1   
 28  14  37  1   
 29  14  38  1   
 30  15  16  1   
 31  15  17  1   
 32  15  39  1   
 33  16  18  1   
 34  16  40  1   
 35  16  41  1   
 36  17  19  1   
 37  17  42  1   
 38  17  43  1   
 39  18  20  ar  
 40  18  21  ar  
 41  19  20  1   
 42  19  44  1   
 43  19  45  1   
 44  20  22  ar  
 45  21  23  ar  
 46  21  46  1   
 47  22  24  ar  
 48  22  47  1   
 49  23  24  ar  
 50  23  48  1   
 51  24  49  1   
@<TRIPOS>SUBSTRUCTURE
  1 ****  10 GROUP 4 **** **** 0

# MOE 2024.06 (io_trps.svl 2023.06)
