@<TRIPOS>MOLECULE
NONAME
45 47 1 0 0 
SMALL
USER_CHARGES


@<TRIPOS>ATOM
  1 CL      -2.3400    -0.1980    -1.6290 Cl    1 <1>  -0.1770 
  2 C       -2.0410    -1.6440    -0.6970 C.ar  1 <1>   0.1770 
  3 C       -2.7300    -1.9060     0.4770 C.ar  1 <1>  -0.0090 
  4 C       -1.0860    -2.5170    -1.1860 C.ar  1 <1>  -0.1500 
  5 S       -3.9810    -0.7660     1.1130 S.o2  1 <1>   1.4470 
  6 C       -2.4210    -3.0860     1.1500 C.ar  1 <1>  -0.1500 
  7 C       -0.8040    -3.6810    -0.4950 C.ar  1 <1>  -0.1500 
  8 O       -3.4070     0.5530     1.2610 O.2   1 <1>  -0.6500 
  9 O       -4.6360    -1.3710     2.2520 O.2   1 <1>  -0.6500 
 10 N       -5.1340    -0.7090    -0.1280 N.am  1 <1>  -0.8490 
 11 C       -1.4670    -3.9870     0.6870 C.ar  1 <1>  -0.0090 
 12 C       -6.0810    -1.8420    -0.0880 C.3   1 <1>   0.1960 
 13 C       -5.8780     0.5660    -0.1300 C.3   1 <1>   0.1960 
 14 S       -1.1150    -5.5250     1.5810 S.o2  1 <1>   1.2040 
 15 C       -7.0660    -1.8290    -1.2720 C.3   1 <1>   0.2090 
 16 C       -6.8900     0.6690    -1.2900 C.3   1 <1>   0.2090 
 17 O        0.2230    -5.9640     1.2590 O.2   1 <1>  -0.6500 
 18 O       -1.5240    -5.3750     2.9580 O.2   1 <1>  -0.6500 
 19 C       -2.2440    -6.6740     0.8190 C.3   1 <1>  -0.1350 
 20 N       -7.7820    -0.5270    -1.3890 N.pl3 1 <1>  -0.8380 
 21 C       -9.0670    -0.4410    -0.8650 C.ar  1 <1>   0.1000 
 22 C      -10.1560    -0.4630    -1.7260 C.ar  1 <1>  -0.1500 
 23 C       -9.3000    -0.3370     0.5020 C.ar  1 <1>  -0.1500 
 24 C      -11.4480    -0.3830    -1.2390 C.ar  1 <1>  -0.1500 
 25 C      -10.5900    -0.2570     0.9950 C.ar  1 <1>  -0.1500 
 26 C      -11.6670    -0.2800     0.1250 C.ar  1 <1>  -0.1500 
 27 H       -0.5670    -2.2810    -2.0990 H     1 <1>   0.1500 
 28 H       -2.9360    -3.3080     2.0730 H     1 <1>   0.1500 
 29 H       -0.0530    -4.3550    -0.8760 H     1 <1>   0.1500 
 30 H       -6.6490    -1.8170     0.8270 H     1 <1>   0.0800 
 31 H       -5.5340    -2.7680    -0.1090 H     1 <1>   0.0800 
 32 H       -5.1870     1.3860    -0.2230 H     1 <1>   0.0800 
 33 H       -6.4000     0.6850     0.8050 H     1 <1>   0.0800 
 34 H       -7.7850    -2.6210    -1.1490 H     1 <1>   0.0800 
 35 H       -6.5260    -2.0120    -2.1850 H     1 <1>   0.0800 
 36 H       -6.3500     0.7740    -2.2140 H     1 <1>   0.0800 
 37 H       -7.4900     1.5530    -1.1610 H     1 <1>   0.0800 
 38 H       -2.0430    -6.7570    -0.2320 H     1 <1>   0.0800 
 39 H       -3.2570    -6.3530     0.9570 H     1 <1>   0.0800 
 40 H       -2.1310    -7.6440     1.2640 H     1 <1>   0.0800 
 41 H       -9.9740    -0.5420    -2.7810 H     1 <1>   0.1500 
 42 H       -8.4690    -0.3210     1.1800 H     1 <1>   0.1500 
 43 H      -12.2810    -0.4020    -1.9190 H     1 <1>   0.1500 
 44 H      -10.7580    -0.1780     2.0550 H     1 <1>   0.1500 
 45 H      -12.6710    -0.2180     0.5060 H     1 <1>   0.1500 
@<TRIPOS>BOND
  1   1   2  1   
  2   2   3  ar  
  3   2   4  ar  
  4   3   5  1   
  5   3   6  ar  
  6   4   7  ar  
  7   4  27  1   
  8   5   8  2   
  9   5   9  2   
 10   5  10  am  
 11   6  11  ar  
 12   6  28  1   
 13   7  11  ar  
 14   7  29  1   
 15  10  12  1   
 16  10  13  1   
 17  11  14  1   
 18  12  15  1   
 19  12  30  1   
 20  12  31  1   
 21  13  16  1   
 22  13  32  1   
 23  13  33  1   
 24  14  17  2   
 25  14  18  2   
 26  14  19  1   
 27  15  20  1   
 28  15  34  1   
 29  15  35  1   
 30  16  20  1   
 31  16  36  1   
 32  16  37  1   
 33  19  38  1   
 34  19  39  1   
 35  19  40  1   
 36  20  21  1   
 37  21  22  ar  
 38  21  23  ar  
 39  22  24  ar  
 40  22  41  1   
 41  23  25  ar  
 42  23  42  1   
 43  24  26  ar  
 44  24  43  1   
 45  25  26  ar  
 46  25  44  1   
 47  26  45  1   
@<TRIPOS>SUBSTRUCTURE
  1 ****  12 GROUP 4 **** **** 0

# MOE 2024.06 (io_trps.svl 2023.06)
