@<TRIPOS>MOLECULE
NONAME
41 43 1 0 0 
SMALL
USER_CHARGES


@<TRIPOS>ATOM
  1 BR       0.3110    -0.0430    -1.4850 Br    1 <1>  -0.1110 
  2 C       -1.0240    -1.2650    -0.8340 C.ar  1 <1>   0.1110 
  3 C       -0.8880    -2.6080    -1.1270 C.ar  1 <1>  -0.1500 
  4 C       -2.0780    -0.7710    -0.0900 C.ar  1 <1>  -0.1500 
  5 C       -1.8390    -3.5000    -0.6520 C.ar  1 <1>  -0.1440 
  6 C       -3.0260    -1.6630     0.3790 C.ar  1 <1>  -0.1500 
  7 C       -2.9040    -3.0160     0.1010 C.ar  1 <1>  -0.1500 
  8 C       -1.7000    -4.9910    -0.9410 C.3   1 <1>   0.5020 
  9 N       -2.8810    -5.4260    -1.7100 N.am  1 <1>  -0.7300 
 10 C       -1.5020    -5.7990     0.3430 C.2   1 <1>  -0.1240 
 11 C       -3.7250    -6.3910    -1.3070 C.2   1 <1>   0.6900 
 12 C       -2.3750    -6.7900     0.6590 C.2   1 <1>  -0.0290 
 13 C       -0.3750    -5.3610     1.1060 C.2   1 <1>   0.6160 
 14 O       -4.7260    -6.6370    -1.9380 O.2   1 <1>  -0.5700 
 15 N       -3.4430    -7.0740    -0.1700 N.am  1 <1>  -0.5390 
 16 C       -2.2960    -7.6650     1.9000 C.3   1 <1>  -0.1020 
 17 O       -0.5010    -5.0920     2.2870 O.2   1 <1>  -0.5700 
 18 N        0.8680    -5.2110     0.5350 N.am  1 <1>  -0.6600 
 19 C        1.8850    -4.3040     1.1380 C.3   1 <1>   0.1400 
 20 C        1.4490    -6.1720    -0.4460 C.3   1 <1>   0.1400 
 21 C        2.7520    -3.6640     0.0400 C.3   1 <1>   0.1200 
 22 C        2.3270    -5.4270    -1.4660 C.3   1 <1>   0.1200 
 23 O        3.2840    -4.6410    -0.8130 O.3   1 <1>  -0.5600 
 24 H       -0.0470    -2.9370    -1.7100 H     1 <1>   0.1500 
 25 H       -2.1520     0.2810     0.1170 H     1 <1>   0.1500 
 26 H       -3.8580    -1.3090     0.9650 H     1 <1>   0.1500 
 27 H       -3.6460    -3.7010     0.4800 H     1 <1>   0.1500 
 28 H       -0.8440    -5.1390    -1.5730 H     1 <1>   0.0800 
 29 H       -3.2100    -4.8000    -2.4410 H     1 <1>   0.3700 
 30 H       -4.1320    -7.7880     0.0650 H     1 <1>   0.3700 
 31 H       -3.1430    -7.4750     2.5340 H     1 <1>   0.0800 
 32 H       -1.4030    -7.4740     2.4660 H     1 <1>   0.0800 
 33 H       -2.2960    -8.7030     1.6200 H     1 <1>   0.0800 
 34 H        2.5110    -4.8660     1.8090 H     1 <1>   0.0800 
 35 H        1.3970    -3.5300     1.7060 H     1 <1>   0.0800 
 36 H        0.6740    -6.7170    -0.9540 H     1 <1>   0.0800 
 37 H        2.0590    -6.8840     0.0830 H     1 <1>   0.0800 
 38 H        3.5750    -3.1320     0.4830 H     1 <1>   0.0800 
 39 H        2.1720    -2.9720    -0.5450 H     1 <1>   0.0800 
 40 H        1.7300    -4.7910    -2.0940 H     1 <1>   0.0800 
 41 H        2.8530    -6.1310    -2.0860 H     1 <1>   0.0800 
@<TRIPOS>BOND
  1   1   2  1   
  2   2   3  ar  
  3   2   4  ar  
  4   3   5  ar  
  5   3  24  1   
  6   4   6  ar  
  7   4  25  1   
  8   5   7  ar  
  9   5   8  1   
 10   6   7  ar  
 11   6  26  1   
 12   7  27  1   
 13   8   9  1   
 14   8  10  1   
 15   8  28  1   
 16   9  11  am  
 17   9  29  1   
 18  10  12  2   
 19  10  13  1   
 20  11  14  2   
 21  11  15  am  
 22  12  15  1   
 23  12  16  1   
 24  13  17  2   
 25  13  18  am  
 26  15  30  1   
 27  16  31  1   
 28  16  32  1   
 29  16  33  1   
 30  18  19  1   
 31  18  20  1   
 32  19  21  1   
 33  19  34  1   
 34  19  35  1   
 35  20  22  1   
 36  20  36  1   
 37  20  37  1   
 38  21  23  1   
 39  21  38  1   
 40  21  39  1   
 41  22  23  1   
 42  22  40  1   
 43  22  41  1   
@<TRIPOS>SUBSTRUCTURE
  1 ****   8 GROUP 4 **** **** 0

# MOE 2024.06 (io_trps.svl 2023.06)
