@<TRIPOS>MOLECULE
NONAME
46 47 1 0 0 
SMALL
USER_CHARGES


@<TRIPOS>ATOM
  1 CL       1.1070     2.3000     3.6210 Cl    1 <1>  -0.1770 
  2 C        2.2000     2.4230     2.2680 C.ar  1 <1>   0.1770 
  3 C        1.7680     3.0110     1.0950 C.ar  1 <1>  -0.1500 
  4 C        3.4860     1.9320     2.3850 C.ar  1 <1>  -0.1500 
  5 C        2.6420     3.1070     0.0250 C.ar  1 <1>  -0.1500 
  6 C        4.3490     2.0350     1.3070 C.ar  1 <1>  -0.1500 
  7 C        3.9460     2.6250     0.1120 C.ar  1 <1>  -0.0090 
  8 S        5.0890     2.7510    -1.2940 S.o2  1 <1>   1.4470 
  9 O        5.3730     1.4220    -1.7890 O.2   1 <1>  -0.6500 
 10 O        4.6340     3.7680    -2.2180 O.2   1 <1>  -0.6500 
 11 N        6.5110     3.3430    -0.5840 N.am  1 <1>  -0.8490 
 12 C        6.3890     4.7540    -0.2030 C.3   1 <1>   0.1960 
 13 C        7.6750     3.1160    -1.4450 C.3   1 <1>   0.1960 
 14 C        7.6260     5.2000     0.5780 C.3   1 <1>  -0.1600 
 15 C        8.9610     3.5180    -0.7170 C.3   1 <1>  -0.1600 
 16 C        8.9080     4.9790    -0.2420 C.3   1 <1>  -0.0190 
 17 C       10.1610     5.3540     0.5470 C.2   1 <1>   0.5690 
 18 O       10.3460     4.8440     1.6260 O.2   1 <1>  -0.5700 
 19 N       11.0200     6.2510    -0.0100 N.am  1 <1>  -0.7300 
 20 C       12.2820     6.7680     0.5290 C.3   1 <1>   0.3000 
 21 C       13.2700     5.6190     0.7250 C.3   1 <1>  -0.2400 
 22 C       12.8300     7.7440    -0.5100 C.3   1 <1>  -0.2400 
 23 C       12.0190     7.5100     1.8400 C.3   1 <1>  -0.2400 
 24 H        0.7620     3.3850     1.0240 H     1 <1>   0.1500 
 25 H        3.8030     1.4760     3.3060 H     1 <1>   0.1500 
 26 H        2.3080     3.5640    -0.8930 H     1 <1>   0.1500 
 27 H        5.3540     1.6520     1.3900 H     1 <1>   0.1500 
 28 H        5.5190     4.8900     0.4180 H     1 <1>   0.0800 
 29 H        6.2710     5.3650    -1.0840 H     1 <1>   0.0800 
 30 H        7.5690     3.6790    -2.3580 H     1 <1>   0.0800 
 31 H        7.7420     2.0710    -1.7010 H     1 <1>   0.0800 
 32 H        7.6770     4.6400     1.4960 H     1 <1>   0.0800 
 33 H        7.5350     6.2400     0.8330 H     1 <1>   0.0800 
 34 H        9.8010     3.3790    -1.3740 H     1 <1>   0.0800 
 35 H        9.0970     2.8660     0.1290 H     1 <1>   0.0800 
 36 H        8.8560     5.6090    -1.1120 H     1 <1>   0.0800 
 37 H       10.7980     6.6330    -0.9260 H     1 <1>   0.3700 
 38 H       12.9170     4.9380     1.4780 H     1 <1>   0.0800 
 39 H       14.2220     6.0000     1.0460 H     1 <1>   0.0800 
 40 H       13.4110     5.0800    -0.1940 H     1 <1>   0.0800 
 41 H       13.0120     7.2410    -1.4440 H     1 <1>   0.0800 
 42 H       13.7610     8.1590    -0.1690 H     1 <1>   0.0800 
 43 H       12.1420     8.5540    -0.6700 H     1 <1>   0.0800 
 44 H       12.9270     7.9580     2.1990 H     1 <1>   0.0800 
 45 H       11.2890     8.2850     1.6960 H     1 <1>   0.0800 
 46 H       11.6650     6.8320     2.5960 H     1 <1>   0.0800 
@<TRIPOS>BOND
  1   1   2  1   
  2   2   3  ar  
  3   2   4  ar  
  4   3   5  ar  
  5   3  24  1   
  6   4   6  ar  
  7   4  25  1   
  8   5   7  ar  
  9   5  26  1   
 10   6   7  ar  
 11   6  27  1   
 12   7   8  1   
 13   8   9  2   
 14   8  10  2   
 15   8  11  am  
 16  11  12  1   
 17  11  13  1   
 18  12  14  1   
 19  12  28  1   
 20  12  29  1   
 21  13  15  1   
 22  13  30  1   
 23  13  31  1   
 24  14  16  1   
 25  14  32  1   
 26  14  33  1   
 27  15  16  1   
 28  15  34  1   
 29  15  35  1   
 30  16  17  1   
 31  16  36  1   
 32  17  18  2   
 33  17  19  am  
 34  19  20  1   
 35  19  37  1   
 36  20  21  1   
 37  20  22  1   
 38  20  23  1   
 39  21  38  1   
 40  21  39  1   
 41  21  40  1   
 42  22  41  1   
 43  22  42  1   
 44  22  43  1   
 45  23  44  1   
 46  23  45  1   
 47  23  46  1   
@<TRIPOS>SUBSTRUCTURE
  1 ****  12 GROUP 4 **** **** 0

# MOE 2024.06 (io_trps.svl 2023.06)
