@<TRIPOS>MOLECULE
NONAME
39 40 1 0 0 
SMALL
USER_CHARGES


@<TRIPOS>ATOM
  1 O        0.0540     0.2350    -0.2810 O.3   1 <1>  -0.3630 
  2 C       -1.1990    -0.2840    -0.2010 C.ar  1 <1>   0.0830 
  3 C        0.2860     1.6080    -0.0720 C.3   1 <1>   0.1200 
  4 C       -1.3230    -1.6460    -0.4220 C.ar  1 <1>  -0.1500 
  5 C       -2.3360     0.4690     0.0850 C.ar  1 <1>  -0.1500 
  6 C        1.7860     1.8610    -0.2300 C.3   1 <1>  -0.1600 
  7 C       -2.5630    -2.2550    -0.3600 C.ar  1 <1>  -0.1500 
  8 C       -3.5770    -0.1410     0.1470 C.ar  1 <1>  -0.1500 
  9 C        2.1250     3.3420    -0.0130 C.3   1 <1>  -0.1600 
 10 C       -3.6970    -1.5110    -0.0760 C.ar  1 <1>   0.0830 
 11 C        3.6300     3.5940    -0.1700 C.3   1 <1>   0.0960 
 12 O       -4.8750    -2.1860    -0.0340 O.3   1 <1>  -0.3630 
 13 N        3.9350     5.0210     0.0480 N.pl3 1 <1>   0.0480 
 14 C       -6.0850    -1.5230     0.2460 C.3   1 <1>   0.1200 
 15 C        4.2850     5.6270     1.2050 C.2   1 <1>   0.0360 
 16 C        3.9130     6.0110    -0.8620 C.2   1 <1>  -0.3020 
 17 C       -7.2060    -2.5560     0.2180 C.3   1 <1>  -0.2400 
 18 N        4.4820     6.9010     1.0940 N.2   1 <1>  -0.5650 
 19 C        4.2490     7.1450    -0.2090 C.2   1 <1>   0.0770 
 20 H       -0.0430     1.8600     0.9210 H     1 <1>   0.0800 
 21 H       -0.2750     2.1610    -0.8060 H     1 <1>   0.0800 
 22 H       -0.4440    -2.2240    -0.6430 H     1 <1>   0.1500 
 23 H       -2.2750     1.5260     0.2610 H     1 <1>   0.1500 
 24 H        2.0860     1.5620    -1.2190 H     1 <1>   0.0800 
 25 H        2.3160     1.2600     0.4890 H     1 <1>   0.0800 
 26 H       -2.6600    -3.3120    -0.5310 H     1 <1>   0.1500 
 27 H       -4.4360     0.4630     0.3690 H     1 <1>   0.1500 
 28 H        1.8170     3.6380     0.9750 H     1 <1>   0.0800 
 29 H        1.5900     3.9400    -0.7320 H     1 <1>   0.0800 
 30 H        3.9540     3.3210    -1.1580 H     1 <1>   0.0800 
 31 H        4.1820     3.0100     0.5450 H     1 <1>   0.0800 
 32 H       -6.2430    -0.7690    -0.5060 H     1 <1>   0.0800 
 33 H       -6.0080    -1.0710     1.2210 H     1 <1>   0.0800 
 34 H        4.3850     5.0820     2.1270 H     1 <1>   0.1500 
 35 H        3.6680     5.8630    -1.8970 H     1 <1>   0.1500 
 36 H       -7.2620    -3.0130    -0.7530 H     1 <1>   0.0800 
 37 H       -8.1460    -2.0800     0.4290 H     1 <1>   0.0800 
 38 H       -7.0290    -3.3130     0.9620 H     1 <1>   0.0800 
 39 H        4.3360     8.1400    -0.6130 H     1 <1>   0.1500 
@<TRIPOS>BOND
  1   1   2  1   
  2   1   3  1   
  3   2   4  ar  
  4   2   5  ar  
  5   3   6  1   
  6   3  20  1   
  7   3  21  1   
  8   4   7  ar  
  9   4  22  1   
 10   5   8  ar  
 11   5  23  1   
 12   6   9  1   
 13   6  24  1   
 14   6  25  1   
 15   7  10  ar  
 16   7  26  1   
 17   8  10  ar  
 18   8  27  1   
 19   9  11  1   
 20   9  28  1   
 21   9  29  1   
 22  10  12  1   
 23  11  13  1   
 24  11  30  1   
 25  11  31  1   
 26  12  14  1   
 27  13  15  1   
 28  13  16  1   
 29  14  17  1   
 30  14  32  1   
 31  14  33  1   
 32  15  18  2   
 33  15  34  1   
 34  16  19  2   
 35  16  35  1   
 36  17  36  1   
 37  17  37  1   
 38  17  38  1   
 39  18  19  1   
 40  19  39  1   
@<TRIPOS>SUBSTRUCTURE
  1 ****   3 GROUP 4 **** **** 0

# MOE 2024.06 (io_trps.svl 2023.06)
