@<TRIPOS>MOLECULE
NONAME
33 35 1 0 0 
SMALL
USER_CHARGES


@<TRIPOS>ATOM
  1 O       -1.1500    -0.2910    -1.2040 O.2   1 <1>  -0.5700 
  2 C       -1.6540     0.5020    -0.4520 C.2   1 <1>   0.5700 
  3 N       -2.8210     1.1080    -0.7460 N.am  1 <1>  -0.7300 
  4 C       -3.6230     1.9300     0.1550 C.3   1 <1>   0.4000 
  5 C       -5.0740     1.4990     0.0330 C.2   1 <1>  -0.3320 
  6 C       -3.4570     3.4040    -0.2580 C.3   1 <1>  -0.1600 
  7 N       -5.5580     0.2170     0.1140 N.pl3 1 <1>   0.0480 
  8 C       -6.1010     2.3570    -0.1570 C.2   1 <1>  -0.1810 
  9 C       -4.5910     4.3020     0.2780 C.3   1 <1>  -0.1600 
 10 C       -6.9240     0.2760    -0.0590 C.ar  1 <1>  -0.1520 
 11 C       -4.7910    -1.0180     0.3720 C.3   1 <1>   0.0160 
 12 C       -7.2930     1.6080    -0.2290 C.ar  1 <1>   0.0000 
 13 C       -5.9620     3.8620    -0.2640 C.3   1 <1>   0.0210 
 14 C       -7.8940    -0.7330    -0.0840 C.ar  1 <1>  -0.1500 
 15 C       -8.6370     1.9420    -0.4210 C.ar  1 <1>  -0.1500 
 16 C       -9.2130    -0.3920    -0.2740 C.ar  1 <1>  -0.1500 
 17 C       -9.5860     0.9460    -0.4420 C.ar  1 <1>  -0.1500 
 18 H       -1.1690     0.7240     0.4830 H     1 <1>   0.0600 
 19 H       -3.2790     0.8840    -1.6300 H     1 <1>   0.3700 
 20 H       -3.2970     1.7950     1.1730 H     1 <1>   0.0800 
 21 H       -3.4580     3.4720    -1.3320 H     1 <1>   0.0800 
 22 H       -2.5100     3.7650     0.1010 H     1 <1>   0.0800 
 23 H       -4.4100     5.3270     0.0040 H     1 <1>   0.0800 
 24 H       -4.6070     4.2430     1.3530 H     1 <1>   0.0800 
 25 H       -3.9600    -0.7980     1.0140 H     1 <1>   0.0800 
 26 H       -4.4320    -1.4130    -0.5610 H     1 <1>   0.0800 
 27 H       -5.4220    -1.7420     0.8520 H     1 <1>   0.0800 
 28 H       -6.7460     4.3420     0.2960 H     1 <1>   0.0800 
 29 H       -6.0600     4.1450    -1.2970 H     1 <1>   0.0800 
 30 H       -7.6070    -1.7600     0.0420 H     1 <1>   0.1500 
 31 H       -8.9070     2.9730    -0.5500 H     1 <1>   0.1500 
 32 H       -9.9730    -1.1530    -0.2960 H     1 <1>   0.1500 
 33 H      -10.6240     1.1870    -0.5890 H     1 <1>   0.1500 
@<TRIPOS>BOND
  1   1   2  2   
  2   2   3  am  
  3   2  18  1   
  4   3   4  1   
  5   3  19  1   
  6   4   5  1   
  7   4   6  1   
  8   4  20  1   
  9   5   7  1   
 10   5   8  2   
 11   6   9  1   
 12   6  21  1   
 13   6  22  1   
 14   7  10  1   
 15   7  11  1   
 16   8  12  1   
 17   8  13  1   
 18   9  13  1   
 19   9  23  1   
 20   9  24  1   
 21  10  12  ar  
 22  10  14  ar  
 23  11  25  1   
 24  11  26  1   
 25  11  27  1   
 26  12  15  ar  
 27  13  28  1   
 28  13  29  1   
 29  14  16  ar  
 30  14  30  1   
 31  15  17  ar  
 32  15  31  1   
 33  16  17  ar  
 34  16  32  1   
 35  17  33  1   
@<TRIPOS>SUBSTRUCTURE
  1 ****   5 GROUP 4 **** **** 0

# MOE 2024.06 (io_trps.svl 2023.06)
