@<TRIPOS>MOLECULE
NONAME
51 53 1 0 0 
SMALL
USER_CHARGES


@<TRIPOS>ATOM
  1 S        0.2270     1.7200     1.3960 S.o2  1 <1>   1.4470 
  2 O       -0.2320     2.8670     2.1490 O.2   1 <1>  -0.6500 
  3 O        0.3460     0.4490     2.0770 O.2   1 <1>  -0.6500 
  4 N       -0.8810     1.4820     0.1360 N.am  1 <1>  -0.8490 
  5 C        1.7760     2.1090     0.5160 C.ar  1 <1>  -0.0090 
  6 C       -0.5930     0.2700    -0.6500 C.3   1 <1>   0.1960 
  7 C       -2.2580     1.4100     0.6460 C.3   1 <1>   0.1960 
  8 C        1.9990     3.3120    -0.1620 C.ar  1 <1>  -0.1440 
  9 C        2.7830     1.1510     0.4810 C.ar  1 <1>  -0.1500 
 10 C       -1.6340     0.0790    -1.7690 C.3   1 <1>   0.1200 
 11 C       -3.2630     1.1840    -0.4980 C.3   1 <1>   0.1200 
 12 C        3.1930     3.5210    -0.8350 C.ar  1 <1>  -0.1500 
 13 C        0.9550     4.4220    -0.1940 C.3   1 <1>  -0.0960 
 14 C        3.9860     1.3400    -0.1900 C.ar  1 <1>   0.0860 
 15 O       -2.9270     0.0420    -1.2350 O.3   1 <1>  -0.5600 
 16 C        4.1710     2.5480    -0.8520 C.ar  1 <1>  -0.1500 
 17 C        4.9950     0.3020    -0.2070 C.2   1 <1>   0.5440 
 18 O        4.7400    -0.7400    -0.7800 O.2   1 <1>  -0.5700 
 19 N        6.2220     0.4600     0.4080 N.am  1 <1>  -0.6600 
 20 C        7.3000    -0.5450     0.2060 C.3   1 <1>   0.1400 
 21 C        6.5250     1.5760     1.3510 C.3   1 <1>   0.1400 
 22 C        8.1240    -0.1660    -1.0280 C.3   1 <1>  -0.1600 
 23 C        7.9210     2.1860     1.1540 C.3   1 <1>  -0.1600 
 24 C        9.0620     1.0360    -0.8290 C.3   1 <1>  -0.1600 
 25 C        8.3800     2.3130    -0.3100 C.3   1 <1>  -0.1600 
 26 H       -0.6040    -0.6010    -0.0160 H     1 <1>   0.0800 
 27 H        0.3840     0.3470    -1.0950 H     1 <1>   0.0800 
 28 H       -2.5060     2.3300     1.1490 H     1 <1>   0.0800 
 29 H       -2.3470     0.6070     1.3600 H     1 <1>   0.0800 
 30 H        2.6380     0.2110     0.9860 H     1 <1>   0.1500 
 31 H       -1.4630    -0.8500    -2.2820 H     1 <1>   0.0800 
 32 H       -1.5760     0.8860    -2.4790 H     1 <1>   0.0800 
 33 H       -3.2740     2.0310    -1.1620 H     1 <1>   0.0800 
 34 H       -4.2520     1.0400    -0.1020 H     1 <1>   0.0800 
 35 H        3.3680     4.4470    -1.3570 H     1 <1>   0.1500 
 36 H        0.8430     4.8530     0.7850 H     1 <1>   0.0800 
 37 H        0.0030     4.0380    -0.5140 H     1 <1>   0.0800 
 38 H        1.2390     5.2040    -0.8730 H     1 <1>   0.0800 
 39 H        5.0910     2.7140    -1.3850 H     1 <1>   0.1500 
 40 H        6.8610    -1.5170     0.0540 H     1 <1>   0.0800 
 41 H        7.9260    -0.6060     1.0790 H     1 <1>   0.0800 
 42 H        6.4390     1.2090     2.3590 H     1 <1>   0.0800 
 43 H        5.8000     2.3600     1.2360 H     1 <1>   0.0800 
 44 H        7.4540     0.0230    -1.8480 H     1 <1>   0.0800 
 45 H        8.7240    -1.0160    -1.3020 H     1 <1>   0.0800 
 46 H        8.6420     1.6170     1.7140 H     1 <1>   0.0800 
 47 H        7.9040     3.1680     1.5930 H     1 <1>   0.0800 
 48 H        9.5220     1.2580    -1.7760 H     1 <1>   0.0800 
 49 H        9.8530     0.7590    -0.1530 H     1 <1>   0.0800 
 50 H        9.0990     3.1120    -0.3670 H     1 <1>   0.0800 
 51 H        7.5520     2.5790    -0.9440 H     1 <1>   0.0800 
@<TRIPOS>BOND
  1   1   2  2   
  2   1   3  2   
  3   1   4  am  
  4   1   5  1   
  5   4   6  1   
  6   4   7  1   
  7   5   8  ar  
  8   5   9  ar  
  9   6  10  1   
 10   6  26  1   
 11   6  27  1   
 12   7  11  1   
 13   7  28  1   
 14   7  29  1   
 15   8  12  ar  
 16   8  13  1   
 17   9  14  ar  
 18   9  30  1   
 19  10  15  1   
 20  10  31  1   
 21  10  32  1   
 22  11  15  1   
 23  11  33  1   
 24  11  34  1   
 25  12  16  ar  
 26  12  35  1   
 27  13  36  1   
 28  13  37  1   
 29  13  38  1   
 30  14  16  ar  
 31  14  17  1   
 32  16  39  1   
 33  17  18  2   
 34  17  19  am  
 35  19  20  1   
 36  19  21  1   
 37  20  22  1   
 38  20  40  1   
 39  20  41  1   
 40  21  23  1   
 41  21  42  1   
 42  21  43  1   
 43  22  24  1   
 44  22  44  1   
 45  22  45  1   
 46  23  25  1   
 47  23  46  1   
 48  23  47  1   
 49  24  25  1   
 50  24  48  1   
 51  24  49  1   
 52  25  50  1   
 53  25  51  1   
@<TRIPOS>SUBSTRUCTURE
  1 ****   9 GROUP 4 **** **** 0

# MOE 2024.06 (io_trps.svl 2023.06)
