@<TRIPOS>MOLECULE
NONAME
38 38 1 0 0 
SMALL
USER_CHARGES


@<TRIPOS>ATOM
  1 O        0.1880    -4.9460    -0.0170 O.3   1 <1>  -0.3630 
  2 C       -1.0420    -5.5180     0.0170 C.ar  1 <1>   0.0830 
  3 C        1.3550    -5.7240     0.0310 C.3   1 <1>   0.1200 
  4 C       -2.1290    -4.6620    -0.0350 C.ar  1 <1>  -0.1500 
  5 C       -1.2580    -6.8890     0.1000 C.ar  1 <1>  -0.1500 
  6 C        2.5390    -4.7580    -0.0270 C.3   1 <1>   0.3430 
  7 C       -3.4260    -5.1490    -0.0050 C.ar  1 <1>  -0.1440 
  8 C       -2.5510    -7.3800     0.1290 C.ar  1 <1>  -0.1500 
  9 N        3.8490    -5.4770     0.0190 N.4   1 <1>  -0.9060 
 10 C       -3.6390    -6.5220     0.0780 C.ar  1 <1>  -0.1430 
 11 C       -4.5870    -4.1670    -0.0640 C.3   1 <1>  -0.0970 
 12 C        4.9930    -4.5170    -0.0380 C.3   1 <1>   0.3430 
 13 C       -5.0440    -7.1060     0.1130 C.3   1 <1>  -0.0970 
 14 C        6.3460    -5.2330     0.0080 C.3   1 <1>   0.1200 
 15 O        7.3200    -4.2510    -0.0500 O.3   1 <1>  -0.5600 
 16 C        8.6290    -4.7300    -0.0190 C.3   1 <1>   0.0400 
 17 H        1.3480    -6.3840    -0.8190 H     1 <1>   0.0800 
 18 H        1.3470    -6.2770     0.9540 H     1 <1>   0.0800 
 19 H       -1.9500    -3.6040    -0.0980 H     1 <1>   0.1500 
 20 H       -0.4500    -7.5920     0.1420 H     1 <1>   0.1500 
 21 H        2.4690    -4.0780     0.8080 H     1 <1>   0.0800 
 22 H        2.4710    -4.1850    -0.9380 H     1 <1>   0.0800 
 23 H       -2.7080    -8.4420     0.1930 H     1 <1>   0.1500 
 24 H        3.9120    -6.1290    -0.7730 H     1 <1>   0.4500 
 25 H        3.9100    -6.0280     0.8850 H     1 <1>   0.4500 
 26 H       -4.2330    -3.1540    -0.1250 H     1 <1>   0.0800 
 27 H       -5.1930    -4.2590     0.8190 H     1 <1>   0.0800 
 28 H       -5.1930    -4.3640    -0.9300 H     1 <1>   0.0800 
 29 H        4.9390    -3.8360     0.7970 H     1 <1>   0.0800 
 30 H        4.9420    -3.9420    -0.9490 H     1 <1>   0.0800 
 31 H       -5.5770    -6.7320     0.9680 H     1 <1>   0.0800 
 32 H       -5.0160    -8.1790     0.1770 H     1 <1>   0.0800 
 33 H       -5.5780    -6.8370    -0.7800 H     1 <1>   0.0800 
 34 H        6.4700    -5.8840    -0.8400 H     1 <1>   0.0800 
 35 H        6.4680    -5.7760     0.9300 H     1 <1>   0.0800 
 36 H        9.2970    -3.8860    -0.0690 H     1 <1>   0.0800 
 37 H        8.7990    -5.3720    -0.8660 H     1 <1>   0.0800 
 38 H        8.7960    -5.2630     0.9010 H     1 <1>   0.0800 
@<TRIPOS>BOND
  1   1   2  1   
  2   1   3  1   
  3   2   4  ar  
  4   2   5  ar  
  5   3   6  1   
  6   3  17  1   
  7   3  18  1   
  8   4   7  ar  
  9   4  19  1   
 10   5   8  ar  
 11   5  20  1   
 12   6   9  1   
 13   6  21  1   
 14   6  22  1   
 15   7  10  ar  
 16   7  11  1   
 17   8  10  ar  
 18   8  23  1   
 19   9  12  1   
 20   9  24  1   
 21   9  25  1   
 22  10  13  1   
 23  11  26  1   
 24  11  27  1   
 25  11  28  1   
 26  12  14  1   
 27  12  29  1   
 28  12  30  1   
 29  13  31  1   
 30  13  32  1   
 31  13  33  1   
 32  14  15  1   
 33  14  34  1   
 34  14  35  1   
 35  15  16  1   
 36  16  36  1   
 37  16  37  1   
 38  16  38  1   
@<TRIPOS>SUBSTRUCTURE
  1 ****   3 GROUP 4 **** **** 0

# MOE 2024.06 (io_trps.svl 2023.06)
