@<TRIPOS>MOLECULE
NONAME
35 36 1 0 0 
SMALL
USER_CHARGES


@<TRIPOS>ATOM
  1 CL      -2.0750     0.9990    -3.3720 Cl    1 <1>  -0.1770 
  2 C       -2.5020     1.3640    -1.7220 C.ar  1 <1>   0.1770 
  3 C       -3.6180     0.7650    -1.1700 C.ar  1 <1>  -0.1500 
  4 C       -1.7230     2.2430    -0.9950 C.ar  1 <1>  -0.1500 
  5 C       -3.9740     1.0560     0.1410 C.ar  1 <1>  -0.1440 
  6 C       -2.0710     2.5270     0.3140 C.ar  1 <1>  -0.1500 
  7 C       -3.1900     1.9350     0.8780 C.ar  1 <1>  -0.1500 
  8 C       -5.2070     0.4240     0.7600 C.3   1 <1>   0.4870 
  9 N       -6.4200     1.0220     0.1370 N.4   1 <1>  -0.9590 
 10 C       -6.5140     2.4890     0.3910 C.3   1 <1>   0.3430 
 11 C       -7.6570     0.3020     0.5470 C.3   1 <1>   0.3430 
 12 C       -7.6700     3.0700    -0.4190 C.3   1 <1>  -0.1600 
 13 C       -8.8400     0.8310    -0.2600 C.3   1 <1>  -0.1600 
 14 C       -9.0060     2.3580    -0.1280 C.3   1 <1>  -0.0190 
 15 C      -10.0960     2.8640    -1.0700 C.2   1 <1>   0.5690 
 16 O       -9.9850     2.6740    -2.2520 O.2   1 <1>  -0.5700 
 17 N      -11.1680     3.5150    -0.5860 N.am  1 <1>  -0.8000 
 18 H       -4.1840     0.0800    -1.7770 H     1 <1>   0.1500 
 19 H       -0.8580     2.6940    -1.4490 H     1 <1>   0.1500 
 20 H       -1.4660     3.2070     0.8910 H     1 <1>   0.1500 
 21 H       -3.4350     2.1710     1.9010 H     1 <1>   0.1500 
 22 H       -5.2120     0.5920     1.8250 H     1 <1>   0.0800 
 23 H       -5.1850    -0.6400     0.5830 H     1 <1>   0.0800 
 24 H       -6.3140     0.9120    -0.8800 H     1 <1>   0.4500 
 25 H       -5.5970     2.9770     0.0980 H     1 <1>   0.0800 
 26 H       -6.6750     2.6720     1.4410 H     1 <1>   0.0800 
 27 H       -7.8390     0.4530     1.5990 H     1 <1>   0.0800 
 28 H       -7.5490    -0.7560     0.3670 H     1 <1>   0.0800 
 29 H       -7.4350     2.9940    -1.4670 H     1 <1>   0.0800 
 30 H       -7.7680     4.1170    -0.1930 H     1 <1>   0.0800 
 31 H       -9.7410     0.3460     0.0750 H     1 <1>   0.0800 
 32 H       -8.7050     0.5650    -1.2940 H     1 <1>   0.0800 
 33 H       -9.3000     2.5840     0.8820 H     1 <1>   0.0800 
 34 H      -11.8800     3.8420    -1.2440 H     1 <1>   0.3700 
 35 H      -11.3450     3.7230     0.3960 H     1 <1>   0.3700 
@<TRIPOS>BOND
  1   1   2  1   
  2   2   3  ar  
  3   2   4  ar  
  4   3   5  ar  
  5   3  18  1   
  6   4   6  ar  
  7   4  19  1   
  8   5   7  ar  
  9   5   8  1   
 10   6   7  ar  
 11   6  20  1   
 12   7  21  1   
 13   8   9  1   
 14   8  22  1   
 15   8  23  1   
 16   9  10  1   
 17   9  11  1   
 18   9  24  1   
 19  10  12  1   
 20  10  25  1   
 21  10  26  1   
 22  11  13  1   
 23  11  27  1   
 24  11  28  1   
 25  12  14  1   
 26  12  29  1   
 27  12  30  1   
 28  13  14  1   
 29  13  31  1   
 30  13  32  1   
 31  14  15  1   
 32  14  33  1   
 33  15  16  2   
 34  15  17  am  
 35  17  34  1   
 36  17  35  1   
@<TRIPOS>SUBSTRUCTURE
  1 ****   9 GROUP 4 **** **** 0

# MOE 2024.06 (io_trps.svl 2023.06)
