@<TRIPOS>MOLECULE
NONAME
35 37 1 0 0 
SMALL
USER_CHARGES


@<TRIPOS>ATOM
  1 F        1.6130    -0.6230     1.9540 F     1 <1>  -0.3400 
  2 C        2.7880    -0.5780     1.3370 C.3   1 <1>   1.1580 
  3 F        3.0050     0.7030     1.0740 F     1 <1>  -0.3400 
  4 F        3.6820    -0.9520     2.2440 F     1 <1>  -0.3400 
  5 C        2.7890    -1.4510     0.1040 C.2   1 <1>  -0.1690 
  6 N        3.9700    -1.4850    -0.6010 N.pl3 1 <1>   0.6010 
  7 C        1.7470    -2.1960    -0.3670 C.2   1 <1>  -0.1360 
  8 N        5.1340    -0.8570    -0.3580 N.2   1 <1>  -0.7070 
  9 C        4.0490    -2.2610    -1.7310 C.2   1 <1>  -0.0260 
 10 C        1.9000    -2.9770    -1.5490 C.2   1 <1>   0.3750 
 11 C        5.9580    -1.2290    -1.3340 C.2   1 <1>   0.2030 
 12 N        3.0030    -3.0180    -2.2140 N.2   1 <1>  -0.5760 
 13 C        5.3060    -2.1030    -2.2040 C.2   1 <1>  -0.1500 
 14 C        0.7190    -3.7860    -2.0350 C.3   1 <1>  -0.1790 
 15 C        7.3460    -0.8040    -1.5390 C.2   1 <1>   0.7160 
 16 O        7.8520    -0.9740    -2.6370 O.2   1 <1>  -0.5700 
 17 N        8.1340    -0.2150    -0.5610 N.am  1 <1>  -0.6600 
 18 C        9.3780     0.5440    -0.8980 C.3   1 <1>   0.1400 
 19 C        7.8330    -0.2410     0.9040 C.3   1 <1>   0.1400 
 20 C       10.5370     0.1390     0.0250 C.3   1 <1>   0.1200 
 21 C        9.0920    -0.5630     1.7280 C.3   1 <1>   0.1200 
 22 O       10.1620     0.2640     1.3660 O.3   1 <1>  -0.5600 
 23 H        0.7890    -2.2240     0.1230 H     1 <1>   0.1500 
 24 H        5.7320    -2.5540    -3.0820 H     1 <1>   0.1500 
 25 H        0.9800    -4.3200    -2.9320 H     1 <1>   0.0800 
 26 H       -0.1080    -3.1360    -2.2510 H     1 <1>   0.0800 
 27 H        0.4280    -4.4980    -1.2840 H     1 <1>   0.0800 
 28 H        9.1880     1.5960    -0.7800 H     1 <1>   0.0800 
 29 H        9.6680     0.3750    -1.9200 H     1 <1>   0.0800 
 30 H        7.0950    -0.9880     1.1280 H     1 <1>   0.0800 
 31 H        7.4430     0.7160     1.2020 H     1 <1>   0.0800 
 32 H       11.3840     0.7820    -0.1400 H     1 <1>   0.0800 
 33 H       10.8320    -0.8790    -0.1620 H     1 <1>   0.0800 
 34 H        9.3860    -1.5870     1.5810 H     1 <1>   0.0800 
 35 H        8.8980    -0.4080     2.7750 H     1 <1>   0.0800 
@<TRIPOS>BOND
  1   1   2  1   
  2   2   3  1   
  3   2   4  1   
  4   2   5  1   
  5   5   6  1   
  6   5   7  2   
  7   6   8  1   
  8   6   9  1   
  9   7  10  1   
 10   7  23  1   
 11   8  11  2   
 12   9  12  1   
 13   9  13  2   
 14  10  12  2   
 15  10  14  1   
 16  11  13  1   
 17  11  15  1   
 18  13  24  1   
 19  14  25  1   
 20  14  26  1   
 21  14  27  1   
 22  15  16  2   
 23  15  17  am  
 24  17  18  1   
 25  17  19  1   
 26  18  20  1   
 27  18  28  1   
 28  18  29  1   
 29  19  21  1   
 30  19  30  1   
 31  19  31  1   
 32  20  22  1   
 33  20  32  1   
 34  20  33  1   
 35  21  22  1   
 36  21  34  1   
 37  21  35  1   
@<TRIPOS>SUBSTRUCTURE
  1 ****   8 GROUP 4 **** **** 0

# MOE 2024.06 (io_trps.svl 2023.06)
