@<TRIPOS>MOLECULE
NONAME
43 44 1 0 0 
SMALL
USER_CHARGES


@<TRIPOS>ATOM
  1 BR       3.2200     2.2660     2.6560 Br    1 <1>  -0.1110 
  2 C        1.8530     2.7980     1.4000 C.ar  1 <1>   0.1110 
  3 C        2.1680     2.8920     0.0510 C.ar  1 <1>   0.0830 
  4 C        0.5910     3.0720     1.8890 C.ar  1 <1>  -0.1500 
  5 O        3.4360     2.6020    -0.3340 O.3   1 <1>  -0.3630 
  6 C        1.1610     3.2800    -0.8280 C.ar  1 <1>  -0.1500 
  7 C       -0.4090     3.4590     1.0080 C.ar  1 <1>  -0.1430 
  8 C        3.8570     2.7330    -1.6850 C.3   1 <1>   0.1810 
  9 C       -0.1090     3.5580    -0.3470 C.ar  1 <1>  -0.1500 
 10 C       -1.8080     3.7650     1.5360 C.3   1 <1>   0.0640 
 11 C        5.3350     2.3910    -1.8240 C.2   1 <1>   0.5690 
 12 C       -2.8410     2.8060     0.9360 C.3   1 <1>  -0.2400 
 13 C       -2.1910     5.2220     1.2570 C.3   1 <1>  -0.2400 
 14 O        5.8990     2.6580    -2.8580 O.2   1 <1>  -0.5700 
 15 N        5.9770     1.8030    -0.7810 N.am  1 <1>  -0.7300 
 16 C        7.4240     1.4680    -0.7130 C.3   1 <1>   0.1400 
 17 C        8.1680     2.4310     0.2220 C.3   1 <1>   0.2000 
 18 O        9.4670     1.9790     0.4150 O.3   1 <1>  -0.5600 
 19 C        7.6000     2.5250     1.6340 C.3   1 <1>  -0.1600 
 20 C       10.0030     2.5380     1.5710 C.3   1 <1>   0.1200 
 21 C        8.8170     2.8900     2.4670 C.3   1 <1>  -0.1600 
 22 H        0.4020     2.9830     2.9440 H     1 <1>   0.1500 
 23 H        1.3410     3.3710    -1.8820 H     1 <1>   0.1500 
 24 H        3.6980     3.7500    -1.9950 H     1 <1>   0.0800 
 25 H        3.2770     2.0630    -2.2920 H     1 <1>   0.0800 
 26 H       -0.8750     3.8570    -1.0420 H     1 <1>   0.1500 
 27 H       -1.8140     3.6250     2.6040 H     1 <1>   0.0800 
 28 H       -2.9170     2.9390    -0.1280 H     1 <1>   0.0800 
 29 H       -3.8080     2.9790     1.3740 H     1 <1>   0.0800 
 30 H       -2.5530     1.7890     1.1350 H     1 <1>   0.0800 
 31 H       -2.2530     5.4080     0.2000 H     1 <1>   0.0800 
 32 H       -1.4530     5.8810     1.6780 H     1 <1>   0.0800 
 33 H       -3.1440     5.4480     1.7010 H     1 <1>   0.0800 
 34 H        5.4350     1.6530     0.0770 H     1 <1>   0.3700 
 35 H        7.8570     1.5300    -1.6970 H     1 <1>   0.0800 
 36 H        7.5330     0.4610    -0.3510 H     1 <1>   0.0800 
 37 H        8.2300     3.4080    -0.2280 H     1 <1>   0.0800 
 38 H        7.2190     1.5660     1.9380 H     1 <1>   0.0800 
 39 H        6.8160     3.2580     1.7000 H     1 <1>   0.0800 
 40 H       10.5590     3.4170     1.2930 H     1 <1>   0.0800 
 41 H       10.6580     1.8160     2.0270 H     1 <1>   0.0800 
 42 H        8.8480     2.3360     3.3890 H     1 <1>   0.0800 
 43 H        8.8330     3.9430     2.6900 H     1 <1>   0.0800 
@<TRIPOS>BOND
  1   1   2  1   
  2   2   3  ar  
  3   2   4  ar  
  4   3   5  1   
  5   3   6  ar  
  6   4   7  ar  
  7   4  22  1   
  8   5   8  1   
  9   6   9  ar  
 10   6  23  1   
 11   7   9  ar  
 12   7  10  1   
 13   8  11  1   
 14   8  24  1   
 15   8  25  1   
 16   9  26  1   
 17  10  12  1   
 18  10  13  1   
 19  10  27  1   
 20  11  14  2   
 21  11  15  am  
 22  12  28  1   
 23  12  29  1   
 24  12  30  1   
 25  13  31  1   
 26  13  32  1   
 27  13  33  1   
 28  15  16  1   
 29  15  34  1   
 30  16  17  1   
 31  16  35  1   
 32  16  36  1   
 33  17  18  1   
 34  17  19  1   
 35  17  37  1   
 36  18  20  1   
 37  19  21  1   
 38  19  38  1   
 39  19  39  1   
 40  20  21  1   
 41  20  40  1   
 42  20  41  1   
 43  21  42  1   
 44  21  43  1   
@<TRIPOS>SUBSTRUCTURE
  1 ****   5 GROUP 4 **** **** 0

# MOE 2024.06 (io_trps.svl 2023.06)
