@<TRIPOS>MOLECULE
NONAME
46 48 1 0 0 
SMALL
USER_CHARGES


@<TRIPOS>ATOM
  1 O        1.1930    -1.7500     0.2880 O.2   1 <1>  -0.5700 
  2 C        0.0020    -1.9340     0.2530 C.2   1 <1>   0.5690 
  3 N       -0.6030    -3.1520     0.2390 N.am  1 <1>  -0.4200 
  4 C       -1.0210    -0.8150     0.2520 C.3   1 <1>  -0.0190 
  5 C       -1.9580    -3.0320     0.2450 C.2   1 <1>   0.5690 
  6 C        0.1120    -4.4520     0.1680 C.3   1 <1>   0.1400 
  7 C       -2.3760    -1.5750     0.2540 C.3   1 <1>  -0.0190 
  8 C       -0.7930     0.1780    -0.9040 C.3   1 <1>  -0.0220 
  9 O       -2.7400    -3.9470     0.2530 O.2   1 <1>  -0.5700 
 10 C        0.8820    -4.7380     1.4650 C.3   1 <1>  -0.0990 
 11 C       -3.3510    -1.2430    -0.8930 C.3   1 <1>  -0.0220 
 12 C       -2.0870     0.8660    -1.2900 C.2   1 <1>  -0.2880 
 13 C        2.3580    -4.9110     1.1870 C.2   1 <1>   0.5690 
 14 C       -3.2520     0.2180    -1.2850 C.2   1 <1>  -0.2880 
 15 O        2.8160    -6.0240     1.2480 O.2   1 <1>  -0.5700 
 16 N        3.0770    -3.7960     0.8620 N.am  1 <1>  -0.5470 
 17 C        4.4320    -3.6050     0.5540 C.ar  1 <1>   0.1170 
 18 C        5.4190    -4.5540     0.7990 C.ar  1 <1>  -0.1500 
 19 C        4.8100    -2.3970    -0.0190 C.ar  1 <1>  -0.1500 
 20 C        6.7410    -4.3020     0.4770 C.ar  1 <1>  -0.1500 
 21 C        6.1300    -2.1420    -0.3410 C.ar  1 <1>  -0.1500 
 22 C        7.1070    -3.0940    -0.0950 C.ar  1 <1>  -0.1440 
 23 C        8.5590    -2.8190    -0.4490 C.3   1 <1>  -0.0170 
 24 C        8.8620    -3.2820    -1.8750 C.3   1 <1>  -0.2400 
 25 H       -0.9330    -0.2790     1.1790 H     1 <1>   0.0800 
 26 H        0.7840    -4.4310    -0.6740 H     1 <1>   0.0800 
 27 H       -0.5980    -5.2430    -0.0060 H     1 <1>   0.0800 
 28 H       -2.8740    -1.3770     1.1860 H     1 <1>   0.0800 
 29 H       -0.4060    -0.3310    -1.7700 H     1 <1>   0.0800 
 30 H       -0.0630     0.9090    -0.5990 H     1 <1>   0.0800 
 31 H        0.5110    -5.6500     1.8960 H     1 <1>   0.0800 
 32 H        0.7490    -3.9560     2.1890 H     1 <1>   0.0800 
 33 H       -4.3540    -1.4750    -0.5770 H     1 <1>   0.0800 
 34 H       -3.1340    -1.8430    -1.7600 H     1 <1>   0.0800 
 35 H       -1.9740     1.8970    -1.5860 H     1 <1>   0.1500 
 36 H       -4.1890     0.6650    -1.5760 H     1 <1>   0.1500 
 37 H        2.5120    -2.9430     0.7530 H     1 <1>   0.3700 
 38 H        5.1650    -5.4960     1.2460 H     1 <1>   0.1500 
 39 H        4.0630    -1.6490    -0.2160 H     1 <1>   0.1500 
 40 H        7.4840    -5.0540     0.6730 H     1 <1>   0.1500 
 41 H        6.3970    -1.2000    -0.7870 H     1 <1>   0.1500 
 42 H        9.2030    -3.3330     0.2430 H     1 <1>   0.0800 
 43 H        8.7610    -1.7650    -0.3600 H     1 <1>   0.0800 
 44 H        8.6760    -4.3370    -1.9680 H     1 <1>   0.0800 
 45 H        9.8920    -3.0880    -2.1180 H     1 <1>   0.0800 
 46 H        8.2350    -2.7590    -2.5750 H     1 <1>   0.0800 
@<TRIPOS>BOND
  1   1   2  2   
  2   2   3  am  
  3   2   4  1   
  4   3   5  am  
  5   3   6  1   
  6   4   7  1   
  7   4   8  1   
  8   4  25  1   
  9   5   7  1   
 10   5   9  2   
 11   6  10  1   
 12   6  26  1   
 13   6  27  1   
 14   7  11  1   
 15   7  28  1   
 16   8  12  1   
 17   8  29  1   
 18   8  30  1   
 19  10  13  1   
 20  10  31  1   
 21  10  32  1   
 22  11  14  1   
 23  11  33  1   
 24  11  34  1   
 25  12  14  2   
 26  12  35  1   
 27  13  15  2   
 28  13  16  am  
 29  14  36  1   
 30  16  17  1   
 31  16  37  1   
 32  17  18  ar  
 33  17  19  ar  
 34  18  20  ar  
 35  18  38  1   
 36  19  21  ar  
 37  19  39  1   
 38  20  22  ar  
 39  20  40  1   
 40  21  22  ar  
 41  21  41  1   
 42  22  23  1   
 43  23  24  1   
 44  23  42  1   
 45  23  43  1   
 46  24  44  1   
 47  24  45  1   
 48  24  46  1   
@<TRIPOS>SUBSTRUCTURE
  1 ****   1 GROUP 4 **** **** 0

# MOE 2024.06 (io_trps.svl 2023.06)
