@<TRIPOS>MOLECULE
NONAME
50 51 1 0 0 
SMALL
USER_CHARGES


@<TRIPOS>ATOM
  1 CL      -0.3180     0.2920     0.2490 Cl    1 <1>  -0.1770 
  2 C       -1.9960     0.7440     0.0760 C.ar  1 <1>   0.1770 
  3 C       -2.5070     0.9830    -1.1860 C.ar  1 <1>  -0.1500 
  4 C       -2.7860     0.8570     1.2030 C.ar  1 <1>  -0.1500 
  5 C       -3.8380     1.3420    -1.3310 C.ar  1 <1>  -0.1440 
  6 C       -4.1160     1.2150     1.0650 C.ar  1 <1>  -0.1500 
  7 C       -4.6480     1.4600    -0.2020 C.ar  1 <1>   0.0830 
  8 C       -4.3970     1.6040    -2.7230 C.3   1 <1>  -0.0960 
  9 O       -5.9460     1.8150    -0.3980 O.3   1 <1>  -0.3630 
 10 C       -6.8470     1.9550     0.6690 C.3   1 <1>   0.1200 
 11 C       -8.1930     2.3600     0.0680 C.3   1 <1>  -0.1600 
 12 C       -9.2420     2.5490     1.1620 C.3   1 <1>   0.3430 
 13 N      -10.5750     2.8300     0.5590 N.4   1 <1>  -0.9590 
 14 C      -10.6480     4.1890    -0.0590 C.3   1 <1>   0.3430 
 15 C      -11.6570     2.6310     1.5650 C.3   1 <1>   0.3430 
 16 C      -11.9850     4.3520    -0.7780 C.3   1 <1>  -0.1600 
 17 C      -13.0190     2.7530     0.8840 C.3   1 <1>  -0.1600 
 18 C      -13.1830     4.1020     0.1580 C.3   1 <1>  -0.0190 
 19 C      -14.4970     4.1510    -0.6160 C.2   1 <1>   0.6590 
 20 O      -14.7400     3.3510    -1.4800 O.2   1 <1>  -0.5700 
 21 O      -15.3340     5.1200    -0.2780 O.3   1 <1>  -0.4300 
 22 C      -16.5790     5.2710    -0.9210 C.3   1 <1>   0.1200 
 23 C      -17.2890     6.4700    -0.3010 C.3   1 <1>  -0.2400 
 24 H       -1.8600     0.8850    -2.0390 H     1 <1>   0.1500 
 25 H       -2.3610     0.6650     2.1720 H     1 <1>   0.1500 
 26 H       -4.7110     1.2960     1.9530 H     1 <1>   0.1500 
 27 H       -3.6440     1.4650    -3.4770 H     1 <1>   0.0800 
 28 H       -4.7620     2.6130    -2.7860 H     1 <1>   0.0800 
 29 H       -5.2090     0.9290    -2.9220 H     1 <1>   0.0800 
 30 H       -6.4690     2.7160     1.3310 H     1 <1>   0.0800 
 31 H       -6.9140     1.0090     1.1790 H     1 <1>   0.0800 
 32 H       -8.5080     1.5840    -0.6070 H     1 <1>   0.0800 
 33 H       -8.0500     3.2750    -0.4770 H     1 <1>   0.0800 
 34 H       -8.9530     3.3550     1.8170 H     1 <1>   0.0800 
 35 H       -9.2970     1.6430     1.7460 H     1 <1>   0.0800 
 36 H      -10.7330     2.1440    -0.1940 H     1 <1>   0.4500 
 37 H       -9.8480     4.3210    -0.7690 H     1 <1>   0.0800 
 38 H      -10.5520     4.9440     0.7050 H     1 <1>   0.0800 
 39 H      -11.5740     3.3710     2.3450 H     1 <1>   0.0800 
 40 H      -11.5710     1.6530     2.0140 H     1 <1>   0.0800 
 41 H      -12.0220     3.6730    -1.6130 H     1 <1>   0.0800 
 42 H      -12.0490     5.3500    -1.1780 H     1 <1>   0.0800 
 43 H      -13.7930     2.6540     1.6260 H     1 <1>   0.0800 
 44 H      -13.1400     1.9410     0.1870 H     1 <1>   0.0800 
 45 H      -13.2080     4.8860     0.8960 H     1 <1>   0.0800 
 46 H      -17.1490     4.3680    -0.7800 H     1 <1>   0.0800 
 47 H      -16.4050     5.4270    -1.9730 H     1 <1>   0.0800 
 48 H      -17.4490     6.3050     0.7500 H     1 <1>   0.0800 
 49 H      -18.2440     6.6080    -0.7730 H     1 <1>   0.0800 
 50 H      -16.7060     7.3620    -0.4410 H     1 <1>   0.0800 
@<TRIPOS>BOND
  1   1   2  1   
  2   2   3  ar  
  3   2   4  ar  
  4   3   5  ar  
  5   3  24  1   
  6   4   6  ar  
  7   4  25  1   
  8   5   7  ar  
  9   5   8  1   
 10   6   7  ar  
 11   6  26  1   
 12   7   9  1   
 13   8  27  1   
 14   8  28  1   
 15   8  29  1   
 16   9  10  1   
 17  10  11  1   
 18  10  30  1   
 19  10  31  1   
 20  11  12  1   
 21  11  32  1   
 22  11  33  1   
 23  12  13  1   
 24  12  34  1   
 25  12  35  1   
 26  13  14  1   
 27  13  15  1   
 28  13  36  1   
 29  14  16  1   
 30  14  37  1   
 31  14  38  1   
 32  15  17  1   
 33  15  39  1   
 34  15  40  1   
 35  16  18  1   
 36  16  41  1   
 37  16  42  1   
 38  17  18  1   
 39  17  43  1   
 40  17  44  1   
 41  18  19  1   
 42  18  45  1   
 43  19  20  2   
 44  19  21  1   
 45  21  22  1   
 46  22  23  1   
 47  22  46  1   
 48  22  47  1   
 49  23  48  1   
 50  23  49  1   
 51  23  50  1   
@<TRIPOS>SUBSTRUCTURE
  1 ****  11 GROUP 4 **** **** 0

# MOE 2024.06 (io_trps.svl 2023.06)
