@<TRIPOS>MOLECULE
NONAME
43 45 1 0 0 
SMALL
USER_CHARGES


@<TRIPOS>ATOM
  1 N        0.9700     0.9320     0.8100 N.2   1 <1>  -0.7070 
  2 N        2.1660     1.3080     1.3140 N.pl3 1 <1>   0.3140 
  3 C        0.2370     2.0180     0.8070 C.2   1 <1>   0.2350 
  4 C        2.1890     2.6340     1.6170 C.2   1 <1>  -0.0680 
  5 C        3.2450     0.3280     1.5490 C.3   1 <1>   0.0960 
  6 C       -1.1360     2.0700     0.3420 C.ar  1 <1>   0.0540 
  7 C        0.9640     3.1050     1.3040 C.2   1 <1>  -0.1500 
  8 N        3.2730     3.3540     2.1440 N.pl3 1 <1>  -0.8840 
  9 C        4.0120    -0.0140     0.2570 C.3   1 <1>  -0.0800 
 10 C       -2.0290     3.0490     0.7790 C.ar  1 <1>  -0.1500 
 11 C       -1.6180     1.1330    -0.5710 C.ar  1 <1>  -0.1500 
 12 C        5.0290    -1.1350     0.5370 C.3   1 <1>  -0.1600 
 13 C        4.7220     1.2150    -0.3440 C.3   1 <1>  -0.1600 
 14 C       -3.3330     3.0950     0.3200 C.ar  1 <1>  -0.1500 
 15 C       -2.9200     1.1740    -1.0340 C.ar  1 <1>  -0.1500 
 16 C        5.8250    -1.5040    -0.7220 C.3   1 <1>  -0.1600 
 17 C        5.5200     0.8460    -1.6010 C.3   1 <1>  -0.1600 
 18 C       -3.7880     2.1570    -0.5910 C.ar  1 <1>  -0.1430 
 19 C        6.5260    -0.2750    -1.3130 C.3   1 <1>  -0.1600 
 20 C       -5.2180     2.2060    -1.0980 C.3   1 <1>  -0.0970 
 21 H        2.7900    -0.5610     1.9450 H     1 <1>   0.0800 
 22 H        3.9130     0.7230     2.2900 H     1 <1>   0.0800 
 23 H        0.6040     4.1100     1.4030 H     1 <1>   0.1500 
 24 H        3.1370     4.3700     2.1490 H     1 <1>   0.4000 
 25 H        4.1830     3.1280     1.7280 H     1 <1>   0.4000 
 26 H        3.2990    -0.3850    -0.4610 H     1 <1>   0.0800 
 27 H       -1.7030     3.7810     1.4940 H     1 <1>   0.1500 
 28 H       -0.9520     0.3630    -0.9200 H     1 <1>   0.1500 
 29 H        4.5150    -2.0110     0.8940 H     1 <1>   0.0800 
 30 H        5.7150    -0.8190     1.3050 H     1 <1>   0.0800 
 31 H        5.3920     1.6380     0.3850 H     1 <1>   0.0800 
 32 H        3.9960     1.9660    -0.6080 H     1 <1>   0.0800 
 33 H       -3.9940     3.8650     0.6770 H     1 <1>   0.1500 
 34 H       -3.2540     0.4350    -1.7410 H     1 <1>   0.1500 
 35 H        5.1570    -1.9200    -1.4570 H     1 <1>   0.0800 
 36 H        6.5580    -2.2550    -0.4800 H     1 <1>   0.0800 
 37 H        6.0420     1.7140    -1.9660 H     1 <1>   0.0800 
 38 H        4.8400     0.5240    -2.3710 H     1 <1>   0.0800 
 39 H        7.0290    -0.5500    -2.2240 H     1 <1>   0.0800 
 40 H        7.2700     0.0810    -0.6210 H     1 <1>   0.0800 
 41 H       -5.2670     2.8070    -1.9880 H     1 <1>   0.0800 
 42 H       -5.8670     2.6310    -0.3540 H     1 <1>   0.0800 
 43 H       -5.5690     1.2160    -1.3270 H     1 <1>   0.0800 
@<TRIPOS>BOND
  1   1   2  1   
  2   1   3  2   
  3   2   4  1   
  4   2   5  1   
  5   3   6  1   
  6   3   7  1   
  7   4   7  2   
  8   4   8  1   
  9   5   9  1   
 10   5  21  1   
 11   5  22  1   
 12   6  10  ar  
 13   6  11  ar  
 14   7  23  1   
 15   8  24  1   
 16   8  25  1   
 17   9  12  1   
 18   9  13  1   
 19   9  26  1   
 20  10  14  ar  
 21  10  27  1   
 22  11  15  ar  
 23  11  28  1   
 24  12  16  1   
 25  12  29  1   
 26  12  30  1   
 27  13  17  1   
 28  13  31  1   
 29  13  32  1   
 30  14  18  ar  
 31  14  33  1   
 32  15  18  ar  
 33  15  34  1   
 34  16  19  1   
 35  16  35  1   
 36  16  36  1   
 37  17  19  1   
 38  17  37  1   
 39  17  38  1   
 40  18  20  1   
 41  19  39  1   
 42  19  40  1   
 43  20  41  1   
 44  20  42  1   
 45  20  43  1   
@<TRIPOS>SUBSTRUCTURE
  1 ****   1 GROUP 4 **** **** 0

# MOE 2024.06 (io_trps.svl 2023.06)
