@<TRIPOS>MOLECULE
NONAME
47 49 1 0 0 
SMALL
USER_CHARGES


@<TRIPOS>ATOM
  1 CL       0.4370    -0.9220    -2.7680 Cl    1 <1>  -0.1770 
  2 C        1.9220    -0.7700    -1.8680 C.ar  1 <1>   0.1770 
  3 C        1.8730    -0.4500    -0.5260 C.ar  1 <1>  -0.1500 
  4 C        3.1290    -0.9730    -2.5070 C.ar  1 <1>  -0.1500 
  5 C        3.0550    -0.3430     0.1880 C.ar  1 <1>  -0.1500 
  6 C        4.3040    -0.8610    -1.7820 C.ar  1 <1>  -0.1500 
  7 C        4.2900    -0.5540    -0.4240 C.ar  1 <1>  -0.0090 
  8 S        5.8360    -0.4710     0.5210 S.o2  1 <1>   1.4470 
  9 O        5.5400    -0.0860     1.8830 O.2   1 <1>  -0.6500 
 10 O        6.8280     0.2480    -0.2410 O.2   1 <1>  -0.6500 
 11 N        6.2950    -2.1410     0.5810 N.am  1 <1>  -0.6930 
 12 C        7.1010    -2.7240    -0.3960 C.ar  1 <1>   0.1990 
 13 C        5.9870    -2.9090     1.8310 C.3   1 <1>   0.2570 
 14 C        8.4900    -2.5570    -0.4170 C.ar  1 <1>  -0.1430 
 15 C        6.5060    -3.5040    -1.3830 C.ar  1 <1>  -0.1500 
 16 C        5.5590    -4.3640     1.6100 C.2   1 <1>   0.5690 
 17 C        9.2370    -3.1520    -1.4210 C.ar  1 <1>  -0.1500 
 18 C        9.2260    -1.7310     0.6330 C.3   1 <1>  -0.0960 
 19 C        7.2580    -4.0960    -2.3780 C.ar  1 <1>  -0.1500 
 20 O        6.3310    -5.2390     1.9320 O.2   1 <1>  -0.5700 
 21 N        4.3260    -4.6660     1.0890 N.am  1 <1>  -0.6600 
 22 C        8.6280    -3.9180    -2.3990 C.ar  1 <1>  -0.1500 
 23 C        3.9130    -6.0560     0.8020 C.3   1 <1>   0.1400 
 24 C        3.2610    -3.7090     0.7180 C.3   1 <1>   0.1400 
 25 C        2.6360    -5.9190    -0.0190 C.3   1 <1>  -0.1600 
 26 C        2.0490    -4.5760     0.4040 C.3   1 <1>  -0.1600 
 27 H        0.9210    -0.2870    -0.0500 H     1 <1>   0.1500 
 28 H        3.1460    -1.2130    -3.5560 H     1 <1>   0.1500 
 29 H        3.0180    -0.0900     1.2350 H     1 <1>   0.1500 
 30 H        5.2500    -1.0150    -2.2770 H     1 <1>   0.1500 
 31 H        5.2030    -2.4240     2.3810 H     1 <1>   0.0800 
 32 H        6.8620    -2.9090     2.4560 H     1 <1>   0.0800 
 33 H        5.4440    -3.6540    -1.3670 H     1 <1>   0.1500 
 34 H       10.3050    -3.0230    -1.4480 H     1 <1>   0.1500 
 35 H        9.2060    -0.6910     0.3580 H     1 <1>   0.0800 
 36 H       10.2510    -2.0430     0.7100 H     1 <1>   0.0800 
 37 H        8.7740    -1.8420     1.6000 H     1 <1>   0.0800 
 38 H        6.7820    -4.6980    -3.1330 H     1 <1>   0.1500 
 39 H        9.2210    -4.3760    -3.1720 H     1 <1>   0.1500 
 40 H        3.7170    -6.5620     1.7320 H     1 <1>   0.0800 
 41 H        4.6840    -6.5810     0.2620 H     1 <1>   0.0800 
 42 H        3.5610    -3.1720    -0.1630 H     1 <1>   0.0800 
 43 H        3.0550    -3.0210     1.5200 H     1 <1>   0.0800 
 44 H        1.9610    -6.7380     0.1550 H     1 <1>   0.0800 
 45 H        2.8940    -5.8950    -1.0640 H     1 <1>   0.0800 
 46 H        1.4310    -4.1380    -0.3600 H     1 <1>   0.0800 
 47 H        1.4650    -4.6990     1.2990 H     1 <1>   0.0800 
@<TRIPOS>BOND
  1   1   2  1   
  2   2   3  ar  
  3   2   4  ar  
  4   3   5  ar  
  5   3  27  1   
  6   4   6  ar  
  7   4  28  1   
  8   5   7  ar  
  9   5  29  1   
 10   6   7  ar  
 11   6  30  1   
 12   7   8  1   
 13   8   9  2   
 14   8  10  2   
 15   8  11  am  
 16  11  12  1   
 17  11  13  1   
 18  12  14  ar  
 19  12  15  ar  
 20  13  16  1   
 21  13  31  1   
 22  13  32  1   
 23  14  17  ar  
 24  14  18  1   
 25  15  19  ar  
 26  15  33  1   
 27  16  20  2   
 28  16  21  am  
 29  17  22  ar  
 30  17  34  1   
 31  18  35  1   
 32  18  36  1   
 33  18  37  1   
 34  19  22  ar  
 35  19  38  1   
 36  21  23  1   
 37  21  24  1   
 38  22  39  1   
 39  23  25  1   
 40  23  40  1   
 41  23  41  1   
 42  24  26  1   
 43  24  42  1   
 44  24  43  1   
 45  25  26  1   
 46  25  44  1   
 47  25  45  1   
 48  26  46  1   
 49  26  47  1   
@<TRIPOS>SUBSTRUCTURE
  1 ****  11 GROUP 4 **** **** 0

# MOE 2024.06 (io_trps.svl 2023.06)
