@<TRIPOS>MOLECULE
NONAME
35 36 1 0 0 
SMALL
USER_CHARGES


@<TRIPOS>ATOM
  1 S       -0.1230    -0.3360     0.7370 S.3   1 <1>  -0.2860 
  2 C        1.5790     0.1860     0.5000 C.2   1 <1>   0.2420 
  3 C       -1.0060     1.2820     0.9970 C.3   1 <1>   0.1310 
  4 N        1.9470     1.4160     0.4950 N.2   1 <1>  -0.3380 
  5 N        2.5800    -0.6730     0.3110 N.pl3 1 <1>   0.0480 
  6 C       -2.5050     1.0800     1.1620 C.2   1 <1>   0.5690 
  7 N        3.2670     1.3970     0.2910 N.2   1 <1>  -0.3380 
  8 C        3.6280     0.1580     0.1830 C.2   1 <1>   0.0060 
  9 C        2.5210    -2.1510     0.2590 C.3   1 <1>   0.0960 
 10 O       -3.1570     1.9280     1.7150 O.2   1 <1>  -0.5700 
 11 N       -3.1130    -0.0270     0.6900 N.am  1 <1>  -0.8000 
 12 C        5.0610    -0.3210    -0.0520 C.3   1 <1>   0.1000 
 13 C        2.2550    -2.6330    -1.1700 C.3   1 <1>  -0.2400 
 14 C        5.7670    -0.7290     1.2400 C.3   1 <1>  -0.1600 
 15 C        6.0020     0.7280    -0.6440 C.3   1 <1>  -0.1600 
 16 C        7.2670    -0.6460     0.9340 C.3   1 <1>  -0.1600 
 17 C        7.4050     0.2070    -0.3330 C.3   1 <1>  -0.1600 
 18 H       -0.8040     1.8980     0.1410 H     1 <1>   0.0800 
 19 H       -0.5890     1.7330     1.8770 H     1 <1>   0.0800 
 20 H        1.7380    -2.4910     0.9140 H     1 <1>   0.0800 
 21 H        3.4510    -2.5540     0.6170 H     1 <1>   0.0800 
 22 H       -4.1170    -0.1490     0.8200 H     1 <1>   0.3700 
 23 H       -2.6000    -0.7960     0.2580 H     1 <1>   0.3700 
 24 H        5.0510    -1.1620    -0.7230 H     1 <1>   0.0800 
 25 H        1.3110    -2.2540    -1.5230 H     1 <1>   0.0800 
 26 H        2.2170    -3.7070    -1.1910 H     1 <1>   0.0800 
 27 H        3.0370    -2.3060    -1.8320 H     1 <1>   0.0800 
 28 H        5.4790    -1.7100     1.5700 H     1 <1>   0.0800 
 29 H        5.5250    -0.0150     2.0100 H     1 <1>   0.0800 
 30 H        5.8620     1.6700    -0.1420 H     1 <1>   0.0800 
 31 H        5.8390     0.8660    -1.6990 H     1 <1>   0.0800 
 32 H        7.6700    -1.6290     0.7570 H     1 <1>   0.0800 
 33 H        7.7930    -0.1990     1.7590 H     1 <1>   0.0800 
 34 H        8.0990     1.0190    -0.1930 H     1 <1>   0.0800 
 35 H        7.7510    -0.4090    -1.1460 H     1 <1>   0.0800 
@<TRIPOS>BOND
  1   1   2  1   
  2   1   3  1   
  3   2   4  2   
  4   2   5  1   
  5   3   6  1   
  6   3  18  1   
  7   3  19  1   
  8   4   7  1   
  9   5   8  1   
 10   5   9  1   
 11   6  10  2   
 12   6  11  am  
 13   7   8  2   
 14   8  12  1   
 15   9  13  1   
 16   9  20  1   
 17   9  21  1   
 18  11  22  1   
 19  11  23  1   
 20  12  14  1   
 21  12  15  1   
 22  12  24  1   
 23  13  25  1   
 24  13  26  1   
 25  13  27  1   
 26  14  16  1   
 27  14  28  1   
 28  14  29  1   
 29  15  17  1   
 30  15  30  1   
 31  15  31  1   
 32  16  17  1   
 33  16  32  1   
 34  16  33  1   
 35  17  34  1   
 36  17  35  1   
@<TRIPOS>SUBSTRUCTURE
  1 ****   2 GROUP 4 **** **** 0

# MOE 2024.06 (io_trps.svl 2023.06)
