@<TRIPOS>MOLECULE
NONAME
28 28 1 0 0 
SMALL
USER_CHARGES


@<TRIPOS>ATOM
  1 S       -5.9740     4.2490     0.9000 S.2   1 <1>  -0.3800 
  2 C       -6.8800     3.0180     1.3980 C.2   1 <1>   0.5810 
  3 S       -6.0060     1.5170     1.7280 S.3   1 <1>  -0.3710 
  4 N       -8.2270     3.0270     1.5190 N.am  1 <1>  -0.6600 
  5 C       -5.4450     0.9900     0.0220 C.3   1 <1>  -0.0360 
  6 C       -9.0580     3.9730     0.7300 C.3   1 <1>   0.1400 
  7 C       -9.0350     1.8600     1.9670 C.3   1 <1>   0.1400 
  8 C       -6.6300     0.8490    -0.9180 C.2   1 <1>   0.9060 
  9 C       -9.5080     3.2590    -0.5610 C.3   1 <1>   0.3430 
 10 C       -9.5290     1.0780     0.7380 C.3   1 <1>   0.3430 
 11 O       -7.2640    -0.2120    -0.9620 O.co2 1 <1>  -0.9000 
 12 O       -7.0250     1.8260    -1.5630 O.co2 1 <1>  -0.9000 
 13 N      -10.1940     1.9260    -0.3260 N.4   1 <1>  -0.9590 
 14 C      -10.1010     1.1460    -1.6010 C.3   1 <1>   0.2630 
 15 H       -4.9430     0.0470     0.1230 H     1 <1>   0.0800 
 16 H       -4.7720     1.7390    -0.3460 H     1 <1>   0.0800 
 17 H       -8.5000     4.8550     0.4700 H     1 <1>   0.0800 
 18 H       -9.9120     4.2820     1.3060 H     1 <1>   0.0800 
 19 H       -9.8750     2.2040     2.5440 H     1 <1>   0.0800 
 20 H       -8.4580     1.2100     2.6000 H     1 <1>   0.0800 
 21 H       -8.6330     3.1120    -1.1680 H     1 <1>   0.0800 
 22 H      -10.1620     3.9090    -1.1160 H     1 <1>   0.0800 
 23 H      -10.2010     0.2980     1.0550 H     1 <1>   0.0800 
 24 H       -8.6740     0.5920     0.3190 H     1 <1>   0.0800 
 25 H      -11.1720     2.0840    -0.0720 H     1 <1>   0.4500 
 26 H       -9.0670     0.9760    -1.8600 H     1 <1>   0.0800 
 27 H      -10.5680     1.6820    -2.4100 H     1 <1>   0.0800 
 28 H      -10.5770     0.1860    -1.4930 H     1 <1>   0.0800 
@<TRIPOS>BOND
  1   1   2  2   
  2   2   3  1   
  3   2   4  am  
  4   3   5  1   
  5   4   6  1   
  6   4   7  1   
  7   5   8  1   
  8   5  15  1   
  9   5  16  1   
 10   6   9  1   
 11   6  17  1   
 12   6  18  1   
 13   7  10  1   
 14   7  19  1   
 15   7  20  1   
 16   8  11  ar  
 17   8  12  ar  
 18   9  13  1   
 19   9  21  1   
 20   9  22  1   
 21  10  13  1   
 22  10  23  1   
 23  10  24  1   
 24  13  14  1   
 25  13  25  1   
 26  14  26  1   
 27  14  27  1   
 28  14  28  1   
@<TRIPOS>SUBSTRUCTURE
  1 ****   4 GROUP 4 **** **** 0

# MOE 2024.06 (io_trps.svl 2023.06)
