@<TRIPOS>MOLECULE
NONAME
30 31 1 0 0 
SMALL
USER_CHARGES


@<TRIPOS>ATOM
  1 O       -0.4760    -0.0240     0.2310 O.3   1 <1>  -0.3630 
  2 C       -1.6510     0.6160     0.3670 C.ar  1 <1>   0.3920 
  3 C       -0.3840    -1.3960    -0.0720 C.3   1 <1>   0.1200 
  4 N       -1.5560     1.8800     0.7130 N.ar  1 <1>  -0.6200 
  5 C       -2.8710     0.0090     0.1650 C.ar  1 <1>  -0.1500 
  6 C        1.0940    -1.7730    -0.1090 C.3   1 <1>  -0.2400 
  7 C       -2.7020     2.5120     0.8550 C.ar  1 <1>   0.4700 
  8 C       -4.0190     0.7570     0.3350 C.ar  1 <1>   0.2870 
  9 N       -3.9230     2.0390     0.6890 N.ar  1 <1>  -0.6200 
 10 N       -5.3050     0.1430     0.1340 N.pl3 1 <1>   0.5930 
 11 N       -5.4760    -1.2130     0.2230 N.2   1 <1>  -0.7070 
 12 C       -6.5050     0.7150    -0.2060 C.2   1 <1>  -0.3320 
 13 C       -6.7200    -1.4380    -0.0370 C.2   1 <1>   0.1080 
 14 C       -7.4170    -0.2710    -0.3160 C.2   1 <1>  -0.1500 
 15 C       -6.7500     2.2020    -0.4230 C.3   1 <1>  -0.0600 
 16 C       -7.3150    -2.8270    -0.0330 C.3   1 <1>  -0.0590 
 17 H       -0.8430    -1.5670    -1.0310 H     1 <1>   0.0800 
 18 H       -0.8980    -1.9520     0.6940 H     1 <1>   0.0800 
 19 H       -2.9460    -1.0220    -0.1180 H     1 <1>   0.1500 
 20 H        1.6020    -1.2010    -0.8650 H     1 <1>   0.0800 
 21 H        1.1990    -2.8170    -0.3380 H     1 <1>   0.0800 
 22 H        1.5470    -1.5830     0.8480 H     1 <1>   0.0800 
 23 H       -2.6320     3.5480     1.1430 H     1 <1>   0.1500 
 24 H       -8.4620    -0.2030    -0.5640 H     1 <1>   0.1500 
 25 H       -6.0820     2.5840    -1.1740 H     1 <1>   0.0800 
 26 H       -6.5900     2.7420     0.4930 H     1 <1>   0.0800 
 27 H       -7.7620     2.3720    -0.7460 H     1 <1>   0.0800 
 28 H       -6.8280    -3.4280    -0.7780 H     1 <1>   0.0800 
 29 H       -8.3670    -2.7870    -0.2440 H     1 <1>   0.0800 
 30 H       -7.1660    -3.2770     0.9310 H     1 <1>   0.0800 
@<TRIPOS>BOND
  1   1   2  1   
  2   1   3  1   
  3   2   4  ar  
  4   2   5  ar  
  5   3   6  1   
  6   3  17  1   
  7   3  18  1   
  8   4   7  ar  
  9   5   8  ar  
 10   5  19  1   
 11   6  20  1   
 12   6  21  1   
 13   6  22  1   
 14   7   9  ar  
 15   7  23  1   
 16   8   9  ar  
 17   8  10  1   
 18  10  11  1   
 19  10  12  1   
 20  11  13  2   
 21  12  14  2   
 22  12  15  1   
 23  13  14  1   
 24  13  16  1   
 25  14  24  1   
 26  15  25  1   
 27  15  26  1   
 28  15  27  1   
 29  16  28  1   
 30  16  29  1   
 31  16  30  1   
@<TRIPOS>SUBSTRUCTURE
  1 ****   8 GROUP 4 **** **** 0

# MOE 2024.06 (io_trps.svl 2023.06)
