@<TRIPOS>MOLECULE
NONAME
37 38 1 0 0 
SMALL
USER_CHARGES


@<TRIPOS>ATOM
  1 F        0.6520     0.3150    -1.0870 F     1 <1>  -0.1900 
  2 C        1.6970     0.9430    -0.6230 C.ar  1 <1>   0.1900 
  3 C        1.9180     2.2490    -1.0120 C.ar  1 <1>  -0.1500 
  4 C        2.5450     0.2790     0.2410 C.ar  1 <1>  -0.1500 
  5 C        3.0310     2.9120    -0.5200 C.ar  1 <1>  -0.1500 
  6 C        3.6560     0.9470     0.7290 C.ar  1 <1>  -0.1500 
  7 C        3.9050     2.2620     0.3480 C.ar  1 <1>  -0.1430 
  8 C        5.1270     2.9820     0.8710 C.3   1 <1>   0.4870 
  9 N        6.2150     2.7120    -0.1010 N.4   1 <1>  -0.9060 
 10 C        7.5460     3.2670     0.2450 C.3   1 <1>   0.4230 
 11 C        7.5470     4.7950     0.1170 C.3   1 <1>  -0.1600 
 12 C        8.5900     2.6570    -0.6930 C.3   1 <1>  -0.1600 
 13 C        8.9450     5.3710     0.3610 C.3   1 <1>   0.3430 
 14 C        9.9790     3.2470    -0.4370 C.3   1 <1>   0.3430 
 15 N        9.9320     4.7330    -0.5590 N.4   1 <1>  -0.9590 
 16 C       11.2990     5.3120    -0.3290 C.3   1 <1>   0.2630 
 17 H        1.2270     2.7300    -1.6830 H     1 <1>   0.1500 
 18 H        2.3300    -0.7380     0.5230 H     1 <1>   0.1500 
 19 H        3.1920     3.9340    -0.8200 H     1 <1>   0.1500 
 20 H        4.3080     0.4260     1.4110 H     1 <1>   0.1500 
 21 H        5.3820     2.6060     1.8490 H     1 <1>   0.0800 
 22 H        4.9260     4.0390     0.9420 H     1 <1>   0.0800 
 23 H        5.8910     3.0380    -1.0200 H     1 <1>   0.4500 
 24 H        6.2620     1.6880    -0.1900 H     1 <1>   0.4500 
 25 H        7.7930     2.9960     1.2600 H     1 <1>   0.0800 
 26 H        6.8830     5.2280     0.8440 H     1 <1>   0.0800 
 27 H        7.2160     5.0950    -0.8620 H     1 <1>   0.0800 
 28 H        8.3270     2.8280    -1.7220 H     1 <1>   0.0800 
 29 H        8.6460     1.5940    -0.5330 H     1 <1>   0.0800 
 30 H        9.2380     5.1950     1.3850 H     1 <1>   0.0800 
 31 H        8.9300     6.4380     0.1990 H     1 <1>   0.0800 
 32 H       10.6810     2.8420    -1.1510 H     1 <1>   0.0800 
 33 H       10.3170     2.9740     0.5510 H     1 <1>   0.0800 
 34 H        9.6770     4.9740    -1.5320 H     1 <1>   0.4500 
 35 H       11.6370     5.1000     0.6730 H     1 <1>   0.0800 
 36 H       11.2830     6.3820    -0.4670 H     1 <1>   0.0800 
 37 H       12.0070     4.8920    -1.0260 H     1 <1>   0.0800 
@<TRIPOS>BOND
  1   1   2  1   
  2   2   3  ar  
  3   2   4  ar  
  4   3   5  ar  
  5   3  17  1   
  6   4   6  ar  
  7   4  18  1   
  8   5   7  ar  
  9   5  19  1   
 10   6   7  ar  
 11   6  20  1   
 12   7   8  1   
 13   8   9  1   
 14   8  21  1   
 15   8  22  1   
 16   9  10  1   
 17   9  23  1   
 18   9  24  1   
 19  10  11  1   
 20  10  12  1   
 21  10  25  1   
 22  11  13  1   
 23  11  26  1   
 24  11  27  1   
 25  12  14  1   
 26  12  28  1   
 27  12  29  1   
 28  13  15  1   
 29  13  30  1   
 30  13  31  1   
 31  14  15  1   
 32  14  32  1   
 33  14  33  1   
 34  15  16  1   
 35  15  34  1   
 36  16  35  1   
 37  16  36  1   
 38  16  37  1   
@<TRIPOS>SUBSTRUCTURE
  1 ****   9 GROUP 4 **** **** 0

# MOE 2024.06 (io_trps.svl 2023.06)
