@<TRIPOS>MOLECULE
NONAME
41 42 1 0 0 
SMALL
USER_CHARGES


@<TRIPOS>ATOM
  1 S        0.2360     0.3110     0.0790 S.3   1 <1>  -0.2860 
  2 C       -1.5290     0.6590     0.0970 C.2   1 <1>   0.2420 
  3 C        0.3860    -1.5290    -0.1410 C.3   1 <1>   0.1310 
  4 N       -2.0080     1.8400     0.2530 N.2   1 <1>  -0.3380 
  5 N       -2.4700    -0.2670    -0.0480 N.pl3 1 <1>   0.0330 
  6 C        1.8370    -1.9810    -0.1970 C.2   1 <1>   0.5690 
  7 N       -3.3390     1.7020     0.2110 N.2   1 <1>  -0.3380 
  8 C       -3.5960     0.4480     0.0320 C.2   1 <1>   0.0060 
  9 O        2.0310    -3.1480    -0.4300 O.2   1 <1>  -0.5700 
 10 N        2.8320    -1.0630     0.0110 N.am  1 <1>  -0.5470 
 11 C       -4.9790    -0.1830    -0.0800 C.3   1 <1>   0.0200 
 12 C        4.2320    -1.1690     0.0290 C.ar  1 <1>   0.1170 
 13 C       -6.1190     0.8400     0.0380 C.3   1 <1>  -0.1600 
 14 C        4.9790     0.0040     0.0240 C.ar  1 <1>  -0.1500 
 15 C        4.9120    -2.3830     0.0610 C.ar  1 <1>  -0.1500 
 16 C       -7.4950     0.1710    -0.0800 C.3   1 <1>  -0.1600 
 17 C        6.3630    -0.0220     0.0470 C.ar  1 <1>  -0.1430 
 18 C        6.2930    -2.4190     0.0830 C.ar  1 <1>  -0.1500 
 19 C       -8.6180     1.2040     0.0400 C.3   1 <1>  -0.2400 
 20 C        7.0190    -1.2410     0.0760 C.ar  1 <1>  -0.1500 
 21 C        7.1680     1.2650     0.0390 C.3   1 <1>  -0.0970 
 22 H       -0.1070    -1.7840    -1.0600 H     1 <1>   0.0800 
 23 H       -0.1070    -1.9940     0.6910 H     1 <1>   0.0800 
 24 H       -2.3630    -1.2700    -0.1880 H     1 <1>   0.2700 
 25 H        2.4890    -0.1110     0.1530 H     1 <1>   0.3700 
 26 H       -5.0870    -0.9190     0.6970 H     1 <1>   0.0800 
 27 H       -5.0550    -0.6830    -1.0300 H     1 <1>   0.0800 
 28 H       -6.0110     1.5800    -0.7370 H     1 <1>   0.0800 
 29 H       -6.0440     1.3440     0.9860 H     1 <1>   0.0800 
 30 H        4.4690     0.9490    -0.0010 H     1 <1>   0.1500 
 31 H        4.3700    -3.3100     0.0720 H     1 <1>   0.1500 
 32 H       -7.6100    -0.5650     0.6980 H     1 <1>   0.0800 
 33 H       -7.5770    -0.3290    -1.0300 H     1 <1>   0.0800 
 34 H        6.8040    -3.3660     0.1060 H     1 <1>   0.1500 
 35 H       -8.5690     1.7040     0.9920 H     1 <1>   0.0800 
 36 H       -9.5750     0.7210    -0.0440 H     1 <1>   0.0800 
 37 H       -8.5360     1.9410    -0.7410 H     1 <1>   0.0800 
 38 H        8.0940    -1.2780     0.0920 H     1 <1>   0.1500 
 39 H        6.5300     2.1190     0.1790 H     1 <1>   0.0800 
 40 H        7.6790     1.3680    -0.9010 H     1 <1>   0.0800 
 41 H        7.8950     1.2490     0.8310 H     1 <1>   0.0800 
@<TRIPOS>BOND
  1   1   2  1   
  2   1   3  1   
  3   2   4  2   
  4   2   5  1   
  5   3   6  1   
  6   3  22  1   
  7   3  23  1   
  8   4   7  1   
  9   5   8  1   
 10   5  24  1   
 11   6   9  2   
 12   6  10  am  
 13   7   8  2   
 14   8  11  1   
 15  10  12  1   
 16  10  25  1   
 17  11  13  1   
 18  11  26  1   
 19  11  27  1   
 20  12  14  ar  
 21  12  15  ar  
 22  13  16  1   
 23  13  28  1   
 24  13  29  1   
 25  14  17  ar  
 26  14  30  1   
 27  15  18  ar  
 28  15  31  1   
 29  16  19  1   
 30  16  32  1   
 31  16  33  1   
 32  17  20  ar  
 33  17  21  1   
 34  18  20  ar  
 35  18  34  1   
 36  19  35  1   
 37  19  36  1   
 38  19  37  1   
 39  20  38  1   
 40  21  39  1   
 41  21  40  1   
 42  21  41  1   
@<TRIPOS>SUBSTRUCTURE
  1 ****   1 GROUP 4 **** **** 0

# MOE 2024.06 (io_trps.svl 2023.06)
