@<TRIPOS>MOLECULE
NONAME
52 54 1 0 0 
SMALL
USER_CHARGES


@<TRIPOS>ATOM
  1 O       -3.8900     1.1660     0.1890 O.3   1 <1>  -0.3630 
  2 C       -5.2420     1.0760     0.1110 C.ar  1 <1>   0.0830 
  3 C       -3.2430     2.4230     0.2460 C.3   1 <1>   0.1200 
  4 C       -6.0920     2.1820     0.1220 C.ar  1 <1>  -0.1500 
  5 C       -5.7770    -0.2030     0.0170 C.ar  1 <1>  -0.1500 
  6 C       -1.7260     2.2090     0.3160 C.3   1 <1>   0.2000 
  7 C       -7.4570     1.9780     0.0360 C.ar  1 <1>  -0.1440 
  8 C       -7.1470    -0.3940    -0.0670 C.ar  1 <1>  -0.1500 
  9 O       -1.4690     1.3060     1.3430 O.3   1 <1>  -0.6800 
 10 C       -0.9690     3.5350     0.5580 C.3   1 <1>   0.1100 
 11 C       -7.9770     0.7110    -0.0570 C.ar  1 <1>  -0.1430 
 12 C       -8.5500     3.0190     0.0310 C.3   1 <1>  -0.0170 
 13 N        0.4880     3.4890     0.2630 N.3   1 <1>  -0.8100 
 14 C       -9.4830     0.7390    -0.1370 C.3   1 <1>  -0.0170 
 15 C       -9.7990     2.2240    -0.3890 C.3   1 <1>  -0.1600 
 16 C        1.0820     4.8440     0.3560 C.3   1 <1>   0.1100 
 17 C        1.2140     2.5450     1.1570 C.3   1 <1>   0.1100 
 18 C        2.5850     4.8570    -0.0210 C.3   1 <1>   0.3430 
 19 C        2.7520     2.6550     1.0460 C.3   1 <1>   0.3430 
 20 N        3.1320     3.4660    -0.1570 N.4   1 <1>  -0.9590 
 21 C        4.5910     3.4570    -0.4880 C.3   1 <1>   0.3430 
 22 C        5.0870     2.0750    -0.9370 C.3   1 <1>   0.1200 
 23 O        6.4340     2.1870    -1.2350 O.3   1 <1>  -0.6800 
 24 H       -3.5880     2.9440     1.1220 H     1 <1>   0.0800 
 25 H       -3.5030     2.9790    -0.6380 H     1 <1>   0.0800 
 26 H       -5.7230     3.1850     0.1940 H     1 <1>   0.1500 
 27 H       -5.1150    -1.0490     0.0100 H     1 <1>   0.1500 
 28 H       -1.3950     1.7700    -0.6100 H     1 <1>   0.0800 
 29 H       -7.5580    -1.3850    -0.1400 H     1 <1>   0.1500 
 30 H       -2.1590     0.6070     1.3050 H     1 <1>   0.4000 
 31 H       -1.1350     3.8530     1.5740 H     1 <1>   0.0800 
 32 H       -1.4090     4.2750    -0.0880 H     1 <1>   0.0800 
 33 H       -8.3360     3.8140    -0.6610 H     1 <1>   0.0800 
 34 H       -8.6690     3.4170     1.0230 H     1 <1>   0.0800 
 35 H       -9.8970     0.4160     0.8020 H     1 <1>   0.0800 
 36 H       -9.8480     0.1160    -0.9340 H     1 <1>   0.0800 
 37 H       -9.9610     2.3680    -1.4430 H     1 <1>   0.0800 
 38 H      -10.6750     2.5430     0.1470 H     1 <1>   0.0800 
 39 H        0.9680     5.2200     1.3600 H     1 <1>   0.0800 
 40 H        0.5570     5.5170    -0.3010 H     1 <1>   0.0800 
 41 H        0.9400     1.5380     0.8970 H     1 <1>   0.0800 
 42 H        0.9200     2.7010     2.1820 H     1 <1>   0.0800 
 43 H        3.1320     5.4010     0.7310 H     1 <1>   0.0800 
 44 H        2.7030     5.3830    -0.9540 H     1 <1>   0.0800 
 45 H        3.1680     1.6630     0.9840 H     1 <1>   0.0800 
 46 H        3.1400     3.1190     1.9370 H     1 <1>   0.0800 
 47 H        2.5750     3.0590    -0.9250 H     1 <1>   0.4500 
 48 H        5.1600     3.7690     0.3720 H     1 <1>   0.0800 
 49 H        4.7790     4.1530    -1.2890 H     1 <1>   0.0800 
 50 H        4.5750     1.7520    -1.8270 H     1 <1>   0.0800 
 51 H        4.9820     1.3450    -0.1550 H     1 <1>   0.0800 
 52 H        6.8070     1.3370    -1.5540 H     1 <1>   0.4000 
@<TRIPOS>BOND
  1   1   2  1   
  2   1   3  1   
  3   2   4  ar  
  4   2   5  ar  
  5   3   6  1   
  6   3  24  1   
  7   3  25  1   
  8   4   7  ar  
  9   4  26  1   
 10   5   8  ar  
 11   5  27  1   
 12   6   9  1   
 13   6  10  1   
 14   6  28  1   
 15   7  11  ar  
 16   7  12  1   
 17   8  11  ar  
 18   8  29  1   
 19   9  30  1   
 20  10  13  1   
 21  10  31  1   
 22  10  32  1   
 23  11  14  1   
 24  12  15  1   
 25  12  33  1   
 26  12  34  1   
 27  13  16  1   
 28  13  17  1   
 29  14  15  1   
 30  14  35  1   
 31  14  36  1   
 32  15  37  1   
 33  15  38  1   
 34  16  18  1   
 35  16  39  1   
 36  16  40  1   
 37  17  19  1   
 38  17  41  1   
 39  17  42  1   
 40  18  20  1   
 41  18  43  1   
 42  18  44  1   
 43  19  20  1   
 44  19  45  1   
 45  19  46  1   
 46  20  21  1   
 47  20  47  1   
 48  21  22  1   
 49  21  48  1   
 50  21  49  1   
 51  22  23  1   
 52  22  50  1   
 53  22  51  1   
 54  23  52  1   
@<TRIPOS>SUBSTRUCTURE
  1 ****   6 GROUP 4 **** **** 0

# MOE 2024.06 (io_trps.svl 2023.06)
