@<TRIPOS>MOLECULE
NONAME
41 43 1 0 0 
SMALL
USER_CHARGES


@<TRIPOS>ATOM
  1 O       -0.7800    -0.7230    -1.0890 O.3   1 <1>  -0.3630 
  2 C       -1.9870    -1.0230    -0.5470 C.ar  1 <1>   0.0830 
  3 C        0.0830    -1.7060    -1.6180 C.3   1 <1>   0.0400 
  4 C       -2.7300     0.0510     0.0060 C.ar  1 <1>   0.0000 
  5 C       -2.4890    -2.3020    -0.5210 C.ar  1 <1>  -0.1500 
  6 C       -3.9880    -0.2120     0.6020 C.ar  1 <1>   0.0000 
  7 C       -2.2600     1.3830    -0.0120 C.ar  1 <1>  -0.1500 
  8 C       -3.7410    -2.5580     0.0360 C.ar  1 <1>  -0.1500 
  9 C       -4.4830    -1.5400     0.5760 C.ar  1 <1>  -0.1440 
 10 C       -4.6850     0.8720     1.1930 C.ar  1 <1>  -0.1500 
 11 C       -2.9700     2.4080     0.5450 C.ar  1 <1>  -0.1500 
 12 C       -5.8570    -1.8470     1.1220 C.3   1 <1>   0.4860 
 13 C       -4.1940     2.1470     1.1610 C.ar  1 <1>  -0.1500 
 14 N       -6.8170    -1.3870     0.0980 N.4   1 <1>  -0.9060 
 15 C       -8.2360    -1.4760     0.4780 C.3   1 <1>   0.4230 
 16 C       -8.6940    -2.9300     0.4100 C.3   1 <1>  -0.1600 
 17 C       -9.0550    -0.8140    -0.6230 C.3   1 <1>  -0.1600 
 18 C       -8.9430    -3.2210    -1.0750 C.3   1 <1>  -0.1600 
 19 C       -9.1760    -1.8590    -1.7400 C.3   1 <1>  -0.1600 
 20 H        0.9760    -1.2150    -1.9620 H     1 <1>   0.0800 
 21 H       -0.4050    -2.1930    -2.4430 H     1 <1>   0.0800 
 22 H        0.3310    -2.4090    -0.8430 H     1 <1>   0.0800 
 23 H       -1.9420    -3.1330    -0.9280 H     1 <1>   0.1500 
 24 H       -1.3120     1.5880    -0.4790 H     1 <1>   0.1500 
 25 H       -4.0960    -3.5760     0.0210 H     1 <1>   0.1500 
 26 H       -5.6180     0.7130     1.6950 H     1 <1>   0.1500 
 27 H       -2.5940     3.4160     0.5220 H     1 <1>   0.1500 
 28 H       -6.0100    -1.3310     2.0560 H     1 <1>   0.0800 
 29 H       -5.9620    -2.9070     1.2890 H     1 <1>   0.0800 
 30 H       -4.7300     2.9670     1.6110 H     1 <1>   0.1500 
 31 H       -6.6770    -1.9320    -0.7590 H     1 <1>   0.4500 
 32 H       -6.5720    -0.4220    -0.1480 H     1 <1>   0.4500 
 33 H       -8.4150    -1.0250     1.4420 H     1 <1>   0.0800 
 34 H       -9.6330    -3.0080     0.9320 H     1 <1>   0.0800 
 35 H       -8.0100    -3.6270     0.8590 H     1 <1>   0.0800 
 36 H       -8.6370     0.1160    -0.9670 H     1 <1>   0.0800 
 37 H      -10.0400    -0.6140    -0.2360 H     1 <1>   0.0800 
 38 H       -9.7990    -3.8650    -1.1990 H     1 <1>   0.0800 
 39 H       -8.0890    -3.7060    -1.5170 H     1 <1>   0.0800 
 40 H       -8.4330    -1.6880    -2.5020 H     1 <1>   0.0800 
 41 H      -10.1490    -1.8120    -2.2020 H     1 <1>   0.0800 
@<TRIPOS>BOND
  1   1   2  1   
  2   1   3  1   
  3   2   4  ar  
  4   2   5  ar  
  5   3  20  1   
  6   3  21  1   
  7   3  22  1   
  8   4   6  ar  
  9   4   7  ar  
 10   5   8  ar  
 11   5  23  1   
 12   6   9  ar  
 13   6  10  ar  
 14   7  11  ar  
 15   7  24  1   
 16   8   9  ar  
 17   8  25  1   
 18   9  12  1   
 19  10  13  ar  
 20  10  26  1   
 21  11  13  ar  
 22  11  27  1   
 23  12  14  1   
 24  12  28  1   
 25  12  29  1   
 26  13  30  1   
 27  14  15  1   
 28  14  31  1   
 29  14  32  1   
 30  15  16  1   
 31  15  17  1   
 32  15  33  1   
 33  16  18  1   
 34  16  34  1   
 35  16  35  1   
 36  17  19  1   
 37  17  36  1   
 38  17  37  1   
 39  18  19  1   
 40  18  38  1   
 41  18  39  1   
 42  19  40  1   
 43  19  41  1   
@<TRIPOS>SUBSTRUCTURE
  1 ****   9 GROUP 4 **** **** 0

# MOE 2024.06 (io_trps.svl 2023.06)
