@<TRIPOS>MOLECULE
NONAME
49 51 1 0 0 
SMALL
USER_CHARGES


@<TRIPOS>ATOM
  1 O       -3.7050     1.6270    -0.5380 O.2   1 <1>  -0.5700 
  2 C       -2.6680     2.1770    -0.8570 C.2   1 <1>   0.6340 
  3 O       -2.4820     2.4540    -2.1530 O.3   1 <1>  -0.4300 
  4 C       -1.6180     2.5490     0.0720 C.ar  1 <1>   0.0860 
  5 C       -3.4440     2.1280    -3.1380 C.3   1 <1>   0.0400 
  6 C       -1.8420     2.6880     1.4590 C.ar  1 <1>   0.1170 
  7 C       -0.3240     2.7890    -0.4070 C.ar  1 <1>  -0.1500 
  8 N       -3.1110     2.4640     2.0140 N.am  1 <1>  -0.5470 
  9 C       -0.7790     3.0450     2.2870 C.ar  1 <1>  -0.1500 
 10 C        0.7130     3.1470     0.4290 C.ar  1 <1>  -0.1500 
 11 C       -3.7360     2.9550     3.1280 C.2   1 <1>   0.5690 
 12 C        0.4840     3.2750     1.7850 C.ar  1 <1>  -0.1500 
 13 O       -3.2350     3.7520     3.8840 O.2   1 <1>  -0.5700 
 14 C       -5.1580     2.4640     3.4130 C.3   1 <1>   0.1710 
 15 N       -5.8410     1.8480     2.2400 N.3   1 <1>  -0.8100 
 16 C       -7.0300     1.0730     2.6600 C.3   1 <1>   0.1100 
 17 C       -6.2540     2.8730     1.2460 C.3   1 <1>   0.1100 
 18 C       -7.7430     0.4120     1.4630 C.3   1 <1>   0.2090 
 19 C       -6.9500     2.2450     0.0240 C.3   1 <1>   0.2090 
 20 N       -8.1270     1.4250     0.4380 N.pl3 1 <1>  -0.8380 
 21 C       -8.9270     0.9600    -0.5980 C.ar  1 <1>   0.1000 
 22 C      -10.2330     1.4160    -0.7120 C.ar  1 <1>  -0.1500 
 23 C       -8.4550     0.0450    -1.5330 C.ar  1 <1>  -0.1500 
 24 C      -11.0520     0.9720    -1.7340 C.ar  1 <1>  -0.1500 
 25 C       -9.2700    -0.4030    -2.5570 C.ar  1 <1>  -0.1500 
 26 C      -10.5710     0.0610    -2.6590 C.ar  1 <1>  -0.1500 
 27 H       -3.0720     2.4440    -4.0960 H     1 <1>   0.0800 
 28 H       -4.3640     2.6380    -2.9110 H     1 <1>   0.0800 
 29 H       -3.5990     1.0630    -3.1340 H     1 <1>   0.0800 
 30 H       -0.1220     2.6930    -1.4600 H     1 <1>   0.1500 
 31 H       -3.7600     1.9050     1.4340 H     1 <1>   0.3700 
 32 H       -0.9380     3.1430     3.3460 H     1 <1>   0.1500 
 33 H        1.6980     3.3260     0.0310 H     1 <1>   0.1500 
 34 H        1.2880     3.5520     2.4470 H     1 <1>   0.1500 
 35 H       -5.7410     3.2870     3.7860 H     1 <1>   0.0800 
 36 H       -5.0820     1.7340     4.1980 H     1 <1>   0.0800 
 37 H       -7.7310     1.7180     3.1630 H     1 <1>   0.0800 
 38 H       -6.7290     0.3020     3.3470 H     1 <1>   0.0800 
 39 H       -5.3930     3.4180     0.9010 H     1 <1>   0.0800 
 40 H       -6.9320     3.5740     1.7010 H     1 <1>   0.0800 
 41 H       -8.6280    -0.0940     1.8060 H     1 <1>   0.0800 
 42 H       -7.0860    -0.3170     1.0220 H     1 <1>   0.0800 
 43 H       -6.2480     1.6270    -0.5060 H     1 <1>   0.0800 
 44 H       -7.2790     3.0240    -0.6410 H     1 <1>   0.0800 
 45 H      -10.5930     2.1230     0.0120 H     1 <1>   0.1500 
 46 H       -7.4460    -0.3120    -1.4530 H     1 <1>   0.1500 
 47 H      -12.0620     1.3350    -1.8080 H     1 <1>   0.1500 
 48 H       -8.8940    -1.1110    -3.2740 H     1 <1>   0.1500 
 49 H      -11.2070    -0.2860    -3.4540 H     1 <1>   0.1500 
@<TRIPOS>BOND
  1   1   2  2   
  2   2   3  1   
  3   2   4  1   
  4   3   5  1   
  5   4   6  ar  
  6   4   7  ar  
  7   5  27  1   
  8   5  28  1   
  9   5  29  1   
 10   6   8  1   
 11   6   9  ar  
 12   7  10  ar  
 13   7  30  1   
 14   8  11  am  
 15   8  31  1   
 16   9  12  ar  
 17   9  32  1   
 18  10  12  ar  
 19  10  33  1   
 20  11  13  2   
 21  11  14  1   
 22  12  34  1   
 23  14  15  1   
 24  14  35  1   
 25  14  36  1   
 26  15  16  1   
 27  15  17  1   
 28  16  18  1   
 29  16  37  1   
 30  16  38  1   
 31  17  19  1   
 32  17  39  1   
 33  17  40  1   
 34  18  20  1   
 35  18  41  1   
 36  18  42  1   
 37  19  20  1   
 38  19  43  1   
 39  19  44  1   
 40  20  21  1   
 41  21  22  ar  
 42  21  23  ar  
 43  22  24  ar  
 44  22  45  1   
 45  23  25  ar  
 46  23  46  1   
 47  24  26  ar  
 48  24  47  1   
 49  25  26  ar  
 50  25  48  1   
 51  26  49  1   
@<TRIPOS>SUBSTRUCTURE
  1 ****   1 GROUP 4 **** **** 0

# MOE 2024.06 (io_trps.svl 2023.06)
