@<TRIPOS>MOLECULE
NONAME
35 35 1 0 0 
SMALL
USER_CHARGES


@<TRIPOS>ATOM
  1 S       -0.0190     0.3970    -0.2890 S.3   1 <1>  -0.3320 
  2 C       -1.4290    -0.6970    -0.0370 C.ar  1 <1>   0.1020 
  3 C        1.4820    -0.6780    -0.3330 C.3   1 <1>   0.0700 
  4 C       -2.6750    -0.1040     0.0620 C.ar  1 <1>  -0.1500 
  5 C       -1.2890    -2.0740     0.0540 C.ar  1 <1>  -0.1500 
  6 C        2.6990     0.2190    -0.5510 C.3   1 <1>  -0.0990 
  7 C       -3.7960    -0.8930     0.2560 C.ar  1 <1>  -0.1500 
  8 C       -2.4140    -2.8580     0.2490 C.ar  1 <1>  -0.1500 
  9 C        3.9760    -0.5900    -0.5080 C.2   1 <1>   0.5690 
 10 C       -3.6640    -2.2690     0.3500 C.ar  1 <1>  -0.1500 
 11 O        4.0520    -1.5990    -1.1640 O.2   1 <1>  -0.5700 
 12 N        4.9950    -0.1520     0.2730 N.am  1 <1>  -0.7300 
 13 C        6.3140    -0.8130     0.4050 C.3   1 <1>   0.1400 
 14 C        7.4480     0.1800     0.1010 C.3   1 <1>  -0.0800 
 15 C        8.8020    -0.5380     0.1660 C.3   1 <1>  -0.2400 
 16 C        7.4550     1.3750     1.0690 C.3   1 <1>  -0.2400 
 17 H        1.3610    -1.3780    -1.1420 H     1 <1>   0.0800 
 18 H        1.5370    -1.1960     0.6090 H     1 <1>   0.0800 
 19 H       -2.7620     0.9650    -0.0130 H     1 <1>   0.1500 
 20 H       -0.3290    -2.5460    -0.0230 H     1 <1>   0.1500 
 21 H        2.7230     0.9790     0.2070 H     1 <1>   0.0800 
 22 H        2.6270     0.6920    -1.5130 H     1 <1>   0.0800 
 23 H       -4.7680    -0.4370     0.3340 H     1 <1>   0.1500 
 24 H       -2.3170    -3.9270     0.3220 H     1 <1>   0.1500 
 25 H       -4.5360    -2.8810     0.5010 H     1 <1>   0.1500 
 26 H        4.8930     0.7120     0.8050 H     1 <1>   0.3700 
 27 H        6.3710    -1.6440    -0.2780 H     1 <1>   0.0800 
 28 H        6.4170    -1.1960     1.4050 H     1 <1>   0.0800 
 29 H        7.3140     0.5440    -0.9040 H     1 <1>   0.0800 
 30 H        8.9830    -0.9210     1.1550 H     1 <1>   0.0800 
 31 H        9.5970     0.1400    -0.0910 H     1 <1>   0.0800 
 32 H        8.8230    -1.3580    -0.5300 H     1 <1>   0.0800 
 33 H        7.5390     1.0380     2.0870 H     1 <1>   0.0800 
 34 H        6.5550     1.9550     0.9680 H     1 <1>   0.0800 
 35 H        8.2880     2.0210     0.8530 H     1 <1>   0.0800 
@<TRIPOS>BOND
  1   1   2  1   
  2   1   3  1   
  3   2   4  ar  
  4   2   5  ar  
  5   3   6  1   
  6   3  17  1   
  7   3  18  1   
  8   4   7  ar  
  9   4  19  1   
 10   5   8  ar  
 11   5  20  1   
 12   6   9  1   
 13   6  21  1   
 14   6  22  1   
 15   7  10  ar  
 16   7  23  1   
 17   8  10  ar  
 18   8  24  1   
 19   9  11  2   
 20   9  12  am  
 21  10  25  1   
 22  12  13  1   
 23  12  26  1   
 24  13  14  1   
 25  13  27  1   
 26  13  28  1   
 27  14  15  1   
 28  14  16  1   
 29  14  29  1   
 30  15  30  1   
 31  15  31  1   
 32  15  32  1   
 33  16  33  1   
 34  16  34  1   
 35  16  35  1   
@<TRIPOS>SUBSTRUCTURE
  1 ****   3 GROUP 4 **** **** 0

# MOE 2024.06 (io_trps.svl 2023.06)
