@<TRIPOS>MOLECULE
NONAME
49 51 1 0 0 
SMALL
USER_CHARGES


@<TRIPOS>ATOM
  1 CL       0.2710     0.2420    -1.4020 Cl    1 <1>  -0.1770 
  2 C        1.8060     0.7740    -0.7640 C.ar  1 <1>   0.1770 
  3 C        2.9550     0.0940    -1.1110 C.ar  1 <1>  -0.1500 
  4 C        1.8430     1.8690     0.0790 C.ar  1 <1>  -0.1500 
  5 C        4.1840     0.5030    -0.6090 C.ar  1 <1>   0.1000 
  6 C        3.0640     2.2870     0.5830 C.ar  1 <1>  -0.1500 
  7 N        5.3370    -0.1980    -0.9570 N.pl3 1 <1>  -0.8380 
  8 C        4.2210     1.6080     0.2400 C.ar  1 <1>  -0.1500 
  9 C        6.5960     0.5220    -1.3210 C.3   1 <1>   0.2090 
 10 C        5.4790    -1.6160    -0.5110 C.3   1 <1>   0.2090 
 11 C        7.6910     0.3230    -0.2520 C.3   1 <1>   0.3430 
 12 C        6.5910    -1.7600     0.5500 C.3   1 <1>   0.3430 
 13 N        7.8920    -1.1310     0.1190 N.4   1 <1>  -0.9590 
 14 C        8.9540    -1.2990     1.1490 C.3   1 <1>   0.4860 
 15 C       10.2640    -0.7890     0.5810 C.ar  1 <1>  -0.1430 
 16 C       10.7020     0.4840     0.9100 C.ar  1 <1>  -0.1500 
 17 C       11.0240    -1.5730    -0.2760 C.ar  1 <1>  -0.1500 
 18 C       11.8700     1.0070     0.3820 C.ar  1 <1>   0.0830 
 19 C       12.2070    -1.0740    -0.8140 C.ar  1 <1>   0.0830 
 20 O       12.1440     2.2780     0.7940 O.3   1 <1>  -0.3630 
 21 C       12.6250     0.2160    -0.4960 C.ar  1 <1>   0.0830 
 22 O       12.9970    -1.7960    -1.6620 O.3   1 <1>  -0.3630 
 23 C       13.3830     2.9070     0.5540 C.3   1 <1>   0.0400 
 24 O       13.7690     0.6340    -1.0850 O.3   1 <1>  -0.5330 
 25 C       12.8440    -3.1910    -1.8120 C.3   1 <1>   0.0400 
 26 H        2.8960    -0.7460    -1.7770 H     1 <1>   0.1500 
 27 H        0.9330     2.3820     0.3330 H     1 <1>   0.1500 
 28 H        3.1080     3.1400     1.2400 H     1 <1>   0.1500 
 29 H        5.1570     1.9420     0.6430 H     1 <1>   0.1500 
 30 H        6.3940     1.5730    -1.4420 H     1 <1>   0.0800 
 31 H        6.9460     0.1540    -2.2700 H     1 <1>   0.0800 
 32 H        5.7030    -2.2330    -1.3640 H     1 <1>   0.0800 
 33 H        4.5470    -1.9610    -0.0940 H     1 <1>   0.0800 
 34 H        7.4090     0.8810     0.6240 H     1 <1>   0.0800 
 35 H        8.6130     0.7400    -0.6240 H     1 <1>   0.0800 
 36 H        6.7380    -2.8060     0.7600 H     1 <1>   0.0800 
 37 H        6.2460    -1.2870     1.4550 H     1 <1>   0.0800 
 38 H        8.2170    -1.6050    -0.7320 H     1 <1>   0.4500 
 39 H        9.0590    -2.3390     1.4110 H     1 <1>   0.0800 
 40 H        8.7020    -0.7460     2.0400 H     1 <1>   0.0800 
 41 H       10.1440     1.1060     1.5890 H     1 <1>   0.1500 
 42 H       10.6960    -2.5650    -0.5240 H     1 <1>   0.1500 
 43 H       13.3950     3.8420     1.0840 H     1 <1>   0.0800 
 44 H       13.4850     3.0870    -0.5020 H     1 <1>   0.0800 
 45 H       14.1740     2.2720     0.9110 H     1 <1>   0.0800 
 46 H       14.1190    -0.0850    -1.6510 H     1 <1>   0.4500 
 47 H       13.6520    -3.5520    -2.4240 H     1 <1>   0.0800 
 48 H       11.9060    -3.3930    -2.2980 H     1 <1>   0.0800 
 49 H       12.8880    -3.6560    -0.8430 H     1 <1>   0.0800 
@<TRIPOS>BOND
  1   1   2  1   
  2   2   3  ar  
  3   2   4  ar  
  4   3   5  ar  
  5   3  26  1   
  6   4   6  ar  
  7   4  27  1   
  8   5   7  1   
  9   5   8  ar  
 10   6   8  ar  
 11   6  28  1   
 12   7   9  1   
 13   7  10  1   
 14   8  29  1   
 15   9  11  1   
 16   9  30  1   
 17   9  31  1   
 18  10  12  1   
 19  10  32  1   
 20  10  33  1   
 21  11  13  1   
 22  11  34  1   
 23  11  35  1   
 24  12  13  1   
 25  12  36  1   
 26  12  37  1   
 27  13  14  1   
 28  13  38  1   
 29  14  15  1   
 30  14  39  1   
 31  14  40  1   
 32  15  16  ar  
 33  15  17  ar  
 34  16  18  ar  
 35  16  41  1   
 36  17  19  ar  
 37  17  42  1   
 38  18  20  1   
 39  18  21  ar  
 40  19  21  ar  
 41  19  22  1   
 42  20  23  1   
 43  21  24  1   
 44  22  25  1   
 45  23  43  1   
 46  23  44  1   
 47  23  45  1   
 48  24  46  1   
 49  25  47  1   
 50  25  48  1   
 51  25  49  1   
@<TRIPOS>SUBSTRUCTURE
  1 ****  11 GROUP 4 **** **** 0

# MOE 2024.06 (io_trps.svl 2023.06)
