@<TRIPOS>MOLECULE
NONAME
43 45 1 0 0 
SMALL
USER_CHARGES


@<TRIPOS>ATOM
  1 O       -0.7890    -0.3020     0.5740 O.2   1 <1>  -0.5700 
  2 C       -1.7220     0.4500     0.3670 C.2   1 <1>   0.7800 
  3 O       -1.5970     1.7520     0.6250 O.3   1 <1>  -0.4300 
  4 N       -2.9190     0.0160    -0.1330 N.am  1 <1>  -0.6600 
  5 C       -0.3920     2.2730     1.1370 C.3   1 <1>   0.1200 
  6 C       -4.0680     0.9430    -0.3600 C.3   1 <1>   0.1400 
  7 C       -3.1200    -1.4180    -0.5000 C.3   1 <1>   0.1400 
  8 C       -0.5680     3.7770     1.3230 C.3   1 <1>  -0.2400 
  9 C       -5.4190     0.2090    -0.3280 C.3   1 <1>   0.1400 
 10 C       -4.1550    -1.5820    -1.6240 C.3   1 <1>   0.1400 
 11 N       -5.4710    -0.9450    -1.2850 N.am  1 <1>  -0.6600 
 12 C       -6.6420    -1.4700    -1.7850 C.2   1 <1>   0.5690 
 13 O       -6.6150    -2.3980    -2.5650 O.2   1 <1>  -0.5700 
 14 C       -8.0110    -0.8810    -1.4070 C.3   1 <1>   0.2610 
 15 O       -8.1790    -0.8490     0.0100 O.3   1 <1>  -0.3630 
 16 C       -9.1850    -1.6470    -2.0410 C.3   1 <1>   0.1200 
 17 C       -9.4280    -0.6070     0.4800 C.ar  1 <1>   0.0820 
 18 O      -10.4190    -1.0650    -1.6550 O.3   1 <1>  -0.3630 
 19 C      -10.5440    -0.6990    -0.3550 C.ar  1 <1>   0.0820 
 20 C       -9.5860    -0.2570     1.8100 C.ar  1 <1>  -0.1500 
 21 C      -11.8040    -0.4200     0.1440 C.ar  1 <1>  -0.1500 
 22 C      -10.8510     0.0160     2.3060 C.ar  1 <1>  -0.1500 
 23 C      -11.9570    -0.0620     1.4740 C.ar  1 <1>  -0.1500 
 24 H        0.3970     2.0590     0.4350 H     1 <1>   0.0800 
 25 H       -0.1820     1.7880     2.0760 H     1 <1>   0.0800 
 26 H       -3.9470     1.4210    -1.3170 H     1 <1>   0.0800 
 27 H       -4.0710     1.7090     0.3950 H     1 <1>   0.0800 
 28 H       -3.4520    -1.9600     0.3680 H     1 <1>   0.0800 
 29 H       -2.1850    -1.8460    -0.8190 H     1 <1>   0.0800 
 30 H       -0.7870     4.2440     0.3800 H     1 <1>   0.0800 
 31 H        0.3400     4.2010     1.7130 H     1 <1>   0.0800 
 32 H       -1.3640     3.9740     2.0190 H     1 <1>   0.0800 
 33 H       -6.1960     0.9150    -0.5600 H     1 <1>   0.0800 
 34 H       -5.5920    -0.1570     0.6690 H     1 <1>   0.0800 
 35 H       -4.2960    -2.6320    -1.8120 H     1 <1>   0.0800 
 36 H       -3.7720    -1.1360    -2.5250 H     1 <1>   0.0800 
 37 H       -8.0430     0.1340    -1.7560 H     1 <1>   0.0800 
 38 H       -9.1790    -2.6730    -1.7190 H     1 <1>   0.0800 
 39 H       -9.1250    -1.6160    -3.1140 H     1 <1>   0.0800 
 40 H       -8.7240    -0.1990     2.4490 H     1 <1>   0.1500 
 41 H      -12.6570    -0.4870    -0.5080 H     1 <1>   0.1500 
 42 H      -10.9750     0.2900     3.3390 H     1 <1>   0.1500 
 43 H      -12.9380     0.1540     1.8610 H     1 <1>   0.1500 
@<TRIPOS>BOND
  1   1   2  2   
  2   2   3  1   
  3   2   4  am  
  4   3   5  1   
  5   4   6  1   
  6   4   7  1   
  7   5   8  1   
  8   5  24  1   
  9   5  25  1   
 10   6   9  1   
 11   6  26  1   
 12   6  27  1   
 13   7  10  1   
 14   7  28  1   
 15   7  29  1   
 16   8  30  1   
 17   8  31  1   
 18   8  32  1   
 19   9  11  1   
 20   9  33  1   
 21   9  34  1   
 22  10  11  1   
 23  10  35  1   
 24  10  36  1   
 25  11  12  am  
 26  12  13  2   
 27  12  14  1   
 28  14  15  1   
 29  14  16  1   
 30  14  37  1   
 31  15  17  1   
 32  16  18  1   
 33  16  38  1   
 34  16  39  1   
 35  17  19  ar  
 36  17  20  ar  
 37  18  19  1   
 38  19  21  ar  
 39  20  22  ar  
 40  20  40  1   
 41  21  23  ar  
 42  21  41  1   
 43  22  23  ar  
 44  22  42  1   
 45  23  43  1   
@<TRIPOS>SUBSTRUCTURE
  1 ****   9 GROUP 4 **** **** 0

# MOE 2024.06 (io_trps.svl 2023.06)
