@<TRIPOS>MOLECULE
NONAME
57 60 1 0 0 
SMALL
USER_CHARGES


@<TRIPOS>ATOM
  1 O        5.9340     0.5820    -0.3190 O.co2 1 <1>  -0.9000 
  2 C        5.4900     0.3360     0.8060 C.2   1 <1>   0.9060 
  3 O        6.1990     0.6240     1.7760 O.co2 1 <1>  -0.9000 
  4 C        4.2400    -0.4950     1.0470 C.3   1 <1>  -0.1860 
  5 C        4.2320    -1.9340     0.4130 C.3   1 <1>  -0.0190 
  6 C        2.9290     0.2670     0.7330 C.3   1 <1>  -0.0800 
  7 C        5.4360    -2.3600    -0.4660 C.2   1 <1>   0.5690 
  8 C        2.8490    -2.1600    -0.2710 C.3   1 <1>  -0.0800 
  9 C        2.7200     0.3250    -0.7910 C.3   1 <1>  -0.1600 
 10 C        1.7580    -0.5310     1.3420 C.3   1 <1>  -0.1600 
 11 O        5.2400    -2.6230    -1.6320 O.2   1 <1>  -0.5700 
 12 N        6.7080    -2.5350     0.0430 N.am  1 <1>  -0.6600 
 13 C        2.6020    -1.0990    -1.3710 C.3   1 <1>  -0.1600 
 14 C        1.7410    -1.9750     0.7890 C.3   1 <1>  -0.1600 
 15 C        7.1490    -2.2850     1.4580 C.3   1 <1>   0.1400 
 16 C        7.8680    -2.5640    -0.9060 C.3   1 <1>   0.1400 
 17 C        8.3280    -1.2760     1.5380 C.3   1 <1>   0.3430 
 18 C        8.5320    -1.1720    -0.9740 C.3   1 <1>   0.3430 
 19 N        8.3970    -0.4240     0.3140 N.4   1 <1>  -0.9590 
 20 C        9.1640     0.8280     0.4470 C.3   1 <1>   0.4860 
 21 C       10.6300     0.5910     0.1070 C.ar  1 <1>  -0.1430 
 22 C       11.1610     0.9840    -1.1200 C.ar  1 <1>  -0.1430 
 23 C       11.4500    -0.0300     1.0400 C.ar  1 <1>  -0.1500 
 24 C       12.4950     0.7290    -1.3970 C.ar  1 <1>  -0.1500 
 25 C       10.3200     1.7040    -2.1680 C.3   1 <1>  -0.0970 
 26 C       12.7800    -0.2780     0.7550 C.ar  1 <1>  -0.1500 
 27 C       13.3020     0.0990    -0.4670 C.ar  1 <1>  -0.1500 
 28 H        4.2340    -0.6420     2.1110 H     1 <1>   0.0800 
 29 H        4.2590    -2.6260     1.2340 H     1 <1>   0.0800 
 30 H        2.9640     1.2610     1.1460 H     1 <1>   0.0800 
 31 H        2.7960    -3.1500    -0.6900 H     1 <1>   0.0800 
 32 H        3.5470     0.8340    -1.2540 H     1 <1>   0.0800 
 33 H        1.8290     0.8840    -1.0170 H     1 <1>   0.0800 
 34 H        0.8300    -0.0410     1.1040 H     1 <1>   0.0800 
 35 H        1.8480    -0.5520     2.4150 H     1 <1>   0.0800 
 36 H        1.6200    -1.2380    -1.7850 H     1 <1>   0.0800 
 37 H        3.3030    -1.2110    -2.1780 H     1 <1>   0.0800 
 38 H        1.8840    -2.6760     1.5930 H     1 <1>   0.0800 
 39 H        0.7810    -2.1800     0.3480 H     1 <1>   0.0800 
 40 H        7.4530    -3.2160     1.9020 H     1 <1>   0.0800 
 41 H        6.3340    -1.9110     2.0480 H     1 <1>   0.0800 
 42 H        7.5630    -2.8610    -1.8950 H     1 <1>   0.0800 
 43 H        8.5850    -3.2880    -0.5640 H     1 <1>   0.0800 
 44 H        9.2540    -1.8120     1.6550 H     1 <1>   0.0800 
 45 H        8.1830    -0.6520     2.4050 H     1 <1>   0.0800 
 46 H        8.0490    -0.6030    -1.7510 H     1 <1>   0.0800 
 47 H        9.5710    -1.2850    -1.2360 H     1 <1>   0.0800 
 48 H        7.4140    -0.0430     0.2580 H     1 <1>   0.4500 
 49 H        9.0650     1.2090     1.4500 H     1 <1>   0.0800 
 50 H        8.7460     1.5640    -0.2180 H     1 <1>   0.0800 
 51 H       11.0610    -0.3210     2.0000 H     1 <1>   0.1500 
 52 H       12.9220     1.0250    -2.3400 H     1 <1>   0.1500 
 53 H       10.0100     2.6640    -1.7940 H     1 <1>   0.0800 
 54 H        9.4460     1.1320    -2.4210 H     1 <1>   0.0800 
 55 H       10.8830     1.8650    -3.0690 H     1 <1>   0.0800 
 56 H       13.4110    -0.7600     1.4820 H     1 <1>   0.1500 
 57 H       14.3370    -0.0920    -0.6930 H     1 <1>   0.1500 
@<TRIPOS>BOND
  1   1   2  ar  
  2   2   3  ar  
  3   2   4  1   
  4   4   5  1   
  5   4   6  1   
  6   4  28  1   
  7   5   7  1   
  8   5   8  1   
  9   5  29  1   
 10   6   9  1   
 11   6  10  1   
 12   6  30  1   
 13   7  11  2   
 14   7  12  am  
 15   8  13  1   
 16   8  14  1   
 17   8  31  1   
 18   9  13  1   
 19   9  32  1   
 20   9  33  1   
 21  10  14  1   
 22  10  34  1   
 23  10  35  1   
 24  12  15  1   
 25  12  16  1   
 26  13  36  1   
 27  13  37  1   
 28  14  38  1   
 29  14  39  1   
 30  15  17  1   
 31  15  40  1   
 32  15  41  1   
 33  16  18  1   
 34  16  42  1   
 35  16  43  1   
 36  17  19  1   
 37  17  44  1   
 38  17  45  1   
 39  18  19  1   
 40  18  46  1   
 41  18  47  1   
 42  19  20  1   
 43  19  48  1   
 44  20  21  1   
 45  20  49  1   
 46  20  50  1   
 47  21  22  ar  
 48  21  23  ar  
 49  22  24  ar  
 50  22  25  1   
 51  23  26  ar  
 52  23  51  1   
 53  24  27  ar  
 54  24  52  1   
 55  25  53  1   
 56  25  54  1   
 57  25  55  1   
 58  26  27  ar  
 59  26  56  1   
 60  27  57  1   
@<TRIPOS>SUBSTRUCTURE
  1 ****  19 GROUP 4 **** **** 0

# MOE 2024.06 (io_trps.svl 2023.06)
