@<TRIPOS>MOLECULE
NONAME
50 52 1 0 0 
SMALL
USER_CHARGES


@<TRIPOS>ATOM
  1 O       -0.2170     3.2210    -1.5410 O.2   1 <1>  -0.5700 
  2 C        0.4370     2.5060    -0.8260 C.2   1 <1>   0.5690 
  3 N        0.2810     2.3790     0.5180 N.am  1 <1>  -0.4200 
  4 C        1.5520     1.6100    -1.3290 C.3   1 <1>  -0.0190 
  5 C        1.1610     1.4850     1.0430 C.2   1 <1>   0.5690 
  6 C       -0.7260     3.1200     1.3070 C.3   1 <1>   0.1400 
  7 C        2.0510     0.9040    -0.0380 C.3   1 <1>  -0.0190 
  8 C        2.6060     2.3920    -2.1350 C.3   1 <1>  -0.0220 
  9 O        1.2380     1.1770     2.2050 O.2   1 <1>  -0.5700 
 10 C       -2.0840     2.4210     1.2030 C.3   1 <1>  -0.1600 
 11 C        3.5480     1.0600     0.2940 C.3   1 <1>  -0.0220 
 12 C        3.9540     1.7020    -2.0770 C.2   1 <1>  -0.2880 
 13 C       -3.1770     3.2130     1.9400 C.3   1 <1>  -0.0990 
 14 C        4.3830     1.0950    -0.9700 C.2   1 <1>  -0.2880 
 15 C       -4.5340     2.5410     1.8450 C.2   1 <1>   0.5690 
 16 O       -4.9890     2.0310     2.8370 O.2   1 <1>  -0.5700 
 17 N       -5.1520     2.5560     0.6280 N.am  1 <1>  -0.5470 
 18 C       -6.3780     2.0500     0.1560 C.ar  1 <1>   0.1170 
 19 C       -6.6520     2.1740    -1.2100 C.ar  1 <1>   0.0820 
 20 C       -7.3230     1.4420     0.9760 C.ar  1 <1>  -0.1500 
 21 O       -5.7000     2.7780    -1.9850 O.3   1 <1>  -0.3620 
 22 C       -7.8510     1.6920    -1.7250 C.ar  1 <1>  -0.1500 
 23 C       -8.5150     0.9610     0.4630 C.ar  1 <1>  -0.1440 
 24 C       -5.8790     2.9350    -3.3760 C.3   1 <1>   0.0400 
 25 C       -8.7760     1.0900    -0.8900 C.ar  1 <1>  -0.1500 
 26 C       -9.5300     0.3030     1.3800 C.3   1 <1>  -0.0970 
 27 H        1.1170     0.8680    -1.9740 H     1 <1>   0.0800 
 28 H       -0.7970     4.1240     0.9240 H     1 <1>   0.0800 
 29 H       -0.4120     3.1690     2.3360 H     1 <1>   0.0800 
 30 H        1.8320    -0.1450    -0.1200 H     1 <1>   0.0800 
 31 H        2.7170     3.3890    -1.7450 H     1 <1>   0.0800 
 32 H        2.2760     2.4740    -3.1560 H     1 <1>   0.0800 
 33 H       -2.0130     1.4360     1.6350 H     1 <1>   0.0800 
 34 H       -2.3550     2.3220     0.1660 H     1 <1>   0.0800 
 35 H        3.8550     0.2390     0.9190 H     1 <1>   0.0800 
 36 H        3.7200     1.9710     0.8420 H     1 <1>   0.0800 
 37 H        4.5280     1.7690    -2.9870 H     1 <1>   0.1500 
 38 H       -3.2570     4.2040     1.5320 H     1 <1>   0.0800 
 39 H       -2.9160     3.3040     2.9800 H     1 <1>   0.0800 
 40 H        5.3440     0.6140    -0.8810 H     1 <1>   0.1500 
 41 H       -4.6260     2.9940    -0.1290 H     1 <1>   0.3700 
 42 H       -7.1300     1.3430     2.0280 H     1 <1>   0.1500 
 43 H       -8.0880     1.7750    -2.7680 H     1 <1>   0.1500 
 44 H       -5.0070     3.4220    -3.7730 H     1 <1>   0.0800 
 45 H       -6.7480     3.5460    -3.5490 H     1 <1>   0.0800 
 46 H       -5.9930     1.9650    -3.8260 H     1 <1>   0.0800 
 47 H       -9.7020     0.7220    -1.2980 H     1 <1>   0.1500 
 48 H       -9.0400    -0.1370     2.2290 H     1 <1>   0.0800 
 49 H      -10.0620    -0.4720     0.8570 H     1 <1>   0.0800 
 50 H      -10.2350     1.0360     1.7280 H     1 <1>   0.0800 
@<TRIPOS>BOND
  1   1   2  2   
  2   2   3  am  
  3   2   4  1   
  4   3   5  am  
  5   3   6  1   
  6   4   7  1   
  7   4   8  1   
  8   4  27  1   
  9   5   7  1   
 10   5   9  2   
 11   6  10  1   
 12   6  28  1   
 13   6  29  1   
 14   7  11  1   
 15   7  30  1   
 16   8  12  1   
 17   8  31  1   
 18   8  32  1   
 19  10  13  1   
 20  10  33  1   
 21  10  34  1   
 22  11  14  1   
 23  11  35  1   
 24  11  36  1   
 25  12  14  2   
 26  12  37  1   
 27  13  15  1   
 28  13  38  1   
 29  13  39  1   
 30  14  40  1   
 31  15  16  2   
 32  15  17  am  
 33  17  18  1   
 34  17  41  1   
 35  18  19  ar  
 36  18  20  ar  
 37  19  21  1   
 38  19  22  ar  
 39  20  23  ar  
 40  20  42  1   
 41  21  24  1   
 42  22  25  ar  
 43  22  43  1   
 44  23  25  ar  
 45  23  26  1   
 46  24  44  1   
 47  24  45  1   
 48  24  46  1   
 49  25  47  1   
 50  26  48  1   
 51  26  49  1   
 52  26  50  1   
@<TRIPOS>SUBSTRUCTURE
  1 ****  10 GROUP 4 **** **** 0

# MOE 2024.06 (io_trps.svl 2023.06)
