@<TRIPOS>MOLECULE
NONAME
30 30 1 0 0 
SMALL
USER_CHARGES


@<TRIPOS>ATOM
  1 I        0.5100     0.7790    -2.1850 I     1 <1>  -0.0810 
  2 C       -0.6670     1.9580    -0.8450 C.ar  1 <1>   0.0810 
  3 C       -0.0580     2.8660     0.0140 C.ar  1 <1>   0.0830 
  4 C       -2.0360     1.7700    -0.8840 C.ar  1 <1>  -0.1500 
  5 O        1.2960     2.9970    -0.0040 O.3   1 <1>  -0.3630 
  6 C       -0.8840     3.6000     0.8600 C.ar  1 <1>  -0.1500 
  7 C       -2.8600     2.5060    -0.0400 C.ar  1 <1>  -0.0090 
  8 C        1.9660     3.8940     0.8530 C.3   1 <1>   0.0400 
  9 C       -2.2580     3.4160     0.8250 C.ar  1 <1>  -0.1500 
 10 S       -4.6590     2.2900    -0.0560 S.o2  1 <1>   1.4470 
 11 O       -5.1190     1.9030     1.2570 O.2   1 <1>  -0.6500 
 12 O       -5.0680     1.5420    -1.2220 O.2   1 <1>  -0.6500 
 13 N       -5.2200     3.8370    -0.3750 N.am  1 <1>  -0.9140 
 14 C       -6.5710     4.0700     0.0640 C.3   1 <1>   0.2760 
 15 C       -7.2410     4.9490    -0.9840 C.3   1 <1>  -0.2400 
 16 C       -6.5270     4.7860     1.4110 C.3   1 <1>  -0.2400 
 17 H       -2.4630     1.0540    -1.5660 H     1 <1>   0.1500 
 18 H       -0.4800     4.3180     1.5490 H     1 <1>   0.1500 
 19 H        3.0210     3.8150     0.6570 H     1 <1>   0.0800 
 20 H        1.7640     3.6200     1.8730 H     1 <1>   0.0800 
 21 H        1.6300     4.8940     0.6460 H     1 <1>   0.0800 
 22 H       -2.8850     3.9930     1.4860 H     1 <1>   0.1500 
 23 H       -5.2570     3.8480    -1.3910 H     1 <1>   0.4200 
 24 H       -7.1180     3.1420     0.1490 H     1 <1>   0.0800 
 25 H       -6.7080     5.8760    -1.1020 H     1 <1>   0.0800 
 26 H       -8.2470     5.1730    -0.6790 H     1 <1>   0.0800 
 27 H       -7.2880     4.4370    -1.9290 H     1 <1>   0.0800 
 28 H       -5.9760     5.7060     1.3320 H     1 <1>   0.0800 
 29 H       -6.0670     4.1620     2.1550 H     1 <1>   0.0800 
 30 H       -7.5260     5.0100     1.7390 H     1 <1>   0.0800 
@<TRIPOS>BOND
  1   1   2  1   
  2   2   3  ar  
  3   2   4  ar  
  4   3   5  1   
  5   3   6  ar  
  6   4   7  ar  
  7   4  17  1   
  8   5   8  1   
  9   6   9  ar  
 10   6  18  1   
 11   7   9  ar  
 12   7  10  1   
 13   8  19  1   
 14   8  20  1   
 15   8  21  1   
 16   9  22  1   
 17  10  11  2   
 18  10  12  2   
 19  10  13  am  
 20  13  14  1   
 21  13  23  1   
 22  14  15  1   
 23  14  16  1   
 24  14  24  1   
 25  15  25  1   
 26  15  26  1   
 27  15  27  1   
 28  16  28  1   
 29  16  29  1   
 30  16  30  1   
@<TRIPOS>SUBSTRUCTURE
  1 ****   7 GROUP 4 **** **** 0

# MOE 2024.06 (io_trps.svl 2023.06)
