@<TRIPOS>MOLECULE
NONAME
37 38 1 0 0 
SMALL
USER_CHARGES


@<TRIPOS>ATOM
  1 S        0.0570     0.1610    -2.0250 S.o2  1 <1>   1.4970 
  2 O       -0.6360     1.3110    -2.5630 O.2   1 <1>  -0.6500 
  3 O        0.8360    -0.6830    -2.9080 O.2   1 <1>  -0.6500 
  4 N       -1.0770    -0.8110    -1.2510 N.2   1 <1>  -0.6380 
  5 C        1.1160     0.6990    -0.6490 C.ar  1 <1>  -0.0090 
  6 C       -0.7430    -1.9240    -0.7530 C.2   1 <1>   0.4490 
  7 C        2.5020     0.6230    -0.7360 C.ar  1 <1>  -0.1500 
  8 C        0.5650     1.1970     0.5270 C.ar  1 <1>  -0.1500 
  9 N       -1.6140    -2.7510    -0.0770 N.am  1 <1>  -0.4200 
 10 C        0.6260    -2.6220    -0.7360 C.3   1 <1>   0.2010 
 11 C        3.3100     1.0140     0.3180 C.ar  1 <1>  -0.1500 
 12 C        1.3650     1.5890     1.5860 C.ar  1 <1>  -0.1500 
 13 C       -0.9720    -3.8640     0.3850 C.2   1 <1>   0.6900 
 14 C       -3.0540    -2.4890     0.1350 C.3   1 <1>   0.1400 
 15 N        0.3460    -3.8360     0.0610 N.am  1 <1>  -0.6600 
 16 C        2.7400     1.4960     1.4820 C.ar  1 <1>  -0.1500 
 17 O       -1.5110    -4.7650     0.9980 O.2   1 <1>  -0.5700 
 18 C       -3.2470    -1.6570     1.4020 C.3   1 <1>  -0.2400 
 19 C        1.3330    -4.9140     0.2730 C.3   1 <1>   0.1400 
 20 C        2.4350    -4.4180     1.2040 C.3   1 <1>  -0.2400 
 21 H        2.9600     0.2550    -1.6390 H     1 <1>   0.1500 
 22 H       -0.5060     1.2800     0.6180 H     1 <1>   0.1500 
 23 H        1.3710    -2.0210    -0.2480 H     1 <1>   0.0800 
 24 H        0.9360    -2.8970    -1.7290 H     1 <1>   0.0800 
 25 H        4.3810     0.9470     0.2320 H     1 <1>   0.1500 
 26 H        0.9190     1.9690     2.4890 H     1 <1>   0.1500 
 27 H       -3.4520    -1.9640    -0.7170 H     1 <1>   0.0800 
 28 H       -3.5760    -3.4260     0.2290 H     1 <1>   0.0800 
 29 H        3.3660     1.8010     2.3040 H     1 <1>   0.1500 
 30 H       -2.7460    -0.7100     1.3090 H     1 <1>   0.0800 
 31 H       -2.8610    -2.1870     2.2560 H     1 <1>   0.0800 
 32 H       -4.2940    -1.4750     1.5590 H     1 <1>   0.0800 
 33 H        0.8410    -5.7660     0.7150 H     1 <1>   0.0800 
 34 H        1.7470    -5.2150    -0.6740 H     1 <1>   0.0800 
 35 H        2.0110    -4.1040     2.1420 H     1 <1>   0.0800 
 36 H        2.9740    -3.6020     0.7590 H     1 <1>   0.0800 
 37 H        3.1280    -5.2170     1.3970 H     1 <1>   0.0800 
@<TRIPOS>BOND
  1   1   2  2   
  2   1   3  2   
  3   1   4  1   
  4   1   5  1   
  5   4   6  2   
  6   5   7  ar  
  7   5   8  ar  
  8   6   9  1   
  9   6  10  1   
 10   7  11  ar  
 11   7  21  1   
 12   8  12  ar  
 13   8  22  1   
 14   9  13  am  
 15   9  14  1   
 16  10  15  1   
 17  10  23  1   
 18  10  24  1   
 19  11  16  ar  
 20  11  25  1   
 21  12  16  ar  
 22  12  26  1   
 23  13  15  am  
 24  13  17  2   
 25  14  18  1   
 26  14  27  1   
 27  14  28  1   
 28  15  19  1   
 29  16  29  1   
 30  18  30  1   
 31  18  31  1   
 32  18  32  1   
 33  19  20  1   
 34  19  33  1   
 35  19  34  1   
 36  20  35  1   
 37  20  36  1   
 38  20  37  1   
@<TRIPOS>SUBSTRUCTURE
  1 ****   6 GROUP 4 **** **** 0

# MOE 2024.06 (io_trps.svl 2023.06)
