@<TRIPOS>MOLECULE
NONAME
33 34 1 0 0 
SMALL
USER_CHARGES


@<TRIPOS>ATOM
  1 F       -0.5120    -2.4700    -0.3230 F     1 <1>  -0.3400 
  2 C       -1.2500    -1.3770    -0.1390 C.3   1 <1>   1.1580 
  3 F       -0.8810    -0.5190    -1.0860 F     1 <1>  -0.3400 
  4 F       -0.8480    -0.8490     1.0120 F     1 <1>  -0.3400 
  5 C       -2.7890    -1.6670    -0.1560 C.2   1 <1>  -0.0380 
  6 N       -3.2060    -2.9900    -0.1640 N.pl3 1 <1>  -0.8690 
  7 C       -3.6170    -0.5680    -0.1350 C.2   1 <1>  -0.1500 
  8 C       -4.6000    -3.4960    -0.1020 C.3   1 <1>   0.2090 
  9 C       -5.0270    -0.3660    -0.1610 C.2   1 <1>   0.1000 
 10 C       -5.5250    -2.7220    -1.0410 C.3   1 <1>   0.2090 
 11 N       -5.8520    -1.3850    -0.4990 N.pl3 1 <1>  -0.8690 
 12 C       -5.6270     0.8800     0.1500 C.2   1 <1>   0.0140 
 13 C       -6.9530     0.9970     0.6940 C.2   1 <1>   0.5410 
 14 C       -4.9470     2.1110    -0.0760 C.2   1 <1>  -0.1500 
 15 O       -7.7240     0.0350     0.8550 O.2   1 <1>  -0.5700 
 16 C       -7.4460     2.2690     1.0730 C.2   1 <1>  -0.1360 
 17 C       -5.4600     3.3320     0.2850 C.2   1 <1>   0.0770 
 18 C       -6.7250     3.4070     0.8830 C.2   1 <1>  -0.1500 
 19 O       -4.8330     4.5280     0.1010 O.3   1 <1>  -0.3570 
 20 C       -3.5410     4.5860    -0.4640 C.3   1 <1>   0.0400 
 21 H       -2.4990    -3.7410    -0.1460 H     1 <1>   0.4000 
 22 H       -3.0750     0.3500    -0.0520 H     1 <1>   0.1500 
 23 H       -4.9690    -3.4280     0.9070 H     1 <1>   0.0800 
 24 H       -4.6010    -4.5300    -0.3960 H     1 <1>   0.0800 
 25 H       -6.4420    -3.2720    -1.1610 H     1 <1>   0.0800 
 26 H       -5.0620    -2.6210    -2.0070 H     1 <1>   0.0800 
 27 H       -6.8610    -1.2410    -0.3120 H     1 <1>   0.4000 
 28 H       -4.0010     2.0760    -0.5740 H     1 <1>   0.1500 
 29 H       -8.4230     2.2930     1.5170 H     1 <1>   0.1500 
 30 H       -7.0990     4.3740     1.1710 H     1 <1>   0.1500 
 31 H       -3.2370     5.6170    -0.4940 H     1 <1>   0.0800 
 32 H       -3.5770     4.1880    -1.4620 H     1 <1>   0.0800 
 33 H       -2.8630     4.0240     0.1540 H     1 <1>   0.0800 
@<TRIPOS>BOND
  1   1   2  1   
  2   2   3  1   
  3   2   4  1   
  4   2   5  1   
  5   5   6  1   
  6   5   7  2   
  7   6   8  1   
  8   6  21  1   
  9   7   9  1   
 10   7  22  1   
 11   8  10  1   
 12   8  23  1   
 13   8  24  1   
 14   9  11  1   
 15   9  12  2   
 16  10  11  1   
 17  10  25  1   
 18  10  26  1   
 19  11  27  1   
 20  12  13  1   
 21  12  14  1   
 22  13  15  2   
 23  13  16  1   
 24  14  17  2   
 25  14  28  1   
 26  16  18  2   
 27  16  29  1   
 28  17  18  1   
 29  17  19  1   
 30  18  30  1   
 31  19  20  1   
 32  20  31  1   
 33  20  32  1   
 34  20  33  1   
@<TRIPOS>SUBSTRUCTURE
  1 ****   9 GROUP 4 **** **** 0

# MOE 2024.06 (io_trps.svl 2023.06)
