@<TRIPOS>MOLECULE
NONAME
39 40 1 0 0 
SMALL
USER_CHARGES


@<TRIPOS>ATOM
  1 O       -3.6570     4.2650     1.4500 O.3   1 <1>  -0.2800 
  2 C       -4.9100     4.6010     1.2150 C.2   1 <1>  -0.0400 
  3 C       -3.3520     4.6690     2.6660 C.2   1 <1>  -0.0100 
  4 C       -5.4350     5.2330     2.2910 C.2   1 <1>  -0.1500 
  5 C       -5.4790     4.2290    -0.1390 C.3   1 <1>   0.5230 
  6 C       -4.4090     5.2770     3.2430 C.2   1 <1>  -0.1500 
  7 N       -6.8360     4.7940    -0.2810 N.4   1 <1>  -0.9060 
  8 C       -7.5520     4.3910    -1.5040 C.3   1 <1>   0.4860 
  9 C       -8.9740     4.8880    -1.3660 C.ar  1 <1>  -0.1430 
 10 C       -9.7660     4.4550    -0.3060 C.ar  1 <1>   0.0830 
 11 C       -9.4860     5.7750    -2.3010 C.ar  1 <1>  -0.1500 
 12 O       -9.1760     3.5730     0.5580 O.3   1 <1>  -0.3620 
 13 C      -11.0760     4.9420    -0.1670 C.ar  1 <1>   0.0830 
 14 C      -10.7820     6.2370    -2.1800 C.ar  1 <1>  -0.1500 
 15 C       -9.9170     2.5150     1.1310 C.3   1 <1>   0.1200 
 16 O      -11.8240     4.5610     0.9080 O.3   1 <1>  -0.3630 
 17 C      -11.5720     5.8260    -1.1210 C.ar  1 <1>  -0.1500 
 18 C       -8.9390     1.4050     1.5030 C.3   1 <1>  -0.2400 
 19 C      -13.1390     5.0320     1.1180 C.3   1 <1>   0.0400 
 20 H       -2.3600     4.4840     3.0450 H     1 <1>   0.1500 
 21 H       -6.4190     5.6390     2.4540 H     1 <1>   0.1500 
 22 H       -5.5100     3.1550    -0.2220 H     1 <1>   0.0800 
 23 H       -4.8330     4.6160    -0.9100 H     1 <1>   0.0800 
 24 H       -4.4790     5.7130     4.2250 H     1 <1>   0.1500 
 25 H       -6.8190     5.8140    -0.1970 H     1 <1>   0.4500 
 26 H       -7.4270     4.4500     0.4940 H     1 <1>   0.4500 
 27 H       -7.5610     3.3160    -1.5950 H     1 <1>   0.0800 
 28 H       -7.0850     4.8160    -2.3770 H     1 <1>   0.0800 
 29 H       -8.8920     6.1140    -3.1340 H     1 <1>   0.1500 
 30 H      -11.1820     6.9220    -2.9100 H     1 <1>   0.1500 
 31 H      -10.6410     2.1660     0.4150 H     1 <1>   0.0800 
 32 H      -10.4190     2.8840     2.0090 H     1 <1>   0.0800 
 33 H      -12.5710     6.2150    -1.0620 H     1 <1>   0.1500 
 34 H       -8.4370     1.0360     0.6270 H     1 <1>   0.0800 
 35 H       -9.4790     0.5890     1.9500 H     1 <1>   0.0800 
 36 H       -8.2190     1.7620     2.2170 H     1 <1>   0.0800 
 37 H      -13.5100     4.5940     2.0270 H     1 <1>   0.0800 
 38 H      -13.7570     4.7300     0.2900 H     1 <1>   0.0800 
 39 H      -13.1180     6.1040     1.2130 H     1 <1>   0.0800 
@<TRIPOS>BOND
  1   1   2  1   
  2   1   3  1   
  3   2   4  2   
  4   2   5  1   
  5   3   6  2   
  6   3  20  1   
  7   4   6  1   
  8   4  21  1   
  9   5   7  1   
 10   5  22  1   
 11   5  23  1   
 12   6  24  1   
 13   7   8  1   
 14   7  25  1   
 15   7  26  1   
 16   8   9  1   
 17   8  27  1   
 18   8  28  1   
 19   9  10  ar  
 20   9  11  ar  
 21  10  12  1   
 22  10  13  ar  
 23  11  14  ar  
 24  11  29  1   
 25  12  15  1   
 26  13  16  1   
 27  13  17  ar  
 28  14  17  ar  
 29  14  30  1   
 30  15  18  1   
 31  15  31  1   
 32  15  32  1   
 33  16  19  1   
 34  17  33  1   
 35  18  34  1   
 36  18  35  1   
 37  18  36  1   
 38  19  37  1   
 39  19  38  1   
 40  19  39  1   
@<TRIPOS>SUBSTRUCTURE
  1 ****  12 GROUP 4 **** **** 0

# MOE 2024.06 (io_trps.svl 2023.06)
