@<TRIPOS>MOLECULE
NONAME
48 49 1 0 0 
SMALL
USER_CHARGES


@<TRIPOS>ATOM
  1 O        1.6940     0.6710    -2.0460 O.3   1 <1>  -0.6800 
  2 C        2.9650     0.4160    -1.5580 C.3   1 <1>   0.1200 
  3 C        2.8450    -0.5830    -0.4020 C.3   1 <1>   0.1100 
  4 N        4.1630    -0.9090     0.1880 N.3   1 <1>  -0.8100 
  5 C        3.9940    -1.5190     1.5280 C.3   1 <1>   0.1100 
  6 C        4.9600    -1.8100    -0.6870 C.3   1 <1>   0.1100 
  7 C        5.3490    -1.8330     2.2100 C.3   1 <1>   0.3430 
  8 C        6.2860    -2.2670    -0.0310 C.3   1 <1>   0.3430 
  9 N        6.4970    -1.5800     1.2840 N.4   1 <1>  -0.9590 
 10 C        7.8250    -1.8370     1.8830 C.3   1 <1>   0.4810 
 11 C        8.8910    -1.4000     0.8960 C.2   1 <1>  -0.2760 
 12 C        9.6510    -2.2710     0.2210 C.2   1 <1>  -0.2880 
 13 C        9.0490     0.1120     0.7410 C.3   1 <1>  -0.0220 
 14 C       10.7540    -1.8740    -0.7520 C.3   1 <1>  -0.0220 
 15 C        9.8540     0.4680    -0.5180 C.3   1 <1>  -0.1600 
 16 C       11.1270    -0.3860    -0.6360 C.3   1 <1>   0.0580 
 17 C       12.0260     0.0390    -1.8050 C.2   1 <1>  -0.2760 
 18 C       11.6510     0.8060    -2.8360 C.2   1 <1>  -0.3000 
 19 C       13.4510    -0.4880    -1.7050 C.3   1 <1>  -0.1020 
 20 H        1.7180     1.3440    -2.7540 H     1 <1>   0.4000 
 21 H        3.3870     1.3430    -1.2100 H     1 <1>   0.0800 
 22 H        3.5540     0.0160    -2.3630 H     1 <1>   0.0800 
 23 H        2.3600    -1.4810    -0.7490 H     1 <1>   0.0800 
 24 H        2.2200    -0.1300     0.3500 H     1 <1>   0.0800 
 25 H        3.4220    -2.4280     1.4440 H     1 <1>   0.0800 
 26 H        3.4380    -0.8480     2.1620 H     1 <1>   0.0800 
 27 H        5.1960    -1.3010    -1.6060 H     1 <1>   0.0800 
 28 H        4.3800    -2.6810    -0.9440 H     1 <1>   0.0800 
 29 H        5.3510    -2.8620     2.5320 H     1 <1>   0.0800 
 30 H        5.4460    -1.2150     3.0880 H     1 <1>   0.0800 
 31 H        7.1010    -2.0450    -0.7020 H     1 <1>   0.0800 
 32 H        6.2640    -3.3350     0.1110 H     1 <1>   0.0800 
 33 H        6.4260    -0.5820     1.0450 H     1 <1>   0.4500 
 34 H        7.9340    -2.8890     2.0880 H     1 <1>   0.0800 
 35 H        7.9380    -1.2930     2.8070 H     1 <1>   0.0800 
 36 H        9.5560    -3.3420     0.3070 H     1 <1>   0.1500 
 37 H        9.5550     0.5030     1.6080 H     1 <1>   0.0800 
 38 H        8.0920     0.5970     0.6720 H     1 <1>   0.0800 
 39 H       10.4300    -2.0850    -1.7560 H     1 <1>   0.0800 
 40 H       11.6280    -2.4700    -0.5550 H     1 <1>   0.0800 
 41 H       10.1190     1.5110    -0.4870 H     1 <1>   0.0800 
 42 H        9.2380     0.3040    -1.3840 H     1 <1>   0.0800 
 43 H       11.6830    -0.2470     0.2760 H     1 <1>   0.0800 
 44 H       12.3090     1.0900    -3.6390 H     1 <1>   0.1500 
 45 H       10.6700     1.2190    -2.9820 H     1 <1>   0.1500 
 46 H       13.4660    -1.5620    -1.7440 H     1 <1>   0.0800 
 47 H       13.9050    -0.1650    -0.7850 H     1 <1>   0.0800 
 48 H       14.0500    -0.1190    -2.5190 H     1 <1>   0.0800 
@<TRIPOS>BOND
  1   1   2  1   
  2   1  20  1   
  3   2   3  1   
  4   2  21  1   
  5   2  22  1   
  6   3   4  1   
  7   3  23  1   
  8   3  24  1   
  9   4   5  1   
 10   4   6  1   
 11   5   7  1   
 12   5  25  1   
 13   5  26  1   
 14   6   8  1   
 15   6  27  1   
 16   6  28  1   
 17   7   9  1   
 18   7  29  1   
 19   7  30  1   
 20   8   9  1   
 21   8  31  1   
 22   8  32  1   
 23   9  10  1   
 24   9  33  1   
 25  10  11  1   
 26  10  34  1   
 27  10  35  1   
 28  11  12  2   
 29  11  13  1   
 30  12  14  1   
 31  12  36  1   
 32  13  15  1   
 33  13  37  1   
 34  13  38  1   
 35  14  16  1   
 36  14  39  1   
 37  14  40  1   
 38  15  16  1   
 39  15  41  1   
 40  15  42  1   
 41  16  17  1   
 42  16  43  1   
 43  17  18  2   
 44  17  19  1   
 45  18  44  1   
 46  18  45  1   
 47  19  46  1   
 48  19  47  1   
 49  19  48  1   
@<TRIPOS>SUBSTRUCTURE
  1 ****  11 GROUP 4 **** **** 0

# MOE 2024.06 (io_trps.svl 2023.06)
