@<TRIPOS>MOLECULE
NONAME
43 43 1 0 0 
SMALL
USER_CHARGES


@<TRIPOS>ATOM
  1 O        0.0460     0.5440     0.6330 O.2   1 <1>  -0.5700 
  2 C       -0.9900     1.1460     0.4570 C.2   1 <1>   0.4950 
  3 C       -1.1010     2.5690     0.4250 C.2   1 <1>   0.0290 
  4 C       -2.2410     0.2950     0.3630 C.3   1 <1>   0.0420 
  5 C       -2.0880     3.0350     1.3540 C.2   1 <1>   0.4950 
  6 C       -0.3220     3.3440    -0.4260 C.2   1 <1>  -0.0380 
  7 C       -2.1510    -0.4990    -0.9360 C.2   1 <1>   0.6590 
  8 C       -3.5550     1.1150     0.5260 C.3   1 <1>   0.0000 
  9 O       -2.0170     4.0380     2.0240 O.2   1 <1>  -0.5700 
 10 C       -3.3200     2.1790     1.6170 C.3   1 <1>  -0.0990 
 11 N       -0.3740     4.6790    -0.6690 N.pl3 1 <1>  -0.8690 
 12 C        0.7540     2.6780    -1.2780 C.3   1 <1>  -0.1020 
 13 O       -1.8720     0.0470    -1.9700 O.2   1 <1>  -0.5700 
 14 O       -2.4290    -1.8020    -0.9440 O.3   1 <1>  -0.4300 
 15 C       -4.0120     1.8200    -0.7710 C.3   1 <1>  -0.2400 
 16 C       -4.7000     0.1880     0.9700 C.3   1 <1>  -0.2400 
 17 C       -1.3160     5.7100    -0.1850 C.3   1 <1>   0.2090 
 18 C       -2.2980    -2.6900     0.1450 C.3   1 <1>   0.0400 
 19 C       -1.3080     6.8790    -1.1680 C.3   1 <1>  -0.1600 
 20 C       -2.2880     7.9770    -0.7400 C.3   1 <1>  -0.2400 
 21 H       -2.1730    -0.3730     1.1970 H     1 <1>   0.0800 
 22 H       -3.1880     1.7070     2.5750 H     1 <1>   0.0800 
 23 H       -4.1770     2.8250     1.6950 H     1 <1>   0.0800 
 24 H        0.3240     5.0870    -1.3020 H     1 <1>   0.4000 
 25 H        1.1000     3.3300    -2.0590 H     1 <1>   0.0800 
 26 H        0.3760     1.7890    -1.7500 H     1 <1>   0.0800 
 27 H        1.5940     2.4140    -0.6600 H     1 <1>   0.0800 
 28 H       -4.3030     1.1020    -1.5190 H     1 <1>   0.0800 
 29 H       -3.2370     2.4340    -1.1950 H     1 <1>   0.0800 
 30 H       -4.8650     2.4490    -0.5820 H     1 <1>   0.0800 
 31 H       -5.6070     0.7500     1.1130 H     1 <1>   0.0800 
 32 H       -4.4660    -0.3050     1.8980 H     1 <1>   0.0800 
 33 H       -4.8920    -0.5650     0.2250 H     1 <1>   0.0800 
 34 H       -2.3090     5.2990    -0.1250 H     1 <1>   0.0800 
 35 H       -1.0110     6.0430     0.7930 H     1 <1>   0.0800 
 36 H       -2.3990    -3.6940    -0.2300 H     1 <1>   0.0800 
 37 H       -3.0760    -2.4920     0.8620 H     1 <1>   0.0800 
 38 H       -1.3240    -2.5650     0.5860 H     1 <1>   0.0800 
 39 H       -0.3160     7.2940    -1.2180 H     1 <1>   0.0800 
 40 H       -1.5850     6.5210    -2.1440 H     1 <1>   0.0800 
 41 H       -2.0250     8.3580     0.2310 H     1 <1>   0.0800 
 42 H       -3.2920     7.5900    -0.7000 H     1 <1>   0.0800 
 43 H       -2.2630     8.7890    -1.4450 H     1 <1>   0.0800 
@<TRIPOS>BOND
  1   1   2  2   
  2   2   3  1   
  3   2   4  1   
  4   3   5  1   
  5   3   6  2   
  6   4   7  1   
  7   4   8  1   
  8   4  21  1   
  9   5   9  2   
 10   5  10  1   
 11   6  11  1   
 12   6  12  1   
 13   7  13  2   
 14   7  14  1   
 15   8  10  1   
 16   8  15  1   
 17   8  16  1   
 18  10  22  1   
 19  10  23  1   
 20  11  17  1   
 21  11  24  1   
 22  12  25  1   
 23  12  26  1   
 24  12  27  1   
 25  14  18  1   
 26  15  28  1   
 27  15  29  1   
 28  15  30  1   
 29  16  31  1   
 30  16  32  1   
 31  16  33  1   
 32  17  19  1   
 33  17  34  1   
 34  17  35  1   
 35  18  36  1   
 36  18  37  1   
 37  18  38  1   
 38  19  20  1   
 39  19  39  1   
 40  19  40  1   
 41  20  41  1   
 42  20  42  1   
 43  20  43  1   
@<TRIPOS>SUBSTRUCTURE
  1 ****   3 GROUP 4 **** **** 0

# MOE 2024.06 (io_trps.svl 2023.06)
