@<TRIPOS>MOLECULE
NONAME
33 34 1 0 0 
SMALL
USER_CHARGES


@<TRIPOS>ATOM
  1 F        0.2060    -0.5320     0.0400 F     1 <1>  -0.1900 
  2 C        1.4320    -0.9850     0.0540 C.ar  1 <1>   0.1900 
  3 C        1.7210    -2.1030     0.8120 C.ar  1 <1>  -0.1500 
  4 C        2.3960    -0.3320    -0.6880 C.ar  1 <1>  -0.1500 
  5 C        3.0210    -2.5780     0.8220 C.ar  1 <1>  -0.1500 
  6 C        3.6920    -0.8180    -0.6660 C.ar  1 <1>  -0.1500 
  7 C        4.0230    -1.9470     0.0850 C.ar  1 <1>   0.1170 
  8 N        5.3230    -2.4750     0.1480 N.am  1 <1>  -0.5470 
  9 C        6.4070    -2.3090    -0.6700 C.2   1 <1>   0.5690 
 10 O        6.3960    -1.6440    -1.6740 O.2   1 <1>  -0.5700 
 11 C        7.6900    -3.0170    -0.2800 C.3   1 <1>  -0.0990 
 12 C        8.9620    -2.1670    -0.5040 C.3   1 <1>  -0.0190 
 13 C       10.2290    -2.9110    -0.0860 C.2   1 <1>   0.5690 
 14 C        8.8780    -0.7910     0.2000 C.3   1 <1>  -0.0990 
 15 O       10.2750    -4.1170    -0.0830 O.2   1 <1>  -0.5700 
 16 N       11.3100    -2.1540     0.2630 N.am  1 <1>  -0.3680 
 17 C       10.2470    -0.1270     0.3460 C.2   1 <1>   0.3280 
 18 N       11.3380    -0.7710     0.3880 N.2   1 <1>  -0.5120 
 19 C       10.2150     1.3800     0.4770 C.3   1 <1>  -0.1790 
 20 H        0.9430    -2.5850     1.3770 H     1 <1>   0.1500 
 21 H        2.1350     0.5350    -1.2670 H     1 <1>   0.1500 
 22 H        3.2560    -3.4490     1.4070 H     1 <1>   0.1500 
 23 H        4.4450    -0.3090    -1.2390 H     1 <1>   0.1500 
 24 H        5.4630    -3.1390     0.9060 H     1 <1>   0.3700 
 25 H        7.7600    -3.9130    -0.8710 H     1 <1>   0.0800 
 26 H        7.6440    -3.3110     0.7520 H     1 <1>   0.0800 
 27 H        9.0620    -1.9860    -1.5600 H     1 <1>   0.0800 
 28 H        8.4660    -0.9070     1.1860 H     1 <1>   0.0800 
 29 H        8.2260    -0.1460    -0.3630 H     1 <1>   0.0800 
 30 H       12.1750    -2.6740     0.4370 H     1 <1>   0.3700 
 31 H        9.6240     1.6640     1.3280 H     1 <1>   0.0800 
 32 H        9.7950     1.8180    -0.4100 H     1 <1>   0.0800 
 33 H       11.2120     1.7600     0.6090 H     1 <1>   0.0800 
@<TRIPOS>BOND
  1   1   2  1   
  2   2   3  ar  
  3   2   4  ar  
  4   3   5  ar  
  5   3  20  1   
  6   4   6  ar  
  7   4  21  1   
  8   5   7  ar  
  9   5  22  1   
 10   6   7  ar  
 11   6  23  1   
 12   7   8  1   
 13   8   9  am  
 14   8  24  1   
 15   9  10  2   
 16   9  11  1   
 17  11  12  1   
 18  11  25  1   
 19  11  26  1   
 20  12  13  1   
 21  12  14  1   
 22  12  27  1   
 23  13  15  2   
 24  13  16  am  
 25  14  17  1   
 26  14  28  1   
 27  14  29  1   
 28  16  18  1   
 29  16  30  1   
 30  17  18  2   
 31  17  19  1   
 32  19  31  1   
 33  19  32  1   
 34  19  33  1   
@<TRIPOS>SUBSTRUCTURE
  1 ****   9 GROUP 4 **** **** 0

# MOE 2024.06 (io_trps.svl 2023.06)
