@<TRIPOS>MOLECULE
NONAME
33 34 1 0 0 
SMALL
USER_CHARGES


@<TRIPOS>ATOM
  1 BR       0.0410    -0.6510     0.7350 Br    1 <1>  -0.1110 
  2 C       -1.8050    -0.2610     0.3300 C.ar  1 <1>   0.1110 
  3 C       -2.7720    -1.2440     0.4590 C.ar  1 <1>   0.1770 
  4 C       -2.1300     1.0150    -0.0900 C.ar  1 <1>  -0.1500 
  5 CL      -2.3510    -2.8580     0.9860 Cl    1 <1>  -0.1770 
  6 C       -4.0910    -0.9550     0.1670 C.ar  1 <1>  -0.1500 
  7 C       -3.4540     1.2980    -0.3830 C.ar  1 <1>  -0.1500 
  8 C       -4.4430     0.3230    -0.2520 C.ar  1 <1>   0.1000 
  9 N       -5.7780     0.6060    -0.5560 N.pl3 1 <1>  -0.6000 
 10 C       -6.5480     1.6690    -0.1320 C.2   1 <1>  -0.0380 
 11 C       -6.1760     2.5870     0.7960 C.2   1 <1>  -0.1360 
 12 C       -7.9190     1.7770    -0.7920 C.3   1 <1>  -0.0220 
 13 C       -6.9610     3.6930     1.2060 C.2   1 <1>   0.4950 
 14 C       -8.9400     2.5710     0.0600 C.3   1 <1>   0.0000 
 15 O       -6.6020     4.4910     2.0370 O.2   1 <1>  -0.5700 
 16 C       -8.3130     3.8960     0.5460 C.3   1 <1>  -0.0990 
 17 C       -9.3810     1.7270     1.2710 C.3   1 <1>  -0.2400 
 18 C      -10.1860     2.8780    -0.7860 C.3   1 <1>  -0.2400 
 19 H       -1.3660     1.7670    -0.1870 H     1 <1>   0.1500 
 20 H       -4.8400    -1.7170     0.2730 H     1 <1>   0.1500 
 21 H       -3.7310     2.2810    -0.7210 H     1 <1>   0.1500 
 22 H       -6.2350    -0.0930    -1.1520 H     1 <1>   0.4000 
 23 H       -5.2270     2.5150     1.2890 H     1 <1>   0.1500 
 24 H       -8.3120     0.7930    -0.9790 H     1 <1>   0.0800 
 25 H       -7.7880     2.2590    -1.7450 H     1 <1>   0.0800 
 26 H       -8.1680     4.5610    -0.2860 H     1 <1>   0.0800 
 27 H       -8.9710     4.3840     1.2420 H     1 <1>   0.0800 
 28 H       -8.5440     1.4650     1.8940 H     1 <1>   0.0800 
 29 H       -9.8510     0.8140     0.9470 H     1 <1>   0.0800 
 30 H      -10.0880     2.2700     1.8740 H     1 <1>   0.0800 
 31 H       -9.9290     3.4720    -1.6450 H     1 <1>   0.0800 
 32 H      -10.9120     3.4220    -0.2060 H     1 <1>   0.0800 
 33 H      -10.6450     1.9680    -1.1300 H     1 <1>   0.0800 
@<TRIPOS>BOND
  1   1   2  1   
  2   2   3  ar  
  3   2   4  ar  
  4   3   5  1   
  5   3   6  ar  
  6   4   7  ar  
  7   4  19  1   
  8   6   8  ar  
  9   6  20  1   
 10   7   8  ar  
 11   7  21  1   
 12   8   9  1   
 13   9  10  1   
 14   9  22  1   
 15  10  11  2   
 16  10  12  1   
 17  11  13  1   
 18  11  23  1   
 19  12  14  1   
 20  12  24  1   
 21  12  25  1   
 22  13  15  2   
 23  13  16  1   
 24  14  16  1   
 25  14  17  1   
 26  14  18  1   
 27  16  26  1   
 28  16  27  1   
 29  17  28  1   
 30  17  29  1   
 31  17  30  1   
 32  18  31  1   
 33  18  32  1   
 34  18  33  1   
@<TRIPOS>SUBSTRUCTURE
  1 ****   9 GROUP 4 **** **** 0

# MOE 2024.06 (io_trps.svl 2023.06)
