@<TRIPOS>MOLECULE
NONAME
46 49 1 0 0 
SMALL
USER_CHARGES


@<TRIPOS>ATOM
  1 O       -2.2480    -1.0140    -2.6070 O.2   1 <1>  -0.5700 
  2 C       -2.7420    -1.6150    -1.6720 C.2   1 <1>   0.7060 
  3 O       -4.0320    -1.3900    -1.4410 O.3   1 <1>  -0.2330 
  4 C       -2.0310    -2.5480    -0.8320 C.2   1 <1>  -0.1240 
  5 C       -4.7000    -1.9450    -0.4160 C.ar  1 <1>   0.0820 
  6 C       -2.6880    -3.2110     0.1650 C.2   1 <1>  -0.1670 
  7 C       -0.5380    -2.7000    -1.1710 C.3   1 <1>  -0.0220 
  8 C       -4.0610    -2.8520     0.4420 C.ar  1 <1>   0.0280 
  9 C       -6.0210    -1.5680    -0.2430 C.ar  1 <1>  -0.1500 
 10 C       -2.0890    -4.3380     1.0250 C.3   1 <1>  -0.0220 
 11 C        0.3560    -2.9720     0.0440 C.3   1 <1>  -0.1600 
 12 C       -4.8200    -3.3210     1.5240 C.ar  1 <1>  -0.1500 
 13 C       -6.7540    -2.0720     0.8200 C.ar  1 <1>   0.0830 
 14 C       -0.9610    -5.1440     0.3730 C.3   1 <1>  -0.1600 
 15 C        0.4030    -4.4510     0.4350 C.3   1 <1>  -0.1600 
 16 C       -6.1360    -2.9440     1.7030 C.ar  1 <1>  -0.1500 
 17 O       -8.0470    -1.7680     1.0750 O.3   1 <1>  -0.3630 
 18 C       -8.8200    -0.8900     0.2710 C.3   1 <1>   0.2610 
 19 C       -9.9870    -0.2950     1.0700 C.2   1 <1>   0.4480 
 20 C       -9.3310    -1.6750    -0.9510 C.3   1 <1>  -0.1600 
 21 O      -10.1190    -0.3960     2.2550 O.2   1 <1>  -0.5700 
 22 C      -11.0000     0.4810     0.2460 C.3   1 <1>  -0.0990 
 23 C      -10.2900    -0.8330    -1.8060 C.3   1 <1>  -0.1600 
 24 C      -11.4750    -0.3230    -0.9740 C.3   1 <1>  -0.1600 
 25 H       -0.1790    -1.7770    -1.5940 H     1 <1>   0.0800 
 26 H       -0.4040    -3.4550    -1.9260 H     1 <1>   0.0800 
 27 H       -6.4410    -0.8810    -0.9500 H     1 <1>   0.1500 
 28 H       -2.8610    -5.0610     1.2140 H     1 <1>   0.0800 
 29 H       -1.7710    -3.9460     1.9750 H     1 <1>   0.0800 
 30 H        0.0120    -2.3790     0.8750 H     1 <1>   0.0800 
 31 H        1.3590    -2.6520    -0.1780 H     1 <1>   0.0800 
 32 H       -4.3920    -3.9830     2.2510 H     1 <1>   0.1500 
 33 H       -1.2250    -5.3610    -0.6480 H     1 <1>   0.0800 
 34 H       -0.8740    -6.0900     0.8790 H     1 <1>   0.0800 
 35 H        0.8020    -4.5310     1.4320 H     1 <1>   0.0800 
 36 H        1.0790    -4.9710    -0.2240 H     1 <1>   0.0800 
 37 H       -6.7040    -3.3190     2.5370 H     1 <1>   0.1500 
 38 H       -8.1960    -0.0710    -0.0320 H     1 <1>   0.0800 
 39 H       -9.8500    -2.5530    -0.6050 H     1 <1>   0.0800 
 40 H       -8.5030    -1.9940    -1.5580 H     1 <1>   0.0800 
 41 H      -10.5470     1.4010    -0.0760 H     1 <1>   0.0800 
 42 H      -11.8430     0.7280     0.8670 H     1 <1>   0.0800 
 43 H      -10.6590    -1.4320    -2.6220 H     1 <1>   0.0800 
 44 H       -9.7590     0.0030    -2.2300 H     1 <1>   0.0800 
 45 H      -12.1120     0.2920    -1.5870 H     1 <1>   0.0800 
 46 H      -12.0580    -1.1630    -0.6360 H     1 <1>   0.0800 
@<TRIPOS>BOND
  1   1   2  2   
  2   2   3  1   
  3   2   4  1   
  4   3   5  1   
  5   4   6  2   
  6   4   7  1   
  7   5   8  ar  
  8   5   9  ar  
  9   6   8  1   
 10   6  10  1   
 11   7  11  1   
 12   7  25  1   
 13   7  26  1   
 14   8  12  ar  
 15   9  13  ar  
 16   9  27  1   
 17  10  14  1   
 18  10  28  1   
 19  10  29  1   
 20  11  15  1   
 21  11  30  1   
 22  11  31  1   
 23  12  16  ar  
 24  12  32  1   
 25  13  16  ar  
 26  13  17  1   
 27  14  15  1   
 28  14  33  1   
 29  14  34  1   
 30  15  35  1   
 31  15  36  1   
 32  16  37  1   
 33  17  18  1   
 34  18  19  1   
 35  18  20  1   
 36  18  38  1   
 37  19  21  2   
 38  19  22  1   
 39  20  23  1   
 40  20  39  1   
 41  20  40  1   
 42  22  24  1   
 43  22  41  1   
 44  22  42  1   
 45  23  24  1   
 46  23  43  1   
 47  23  44  1   
 48  24  45  1   
 49  24  46  1   
@<TRIPOS>SUBSTRUCTURE
  1 ****   5 GROUP 4 **** **** 0

# MOE 2024.06 (io_trps.svl 2023.06)
