@<TRIPOS>MOLECULE
NONAME
47 49 1 0 0 
SMALL
USER_CHARGES


@<TRIPOS>ATOM
  1 S        0.6570     0.3300     1.1280 S.o2  1 <1>   1.4470 
  2 O        1.9960     0.1350     1.6410 O.2   1 <1>  -0.6500 
  3 O       -0.3540     0.7710     2.0660 O.2   1 <1>  -0.6500 
  4 N        0.7090     1.5010    -0.1090 N.am  1 <1>  -0.8490 
  5 C        0.0500    -1.2130     0.3830 C.ar  1 <1>  -0.0090 
  6 C        1.9020     1.4520    -0.9860 C.3   1 <1>   0.3370 
  7 C        0.6890     2.8700     0.3990 C.3   1 <1>   0.1960 
  8 C        0.3120    -2.4330     0.9950 C.ar  1 <1>  -0.1500 
  9 C       -0.7130    -1.2280    -0.7780 C.ar  1 <1>  -0.1500 
 10 C        2.2810     0.0770    -1.6140 C.2   1 <1>   0.5690 
 11 C        2.9540     2.2930    -0.2530 C.3   1 <1>  -0.1600 
 12 C        2.1470     3.2780     0.5910 C.3   1 <1>  -0.1600 
 13 C       -0.1440    -3.6250     0.4570 C.ar  1 <1>  -0.1500 
 14 C       -1.1710    -2.4150    -1.3240 C.ar  1 <1>  -0.1500 
 15 O        1.5750    -0.2990    -2.5240 O.2   1 <1>  -0.5700 
 16 N        3.3210    -0.7210    -1.2030 N.am  1 <1>  -0.6600 
 17 C       -0.8850    -3.6220    -0.7110 C.ar  1 <1>  -0.1430 
 18 C        3.1710    -2.2010    -1.2430 C.3   1 <1>   0.1400 
 19 C        4.7350    -0.2870    -1.0540 C.3   1 <1>   0.1400 
 20 C       -1.3850    -4.9220    -1.3130 C.3   1 <1>  -0.0970 
 21 C        3.7350    -2.8050     0.0490 C.3   1 <1>  -0.1600 
 22 C        5.2970    -0.8360     0.2600 C.3   1 <1>  -0.1600 
 23 C        5.1840    -2.3670     0.3060 C.3   1 <1>  -0.1600 
 24 H        1.6350     2.0410    -1.8470 H     1 <1>   0.0800 
 25 H        0.1180     2.9750     1.3080 H     1 <1>   0.0800 
 26 H        0.2390     3.5010    -0.3490 H     1 <1>   0.0800 
 27 H        0.8830    -2.4480     1.9070 H     1 <1>   0.1500 
 28 H       -0.9450    -0.3000    -1.2720 H     1 <1>   0.1500 
 29 H        3.6020     2.7950    -0.9490 H     1 <1>   0.0800 
 30 H        3.5440     1.6820     0.4040 H     1 <1>   0.0800 
 31 H        2.4160     3.1890     1.6290 H     1 <1>   0.0800 
 32 H        2.2970     4.2960     0.2780 H     1 <1>   0.0800 
 33 H        0.0810    -4.5520     0.9550 H     1 <1>   0.1500 
 34 H       -1.7480    -2.3900    -2.2310 H     1 <1>   0.1500 
 35 H        3.7000    -2.5870    -2.0970 H     1 <1>   0.0800 
 36 H        2.1310    -2.4660    -1.3450 H     1 <1>   0.0800 
 37 H        4.8300     0.7800    -1.0970 H     1 <1>   0.0800 
 38 H        5.3030    -0.6900    -1.8750 H     1 <1>   0.0800 
 39 H       -0.7690    -5.7460    -1.0030 H     1 <1>   0.0800 
 40 H       -1.3630    -4.8670    -2.3870 H     1 <1>   0.0800 
 41 H       -2.3960    -5.1040    -0.9940 H     1 <1>   0.0800 
 42 H        3.6810    -3.8770    -0.0060 H     1 <1>   0.0800 
 43 H        3.1220    -2.4880     0.8730 H     1 <1>   0.0800 
 44 H        4.7520    -0.4060     1.0840 H     1 <1>   0.0800 
 45 H        6.3280    -0.5460     0.3590 H     1 <1>   0.0800 
 46 H        5.8250    -2.7960    -0.4450 H     1 <1>   0.0800 
 47 H        5.5080    -2.7270     1.2670 H     1 <1>   0.0800 
@<TRIPOS>BOND
  1   1   2  2   
  2   1   3  2   
  3   1   4  am  
  4   1   5  1   
  5   4   6  1   
  6   4   7  1   
  7   5   8  ar  
  8   5   9  ar  
  9   6  10  1   
 10   6  11  1   
 11   6  24  1   
 12   7  12  1   
 13   7  25  1   
 14   7  26  1   
 15   8  13  ar  
 16   8  27  1   
 17   9  14  ar  
 18   9  28  1   
 19  10  15  2   
 20  10  16  am  
 21  11  12  1   
 22  11  29  1   
 23  11  30  1   
 24  12  31  1   
 25  12  32  1   
 26  13  17  ar  
 27  13  33  1   
 28  14  17  ar  
 29  14  34  1   
 30  16  18  1   
 31  16  19  1   
 32  17  20  1   
 33  18  21  1   
 34  18  35  1   
 35  18  36  1   
 36  19  22  1   
 37  19  37  1   
 38  19  38  1   
 39  20  39  1   
 40  20  40  1   
 41  20  41  1   
 42  21  23  1   
 43  21  42  1   
 44  21  43  1   
 45  22  23  1   
 46  22  44  1   
 47  22  45  1   
 48  23  46  1   
 49  23  47  1   
@<TRIPOS>SUBSTRUCTURE
  1 ****   5 GROUP 4 **** **** 0

# MOE 2024.06 (io_trps.svl 2023.06)
