@<TRIPOS>MOLECULE
NONAME
42 45 1 0 0 
SMALL
USER_CHARGES


@<TRIPOS>ATOM
  1 CL      -1.9420     0.0950     1.6820 Cl    1 <1>  -0.1770 
  2 C       -1.8720     1.3310     0.4420 C.ar  1 <1>   0.1770 
  3 C       -1.0480     2.4340     0.6060 C.ar  1 <1>   0.1770 
  4 C       -2.6600     1.1970    -0.6930 C.ar  1 <1>  -0.1440 
  5 CL      -0.0680     2.6050     2.0410 Cl    1 <1>  -0.1770 
  6 C       -0.9970     3.4180    -0.3630 C.ar  1 <1>  -0.1500 
  7 C       -2.6040     2.1890    -1.6650 C.ar  1 <1>  -0.1500 
  8 C       -3.5600    -0.0120    -0.8690 C.3   1 <1>   0.4870 
  9 C       -1.7780     3.2920    -1.5000 C.ar  1 <1>  -0.1500 
 10 N       -4.6570     0.0330     0.1350 N.4   1 <1>  -0.9590 
 11 C       -5.4450    -1.2510     0.1440 C.3   1 <1>   0.3430 
 12 C       -5.5270     1.2430    -0.0250 C.3   1 <1>   0.3430 
 13 C       -6.7630    -1.1580     0.9430 C.3   1 <1>   0.0580 
 14 C       -6.6380     1.3030     1.0450 C.3   1 <1>  -0.0800 
 15 C       -7.9120    -1.0250    -0.0600 C.2   1 <1>  -0.0290 
 16 C       -6.7310     0.0330     1.9100 C.3   1 <1>  -0.1600 
 17 C       -7.9760     1.4740     0.3190 C.3   1 <1>   0.1400 
 18 N       -8.3430     0.2430    -0.4490 N.am  1 <1>  -0.4690 
 19 C       -8.4900    -2.1390    -0.5920 C.2   1 <1>  -0.1500 
 20 C       -9.3130     0.3770    -1.4350 C.2   1 <1>   0.6160 
 21 C       -9.5130    -2.0310    -1.5630 C.2   1 <1>  -0.1500 
 22 O       -9.6380     1.4890    -1.8310 O.2   1 <1>  -0.5700 
 23 C       -9.9030    -0.7970    -1.9720 C.2   1 <1>  -0.1360 
 24 H       -0.3530     4.2700    -0.2270 H     1 <1>   0.1500 
 25 H       -3.1950     2.1180    -2.5650 H     1 <1>   0.1500 
 26 H       -2.9740    -0.9080    -0.7340 H     1 <1>   0.0800 
 27 H       -3.9710    -0.0220    -1.8660 H     1 <1>   0.0800 
 28 H       -1.7390     4.0560    -2.2610 H     1 <1>   0.1500 
 29 H       -4.2020     0.1180     1.0560 H     1 <1>   0.4500 
 30 H       -4.8360    -2.0320     0.5710 H     1 <1>   0.0800 
 31 H       -5.6850    -1.5380    -0.8670 H     1 <1>   0.0800 
 32 H       -5.9840     1.2190    -1.0020 H     1 <1>   0.0800 
 33 H       -4.9300     2.1390     0.0360 H     1 <1>   0.0800 
 34 H       -6.8930    -2.0710     1.4980 H     1 <1>   0.0800 
 35 H       -6.4800     2.1630     1.6720 H     1 <1>   0.0800 
 36 H       -5.8920    -0.0410     2.5810 H     1 <1>   0.0800 
 37 H       -7.6290     0.0480     2.5060 H     1 <1>   0.0800 
 38 H       -7.9230     2.3220    -0.3440 H     1 <1>   0.0800 
 39 H       -8.7580     1.6700     1.0340 H     1 <1>   0.0800 
 40 H       -8.1920    -3.1320    -0.3030 H     1 <1>   0.1500 
 41 H       -9.9580    -2.9300    -1.9570 H     1 <1>   0.1500 
 42 H      -10.6690    -0.6500    -2.7110 H     1 <1>   0.1500 
@<TRIPOS>BOND
  1   1   2  1   
  2   2   3  ar  
  3   2   4  ar  
  4   3   5  1   
  5   3   6  ar  
  6   4   7  ar  
  7   4   8  1   
  8   6   9  ar  
  9   6  24  1   
 10   7   9  ar  
 11   7  25  1   
 12   8  10  1   
 13   8  26  1   
 14   8  27  1   
 15   9  28  1   
 16  10  11  1   
 17  10  12  1   
 18  10  29  1   
 19  11  13  1   
 20  11  30  1   
 21  11  31  1   
 22  12  14  1   
 23  12  32  1   
 24  12  33  1   
 25  13  15  1   
 26  13  16  1   
 27  13  34  1   
 28  14  16  1   
 29  14  17  1   
 30  14  35  1   
 31  15  18  1   
 32  15  19  2   
 33  16  36  1   
 34  16  37  1   
 35  17  18  1   
 36  17  38  1   
 37  17  39  1   
 38  18  20  am  
 39  19  21  1   
 40  19  40  1   
 41  20  22  2   
 42  20  23  1   
 43  21  23  2   
 44  21  41  1   
 45  23  42  1   
@<TRIPOS>SUBSTRUCTURE
  1 ****  12 GROUP 4 **** **** 0

# MOE 2024.06 (io_trps.svl 2023.06)
