@<TRIPOS>MOLECULE
Structure2175
33 32 1 0 0 
SMALL
USER_CHARGES


@<TRIPOS>ATOM
  1 O        0.3180    -0.0540    -0.2570 O.2   1 <1>  -0.5700 
  2 C        0.1860     1.1100    -0.5710 C.2   1 <1>   0.7800 
  3 O       -0.9170     1.8040    -0.3000 O.3   1 <1>  -0.4300 
  4 N        1.1550     1.8050    -1.1960 N.am  1 <1>  -0.7300 
  5 C       -2.0710     1.3360     0.3630 C.3   1 <1>   0.2800 
  6 C        2.5860     1.3970    -1.2920 C.3   1 <1>   0.2010 
  7 C       -1.7250     0.9170     1.7970 C.3   1 <1>  -0.2400 
  8 C       -2.7210     0.2020    -0.4380 C.3   1 <1>  -0.2400 
  9 C       -3.0210     2.5340     0.4030 C.3   1 <1>  -0.2400 
 10 C        3.5620     2.1750    -0.3950 C.2   1 <1>   0.5690 
 11 O        4.5170     1.5540     0.0280 O.2   1 <1>  -0.5700 
 12 N        3.4070     3.5160    -0.1150 N.am  1 <1>  -0.3250 
 13 O        2.2940     4.2730    -0.5110 O.3   1 <1>  -0.3160 
 14 C        4.4580     4.3350     0.5390 C.3   1 <1>   0.0600 
 15 C        1.3700     4.4620     0.5430 C.3   1 <1>   0.0400 
 16 H        1.0040     2.8110    -1.2980 H     1 <1>   0.3700 
 17 H        2.9070     1.5160    -2.3100 H     1 <1>   0.0800 
 18 H        2.6720     0.3520    -1.0480 H     1 <1>   0.0800 
 19 H       -1.2100     1.7100     2.3060 H     1 <1>   0.0800 
 20 H       -1.1130     0.0340     1.8060 H     1 <1>   0.0800 
 21 H       -2.6250     0.6910     2.3390 H     1 <1>   0.0800 
 22 H       -2.1090    -0.6810    -0.4280 H     1 <1>   0.0800 
 23 H       -2.8840     0.5080    -1.4560 H     1 <1>   0.0800 
 24 H       -3.6690    -0.0570    -0.0040 H     1 <1>   0.0800 
 25 H       -2.5720     3.3490     0.9420 H     1 <1>   0.0800 
 26 H       -3.9380     2.2670     0.8960 H     1 <1>   0.0800 
 27 H       -3.2540     2.8580    -0.5950 H     1 <1>   0.0800 
 28 H        5.3840     3.7910     0.5860 H     1 <1>   0.0800 
 29 H        4.1500     4.5870     1.5380 H     1 <1>   0.0800 
 30 H        4.6120     5.2370    -0.0260 H     1 <1>   0.0800 
 31 H        1.8100     5.1080     1.2820 H     1 <1>   0.0800 
 32 H        1.1260     3.5090     0.9800 H     1 <1>   0.0800 
 33 H        0.4850     4.9190     0.1390 H     1 <1>   0.0800 
@<TRIPOS>BOND
  1   1   2  2   
  2   2   3  1   
  3   2   4  am  
  4   3   5  1   
  5   4   6  1   
  6   4  16  1   
  7   5   7  1   
  8   5   8  1   
  9   5   9  1   
 10   6  10  1   
 11   6  17  1   
 12   6  18  1   
 13   7  19  1   
 14   7  20  1   
 15   7  21  1   
 16   8  22  1   
 17   8  23  1   
 18   8  24  1   
 19   9  25  1   
 20   9  26  1   
 21   9  27  1   
 22  10  11  2   
 23  10  12  am  
 24  12  13  1   
 25  12  14  1   
 26  13  15  1   
 27  14  28  1   
 28  14  29  1   
 29  14  30  1   
 30  15  31  1   
 31  15  32  1   
 32  15  33  1   
@<TRIPOS>SUBSTRUCTURE
  1 ****   4 GROUP 4 **** **** 0

# MOE 2024.06 (io_trps.svl 2023.06)
