@<TRIPOS>MOLECULE
NONAME
45 48 1 0 0 
SMALL
USER_CHARGES


@<TRIPOS>ATOM
  1 S       -0.2770     1.6760     1.5300 S.3   1 <1>  -0.3710 
  2 C       -1.3510     1.9500     0.1580 C.2   1 <1>   0.6510 
  3 C        1.1950     2.2870     0.6490 C.3   1 <1>   0.0700 
  4 N       -0.7890     2.4340    -0.8600 N.2   1 <1>  -0.6960 
  5 N       -2.6840     1.6560     0.2380 N.am  1 <1>  -0.4900 
  6 C        0.6610     2.6820    -0.7390 C.3   1 <1>   0.0860 
  7 C       -3.4830     1.1580     1.2240 C.2   1 <1>   0.5690 
  8 O       -3.0910     0.8000     2.3040 O.2   1 <1>  -0.5700 
  9 C       -4.9840     1.0600     0.9440 C.3   1 <1>   0.2010 
 10 N       -5.3530     1.3320    -0.4860 N.am  1 <1>  -0.7300 
 11 C       -5.7920     2.4410    -1.1400 C.2   1 <1>   0.5690 
 12 O       -5.9240     2.3210    -2.3320 O.2   1 <1>  -0.5700 
 13 C       -6.1140     3.8060    -0.4690 C.3   1 <1>   0.0610 
 14 C       -7.3420     3.6850     0.4710 C.3   1 <1>  -0.1600 
 15 C       -6.4730     4.8690    -1.5480 C.3   1 <1>  -0.1600 
 16 C       -4.9080     4.3690     0.3320 C.3   1 <1>  -0.1600 
 17 C       -7.6790     5.0390     1.1250 C.3   1 <1>  -0.0800 
 18 C       -6.8190     6.2310    -0.9200 C.3   1 <1>  -0.0800 
 19 C       -5.2510     5.7220     0.9810 C.3   1 <1>  -0.0800 
 20 C       -8.0210     6.0590     0.0250 C.3   1 <1>  -0.1600 
 21 C       -6.4590     5.5400     1.9200 C.3   1 <1>  -0.1600 
 22 C       -5.6080     6.7370    -0.1180 C.3   1 <1>  -0.1600 
 23 H        1.9130     1.4890     0.6010 H     1 <1>   0.0800 
 24 H        1.5860     3.1280     1.1930 H     1 <1>   0.0800 
 25 H       -3.1640     1.8840    -0.6300 H     1 <1>   0.3700 
 26 H        1.1760     2.1180    -1.4970 H     1 <1>   0.0800 
 27 H        0.8510     3.7270    -0.9140 H     1 <1>   0.0800 
 28 H       -5.4900     1.7370     1.6030 H     1 <1>   0.0800 
 29 H       -5.3070     0.0670     1.2010 H     1 <1>   0.0800 
 30 H       -5.2730     0.5180    -1.1030 H     1 <1>   0.3700 
 31 H       -7.1660     2.9640     1.2440 H     1 <1>   0.0800 
 32 H       -8.1910     3.3400    -0.0950 H     1 <1>   0.0800 
 33 H       -7.3130     4.5270    -2.1290 H     1 <1>   0.0800 
 34 H       -5.6460     4.9890    -2.2270 H     1 <1>   0.0800 
 35 H       -4.0630     4.4890    -0.3240 H     1 <1>   0.0800 
 36 H       -4.6170     3.7010     1.1160 H     1 <1>   0.0800 
 37 H       -8.5220     4.9240     1.7860 H     1 <1>   0.0800 
 38 H       -7.0640     6.9380    -1.6950 H     1 <1>   0.0800 
 39 H       -4.4050     6.0810     1.5420 H     1 <1>   0.0800 
 40 H       -8.2720     7.0060     0.4710 H     1 <1>   0.0800 
 41 H       -8.8780     5.7230    -0.5320 H     1 <1>   0.0800 
 42 H       -6.6950     6.4780     2.3910 H     1 <1>   0.0800 
 43 H       -6.2150     4.8380     2.6980 H     1 <1>   0.0800 
 44 H       -5.8370     7.6900     0.3250 H     1 <1>   0.0800 
 45 H       -4.7680     6.8760    -0.7760 H     1 <1>   0.0800 
@<TRIPOS>BOND
  1   1   2  1   
  2   1   3  1   
  3   2   4  2   
  4   2   5  1   
  5   3   6  1   
  6   3  23  1   
  7   3  24  1   
  8   4   6  1   
  9   5   7  am  
 10   5  25  1   
 11   6  26  1   
 12   6  27  1   
 13   7   8  2   
 14   7   9  1   
 15   9  10  1   
 16   9  28  1   
 17   9  29  1   
 18  10  11  am  
 19  10  30  1   
 20  11  12  2   
 21  11  13  1   
 22  13  14  1   
 23  13  15  1   
 24  13  16  1   
 25  14  17  1   
 26  14  31  1   
 27  14  32  1   
 28  15  18  1   
 29  15  33  1   
 30  15  34  1   
 31  16  19  1   
 32  16  35  1   
 33  16  36  1   
 34  17  20  1   
 35  17  21  1   
 36  17  37  1   
 37  18  20  1   
 38  18  22  1   
 39  18  38  1   
 40  19  21  1   
 41  19  22  1   
 42  19  39  1   
 43  20  40  1   
 44  20  41  1   
 45  21  42  1   
 46  21  43  1   
 47  22  44  1   
 48  22  45  1   
@<TRIPOS>SUBSTRUCTURE
  1 ****  16 GROUP 4 **** **** 0

# MOE 2024.06 (io_trps.svl 2023.06)
