@<TRIPOS>MOLECULE
NONAME
39 39 1 0 0 
SMALL
USER_CHARGES


@<TRIPOS>ATOM
  1 O       -2.2170     0.3130    -2.1540 O.2   1 <1>  -0.5700 
  2 C       -2.7880    -0.4490    -1.4200 C.2   1 <1>   0.4230 
  3 C       -4.0590    -0.1380    -0.7970 C.ar  1 <1>   0.0860 
  4 C       -2.1070    -1.7790    -1.1640 C.3   1 <1>  -0.1790 
  5 C       -4.8590    -1.0940    -0.1600 C.ar  1 <1>  -0.1500 
  6 C       -4.5440     1.1710    -0.8180 C.ar  1 <1>  -0.1500 
  7 C       -6.0720    -0.7620     0.4250 C.ar  1 <1>  -0.1430 
  8 C       -5.7450     1.5200    -0.2330 C.ar  1 <1>  -0.1500 
  9 C       -6.5200     0.5530     0.3970 C.ar  1 <1>   0.0830 
 10 C       -6.9180    -1.8190     1.1100 C.3   1 <1>   0.4870 
 11 O       -7.7070     0.8220     0.9880 O.3   1 <1>  -0.3630 
 12 N       -7.6730    -2.5960     0.0820 N.4   1 <1>  -0.9590 
 13 C       -8.1790     2.1470     1.1400 C.3   1 <1>   0.0400 
 14 C       -8.7280    -1.7400    -0.5310 C.3   1 <1>   0.3430 
 15 C       -8.2340    -3.8540     0.6440 C.3   1 <1>   0.3430 
 16 C       -9.1860    -2.3500    -1.8520 C.3   1 <1>  -0.2400 
 17 C       -7.1170    -4.8710     0.8430 C.3   1 <1>  -0.2400 
 18 H       -2.6320    -2.5660    -1.6720 H     1 <1>   0.0800 
 19 H       -2.0680    -1.9830    -0.1100 H     1 <1>   0.0800 
 20 H       -1.0990    -1.7460    -1.5390 H     1 <1>   0.0800 
 21 H       -4.5200    -2.1140    -0.1230 H     1 <1>   0.1500 
 22 H       -3.9560     1.9330    -1.3050 H     1 <1>   0.1500 
 23 H       -6.0580     2.5470    -0.2820 H     1 <1>   0.1500 
 24 H       -7.6020    -1.3550     1.8030 H     1 <1>   0.0800 
 25 H       -6.2690    -2.4710     1.6690 H     1 <1>   0.0800 
 26 H       -7.0090    -2.8310    -0.6640 H     1 <1>   0.4500 
 27 H       -9.1030     2.1160     1.6890 H     1 <1>   0.0800 
 28 H       -8.3470     2.5760     0.1680 H     1 <1>   0.0800 
 29 H       -7.4500     2.7180     1.6890 H     1 <1>   0.0800 
 30 H       -8.3310    -0.7580    -0.7340 H     1 <1>   0.0800 
 31 H       -9.5620    -1.6300     0.1430 H     1 <1>   0.0800 
 32 H       -8.9570    -4.2700    -0.0390 H     1 <1>   0.0800 
 33 H       -8.7340    -3.6560     1.5790 H     1 <1>   0.0800 
 34 H       -8.3550    -2.4720    -2.5240 H     1 <1>   0.0800 
 35 H       -9.8890    -1.6820    -2.3170 H     1 <1>   0.0800 
 36 H       -9.6800    -3.2920    -1.7070 H     1 <1>   0.0800 
 37 H       -6.6050    -5.0630    -0.0840 H     1 <1>   0.0800 
 38 H       -7.5460    -5.7990     1.1780 H     1 <1>   0.0800 
 39 H       -6.4140    -4.5520     1.5890 H     1 <1>   0.0800 
@<TRIPOS>BOND
  1   1   2  2   
  2   2   3  1   
  3   2   4  1   
  4   3   5  ar  
  5   3   6  ar  
  6   4  18  1   
  7   4  19  1   
  8   4  20  1   
  9   5   7  ar  
 10   5  21  1   
 11   6   8  ar  
 12   6  22  1   
 13   7   9  ar  
 14   7  10  1   
 15   8   9  ar  
 16   8  23  1   
 17   9  11  1   
 18  10  12  1   
 19  10  24  1   
 20  10  25  1   
 21  11  13  1   
 22  12  14  1   
 23  12  15  1   
 24  12  26  1   
 25  13  27  1   
 26  13  28  1   
 27  13  29  1   
 28  14  16  1   
 29  14  30  1   
 30  14  31  1   
 31  15  17  1   
 32  15  32  1   
 33  15  33  1   
 34  16  34  1   
 35  16  35  1   
 36  16  36  1   
 37  17  37  1   
 38  17  38  1   
 39  17  39  1   
@<TRIPOS>SUBSTRUCTURE
  1 ****   7 GROUP 4 **** **** 0

# MOE 2024.06 (io_trps.svl 2023.06)
