@<TRIPOS>MOLECULE
NONAME
50 52 1 0 0 
SMALL
USER_CHARGES


@<TRIPOS>ATOM
  1 N       -0.0110     0.6880     0.0360 N.3   1 <1>  -0.8100 
  2 C       -0.1350    -0.1880    -1.1590 C.3   1 <1>   0.1100 
  3 C        1.1660     1.5770    -0.0950 C.3   1 <1>   0.1100 
  4 C       -1.2410     1.4540     0.2880 C.3   1 <1>   0.2480 
  5 C        1.1750    -0.9510    -1.4740 C.3   1 <1>   0.3430 
  6 C        2.4790     0.7800    -0.3080 C.3   1 <1>   0.3430 
  7 C       -2.3590     0.4890     0.6140 C.2   1 <1>  -0.2880 
  8 N        2.2120    -0.6950    -0.4220 N.4   1 <1>  -0.9590 
  9 C       -3.4930     0.3520    -0.0950 C.2   1 <1>  -0.1780 
 10 C        3.4250    -1.5480    -0.5930 C.3   1 <1>   0.3430 
 11 C       -4.5960    -0.5540     0.1450 C.ar  1 <1>   0.0280 
 12 C        4.3290    -1.5180     0.6410 C.3   1 <1>  -0.0170 
 13 C       -5.6300    -0.6530    -0.7840 C.ar  1 <1>  -0.1500 
 14 C       -4.6760    -1.3530     1.2840 C.ar  1 <1>  -0.1500 
 15 C        5.4760    -2.4860     0.4230 C.ar  1 <1>  -0.1440 
 16 C       -6.6950    -1.5140    -0.5890 C.ar  1 <1>  -0.1500 
 17 C       -5.7380    -2.2170     1.4850 C.ar  1 <1>  -0.1500 
 18 C        6.6480    -2.0590    -0.1840 C.ar  1 <1>  -0.1500 
 19 C        5.3570    -3.8100     0.8190 C.ar  1 <1>  -0.1500 
 20 C       -6.7500    -2.3000     0.5470 C.ar  1 <1>  -0.1500 
 21 C        7.6870    -2.9490    -0.3980 C.ar  1 <1>  -0.1500 
 22 C        6.3960    -4.6980     0.6050 C.ar  1 <1>  -0.1500 
 23 C        7.5610    -4.2690    -0.0050 C.ar  1 <1>  -0.1500 
 24 H       -0.9150    -0.9130    -0.9950 H     1 <1>   0.0800 
 25 H       -0.4190     0.3960    -2.0180 H     1 <1>   0.0800 
 26 H        1.0240     2.2510    -0.9230 H     1 <1>   0.0800 
 27 H        1.2660     2.1750     0.7950 H     1 <1>   0.0800 
 28 H       -1.0960     2.1130     1.1280 H     1 <1>   0.0800 
 29 H       -1.4950     2.0500    -0.5730 H     1 <1>   0.0800 
 30 H        1.5430    -0.6400    -2.4380 H     1 <1>   0.0800 
 31 H        0.9570    -2.0050    -1.5310 H     1 <1>   0.0800 
 32 H        3.1340     0.9710     0.5260 H     1 <1>   0.0800 
 33 H        2.9690     1.1380    -1.1980 H     1 <1>   0.0800 
 34 H       -2.1370    -0.0910     1.4900 H     1 <1>   0.1500 
 35 H        1.7200    -0.9300     0.4560 H     1 <1>   0.4500 
 36 H       -3.6410     0.9720    -0.9620 H     1 <1>   0.1500 
 37 H        3.1250    -2.5690    -0.7640 H     1 <1>   0.0800 
 38 H        3.9870    -1.2230    -1.4540 H     1 <1>   0.0800 
 39 H        4.7270    -0.5320     0.7990 H     1 <1>   0.0800 
 40 H        3.7750    -1.8120     1.5140 H     1 <1>   0.0800 
 41 H       -5.6040    -0.0500    -1.6730 H     1 <1>   0.1500 
 42 H       -3.9060    -1.3020     2.0290 H     1 <1>   0.1500 
 43 H       -7.4820    -1.5740    -1.3210 H     1 <1>   0.1500 
 44 H       -5.7770    -2.8250     2.3720 H     1 <1>   0.1500 
 45 H        6.7700    -1.0360    -0.4950 H     1 <1>   0.1500 
 46 H        4.4620    -4.1640     1.3000 H     1 <1>   0.1500 
 47 H       -7.5770    -2.9720     0.7010 H     1 <1>   0.1500 
 48 H        8.5960    -2.6160    -0.8690 H     1 <1>   0.1500 
 49 H        6.3020    -5.7250     0.9150 H     1 <1>   0.1500 
 50 H        8.3690    -4.9600    -0.1700 H     1 <1>   0.1500 
@<TRIPOS>BOND
  1   1   2  1   
  2   1   3  1   
  3   1   4  1   
  4   2   5  1   
  5   2  24  1   
  6   2  25  1   
  7   3   6  1   
  8   3  26  1   
  9   3  27  1   
 10   4   7  1   
 11   4  28  1   
 12   4  29  1   
 13   5   8  1   
 14   5  30  1   
 15   5  31  1   
 16   6   8  1   
 17   6  32  1   
 18   6  33  1   
 19   7   9  2   
 20   7  34  1   
 21   8  10  1   
 22   8  35  1   
 23   9  11  1   
 24   9  36  1   
 25  10  12  1   
 26  10  37  1   
 27  10  38  1   
 28  11  13  ar  
 29  11  14  ar  
 30  12  15  1   
 31  12  39  1   
 32  12  40  1   
 33  13  16  ar  
 34  13  41  1   
 35  14  17  ar  
 36  14  42  1   
 37  15  18  ar  
 38  15  19  ar  
 39  16  20  ar  
 40  16  43  1   
 41  17  20  ar  
 42  17  44  1   
 43  18  21  ar  
 44  18  45  1   
 45  19  22  ar  
 46  19  46  1   
 47  20  47  1   
 48  21  23  ar  
 49  21  48  1   
 50  22  23  ar  
 51  22  49  1   
 52  23  50  1   
@<TRIPOS>SUBSTRUCTURE
  1 ****   5 GROUP 4 **** **** 0

# MOE 2024.06 (io_trps.svl 2023.06)
