@<TRIPOS>MOLECULE
NONAME
55 58 1 0 0 
SMALL
USER_CHARGES


@<TRIPOS>ATOM
  1 O       -1.1540     2.4570     1.0590 O.2   1 <1>  -0.5700 
  2 C       -0.1840     2.7530     0.3850 C.2   1 <1>   0.5440 
  3 N       -0.2670     3.8690    -0.4070 N.am  1 <1>  -0.6600 
  4 C        0.9840     1.8990     0.3820 C.ar  1 <1>   0.0860 
  5 C        0.8690     4.4310    -1.1840 C.3   1 <1>   0.2810 
  6 C       -1.5330     4.5710    -0.6990 C.3   1 <1>   0.1400 
  7 C        2.3070     2.3830     0.4030 C.ar  1 <1>   0.1170 
  8 C        0.7880     0.5160     0.3460 C.ar  1 <1>  -0.1500 
  9 C        2.0810     4.7520    -0.2860 C.2   1 <1>   0.5690 
 10 C        0.2490     5.6350    -1.9140 C.3   1 <1>  -0.1600 
 11 C       -1.2460     5.3340    -1.9850 C.3   1 <1>  -0.1600 
 12 N        2.6240     3.7550     0.5010 N.am  1 <1>  -0.4770 
 13 C        3.3590     1.4680     0.3390 C.ar  1 <1>  -0.1500 
 14 C        1.8410    -0.3730     0.3000 C.ar  1 <1>  -0.1500 
 15 O        2.5490     5.8720    -0.2840 O.2   1 <1>  -0.5700 
 16 C        3.5880     4.1570     1.5850 C.3   1 <1>   0.2010 
 17 C        3.1360     0.1080     0.2900 C.ar  1 <1>  -0.1500 
 18 C        5.0210     4.3570     1.0910 C.2   1 <1>   0.5690 
 19 O        5.8880     3.6280     1.5090 O.2   1 <1>  -0.5700 
 20 N        5.2790     5.3450     0.1960 N.am  1 <1>  -0.7300 
 21 C        6.5990     5.6750    -0.3880 C.3   1 <1>   0.1400 
 22 C        6.9000     7.1610    -0.1840 C.3   1 <1>  -0.0220 
 23 C        8.2160     7.6240    -0.8100 C.2   1 <1>  -0.2760 
 24 C        9.0920     6.8390    -1.4520 C.2   1 <1>  -0.2880 
 25 C        8.4490     9.1220    -0.6330 C.3   1 <1>  -0.0220 
 26 C       10.3810     7.3300    -2.0910 C.3   1 <1>  -0.0220 
 27 C        9.9000     9.5230    -0.9360 C.3   1 <1>  -0.1600 
 28 C       10.3990     8.8580    -2.2240 C.3   1 <1>  -0.1600 
 29 H        1.1680     3.7010    -1.9150 H     1 <1>   0.0800 
 30 H       -2.3460     3.8730    -0.8160 H     1 <1>   0.0800 
 31 H       -1.7520     5.2490     0.1090 H     1 <1>   0.0800 
 32 H       -0.2210     0.1370     0.3520 H     1 <1>   0.1500 
 33 H        0.3920     6.5320    -1.3360 H     1 <1>   0.0800 
 34 H        0.6880     5.7790    -2.8850 H     1 <1>   0.0800 
 35 H       -1.4570     4.6970    -2.8260 H     1 <1>   0.0800 
 36 H       -1.8430     6.2260    -2.0610 H     1 <1>   0.0800 
 37 H        4.3760     1.8160     0.3270 H     1 <1>   0.1500 
 38 H        1.6580    -1.4340     0.2700 H     1 <1>   0.1500 
 39 H        3.2540     5.0740     2.0350 H     1 <1>   0.0800 
 40 H        3.5930     3.4060     2.3530 H     1 <1>   0.0800 
 41 H        3.9660    -0.5770     0.2470 H     1 <1>   0.1500 
 42 H        4.4740     5.8810    -0.1630 H     1 <1>   0.3700 
 43 H        7.3670     5.0820     0.0820 H     1 <1>   0.0800 
 44 H        6.5850     5.4470    -1.4390 H     1 <1>   0.0800 
 45 H        6.0980     7.7350    -0.6140 H     1 <1>   0.0800 
 46 H        6.9310     7.3590     0.8730 H     1 <1>   0.0800 
 47 H        8.9690     5.7770    -1.5760 H     1 <1>   0.1500 
 48 H        7.7850     9.6550    -1.2910 H     1 <1>   0.0800 
 49 H        8.2210     9.4130     0.3770 H     1 <1>   0.0800 
 50 H       11.2100     7.0070    -1.4860 H     1 <1>   0.0800 
 51 H       10.4890     6.8920    -3.0680 H     1 <1>   0.0800 
 52 H        9.9670    10.5930    -1.0240 H     1 <1>   0.0800 
 53 H       10.5270     9.2150    -0.1180 H     1 <1>   0.0800 
 54 H       11.3970     9.1890    -2.4500 H     1 <1>   0.0800 
 55 H        9.7570     9.1470    -3.0390 H     1 <1>   0.0800 
@<TRIPOS>BOND
  1   1   2  2   
  2   2   3  am  
  3   2   4  1   
  4   3   5  1   
  5   3   6  1   
  6   4   7  ar  
  7   4   8  ar  
  8   5   9  1   
  9   5  10  1   
 10   5  29  1   
 11   6  11  1   
 12   6  30  1   
 13   6  31  1   
 14   7  12  1   
 15   7  13  ar  
 16   8  14  ar  
 17   8  32  1   
 18   9  12  am  
 19   9  15  2   
 20  10  11  1   
 21  10  33  1   
 22  10  34  1   
 23  11  35  1   
 24  11  36  1   
 25  12  16  1   
 26  13  17  ar  
 27  13  37  1   
 28  14  17  ar  
 29  14  38  1   
 30  16  18  1   
 31  16  39  1   
 32  16  40  1   
 33  17  41  1   
 34  18  19  2   
 35  18  20  am  
 36  20  21  1   
 37  20  42  1   
 38  21  22  1   
 39  21  43  1   
 40  21  44  1   
 41  22  23  1   
 42  22  45  1   
 43  22  46  1   
 44  23  24  2   
 45  23  25  1   
 46  24  26  1   
 47  24  47  1   
 48  25  27  1   
 49  25  48  1   
 50  25  49  1   
 51  26  28  1   
 52  26  50  1   
 53  26  51  1   
 54  27  28  1   
 55  27  52  1   
 56  27  53  1   
 57  28  54  1   
 58  28  55  1   
@<TRIPOS>SUBSTRUCTURE
  1 ****  12 GROUP 4 **** **** 0

# MOE 2024.06 (io_trps.svl 2023.06)
