@<TRIPOS>MOLECULE
NONAME
34 34 1 0 0 
SMALL
USER_CHARGES


@<TRIPOS>ATOM
  1 O       -0.3410     2.3810     0.7420 O.3   1 <1>  -0.6800 
  2 C       -0.4240     2.7810    -0.5920 C.3   1 <1>   0.2000 
  3 C        0.8590     3.5570    -0.9550 C.3   1 <1>   0.3430 
  4 C       -1.7000     3.6140    -0.7790 C.3   1 <1>  -0.0170 
  5 N        2.0230     2.9700    -0.2270 N.4   1 <1>  -0.9060 
  6 C       -2.9180     2.8430    -0.2950 C.ar  1 <1>  -0.1430 
  7 C        3.1740     3.8540    -0.0260 C.3   1 <1>   0.4230 
  8 C       -3.4550     3.0980     0.9580 C.ar  1 <1>  -0.1500 
  9 C       -3.4940     1.8690    -1.0970 C.ar  1 <1>  -0.1500 
 10 C        4.3310     2.9890     0.4540 C.3   1 <1>  -0.2400 
 11 C        2.8210     4.9110     1.0160 C.3   1 <1>  -0.2400 
 12 C       -4.5500     2.3810     1.4080 C.ar  1 <1>  -0.1500 
 13 C       -4.5890     1.1520    -0.6470 C.ar  1 <1>  -0.1500 
 14 C       -5.1160     1.4070     0.6060 C.ar  1 <1>  -0.1500 
 15 H       -1.2200     2.0240     1.0200 H     1 <1>   0.4000 
 16 H       -0.4920     1.8880    -1.1910 H     1 <1>   0.0800 
 17 H        0.7250     4.5820    -0.6540 H     1 <1>   0.0800 
 18 H        1.0210     3.5410    -2.0200 H     1 <1>   0.0800 
 19 H       -1.8270     3.8540    -1.8200 H     1 <1>   0.0800 
 20 H       -1.6170     4.5430    -0.2430 H     1 <1>   0.0800 
 21 H        2.3190     2.0940    -0.6690 H     1 <1>   0.4500 
 22 H        1.6310     2.6920     0.6910 H     1 <1>   0.4500 
 23 H        3.4460     4.3290    -0.9570 H     1 <1>   0.0800 
 24 H       -3.0300     3.8560     1.5940 H     1 <1>   0.1500 
 25 H       -3.1010     1.6590    -2.0760 H     1 <1>   0.1500 
 26 H        4.0920     2.4970     1.3810 H     1 <1>   0.0800 
 27 H        5.1980     3.6050     0.6190 H     1 <1>   0.0800 
 28 H        4.5910     2.2540    -0.2870 H     1 <1>   0.0800 
 29 H        2.5140     4.4560     1.9420 H     1 <1>   0.0800 
 30 H        2.0440     5.5640     0.6640 H     1 <1>   0.0800 
 31 H        3.6850     5.5200     1.2170 H     1 <1>   0.0800 
 32 H       -4.9650     2.5820     2.3810 H     1 <1>   0.1500 
 33 H       -5.0340     0.3970    -1.2710 H     1 <1>   0.1500 
 34 H       -5.9680     0.8490     0.9560 H     1 <1>   0.1500 
@<TRIPOS>BOND
  1   1   2  1   
  2   1  15  1   
  3   2   3  1   
  4   2   4  1   
  5   2  16  1   
  6   3   5  1   
  7   3  17  1   
  8   3  18  1   
  9   4   6  1   
 10   4  19  1   
 11   4  20  1   
 12   5   7  1   
 13   5  21  1   
 14   5  22  1   
 15   6   8  ar  
 16   6   9  ar  
 17   7  10  1   
 18   7  11  1   
 19   7  23  1   
 20   8  12  ar  
 21   8  24  1   
 22   9  13  ar  
 23   9  25  1   
 24  10  26  1   
 25  10  27  1   
 26  10  28  1   
 27  11  29  1   
 28  11  30  1   
 29  11  31  1   
 30  12  14  ar  
 31  12  32  1   
 32  13  14  ar  
 33  13  33  1   
 34  14  34  1   
@<TRIPOS>SUBSTRUCTURE
  1 ****   2 GROUP 4 **** **** 0

# MOE 2024.06 (io_trps.svl 2023.06)
