@<TRIPOS>MOLECULE
NONAME
30 30 1 0 0 
SMALL
USER_CHARGES


@<TRIPOS>ATOM
  1 BR      -0.4310    -0.2280    -1.2980 Br    1 <1>  -0.1110 
  2 C       -0.2450    -2.0750    -0.7700 C.ar  1 <1>   0.1110 
  3 C       -1.3650    -2.7900    -0.3750 C.ar  1 <1>   0.0830 
  4 C        1.0190    -2.6280    -0.7920 C.ar  1 <1>  -0.1500 
  5 O       -2.5740    -2.1770    -0.3450 O.3   1 <1>  -0.3630 
  6 C       -1.1840    -4.1310    -0.0220 C.ar  1 <1>   0.0830 
  7 C        1.2160    -3.9550    -0.4060 C.ar  1 <1>   0.0860 
  8 C       -3.1650    -1.9920     0.9220 C.3   1 <1>   0.0400 
  9 O       -2.2100    -4.9390     0.3360 O.3   1 <1>  -0.3630 
 10 C        0.0840    -4.6860    -0.0310 C.ar  1 <1>  -0.1500 
 11 C        2.5450    -4.5390    -0.4050 C.2   1 <1>   0.5440 
 12 C       -3.1700    -5.2230    -0.6580 C.3   1 <1>   0.1200 
 13 O        3.4120    -4.1000    -1.1330 O.2   1 <1>  -0.5700 
 14 N        2.8510    -5.5840     0.4260 N.am  1 <1>  -0.7300 
 15 C       -4.1270    -6.2730    -0.1030 C.3   1 <1>  -0.2400 
 16 C        4.1680    -6.2680     0.5050 C.3   1 <1>   0.0600 
 17 H        1.8590    -2.0330    -1.1060 H     1 <1>   0.1500 
 18 H       -4.0700    -1.4290     0.7910 H     1 <1>   0.0800 
 19 H       -2.4800    -1.4470     1.5480 H     1 <1>   0.0800 
 20 H       -3.3880    -2.9500     1.3560 H     1 <1>   0.0800 
 21 H        0.1830    -5.7190     0.2490 H     1 <1>   0.1500 
 22 H       -2.6580    -5.5930    -1.5300 H     1 <1>   0.0800 
 23 H       -3.6990    -4.3200    -0.9040 H     1 <1>   0.0800 
 24 H        2.1550    -5.8870     1.1100 H     1 <1>   0.3700 
 25 H       -3.5890    -7.1700     0.1460 H     1 <1>   0.0800 
 26 H       -4.8710    -6.5120    -0.8410 H     1 <1>   0.0800 
 27 H       -4.6220    -5.8950     0.7740 H     1 <1>   0.0800 
 28 H        4.8290    -5.9030    -0.2640 H     1 <1>   0.0800 
 29 H        4.0360    -7.3270     0.3720 H     1 <1>   0.0800 
 30 H        4.6170    -6.0810     1.4640 H     1 <1>   0.0800 
@<TRIPOS>BOND
  1   1   2  1   
  2   2   3  ar  
  3   2   4  ar  
  4   3   5  1   
  5   3   6  ar  
  6   4   7  ar  
  7   4  17  1   
  8   5   8  1   
  9   6   9  1   
 10   6  10  ar  
 11   7  10  ar  
 12   7  11  1   
 13   8  18  1   
 14   8  19  1   
 15   8  20  1   
 16   9  12  1   
 17  10  21  1   
 18  11  13  2   
 19  11  14  am  
 20  12  15  1   
 21  12  22  1   
 22  12  23  1   
 23  14  16  1   
 24  14  24  1   
 25  15  25  1   
 26  15  26  1   
 27  15  27  1   
 28  16  28  1   
 29  16  29  1   
 30  16  30  1   
@<TRIPOS>SUBSTRUCTURE
  1 ****  10 GROUP 4 **** **** 0

# MOE 2024.06 (io_trps.svl 2023.06)
