@<TRIPOS>MOLECULE
NONAME
39 40 1 0 0 
SMALL
USER_CHARGES


@<TRIPOS>ATOM
  1 O        0.0400     0.0320     0.9390 O.2   1 <1>  -0.5700 
  2 C       -0.0950     1.1110     0.3960 C.2   1 <1>   0.5440 
  3 N       -1.3550     1.5480     0.1030 N.am  1 <1>  -0.7300 
  4 C        1.0660     1.9130     0.0500 C.ar  1 <1>   0.0860 
  5 C       -2.6070     0.8290     0.3960 C.3   1 <1>   0.2200 
  6 C        2.2880     1.3100    -0.2320 C.ar  1 <1>  -0.1500 
  7 C        1.0130     3.3060    -0.0130 C.ar  1 <1>  -0.1500 
  8 C       -3.3160     0.5280    -0.9180 C.3   1 <1>  -0.1600 
  9 C       -3.5640     1.7810     1.1010 C.3   1 <1>  -0.1600 
 10 C        3.4210     2.0420    -0.5600 C.ar  1 <1>   0.1170 
 11 C        2.1270     4.0520    -0.3520 C.ar  1 <1>  -0.1500 
 12 C       -4.0550     1.8150    -1.3020 C.3   1 <1>  -0.1600 
 13 C       -4.2070     2.6240    -0.0060 C.3   1 <1>  -0.1600 
 14 N        4.6300     1.3910    -0.8340 N.am  1 <1>  -0.5470 
 15 C        3.3340     3.4320    -0.6280 C.ar  1 <1>  -0.1430 
 16 C        5.3220     0.4620    -0.1270 C.2   1 <1>   0.5690 
 17 C        4.5460     4.2810    -0.9900 C.3   1 <1>  -0.0970 
 18 O        6.3600     0.0350    -0.5580 O.2   1 <1>  -0.5700 
 19 C        4.8280    -0.0340     1.2130 C.3   1 <1>  -0.1790 
 20 H       -1.4830     2.3920    -0.4520 H     1 <1>   0.3700 
 21 H       -2.4150    -0.0610     0.9730 H     1 <1>   0.0800 
 22 H        2.3460     0.2370    -0.2000 H     1 <1>   0.1500 
 23 H        0.0930     3.8140     0.2130 H     1 <1>   0.1500 
 24 H       -4.0380    -0.2500    -0.7410 H     1 <1>   0.0800 
 25 H       -2.6340     0.1930    -1.6810 H     1 <1>   0.0800 
 26 H       -3.0690     2.3770     1.8480 H     1 <1>   0.0800 
 27 H       -4.3290     1.1960     1.5820 H     1 <1>   0.0800 
 28 H        2.0480     5.1250    -0.3940 H     1 <1>   0.1500 
 29 H       -5.0130     1.5890    -1.7390 H     1 <1>   0.0800 
 30 H       -3.4730     2.3750    -2.0140 H     1 <1>   0.0800 
 31 H       -3.6870     3.5620    -0.1010 H     1 <1>   0.0800 
 32 H       -5.2420     2.8220     0.2150 H     1 <1>   0.0800 
 33 H        5.1340     1.7040    -1.6620 H     1 <1>   0.3700 
 34 H        5.3660     4.0540    -0.3330 H     1 <1>   0.0800 
 35 H        4.3250     5.3300    -0.9000 H     1 <1>   0.0800 
 36 H        4.8450     4.0840    -2.0040 H     1 <1>   0.0800 
 37 H        4.3910     0.7720     1.7730 H     1 <1>   0.0800 
 38 H        5.6530    -0.4350     1.7730 H     1 <1>   0.0800 
 39 H        4.1000    -0.8080     1.0670 H     1 <1>   0.0800 
@<TRIPOS>BOND
  1   1   2  2   
  2   2   3  am  
  3   2   4  1   
  4   3   5  1   
  5   3  20  1   
  6   4   6  ar  
  7   4   7  ar  
  8   5   8  1   
  9   5   9  1   
 10   5  21  1   
 11   6  10  ar  
 12   6  22  1   
 13   7  11  ar  
 14   7  23  1   
 15   8  12  1   
 16   8  24  1   
 17   8  25  1   
 18   9  13  1   
 19   9  26  1   
 20   9  27  1   
 21  10  14  1   
 22  10  15  ar  
 23  11  15  ar  
 24  11  28  1   
 25  12  13  1   
 26  12  29  1   
 27  12  30  1   
 28  13  31  1   
 29  13  32  1   
 30  14  16  am  
 31  14  33  1   
 32  15  17  1   
 33  16  18  2   
 34  16  19  1   
 35  17  34  1   
 36  17  35  1   
 37  17  36  1   
 38  19  37  1   
 39  19  38  1   
 40  19  39  1   
@<TRIPOS>SUBSTRUCTURE
  1 ****   4 GROUP 4 **** **** 0

# MOE 2024.06 (io_trps.svl 2023.06)
