@<TRIPOS>MOLECULE
NONAME
36 36 1 0 0 
SMALL
USER_CHARGES


@<TRIPOS>ATOM
  1 O       -1.3180    -0.0880     1.5670 O.2   1 <1>  -0.5700 
  2 C       -1.6440    -1.1830     1.1960 C.2   1 <1>   0.6590 
  3 O       -2.8290    -1.3700     0.5980 O.3   1 <1>  -0.0870 
  4 C       -0.7270    -2.3740     1.3930 C.3   1 <1>  -0.1790 
  5 N       -3.3390    -2.5600     0.2810 N.2   1 <1>  -0.5130 
  6 C       -4.4380    -2.6030    -0.3330 C.2   1 <1>   0.3280 
  7 C       -5.0930    -3.9250    -0.6700 C.3   1 <1>  -0.0990 
  8 C       -5.2740    -1.4120    -0.7540 C.3   1 <1>  -0.0990 
  9 C       -6.6250    -3.9020    -0.4650 C.3   1 <1>   0.5030 
 10 C       -6.5570    -1.4010     0.0870 C.3   1 <1>   0.5030 
 11 N       -7.0590    -2.7620     0.3650 N.4   1 <1>  -0.9060 
 12 C       -7.3730    -3.8540    -1.8010 C.3   1 <1>  -0.2400 
 13 C       -7.0740    -5.1540     0.2880 C.3   1 <1>  -0.2400 
 14 C       -6.2880    -0.7780     1.4570 C.3   1 <1>  -0.2400 
 15 C       -7.6660    -0.6120    -0.6060 C.3   1 <1>  -0.2400 
 16 H       -1.1990    -3.0930     2.0360 H     1 <1>   0.0800 
 17 H        0.1930    -2.0510     1.8440 H     1 <1>   0.0800 
 18 H       -0.5120    -2.8270     0.4440 H     1 <1>   0.0800 
 19 H       -4.8600    -4.1780    -1.6890 H     1 <1>   0.0800 
 20 H       -4.6430    -4.6900    -0.0620 H     1 <1>   0.0800 
 21 H       -4.7460    -0.4830    -0.6300 H     1 <1>   0.0800 
 22 H       -5.4970    -1.4900    -1.8010 H     1 <1>   0.0800 
 23 H       -6.7790    -2.9770     1.3260 H     1 <1>   0.4500 
 24 H       -8.0810    -2.7310     0.3690 H     1 <1>   0.4500 
 25 H       -7.0570    -3.0310    -2.4120 H     1 <1>   0.0800 
 26 H       -8.4360    -3.7930    -1.6510 H     1 <1>   0.0800 
 27 H       -7.1770    -4.7530    -2.3600 H     1 <1>   0.0800 
 28 H       -6.5990    -5.2220     1.2510 H     1 <1>   0.0800 
 29 H       -6.8050    -6.0340    -0.2690 H     1 <1>   0.0800 
 30 H       -8.1420    -5.1690     0.4220 H     1 <1>   0.0800 
 31 H       -5.9550     0.2390     1.3390 H     1 <1>   0.0800 
 32 H       -5.5130    -1.3080     1.9840 H     1 <1>   0.0800 
 33 H       -7.1770    -0.7580     2.0620 H     1 <1>   0.0800 
 34 H       -7.9130    -1.0290    -1.5650 H     1 <1>   0.0800 
 35 H       -7.3410     0.4020    -0.7710 H     1 <1>   0.0800 
 36 H       -8.5550    -0.5720    -0.0010 H     1 <1>   0.0800 
@<TRIPOS>BOND
  1   1   2  2   
  2   2   3  1   
  3   2   4  1   
  4   3   5  1   
  5   4  16  1   
  6   4  17  1   
  7   4  18  1   
  8   5   6  2   
  9   6   7  1   
 10   6   8  1   
 11   7   9  1   
 12   7  19  1   
 13   7  20  1   
 14   8  10  1   
 15   8  21  1   
 16   8  22  1   
 17   9  11  1   
 18   9  12  1   
 19   9  13  1   
 20  10  11  1   
 21  10  14  1   
 22  10  15  1   
 23  11  23  1   
 24  11  24  1   
 25  12  25  1   
 26  12  26  1   
 27  12  27  1   
 28  13  28  1   
 29  13  29  1   
 30  13  30  1   
 31  14  31  1   
 32  14  32  1   
 33  14  33  1   
 34  15  34  1   
 35  15  35  1   
 36  15  36  1   
@<TRIPOS>SUBSTRUCTURE
  1 ****   6 GROUP 4 **** **** 0

# MOE 2024.06 (io_trps.svl 2023.06)
