@<TRIPOS>MOLECULE
NONAME
34 36 1 0 0 
SMALL
USER_CHARGES


@<TRIPOS>ATOM
  1 S        0.1840     0.2350     0.1470 S.3   1 <1>  -0.4600 
  2 C       -1.5970    -0.1280     0.0910 C.3   1 <1>   0.2300 
  3 C        0.9960    -1.2980     0.7510 C.3   1 <1>   0.1310 
  4 C       -2.2980     1.1520    -0.3940 C.3   1 <1>  -0.1600 
  5 C       -2.1080    -0.4980     1.4950 C.3   1 <1>  -0.1600 
  6 C       -1.8730    -1.2750    -0.8980 C.3   1 <1>  -0.1600 
  7 C        2.5110    -1.1500     0.8300 C.2   1 <1>   0.5690 
  8 C       -3.8180     0.9140    -0.4660 C.3   1 <1>  -0.0800 
  9 C       -3.6280    -0.7490     1.4300 C.3   1 <1>  -0.0800 
 10 C       -3.3920    -1.5280    -0.9690 C.3   1 <1>  -0.0800 
 11 O        3.1730    -2.0810     1.2090 O.2   1 <1>  -0.5700 
 12 N        3.1080     0.0060     0.4800 N.am  1 <1>  -0.8000 
 13 C       -4.3340     0.5290     0.9350 C.3   1 <1>  -0.1600 
 14 C       -4.0990    -0.2440    -1.4450 C.3   1 <1>  -0.1600 
 15 C       -3.9100    -1.8960     0.4370 C.3   1 <1>  -0.1600 
 16 H        0.7490    -2.0900     0.0720 H     1 <1>   0.0800 
 17 H        0.6070    -1.5110     1.7280 H     1 <1>   0.0800 
 18 H       -1.9260     1.4260    -1.3650 H     1 <1>   0.0800 
 19 H       -2.0880     1.9610     0.2830 H     1 <1>   0.0800 
 20 H       -1.6240    -1.3870     1.8510 H     1 <1>   0.0800 
 21 H       -1.8970     0.3010     2.1830 H     1 <1>   0.0800 
 22 H       -1.3840    -2.1750    -0.5780 H     1 <1>   0.0800 
 23 H       -1.4980    -1.0150    -1.8720 H     1 <1>   0.0800 
 24 H       -4.3130     1.8080    -0.8050 H     1 <1>   0.0800 
 25 H       -3.9970    -1.0130     2.4070 H     1 <1>   0.0800 
 26 H       -3.5970    -2.3320    -1.6550 H     1 <1>   0.0800 
 27 H        4.1200     0.1080     0.5320 H     1 <1>   0.3700 
 28 H        2.5610     0.8080     0.1560 H     1 <1>   0.3700 
 29 H       -5.3970     0.3660     0.8980 H     1 <1>   0.0800 
 30 H       -4.1520     1.3360     1.6240 H     1 <1>   0.0800 
 31 H       -5.1600    -0.4150    -1.5080 H     1 <1>   0.0800 
 32 H       -3.7530     0.0200    -2.4290 H     1 <1>   0.0800 
 33 H       -4.9680    -2.0860     0.3950 H     1 <1>   0.0800 
 34 H       -3.4320    -2.7980     0.7770 H     1 <1>   0.0800 
@<TRIPOS>BOND
  1   1   2  1   
  2   1   3  1   
  3   2   4  1   
  4   2   5  1   
  5   2   6  1   
  6   3   7  1   
  7   3  16  1   
  8   3  17  1   
  9   4   8  1   
 10   4  18  1   
 11   4  19  1   
 12   5   9  1   
 13   5  20  1   
 14   5  21  1   
 15   6  10  1   
 16   6  22  1   
 17   6  23  1   
 18   7  11  2   
 19   7  12  am  
 20   8  13  1   
 21   8  14  1   
 22   8  24  1   
 23   9  13  1   
 24   9  15  1   
 25   9  25  1   
 26  10  14  1   
 27  10  15  1   
 28  10  26  1   
 29  12  27  1   
 30  12  28  1   
 31  13  29  1   
 32  13  30  1   
 33  14  31  1   
 34  14  32  1   
 35  15  33  1   
 36  15  34  1   
@<TRIPOS>SUBSTRUCTURE
  1 ****   2 GROUP 4 **** **** 0

# MOE 2024.06 (io_trps.svl 2023.06)
