@<TRIPOS>MOLECULE
NONAME
41 42 1 0 0 
SMALL
USER_CHARGES


@<TRIPOS>ATOM
  1 S       -0.1150     0.7980    -0.0090 S.o2  1 <1>   1.4470 
  2 O       -0.2870     1.6360    -1.1720 O.2   1 <1>  -0.6500 
  3 O        0.3900     1.3590     1.2240 O.2   1 <1>  -0.6500 
  4 N        0.9590    -0.3750    -0.5340 N.am  1 <1>  -0.9140 
  5 C       -1.6230    -0.1560     0.3160 C.ar  1 <1>  -0.0090 
  6 C        2.3440     0.0230    -0.4300 C.3   1 <1>   0.2760 
  7 C       -2.4710    -0.5320    -0.7140 C.ar  1 <1>  -0.1500 
  8 C       -1.9540    -0.5620     1.6010 C.ar  1 <1>  -0.1500 
  9 C        3.0840    -0.5220    -1.6570 C.3   1 <1>  -0.1600 
 10 C        2.9420    -0.5530     0.8600 C.3   1 <1>  -0.1600 
 11 C       -3.6290    -1.2910    -0.5220 C.ar  1 <1>   0.0860 
 12 C       -3.0900    -1.3090     1.8400 C.ar  1 <1>  -0.1500 
 13 C        4.5900    -0.2350    -1.5760 C.3   1 <1>  -0.1600 
 14 C        4.4490    -0.2710     0.9540 C.3   1 <1>  -0.1600 
 15 C       -3.9320    -1.6810     0.7950 C.ar  1 <1>   0.0830 
 16 C       -4.4360    -1.6310    -1.6850 C.2   1 <1>   0.5440 
 17 C        5.1910    -0.7990    -0.2810 C.3   1 <1>  -0.1600 
 18 O       -5.0440    -2.4250     1.0250 O.3   1 <1>  -0.3630 
 19 O       -3.9750    -1.5890    -2.8070 O.2   1 <1>  -0.5700 
 20 N       -5.7340    -1.9960    -1.6060 N.am  1 <1>  -0.8000 
 21 C       -5.3840    -2.9370     2.2970 C.3   1 <1>   0.0400 
 22 H        0.7630    -0.4200    -1.5300 H     1 <1>   0.4200 
 23 H        2.4340     1.0990    -0.4260 H     1 <1>   0.0800 
 24 H       -2.2250    -0.2210    -1.7160 H     1 <1>   0.1500 
 25 H       -1.3100    -0.2890     2.4220 H     1 <1>   0.1500 
 26 H        2.6900    -0.0660    -2.5480 H     1 <1>   0.0800 
 27 H        2.9360    -1.5870    -1.7210 H     1 <1>   0.0800 
 28 H        2.7810    -1.6170     0.8820 H     1 <1>   0.0800 
 29 H        2.4540    -0.1200     1.7150 H     1 <1>   0.0800 
 30 H       -3.2970    -1.5920     2.8550 H     1 <1>   0.1500 
 31 H        4.7550     0.8290    -1.6100 H     1 <1>   0.0800 
 32 H        5.0880    -0.6720    -2.4240 H     1 <1>   0.0800 
 33 H        4.8480    -0.7340     1.8400 H     1 <1>   0.0800 
 34 H        4.6080     0.7910     1.0390 H     1 <1>   0.0800 
 35 H        6.2320    -0.5300    -0.2190 H     1 <1>   0.0800 
 36 H        5.1300    -1.8740    -0.2990 H     1 <1>   0.0800 
 37 H       -6.2270    -2.2860    -2.4490 H     1 <1>   0.3700 
 38 H       -6.1560    -2.2220    -0.7030 H     1 <1>   0.3700 
 39 H       -6.2820    -3.5190     2.1960 H     1 <1>   0.0800 
 40 H       -5.5560    -2.1160     2.9710 H     1 <1>   0.0800 
 41 H       -4.5830    -3.5640     2.6490 H     1 <1>   0.0800 
@<TRIPOS>BOND
  1   1   2  2   
  2   1   3  2   
  3   1   4  am  
  4   1   5  1   
  5   4   6  1   
  6   4  22  1   
  7   5   7  ar  
  8   5   8  ar  
  9   6   9  1   
 10   6  10  1   
 11   6  23  1   
 12   7  11  ar  
 13   7  24  1   
 14   8  12  ar  
 15   8  25  1   
 16   9  13  1   
 17   9  26  1   
 18   9  27  1   
 19  10  14  1   
 20  10  28  1   
 21  10  29  1   
 22  11  15  ar  
 23  11  16  1   
 24  12  15  ar  
 25  12  30  1   
 26  13  17  1   
 27  13  31  1   
 28  13  32  1   
 29  14  17  1   
 30  14  33  1   
 31  14  34  1   
 32  15  18  1   
 33  16  19  2   
 34  16  20  am  
 35  17  35  1   
 36  17  36  1   
 37  18  21  1   
 38  20  37  1   
 39  20  38  1   
 40  21  39  1   
 41  21  40  1   
 42  21  41  1   
@<TRIPOS>SUBSTRUCTURE
  1 ****   5 GROUP 4 **** **** 0

# MOE 2024.06 (io_trps.svl 2023.06)
