@<TRIPOS>MOLECULE
NONAME
42 43 1 0 0 
SMALL
USER_CHARGES


@<TRIPOS>ATOM
  1 CL       0.7240    -0.9350     0.5450 Cl    1 <1>  -0.1770 
  2 C        2.3220    -0.2480     0.3880 C.ar  1 <1>   0.1770 
  3 C        2.5700     0.6710    -0.6130 C.ar  1 <1>  -0.1500 
  4 C        3.3130    -0.6330     1.2690 C.ar  1 <1>  -0.1500 
  5 C        3.8360     1.2210    -0.7440 C.ar  1 <1>  -0.1440 
  6 C        4.5790    -0.0880     1.1450 C.ar  1 <1>  -0.1500 
  7 C        4.8470     0.8410     0.1390 C.ar  1 <1>   0.0830 
  8 C        4.1010     2.2330    -1.8500 C.3   1 <1>  -0.0960 
  9 O        6.0700     1.4100    -0.0300 O.3   1 <1>  -0.3630 
 10 C        7.1480     1.1300     0.8380 C.3   1 <1>   0.1200 
 11 C        8.3640     1.9430     0.3750 C.3   1 <1>   0.2000 
 12 O        8.5680     1.7170    -0.9880 O.3   1 <1>  -0.6800 
 13 C        9.6530     1.5770     1.1420 C.3   1 <1>   0.3430 
 14 N       10.8600     1.9430     0.3390 N.4   1 <1>  -0.9590 
 15 C       12.0370     1.0820     0.6440 C.3   1 <1>   0.3430 
 16 C       11.1740     3.3980     0.3970 C.3   1 <1>   0.3430 
 17 C       13.1600     1.3760    -0.3530 C.3   1 <1>  -0.1600 
 18 C       12.2840     3.7250    -0.6030 C.3   1 <1>  -0.1600 
 19 C       13.5330     2.8640    -0.3720 C.3   1 <1>  -0.1600 
 20 H        1.7710     0.9450    -1.2790 H     1 <1>   0.1500 
 21 H        3.0900    -1.3510     2.0390 H     1 <1>   0.1500 
 22 H        5.3330    -0.4040     1.8400 H     1 <1>   0.1500 
 23 H        3.2090     2.4340    -2.4150 H     1 <1>   0.0800 
 24 H        4.8510     1.8540    -2.5200 H     1 <1>   0.0800 
 25 H        4.4490     3.1580    -1.4250 H     1 <1>   0.0800 
 26 H        7.3560     0.0750     0.7930 H     1 <1>   0.0800 
 27 H        6.8610     1.4080     1.8370 H     1 <1>   0.0800 
 28 H        8.1510     2.9900     0.5050 H     1 <1>   0.0800 
 29 H        7.6890     1.7120    -1.4350 H     1 <1>   0.4000 
 30 H        9.6490     0.5120     1.3060 H     1 <1>   0.0800 
 31 H        9.6710     2.0600     2.1040 H     1 <1>   0.0800 
 32 H       10.5620     1.7500    -0.6370 H     1 <1>   0.4500 
 33 H       11.7620     0.0420     0.5760 H     1 <1>   0.0800 
 34 H       12.3840     1.2800     1.6450 H     1 <1>   0.0800 
 35 H       11.4960     3.6640     1.3910 H     1 <1>   0.0800 
 36 H       10.2960     3.9760     0.1540 H     1 <1>   0.0800 
 37 H       12.8530     1.0630    -1.3360 H     1 <1>   0.0800 
 38 H       14.0260     0.7940    -0.0880 H     1 <1>   0.0800 
 39 H       12.5460     4.7650    -0.5120 H     1 <1>   0.0800 
 40 H       11.9150     3.5740    -1.6030 H     1 <1>   0.0800 
 41 H       14.2550     3.0500    -1.1500 H     1 <1>   0.0800 
 42 H       13.9870     3.1330     0.5680 H     1 <1>   0.0800 
@<TRIPOS>BOND
  1   1   2  1   
  2   2   3  ar  
  3   2   4  ar  
  4   3   5  ar  
  5   3  20  1   
  6   4   6  ar  
  7   4  21  1   
  8   5   7  ar  
  9   5   8  1   
 10   6   7  ar  
 11   6  22  1   
 12   7   9  1   
 13   8  23  1   
 14   8  24  1   
 15   8  25  1   
 16   9  10  1   
 17  10  11  1   
 18  10  26  1   
 19  10  27  1   
 20  11  12  1   
 21  11  13  1   
 22  11  28  1   
 23  12  29  1   
 24  13  14  1   
 25  13  30  1   
 26  13  31  1   
 27  14  15  1   
 28  14  16  1   
 29  14  32  1   
 30  15  17  1   
 31  15  33  1   
 32  15  34  1   
 33  16  18  1   
 34  16  35  1   
 35  16  36  1   
 36  17  19  1   
 37  17  37  1   
 38  17  38  1   
 39  18  19  1   
 40  18  39  1   
 41  18  40  1   
 42  19  41  1   
 43  19  42  1   
@<TRIPOS>SUBSTRUCTURE
  1 ****  10 GROUP 4 **** **** 0

# MOE 2024.06 (io_trps.svl 2023.06)
