@<TRIPOS>MOLECULE
NONAME
37 39 1 0 0 
SMALL
USER_CHARGES


@<TRIPOS>ATOM
  1 CL       0.0440    -0.6280    -0.8790 Cl    1 <1>  -0.1770 
  2 C       -1.6590    -0.2200    -0.8570 C.ar  1 <1>   0.1770 
  3 C       -2.5650    -1.0140    -0.1610 C.ar  1 <1>   0.0830 
  4 C       -2.0660     0.8990    -1.5530 C.ar  1 <1>  -0.1500 
  5 O       -2.1130    -2.1010     0.5100 O.3   1 <1>  -0.3630 
  6 C       -3.9330    -0.6910    -0.1400 C.ar  1 <1>   0.0280 
  7 C       -3.4090     1.2170    -1.5360 C.ar  1 <1>   0.1770 
  8 C       -2.1360    -3.3190    -0.1980 C.3   1 <1>   0.0400 
  9 C       -4.3260     0.4470    -0.8480 C.ar  1 <1>  -0.1500 
 10 C       -4.8800    -1.4960     0.5950 C.2   1 <1>  -0.1780 
 11 CL      -3.9560     2.6300    -2.4050 Cl    1 <1>  -0.1770 
 12 C       -6.2090    -1.6880     0.4160 C.2   1 <1>  -0.0380 
 13 N       -6.9900    -1.1100    -0.5880 N.pl3 1 <1>  -0.8380 
 14 C       -7.0150    -2.6180     1.3430 C.3   1 <1>   0.3380 
 15 C       -7.6020    -2.1430    -1.4780 C.3   1 <1>   0.2090 
 16 C       -8.0870    -0.2740    -0.0080 C.3   1 <1>   0.2090 
 17 O       -6.4860    -3.8910     1.2470 O.3   1 <1>  -0.6800 
 18 C       -8.4860    -2.6300     0.8560 C.3   1 <1>  -0.0800 
 19 C       -8.5270    -3.0550    -0.6350 C.3   1 <1>  -0.1600 
 20 C       -8.9780    -1.1630     0.8960 C.3   1 <1>  -0.1600 
 21 H       -1.3620     1.5060    -2.0900 H     1 <1>   0.1500 
 22 H       -1.7730    -4.0930     0.4540 H     1 <1>   0.0800 
 23 H       -1.4970    -3.2330    -1.0600 H     1 <1>   0.0800 
 24 H       -3.1470    -3.5320    -0.4970 H     1 <1>   0.0800 
 25 H       -5.3570     0.7430    -0.8600 H     1 <1>   0.1500 
 26 H       -4.4240    -2.0290     1.4110 H     1 <1>   0.1500 
 27 H       -6.9460    -2.3010     2.3690 H     1 <1>   0.0800 
 28 H       -8.1580    -1.6620    -2.2650 H     1 <1>   0.0800 
 29 H       -6.8160    -2.7250    -1.9300 H     1 <1>   0.0800 
 30 H       -7.6540     0.5250     0.5700 H     1 <1>   0.0800 
 31 H       -8.6700     0.1620    -0.8020 H     1 <1>   0.0800 
 32 H       -6.2080    -4.0080     0.3200 H     1 <1>   0.4000 
 33 H       -9.0950    -3.2620     1.4780 H     1 <1>   0.0800 
 34 H       -9.5320    -2.9860    -1.0110 H     1 <1>   0.0800 
 35 H       -8.2190    -4.0790    -0.7440 H     1 <1>   0.0800 
 36 H       -8.9430    -0.7890     1.9040 H     1 <1>   0.0800 
 37 H       -9.9990    -1.1000     0.5640 H     1 <1>   0.0800 
@<TRIPOS>BOND
  1   1   2  1   
  2   2   3  ar  
  3   2   4  ar  
  4   3   5  1   
  5   3   6  ar  
  6   4   7  ar  
  7   4  21  1   
  8   5   8  1   
  9   6   9  ar  
 10   6  10  1   
 11   7   9  ar  
 12   7  11  1   
 13   8  22  1   
 14   8  23  1   
 15   8  24  1   
 16   9  25  1   
 17  10  12  2   
 18  10  26  1   
 19  12  13  1   
 20  12  14  1   
 21  13  15  1   
 22  13  16  1   
 23  14  17  1   
 24  14  18  1   
 25  14  27  1   
 26  15  19  1   
 27  15  28  1   
 28  15  29  1   
 29  16  20  1   
 30  16  30  1   
 31  16  31  1   
 32  17  32  1   
 33  18  19  1   
 34  18  20  1   
 35  18  33  1   
 36  19  34  1   
 37  19  35  1   
 38  20  36  1   
 39  20  37  1   
@<TRIPOS>SUBSTRUCTURE
  1 ****  10 GROUP 4 **** **** 0

# MOE 2024.06 (io_trps.svl 2023.06)
