@<TRIPOS>MOLECULE
NONAME
46 48 1 0 0 
SMALL
USER_CHARGES


@<TRIPOS>ATOM
  1 F       -0.5860    -0.8460     1.5160 F     1 <1>  -0.1900 
  2 C       -1.5330    -1.2560     0.7030 C.ar  1 <1>   0.1900 
  3 C       -1.3080    -2.3770    -0.1060 C.ar  1 <1>   0.1000 
  4 C       -2.7170    -0.5470     0.6910 C.ar  1 <1>  -0.1500 
  5 N       -0.1200    -3.1220    -0.1210 N.pl3 1 <1>  -0.8380 
  6 C       -2.3460    -2.7620    -0.9450 C.ar  1 <1>  -0.1500 
  7 C       -3.7320    -0.9580    -0.1580 C.ar  1 <1>  -0.1500 
  8 C        0.1600    -3.8870     1.1310 C.3   1 <1>   0.2090 
  9 C        1.0670    -2.4030    -0.6740 C.3   1 <1>   0.2090 
 10 C       -3.5430    -2.0640    -0.9720 C.ar  1 <1>  -0.1500 
 11 C        1.3780    -4.8190     0.9550 C.3   1 <1>   0.3430 
 12 C        2.2740    -3.3520    -0.8270 C.3   1 <1>   0.3430 
 13 N        2.6000    -4.0880     0.4540 N.4   1 <1>  -0.9590 
 14 C        3.7510    -5.0200     0.3040 C.3   1 <1>   0.3430 
 15 C        5.0470    -4.2350     0.1140 C.3   1 <1>  -0.1600 
 16 C        6.2650    -5.1660     0.0920 C.3   1 <1>  -0.0170 
 17 C        7.5220    -4.3410    -0.1190 C.ar  1 <1>  -0.1430 
 18 C        8.0090    -4.1220    -1.3990 C.ar  1 <1>  -0.1500 
 19 C        8.1880    -3.7930     0.9660 C.ar  1 <1>  -0.1500 
 20 C        9.1460    -3.3580    -1.5920 C.ar  1 <1>  -0.1500 
 21 C        9.3260    -3.0280     0.7730 C.ar  1 <1>  -0.1500 
 22 C        9.8050    -2.8090    -0.5060 C.ar  1 <1>  -0.1500 
 23 H       -2.8440     0.3080     1.3300 H     1 <1>   0.1500 
 24 H       -2.2110    -3.6180    -1.5800 H     1 <1>   0.1500 
 25 H       -4.6650    -0.4200    -0.1850 H     1 <1>   0.1500 
 26 H       -0.7060    -4.4770     1.3820 H     1 <1>   0.0800 
 27 H        0.3400    -3.2060     1.9440 H     1 <1>   0.0800 
 28 H        1.3320    -1.5830    -0.0300 H     1 <1>   0.0800 
 29 H        0.8130    -1.9950    -1.6380 H     1 <1>   0.0800 
 30 H       -4.3330    -2.3820    -1.6310 H     1 <1>   0.1500 
 31 H        1.1070    -5.5910     0.2540 H     1 <1>   0.0800 
 32 H        1.5930    -5.2910     1.8990 H     1 <1>   0.0800 
 33 H        3.1250    -2.7760    -1.1490 H     1 <1>   0.0800 
 34 H        2.0430    -4.0630    -1.6020 H     1 <1>   0.0800 
 35 H        2.8430    -3.3800     1.1600 H     1 <1>   0.4500 
 36 H        3.5900    -5.6770    -0.5370 H     1 <1>   0.0800 
 37 H        3.8410    -5.6270     1.1910 H     1 <1>   0.0800 
 38 H        5.1710    -3.5330     0.9200 H     1 <1>   0.0800 
 39 H        5.0250    -3.6940    -0.8150 H     1 <1>   0.0800 
 40 H        6.1740    -5.8880    -0.7020 H     1 <1>   0.0800 
 41 H        6.3450    -5.7050     1.0210 H     1 <1>   0.0800 
 42 H        7.5100    -4.5430    -2.2540 H     1 <1>   0.1500 
 43 H        7.8310    -3.9550     1.9670 H     1 <1>   0.1500 
 44 H        9.5220    -3.1900    -2.5870 H     1 <1>   0.1500 
 45 H        9.8410    -2.6040     1.6180 H     1 <1>   0.1500 
 46 H       10.6900    -2.2160    -0.6560 H     1 <1>   0.1500 
@<TRIPOS>BOND
  1   1   2  1   
  2   2   3  ar  
  3   2   4  ar  
  4   3   5  1   
  5   3   6  ar  
  6   4   7  ar  
  7   4  23  1   
  8   5   8  1   
  9   5   9  1   
 10   6  10  ar  
 11   6  24  1   
 12   7  10  ar  
 13   7  25  1   
 14   8  11  1   
 15   8  26  1   
 16   8  27  1   
 17   9  12  1   
 18   9  28  1   
 19   9  29  1   
 20  10  30  1   
 21  11  13  1   
 22  11  31  1   
 23  11  32  1   
 24  12  13  1   
 25  12  33  1   
 26  12  34  1   
 27  13  14  1   
 28  13  35  1   
 29  14  15  1   
 30  14  36  1   
 31  14  37  1   
 32  15  16  1   
 33  15  38  1   
 34  15  39  1   
 35  16  17  1   
 36  16  40  1   
 37  16  41  1   
 38  17  18  ar  
 39  17  19  ar  
 40  18  20  ar  
 41  18  42  1   
 42  19  21  ar  
 43  19  43  1   
 44  20  22  ar  
 45  20  44  1   
 46  21  22  ar  
 47  21  45  1   
 48  22  46  1   
@<TRIPOS>SUBSTRUCTURE
  1 ****  12 GROUP 4 **** **** 0

# MOE 2024.06 (io_trps.svl 2023.06)
