@<TRIPOS>MOLECULE
NONAME
56 58 1 0 0 
SMALL
USER_CHARGES


@<TRIPOS>ATOM
  1 S       -0.2930     0.1030    -0.6680 S.o2  1 <1>   1.5760 
  2 O       -0.1930    -0.9370     0.3310 O.2   1 <1>  -0.6500 
  3 O        0.2130    -0.1150    -2.0060 O.2   1 <1>  -0.6500 
  4 N        0.3840     1.5320    -0.0710 N.am  1 <1>  -0.8490 
  5 N       -1.9120     0.5560    -0.7740 N.am  1 <1>  -0.8490 
  6 C        0.3270     2.5910    -1.0830 C.3   1 <1>   0.1960 
  7 C        1.7400     1.2940     0.4330 C.3   1 <1>   0.1960 
  8 C       -2.5070     0.7610     0.5640 C.3   1 <1>   0.1960 
  9 C       -2.6890    -0.4590    -1.5120 C.3   1 <1>   0.1960 
 10 C        0.7070     3.9750    -0.5400 C.3   1 <1>  -0.1600 
 11 C        2.0960     2.3250     1.5090 C.3   1 <1>  -0.1600 
 12 C       -3.9800     1.2040     0.4890 C.3   1 <1>   0.2090 
 13 C       -4.1710    -0.0650    -1.6660 C.3   1 <1>   0.2090 
 14 C        2.2200     4.1510    -0.3450 C.3   1 <1>  -0.1600 
 15 C        2.7490     3.6180     0.9940 C.3   1 <1>  -0.1600 
 16 N       -4.7680     0.2520    -0.3400 N.pl3 1 <1>  -0.8380 
 17 C       -6.1190     0.0180    -0.0760 C.ar  1 <1>   0.1000 
 18 C       -7.1240     0.8320    -0.6100 C.ar  1 <1>  -0.1440 
 19 C       -6.4800    -1.0540     0.7450 C.ar  1 <1>  -0.1440 
 20 C       -8.4520     0.5660    -0.3240 C.ar  1 <1>  -0.1500 
 21 C       -6.8000     2.0170    -1.5110 C.3   1 <1>  -0.0970 
 22 C       -7.8140    -1.3000     1.0200 C.ar  1 <1>  -0.1500 
 23 C       -5.4180    -1.9660     1.3440 C.3   1 <1>  -0.0970 
 24 C       -8.8070    -0.4970     0.4890 C.ar  1 <1>  -0.1440 
 25 C      -10.2670    -0.7740     0.7960 C.3   1 <1>  -0.0970 
 26 H       -0.6810     2.6610    -1.4560 H     1 <1>   0.0800 
 27 H        0.9580     2.3380    -1.9200 H     1 <1>   0.0800 
 28 H        2.4590     1.2910    -0.3700 H     1 <1>   0.0800 
 29 H        1.7820     0.3280     0.9070 H     1 <1>   0.0800 
 30 H       -1.9500     1.5130     1.0960 H     1 <1>   0.0800 
 31 H       -2.4550    -0.1510     1.1350 H     1 <1>   0.0800 
 32 H       -2.6340    -1.4040    -0.9980 H     1 <1>   0.0800 
 33 H       -2.2680    -0.5900    -2.4930 H     1 <1>   0.0800 
 34 H        0.1670     4.1830     0.3660 H     1 <1>   0.0800 
 35 H        0.3900     4.6960    -1.2720 H     1 <1>   0.0800 
 36 H        2.7820     1.8680     2.1990 H     1 <1>   0.0800 
 37 H        1.2070     2.5610     2.0680 H     1 <1>   0.0800 
 38 H       -4.0300     2.1860     0.0540 H     1 <1>   0.0800 
 39 H       -4.4000     1.2490     1.4780 H     1 <1>   0.0800 
 40 H       -4.7200    -0.8720    -2.1200 H     1 <1>   0.0800 
 41 H       -4.2410     0.7960    -2.3050 H     1 <1>   0.0800 
 42 H        2.4590     5.1990    -0.4010 H     1 <1>   0.0800 
 43 H        2.7410     3.6690    -1.1540 H     1 <1>   0.0800 
 44 H        3.8090     3.4590     0.8930 H     1 <1>   0.0800 
 45 H        2.6160     4.3770     1.7460 H     1 <1>   0.0800 
 46 H       -9.2240     1.1910    -0.7350 H     1 <1>   0.1500 
 47 H       -6.4670     1.6630    -2.4680 H     1 <1>   0.0800 
 48 H       -6.0280     2.6190    -1.0700 H     1 <1>   0.0800 
 49 H       -7.6650     2.6370    -1.6580 H     1 <1>   0.0800 
 50 H       -8.0880    -2.1250     1.6540 H     1 <1>   0.1500 
 51 H       -4.8080    -2.3760     0.5600 H     1 <1>   0.0800 
 52 H       -5.8640    -2.7770     1.8910 H     1 <1>   0.0800 
 53 H       -4.7920    -1.4030     2.0110 H     1 <1>   0.0800 
 54 H      -10.5610    -0.2320     1.6760 H     1 <1>   0.0800 
 55 H      -10.4220    -1.8240     0.9660 H     1 <1>   0.0800 
 56 H      -10.8890    -0.4680    -0.0260 H     1 <1>   0.0800 
@<TRIPOS>BOND
  1   1   2  2   
  2   1   3  2   
  3   1   4  am  
  4   1   5  am  
  5   4   6  1   
  6   4   7  1   
  7   5   8  1   
  8   5   9  1   
  9   6  10  1   
 10   6  26  1   
 11   6  27  1   
 12   7  11  1   
 13   7  28  1   
 14   7  29  1   
 15   8  12  1   
 16   8  30  1   
 17   8  31  1   
 18   9  13  1   
 19   9  32  1   
 20   9  33  1   
 21  10  14  1   
 22  10  34  1   
 23  10  35  1   
 24  11  15  1   
 25  11  36  1   
 26  11  37  1   
 27  12  16  1   
 28  12  38  1   
 29  12  39  1   
 30  13  16  1   
 31  13  40  1   
 32  13  41  1   
 33  14  15  1   
 34  14  42  1   
 35  14  43  1   
 36  15  44  1   
 37  15  45  1   
 38  16  17  1   
 39  17  18  ar  
 40  17  19  ar  
 41  18  20  ar  
 42  18  21  1   
 43  19  22  ar  
 44  19  23  1   
 45  20  24  ar  
 46  20  46  1   
 47  21  47  1   
 48  21  48  1   
 49  21  49  1   
 50  22  24  ar  
 51  22  50  1   
 52  23  51  1   
 53  23  52  1   
 54  23  53  1   
 55  24  25  1   
 56  25  54  1   
 57  25  55  1   
 58  25  56  1   
@<TRIPOS>SUBSTRUCTURE
  1 ****   8 GROUP 4 **** **** 0

# MOE 2024.06 (io_trps.svl 2023.06)
