@<TRIPOS>MOLECULE
NONAME
42 42 1 0 0 
SMALL
USER_CHARGES


@<TRIPOS>ATOM
  1 S       -0.3790    -0.0070     0.1860 S.o2  1 <1>   1.4470 
  2 O       -0.9150    -0.9050    -0.8100 O.2   1 <1>  -0.6500 
  3 O       -0.7400    -0.1630     1.5770 O.2   1 <1>  -0.6500 
  4 N       -0.9320     1.4970    -0.3060 N.am  1 <1>  -0.9140 
  5 C        1.4200     0.1290     0.0130 C.ar  1 <1>  -0.0090 
  6 C       -2.2550     1.8040     0.2000 C.3   1 <1>   0.1960 
  7 C        2.1530    -0.8160    -0.6960 C.ar  1 <1>  -0.1500 
  8 C        2.1180     1.1830     0.5900 C.ar  1 <1>  -0.1500 
  9 C       -2.7220     3.1200    -0.4190 C.3   1 <1>  -0.1600 
 10 C        3.5270    -0.7100    -0.8240 C.ar  1 <1>  -0.1500 
 11 C        3.4910     1.2930     0.4630 C.ar  1 <1>  -0.1500 
 12 C       -4.1160     3.5120     0.0860 C.3   1 <1>  -0.2400 
 13 C        4.2210     0.3450    -0.2460 C.ar  1 <1>   0.1170 
 14 N        5.6120     0.4080    -0.4170 N.am  1 <1>  -0.5470 
 15 C        6.5880     1.0940     0.2590 C.2   1 <1>   0.5690 
 16 O        6.3470     1.7950     1.2130 O.2   1 <1>  -0.5700 
 17 C        8.0600     0.9590    -0.2110 C.3   1 <1>   0.0610 
 18 C        8.6040     2.3420    -0.6170 C.3   1 <1>  -0.2400 
 19 C        8.2300     0.0130    -1.4210 C.3   1 <1>  -0.2400 
 20 C        8.9270     0.4110     0.9380 C.3   1 <1>  -0.2400 
 21 H       -1.0200     1.3950    -1.3150 H     1 <1>   0.4200 
 22 H       -2.2200     1.8990     1.2740 H     1 <1>   0.0800 
 23 H       -2.9410     1.0100    -0.0530 H     1 <1>   0.0800 
 24 H        1.6400    -1.6460    -1.1520 H     1 <1>   0.1500 
 25 H        1.5770     1.9290     1.1480 H     1 <1>   0.1500 
 26 H       -2.7530     3.0250    -1.4900 H     1 <1>   0.0800 
 27 H       -2.0240     3.8980    -0.1620 H     1 <1>   0.0800 
 28 H        4.0620    -1.4610    -1.3770 H     1 <1>   0.1500 
 29 H        3.9900     2.1280     0.9200 H     1 <1>   0.1500 
 30 H       -4.8380     2.7570    -0.1720 H     1 <1>   0.0800 
 31 H       -4.4200     4.4420    -0.3600 H     1 <1>   0.0800 
 32 H       -4.1080     3.6340     1.1560 H     1 <1>   0.0800 
 33 H        5.9730    -0.1870    -1.1580 H     1 <1>   0.3700 
 34 H        8.0220     2.7530    -1.4230 H     1 <1>   0.0800 
 35 H        9.6310     2.2760    -0.9320 H     1 <1>   0.0800 
 36 H        8.5480     3.0230     0.2150 H     1 <1>   0.0800 
 37 H        9.2660    -0.0440    -1.7080 H     1 <1>   0.0800 
 38 H        7.9010    -0.9820    -1.1780 H     1 <1>   0.0800 
 39 H        7.6740     0.3730    -2.2700 H     1 <1>   0.0800 
 40 H        8.8780     1.0680     1.7880 H     1 <1>   0.0800 
 41 H        9.9570     0.3230     0.6370 H     1 <1>   0.0800 
 42 H        8.5740    -0.5580     1.2440 H     1 <1>   0.0800 
@<TRIPOS>BOND
  1   1   2  2   
  2   1   3  2   
  3   1   4  am  
  4   1   5  1   
  5   4   6  1   
  6   4  21  1   
  7   5   7  ar  
  8   5   8  ar  
  9   6   9  1   
 10   6  22  1   
 11   6  23  1   
 12   7  10  ar  
 13   7  24  1   
 14   8  11  ar  
 15   8  25  1   
 16   9  12  1   
 17   9  26  1   
 18   9  27  1   
 19  10  13  ar  
 20  10  28  1   
 21  11  13  ar  
 22  11  29  1   
 23  12  30  1   
 24  12  31  1   
 25  12  32  1   
 26  13  14  1   
 27  14  15  am  
 28  14  33  1   
 29  15  16  2   
 30  15  17  1   
 31  17  18  1   
 32  17  19  1   
 33  17  20  1   
 34  18  34  1   
 35  18  35  1   
 36  18  36  1   
 37  19  37  1   
 38  19  38  1   
 39  19  39  1   
 40  20  40  1   
 41  20  41  1   
 42  20  42  1   
@<TRIPOS>SUBSTRUCTURE
  1 ****  11 GROUP 4 **** **** 0

# MOE 2024.06 (io_trps.svl 2023.06)
