@<TRIPOS>MOLECULE
NONAME
40 43 1 0 0 
SMALL
USER_CHARGES


@<TRIPOS>ATOM
  1 F       -2.5460     1.8010    -1.9900 F     1 <1>  -0.1900 
  2 C       -1.6700     2.4740    -1.2930 C.ar  1 <1>   0.1900 
  3 C       -1.9290     2.8110     0.0410 C.ar  1 <1>   0.0860 
  4 C       -0.5020     2.8140    -1.9520 C.ar  1 <1>  -0.1500 
  5 C       -3.1500     2.4700     0.7580 C.2   1 <1>   0.5440 
  6 C       -0.9130     3.5240     0.6870 C.ar  1 <1>  -0.1500 
  7 C        0.4740     3.5220    -1.2760 C.ar  1 <1>  -0.1500 
  8 O       -3.1970     2.5760     1.9680 O.2   1 <1>  -0.5700 
  9 N       -4.2720     2.0390     0.1130 N.am  1 <1>  -0.7300 
 10 C        0.2640     3.8740     0.0460 C.ar  1 <1>  -0.1500 
 11 C       -5.5530     1.6440     0.7340 C.3   1 <1>   0.2200 
 12 C       -5.7690     0.1220     0.5860 C.3   1 <1>  -0.0800 
 13 C       -6.7230     2.3950     0.0610 C.3   1 <1>  -0.0800 
 14 C       -5.8960    -0.2740    -0.9030 C.3   1 <1>  -0.1600 
 15 C       -7.0770    -0.2580     1.3090 C.3   1 <1>  -0.1600 
 16 C       -6.8500     1.9970    -1.4270 C.3   1 <1>  -0.1600 
 17 C       -8.0300     2.0110     0.7850 C.3   1 <1>  -0.1600 
 18 C       -7.0760     0.4770    -1.5500 C.3   1 <1>  -0.0800 
 19 C       -8.2670     0.4910     0.6780 C.3   1 <1>  -0.0800 
 20 C       -8.3740     0.1030    -0.8090 C.3   1 <1>  -0.1600 
 21 H       -0.3610     2.5280    -2.9790 H     1 <1>   0.1500 
 22 H       -1.0520     3.8100     1.7160 H     1 <1>   0.1500 
 23 H        1.3900     3.7960    -1.7710 H     1 <1>   0.1500 
 24 H       -4.2300     1.8730    -0.8940 H     1 <1>   0.3700 
 25 H        1.0210     4.4240     0.5800 H     1 <1>   0.1500 
 26 H       -5.5290     1.8970     1.7810 H     1 <1>   0.0800 
 27 H       -4.9450    -0.3990     1.0430 H     1 <1>   0.0800 
 28 H       -6.5640     3.4550     0.1530 H     1 <1>   0.0800 
 29 H       -6.0560    -1.3350    -0.9810 H     1 <1>   0.0800 
 30 H       -4.9850    -0.0500    -1.4290 H     1 <1>   0.0800 
 31 H       -7.2360    -1.3200     1.2400 H     1 <1>   0.0800 
 32 H       -7.0010    -0.0080     2.3530 H     1 <1>   0.0800 
 33 H       -7.6780     2.5220    -1.8710 H     1 <1>   0.0800 
 34 H       -5.9660     2.2820    -1.9690 H     1 <1>   0.0800 
 35 H       -8.8590     2.5410     0.3490 H     1 <1>   0.0800 
 36 H       -7.9700     2.2970     1.8210 H     1 <1>   0.0800 
 37 H       -7.1580     0.2030    -2.5880 H     1 <1>   0.0800 
 38 H       -9.1770     0.2270     1.1890 H     1 <1>   0.0800 
 39 H       -8.5510    -0.9550    -0.8970 H     1 <1>   0.0800 
 40 H       -9.2090     0.6110    -1.2590 H     1 <1>   0.0800 
@<TRIPOS>BOND
  1   1   2  1   
  2   2   3  ar  
  3   2   4  ar  
  4   3   5  1   
  5   3   6  ar  
  6   4   7  ar  
  7   4  21  1   
  8   5   8  2   
  9   5   9  am  
 10   6  10  ar  
 11   6  22  1   
 12   7  10  ar  
 13   7  23  1   
 14   9  11  1   
 15   9  24  1   
 16  10  25  1   
 17  11  12  1   
 18  11  13  1   
 19  11  26  1   
 20  12  14  1   
 21  12  15  1   
 22  12  27  1   
 23  13  16  1   
 24  13  17  1   
 25  13  28  1   
 26  14  18  1   
 27  14  29  1   
 28  14  30  1   
 29  15  19  1   
 30  15  31  1   
 31  15  32  1   
 32  16  18  1   
 33  16  33  1   
 34  16  34  1   
 35  17  19  1   
 36  17  35  1   
 37  17  36  1   
 38  18  20  1   
 39  18  37  1   
 40  19  20  1   
 41  19  38  1   
 42  20  39  1   
 43  20  40  1   
@<TRIPOS>SUBSTRUCTURE
  1 ****   9 GROUP 4 **** **** 0

# MOE 2024.06 (io_trps.svl 2023.06)
