@<TRIPOS>MOLECULE
NONAME
43 45 1 0 0 
SMALL
USER_CHARGES


@<TRIPOS>ATOM
  1 S        0.6440     0.6290     2.6400 S.o2  1 <1>   1.3330 
  2 O        1.0110    -0.4150     1.7160 O.2   1 <1>  -0.6500 
  3 O        1.5190     0.9670     3.7350 O.2   1 <1>  -0.6500 
  4 N        0.4310     2.0790     1.7230 N.am  1 <1>  -0.6930 
  5 C       -0.9830     0.3360     3.3030 C.3   1 <1>  -0.1350 
  6 C       -0.6110     2.2780     0.8080 C.ar  1 <1>   0.1990 
  7 C        1.6090     3.0110     1.7170 C.3   1 <1>   0.2570 
  8 C       -1.0600     1.2630    -0.0330 C.ar  1 <1>  -0.1500 
  9 C       -1.2280     3.5250     0.7280 C.ar  1 <1>  -0.1500 
 10 C        1.9800     3.5850     0.3440 C.2   1 <1>   0.5690 
 11 C       -2.1000     1.4850    -0.9160 C.ar  1 <1>   0.0820 
 12 C       -2.2640     3.7590    -0.1600 C.ar  1 <1>  -0.1500 
 13 O        1.8410     4.7760     0.1760 O.2   1 <1>  -0.5700 
 14 N        2.4710     2.7770    -0.6480 N.am  1 <1>  -0.6600 
 15 O       -2.5180     0.4610    -1.7040 O.3   1 <1>  -0.3630 
 16 C       -2.7010     2.7420    -0.9870 C.ar  1 <1>   0.0830 
 17 C        2.6520     1.3090    -0.5690 C.3   1 <1>   0.1400 
 18 C        2.7640     3.2760    -2.0070 C.3   1 <1>   0.1400 
 19 C       -3.7530     0.6280    -2.3760 C.3   1 <1>   0.1200 
 20 O       -3.7120     2.9930    -1.8630 O.3   1 <1>  -0.3630 
 21 C        3.3460     0.9360    -1.8730 C.3   1 <1>  -0.1600 
 22 C        2.9150     2.0200    -2.8580 C.3   1 <1>  -0.1600 
 23 C       -3.8780     2.0600    -2.9140 C.3   1 <1>   0.1200 
 24 H       -0.9690    -0.5270     3.9390 H     1 <1>   0.0800 
 25 H       -1.6860     0.1660     2.5120 H     1 <1>   0.0800 
 26 H       -1.3050     1.1820     3.8780 H     1 <1>   0.0800 
 27 H        2.4790     2.5040     2.0920 H     1 <1>   0.0800 
 28 H        1.4030     3.8270     2.3840 H     1 <1>   0.0800 
 29 H       -0.6060     0.2910    -0.0190 H     1 <1>   0.1500 
 30 H       -0.8910     4.3240     1.3630 H     1 <1>   0.1500 
 31 H       -2.7290     4.7270    -0.2190 H     1 <1>   0.1500 
 32 H        1.6870     0.8340    -0.5200 H     1 <1>   0.0800 
 33 H        3.2390     1.0270     0.2890 H     1 <1>   0.0800 
 34 H        3.6850     3.8340    -1.9830 H     1 <1>   0.0800 
 35 H        1.9680     3.9070    -2.3630 H     1 <1>   0.0800 
 36 H       -4.5450     0.4210    -1.6780 H     1 <1>   0.0800 
 37 H       -3.7930    -0.0870    -3.1770 H     1 <1>   0.0800 
 38 H        3.0720    -0.0510    -2.2010 H     1 <1>   0.0800 
 39 H        4.4110     0.9750    -1.7250 H     1 <1>   0.0800 
 40 H        3.6250     2.1590    -3.6540 H     1 <1>   0.0800 
 41 H        1.9580     1.7700    -3.2800 H     1 <1>   0.0800 
 42 H       -4.8460     2.2220    -3.3510 H     1 <1>   0.0800 
 43 H       -3.1190     2.2500    -3.6530 H     1 <1>   0.0800 
@<TRIPOS>BOND
  1   1   2  2   
  2   1   3  2   
  3   1   4  am  
  4   1   5  1   
  5   4   6  1   
  6   4   7  1   
  7   5  24  1   
  8   5  25  1   
  9   5  26  1   
 10   6   8  ar  
 11   6   9  ar  
 12   7  10  1   
 13   7  27  1   
 14   7  28  1   
 15   8  11  ar  
 16   8  29  1   
 17   9  12  ar  
 18   9  30  1   
 19  10  13  2   
 20  10  14  am  
 21  11  15  1   
 22  11  16  ar  
 23  12  16  ar  
 24  12  31  1   
 25  14  17  1   
 26  14  18  1   
 27  15  19  1   
 28  16  20  1   
 29  17  21  1   
 30  17  32  1   
 31  17  33  1   
 32  18  22  1   
 33  18  34  1   
 34  18  35  1   
 35  19  23  1   
 36  19  36  1   
 37  19  37  1   
 38  20  23  1   
 39  21  22  1   
 40  21  38  1   
 41  21  39  1   
 42  22  40  1   
 43  22  41  1   
 44  23  42  1   
 45  23  43  1   
@<TRIPOS>SUBSTRUCTURE
  1 ****   6 GROUP 4 **** **** 0

# MOE 2024.06 (io_trps.svl 2023.06)
