@<TRIPOS>MOLECULE
NONAME
47 48 1 0 0 
SMALL
USER_CHARGES


@<TRIPOS>ATOM
  1 O       -2.0410     7.3250    -1.0580 O.3   1 <1>  -0.3630 
  2 C       -3.2660     6.7850    -0.8730 C.ar  1 <1>   0.0830 
  3 C       -0.9950     6.6660    -0.3930 C.3   1 <1>   0.1200 
  4 C       -4.0520     7.1900     0.2080 C.ar  1 <1>  -0.1440 
  5 C       -3.7180     5.8220    -1.7710 C.ar  1 <1>  -0.1440 
  6 C        0.2950     7.4310    -0.6960 C.3   1 <1>   0.3430 
  7 C       -5.2820     6.5730     0.4160 C.ar  1 <1>  -0.1440 
  8 C       -3.5830     8.3000     1.1480 C.3   1 <1>  -0.0970 
  9 C       -4.9470     5.2280    -1.5520 C.ar  1 <1>  -0.1500 
 10 C       -2.9040     5.4110    -2.9910 C.3   1 <1>  -0.0960 
 11 N        1.5040     6.7890    -0.0830 N.4   1 <1>  -0.9590 
 12 C       -5.7160     5.5960    -0.4650 C.ar  1 <1>  -0.1500 
 13 C       -6.1840     6.9400     1.5880 C.3   1 <1>  -0.0970 
 14 C        1.5170     6.8990     1.4040 C.3   1 <1>   0.3430 
 15 C        2.7460     7.3820    -0.6430 C.3   1 <1>   0.3430 
 16 C        2.3400     5.7710     2.0330 C.3   1 <1>  -0.1600 
 17 C        3.7650     6.2850    -0.9530 C.3   1 <1>  -0.1600 
 18 C        3.7970     5.6450     1.5510 C.3   1 <1>  -0.1600 
 19 C        3.9110     5.1660     0.0960 C.3   1 <1>  -0.1600 
 20 H       -0.9460     5.6580    -0.7660 H     1 <1>   0.0800 
 21 H       -1.2200     6.6640     0.6580 H     1 <1>   0.0800 
 22 H        0.1970     8.4410    -0.3350 H     1 <1>   0.0800 
 23 H        0.4150     7.4640    -1.7670 H     1 <1>   0.0800 
 24 H       -2.8000     8.8890     0.7070 H     1 <1>   0.0800 
 25 H       -3.2260     7.8750     2.0680 H     1 <1>   0.0800 
 26 H       -4.3930     8.9710     1.3670 H     1 <1>   0.0800 
 27 H       -5.3170     4.4750    -2.2260 H     1 <1>   0.1500 
 28 H       -2.4440     6.2720    -3.4400 H     1 <1>   0.0800 
 29 H       -3.5360     4.9500    -3.7290 H     1 <1>   0.0800 
 30 H       -2.1420     4.7090    -2.7060 H     1 <1>   0.0800 
 31 H        1.5200     5.7890    -0.3260 H     1 <1>   0.4500 
 32 H       -6.6670     5.1150    -0.3150 H     1 <1>   0.1500 
 33 H       -5.6290     6.9230     2.5080 H     1 <1>   0.0800 
 34 H       -6.9990     6.2450     1.6790 H     1 <1>   0.0800 
 35 H       -6.5940     7.9230     1.4410 H     1 <1>   0.0800 
 36 H        0.5120     6.8370     1.7880 H     1 <1>   0.0800 
 37 H        1.9230     7.8530     1.6980 H     1 <1>   0.0800 
 38 H        3.1690     8.0770     0.0640 H     1 <1>   0.0800 
 39 H        2.5300     7.9220    -1.5510 H     1 <1>   0.0800 
 40 H        1.8280     4.8360     1.8860 H     1 <1>   0.0800 
 41 H        2.3570     5.9430     3.0950 H     1 <1>   0.0800 
 42 H        4.7210     6.7660    -1.0710 H     1 <1>   0.0800 
 43 H        3.5290     5.8420    -1.9050 H     1 <1>   0.0800 
 44 H        4.2810     4.9110     2.1750 H     1 <1>   0.0800 
 45 H        4.3310     6.5710     1.6910 H     1 <1>   0.0800 
 46 H        4.8800     4.7130    -0.0400 H     1 <1>   0.0800 
 47 H        3.1870     4.3900    -0.0850 H     1 <1>   0.0800 
@<TRIPOS>BOND
  1   1   2  1   
  2   1   3  1   
  3   2   4  ar  
  4   2   5  ar  
  5   3   6  1   
  6   3  20  1   
  7   3  21  1   
  8   4   7  ar  
  9   4   8  1   
 10   5   9  ar  
 11   5  10  1   
 12   6  11  1   
 13   6  22  1   
 14   6  23  1   
 15   7  12  ar  
 16   7  13  1   
 17   8  24  1   
 18   8  25  1   
 19   8  26  1   
 20   9  12  ar  
 21   9  27  1   
 22  10  28  1   
 23  10  29  1   
 24  10  30  1   
 25  11  14  1   
 26  11  15  1   
 27  11  31  1   
 28  12  32  1   
 29  13  33  1   
 30  13  34  1   
 31  13  35  1   
 32  14  16  1   
 33  14  36  1   
 34  14  37  1   
 35  15  17  1   
 36  15  38  1   
 37  15  39  1   
 38  16  18  1   
 39  16  40  1   
 40  16  41  1   
 41  17  19  1   
 42  17  42  1   
 43  17  43  1   
 44  18  19  1   
 45  18  44  1   
 46  18  45  1   
 47  19  46  1   
 48  19  47  1   
@<TRIPOS>SUBSTRUCTURE
  1 ****   3 GROUP 4 **** **** 0

# MOE 2024.06 (io_trps.svl 2023.06)
