@<TRIPOS>MOLECULE
NONAME
35 36 1 0 0 
SMALL
USER_CHARGES


@<TRIPOS>ATOM
  1 O        0.1200    -1.1050     0.1780 O.2   1 <1>  -0.7500 
  2 N       -0.1610     0.0780     0.8220 N.4   1 <1>  -0.1220 
  3 C       -1.0380     0.9970     0.0600 C.3   1 <1>   0.3170 
  4 C        0.9930     0.9030     1.3050 C.3   1 <1>   0.5660 
  5 C       -0.6310     2.3110     0.7130 C.2   1 <1>   0.3280 
  6 C       -0.7230     1.0010    -1.4500 C.3   1 <1>  -0.2400 
  7 C       -2.5000     0.5910     0.3010 C.3   1 <1>  -0.2400 
  8 N        0.4220     2.2510     1.3890 N.2   1 <1>  -0.6960 
  9 C        2.2580     0.8810     0.4190 C.ar  1 <1>  -0.1430 
 10 C       -1.4470     3.5830     0.5240 C.3   1 <1>  -0.0990 
 11 C        2.7720     2.0250    -0.1930 C.ar  1 <1>  -0.1500 
 12 C        2.9380    -0.3190     0.2360 C.ar  1 <1>  -0.1500 
 13 C       -2.5130     3.7800     1.6120 C.3   1 <1>  -0.2400 
 14 C        3.9180     1.9660    -0.9660 C.ar  1 <1>  -0.1500 
 15 C        4.0840    -0.3870    -0.5360 C.ar  1 <1>  -0.1500 
 16 C        4.5710     0.7600    -1.1370 C.ar  1 <1>   0.0820 
 17 O        5.6780     0.7100    -1.8920 O.3   1 <1>  -0.5330 
 18 H       -0.6700    -0.1750     1.6680 H     1 <1>   0.3600 
 19 H        1.2550     0.5720     2.2950 H     1 <1>   0.0800 
 20 H        0.3130     1.2320    -1.6200 H     1 <1>   0.0800 
 21 H       -1.3240     1.7290    -1.9610 H     1 <1>   0.0800 
 22 H       -0.9280     0.0340    -1.8750 H     1 <1>   0.0800 
 23 H       -2.7400     0.6160     1.3480 H     1 <1>   0.0800 
 24 H       -2.6660    -0.4050    -0.0730 H     1 <1>   0.0800 
 25 H       -3.1630     1.2560    -0.2210 H     1 <1>   0.0800 
 26 H       -1.9050     3.5860    -0.4490 H     1 <1>   0.0800 
 27 H       -0.7690     4.4180     0.5620 H     1 <1>   0.0800 
 28 H        2.2910     2.9800    -0.0750 H     1 <1>   0.1500 
 29 H        2.5620    -1.2200     0.6910 H     1 <1>   0.1500 
 30 H       -3.2580     3.0070     1.5750 H     1 <1>   0.0800 
 31 H       -3.0030     4.7280     1.4760 H     1 <1>   0.0800 
 32 H       -2.0520     3.7720     2.5850 H     1 <1>   0.0800 
 33 H        4.3090     2.8490    -1.4370 H     1 <1>   0.1500 
 34 H        4.5810    -1.3290    -0.6660 H     1 <1>   0.1500 
 35 H        6.0380    -0.1900    -1.9690 H     1 <1>   0.4500 
@<TRIPOS>BOND
  1   1   2  2   
  2   2   3  1   
  3   2   4  1   
  4   2  18  1   
  5   3   5  1   
  6   3   6  1   
  7   3   7  1   
  8   4   8  1   
  9   4   9  1   
 10   4  19  1   
 11   5   8  2   
 12   5  10  1   
 13   6  20  1   
 14   6  21  1   
 15   6  22  1   
 16   7  23  1   
 17   7  24  1   
 18   7  25  1   
 19   9  11  ar  
 20   9  12  ar  
 21  10  13  1   
 22  10  26  1   
 23  10  27  1   
 24  11  14  ar  
 25  11  28  1   
 26  12  15  ar  
 27  12  29  1   
 28  13  30  1   
 29  13  31  1   
 30  13  32  1   
 31  14  16  ar  
 32  14  33  1   
 33  15  16  ar  
 34  15  34  1   
 35  16  17  1   
 36  17  35  1   
@<TRIPOS>SUBSTRUCTURE
  1 ****   9 GROUP 4 **** **** 0

# MOE 2024.06 (io_trps.svl 2023.06)
