@<TRIPOS>MOLECULE
NONAME
41 42 1 0 0 
SMALL
USER_CHARGES


@<TRIPOS>ATOM
  1 F       -0.2190    -0.7090     2.3050 F     1 <1>  -0.3400 
  2 C        0.0600    -1.6930     1.4610 C.3   1 <1>   1.1640 
  3 F        0.6130    -2.6600     2.1830 F     1 <1>  -0.3400 
  4 F        1.0110    -1.2390     0.6550 F     1 <1>  -0.3400 
  5 C       -1.1950    -2.1620     0.7020 C.ar  1 <1>  -0.1440 
  6 C       -1.5430    -1.5960    -0.5200 C.ar  1 <1>  -0.1500 
  7 C       -2.0120    -3.1580     1.2260 C.ar  1 <1>  -0.1500 
  8 C       -2.6750    -2.0130    -1.1990 C.ar  1 <1>  -0.1500 
  9 C       -3.1440    -3.5760     0.5490 C.ar  1 <1>  -0.1500 
 10 C       -3.4870    -3.0010    -0.6650 C.ar  1 <1>  -0.1430 
 11 C       -4.7420    -3.4450    -1.3900 C.3   1 <1>   0.4870 
 12 N       -5.8990    -2.8230    -0.7000 N.4   1 <1>  -0.9590 
 13 C       -7.1760    -3.5190    -1.0090 C.3   1 <1>   0.4860 
 14 C       -5.9750    -1.3470    -0.9680 C.3   1 <1>   0.3430 
 15 C       -8.2050    -3.0920     0.0160 C.ar  1 <1>  -0.1430 
 16 C       -6.1350    -0.5250     0.3180 C.3   1 <1>   0.1200 
 17 C       -8.1550    -3.5970     1.3080 C.ar  1 <1>  -0.1500 
 18 C       -9.1980    -2.1840    -0.3250 C.ar  1 <1>  -0.1500 
 19 O       -6.1570     0.8100    -0.0430 O.3   1 <1>  -0.6800 
 20 C       -9.0800    -3.1860     2.2520 C.ar  1 <1>  -0.1500 
 21 C      -10.1210    -1.7750     0.6210 C.ar  1 <1>  -0.1500 
 22 C      -10.0610    -2.2740     1.9100 C.ar  1 <1>  -0.1500 
 23 H       -0.9290    -0.8220    -0.9540 H     1 <1>   0.1500 
 24 H       -1.7660    -3.6170     2.1710 H     1 <1>   0.1500 
 25 H       -2.9060    -1.5530    -2.1460 H     1 <1>   0.1500 
 26 H       -3.7450    -4.3570     0.9850 H     1 <1>   0.1500 
 27 H       -4.8110    -4.5200    -1.3460 H     1 <1>   0.0800 
 28 H       -4.7080    -3.1420    -2.4250 H     1 <1>   0.0800 
 29 H       -5.7320    -2.9350     0.3060 H     1 <1>   0.4500 
 30 H       -7.0450    -4.5870    -0.9480 H     1 <1>   0.0800 
 31 H       -7.5140    -3.2700    -2.0020 H     1 <1>   0.0800 
 32 H       -6.8040    -1.1320    -1.6220 H     1 <1>   0.0800 
 33 H       -5.0720    -1.0160    -1.4530 H     1 <1>   0.0800 
 34 H       -5.2980    -0.6760     0.9790 H     1 <1>   0.0800 
 35 H       -7.0590    -0.7490     0.8210 H     1 <1>   0.0800 
 36 H       -7.4080    -4.3160     1.5990 H     1 <1>   0.1500 
 37 H       -9.2690    -1.7820    -1.3220 H     1 <1>   0.1500 
 38 H       -6.2760     1.3920     0.7380 H     1 <1>   0.4000 
 39 H       -9.0430    -3.5770     3.2550 H     1 <1>   0.1500 
 40 H      -10.8910    -1.0690     0.3570 H     1 <1>   0.1500 
 41 H      -10.7810    -1.9550     2.6450 H     1 <1>   0.1500 
@<TRIPOS>BOND
  1   1   2  1   
  2   2   3  1   
  3   2   4  1   
  4   2   5  1   
  5   5   6  ar  
  6   5   7  ar  
  7   6   8  ar  
  8   6  23  1   
  9   7   9  ar  
 10   7  24  1   
 11   8  10  ar  
 12   8  25  1   
 13   9  10  ar  
 14   9  26  1   
 15  10  11  1   
 16  11  12  1   
 17  11  27  1   
 18  11  28  1   
 19  12  13  1   
 20  12  14  1   
 21  12  29  1   
 22  13  15  1   
 23  13  30  1   
 24  13  31  1   
 25  14  16  1   
 26  14  32  1   
 27  14  33  1   
 28  15  17  ar  
 29  15  18  ar  
 30  16  19  1   
 31  16  34  1   
 32  16  35  1   
 33  17  20  ar  
 34  17  36  1   
 35  18  21  ar  
 36  18  37  1   
 37  19  38  1   
 38  20  22  ar  
 39  20  39  1   
 40  21  22  ar  
 41  21  40  1   
 42  22  41  1   
@<TRIPOS>SUBSTRUCTURE
  1 ****  12 GROUP 4 **** **** 0

# MOE 2024.06 (io_trps.svl 2023.06)
