@<TRIPOS>MOLECULE
NONAME
58 60 1 0 0 
SMALL
USER_CHARGES


@<TRIPOS>ATOM
  1 O       -0.6170     1.7820    -3.3350 O.2   1 <1>  -0.5700 
  2 C       -0.8480     2.1440    -2.2070 C.2   1 <1>   0.5690 
  3 N       -1.6760     1.4760    -1.3470 N.am  1 <1>  -0.5470 
  4 C       -0.1680     3.4170    -1.6880 C.3   1 <1>   0.1710 
  5 C       -2.3720     0.2580    -1.4320 C.ar  1 <1>   0.1170 
  6 N        1.1830     3.2080    -1.0830 N.3   1 <1>  -0.8100 
  7 C       -2.8960    -0.2730    -0.2480 C.ar  1 <1>   0.0820 
  8 C       -2.5700    -0.4290    -2.6230 C.ar  1 <1>  -0.1500 
  9 C        1.8420     4.4770    -0.7060 C.3   1 <1>   0.1100 
 10 C        1.2000     2.2340     0.0400 C.3   1 <1>   0.1100 
 11 O       -2.6770     0.4390     0.9010 O.3   1 <1>  -0.3630 
 12 C       -3.5990    -1.4740    -0.2740 C.ar  1 <1>  -0.1500 
 13 C       -3.2700    -1.6230    -2.6440 C.ar  1 <1>  -0.1500 
 14 C        3.3090     4.2550    -0.2580 C.3   1 <1>   0.3430 
 15 C        2.6130     2.0590     0.6500 C.3   1 <1>   0.3430 
 16 C       -3.2430     0.0310     2.1270 C.3   1 <1>   0.1200 
 17 C       -3.7840    -2.1450    -1.4710 C.ar  1 <1>  -0.1500 
 18 N        3.6370     2.7950    -0.1670 N.4   1 <1>  -0.9590 
 19 C       -2.8560     1.0570     3.1880 C.3   1 <1>  -0.2400 
 20 C        5.0430     2.5050     0.2100 C.3   1 <1>   0.4860 
 21 C        5.2730     1.0100     0.1230 C.ar  1 <1>  -0.1430 
 22 C        5.3550     0.2560     1.2830 C.ar  1 <1>  -0.1500 
 23 C        5.3880     0.3800    -1.1080 C.ar  1 <1>  -0.1500 
 24 C        5.5360    -1.1150     1.2250 C.ar  1 <1>   0.0820 
 25 C        5.5740    -0.9910    -1.1730 C.ar  1 <1>  -0.1500 
 26 O        5.5910    -1.7670     2.4110 O.3   1 <1>  -0.3620 
 27 C        5.6470    -1.7410    -0.0130 C.ar  1 <1>  -0.1500 
 28 C        5.8430    -3.1540     2.4750 C.3   1 <1>   0.0400 
 29 H       -1.7770     1.8780    -0.4140 H     1 <1>   0.3700 
 30 H       -0.8160     3.8900    -0.9720 H     1 <1>   0.0800 
 31 H       -0.0700     4.0840    -2.5270 H     1 <1>   0.0800 
 32 H       -2.1830    -0.0390    -3.5460 H     1 <1>   0.1500 
 33 H        1.2930     4.9510     0.0910 H     1 <1>   0.0800 
 34 H        1.8370     5.1500    -1.5480 H     1 <1>   0.0800 
 35 H        0.8730     1.2710    -0.3180 H     1 <1>   0.0800 
 36 H        0.5160     2.5420     0.8120 H     1 <1>   0.0800 
 37 H       -4.0100    -1.9070     0.6180 H     1 <1>   0.1500 
 38 H       -3.4140    -2.1430    -3.5750 H     1 <1>   0.1500 
 39 H        3.4630     4.7310     0.6960 H     1 <1>   0.0800 
 40 H        3.9630     4.7290    -0.9710 H     1 <1>   0.0800 
 41 H        2.8460     1.0070     0.6820 H     1 <1>   0.0800 
 42 H        2.6140     2.4270     1.6620 H     1 <1>   0.0800 
 43 H       -2.8530    -0.9410     2.3770 H     1 <1>   0.0800 
 44 H       -4.3130    -0.0120     2.0120 H     1 <1>   0.0800 
 45 H       -4.3280    -3.0740    -1.4900 H     1 <1>   0.1500 
 46 H        3.4700     2.4300    -1.1170 H     1 <1>   0.4500 
 47 H       -1.7870     1.1030     3.2890 H     1 <1>   0.0800 
 48 H       -3.2760     0.7710     4.1360 H     1 <1>   0.0800 
 49 H       -3.2400     2.0260     2.9250 H     1 <1>   0.0800 
 50 H        5.2380     2.8460     1.2140 H     1 <1>   0.0800 
 51 H        5.7190     3.0100    -0.4610 H     1 <1>   0.0800 
 52 H        5.2810     0.7110     2.2550 H     1 <1>   0.1500 
 53 H        5.3370     0.9390    -2.0270 H     1 <1>   0.1500 
 54 H        5.6630    -1.4780    -2.1300 H     1 <1>   0.1500 
 55 H        5.7890    -2.8020    -0.0920 H     1 <1>   0.1500 
 56 H        5.8700    -3.4420     3.5100 H     1 <1>   0.0800 
 57 H        6.7940    -3.3590     2.0150 H     1 <1>   0.0800 
 58 H        5.0500    -3.6780     1.9710 H     1 <1>   0.0800 
@<TRIPOS>BOND
  1   1   2  2   
  2   2   3  am  
  3   2   4  1   
  4   3   5  1   
  5   3  29  1   
  6   4   6  1   
  7   4  30  1   
  8   4  31  1   
  9   5   7  ar  
 10   5   8  ar  
 11   6   9  1   
 12   6  10  1   
 13   7  11  1   
 14   7  12  ar  
 15   8  13  ar  
 16   8  32  1   
 17   9  14  1   
 18   9  33  1   
 19   9  34  1   
 20  10  15  1   
 21  10  35  1   
 22  10  36  1   
 23  11  16  1   
 24  12  17  ar  
 25  12  37  1   
 26  13  17  ar  
 27  13  38  1   
 28  14  18  1   
 29  14  39  1   
 30  14  40  1   
 31  15  18  1   
 32  15  41  1   
 33  15  42  1   
 34  16  19  1   
 35  16  43  1   
 36  16  44  1   
 37  17  45  1   
 38  18  20  1   
 39  18  46  1   
 40  19  47  1   
 41  19  48  1   
 42  19  49  1   
 43  20  21  1   
 44  20  50  1   
 45  20  51  1   
 46  21  22  ar  
 47  21  23  ar  
 48  22  24  ar  
 49  22  52  1   
 50  23  25  ar  
 51  23  53  1   
 52  24  26  1   
 53  24  27  ar  
 54  25  27  ar  
 55  25  54  1   
 56  26  28  1   
 57  27  55  1   
 58  28  56  1   
 59  28  57  1   
 60  28  58  1   
@<TRIPOS>SUBSTRUCTURE
  1 ****  10 GROUP 4 **** **** 0

# MOE 2024.06 (io_trps.svl 2023.06)
