@<TRIPOS>MOLECULE
NONAME
39 41 1 0 0 
SMALL
USER_CHARGES


@<TRIPOS>ATOM
  1 F       -5.5310    -2.0630     0.2730 F     1 <1>  -0.1900 
  2 C       -5.9940    -3.2850     0.2510 C.ar  1 <1>   0.1900 
  3 C       -5.1210    -4.3510     0.0180 C.ar  1 <1>   0.0530 
  4 C       -7.3480    -3.4450     0.4760 C.ar  1 <1>  -0.1500 
  5 C       -3.7030    -4.1830    -0.2240 C.2   1 <1>   0.0870 
  6 C       -5.6980    -5.6230     0.0290 C.ar  1 <1>  -0.1500 
  7 C       -7.8820    -4.7210     0.4760 C.ar  1 <1>  -0.1500 
  8 O       -2.8670    -5.1850     0.0220 O.3   1 <1>  -0.2800 
  9 C       -2.9790    -3.1310    -0.6910 C.2   1 <1>  -0.1500 
 10 C       -7.0520    -5.8070     0.2530 C.ar  1 <1>  -0.1500 
 11 C       -1.6390    -4.8060    -0.2620 C.2   1 <1>  -0.0400 
 12 C       -1.6420    -3.5320    -0.7140 C.2   1 <1>  -0.1500 
 13 C       -0.5340    -5.8180    -0.0320 C.3   1 <1>   0.5230 
 14 N        0.7780    -5.2060    -0.3510 N.4   1 <1>  -0.9060 
 15 C        1.9190    -6.1430    -0.1170 C.3   1 <1>   0.3430 
 16 C        3.2830    -5.4930    -0.4000 C.3   1 <1>   0.2000 
 17 O        4.2630    -6.3930    -0.0290 O.3   1 <1>  -0.5600 
 18 C        3.5970    -4.2450     0.4180 C.3   1 <1>  -0.1600 
 19 C        5.4710    -5.7360     0.2090 C.3   1 <1>   0.1200 
 20 C        5.1130    -4.2830     0.5120 C.3   1 <1>  -0.1600 
 21 H       -7.9710    -2.5860     0.6490 H     1 <1>   0.1500 
 22 H       -5.0780    -6.4840    -0.1440 H     1 <1>   0.1500 
 23 H       -8.9350    -4.8690     0.6490 H     1 <1>   0.1500 
 24 H       -3.3410    -2.1640    -0.9920 H     1 <1>   0.1500 
 25 H       -7.4650    -6.8020     0.2540 H     1 <1>   0.1500 
 26 H       -0.8370    -2.8960    -1.0380 H     1 <1>   0.1500 
 27 H       -0.7090    -6.6790    -0.6570 H     1 <1>   0.0800 
 28 H       -0.5580    -6.1340     0.9990 H     1 <1>   0.0800 
 29 H        0.8820    -4.3680     0.2330 H     1 <1>   0.4500 
 30 H        0.7550    -4.8990    -1.3300 H     1 <1>   0.4500 
 31 H        1.8180    -7.0100    -0.7480 H     1 <1>   0.0800 
 32 H        1.9140    -6.4680     0.9110 H     1 <1>   0.0800 
 33 H        3.4110    -5.3040    -1.4540 H     1 <1>   0.0800 
 34 H        3.1740    -4.3280     1.4040 H     1 <1>   0.0800 
 35 H        3.2460    -3.3440    -0.0530 H     1 <1>   0.0800 
 36 H        6.0840    -5.8170    -0.6730 H     1 <1>   0.0800 
 37 H        5.9610    -6.2150     1.0400 H     1 <1>   0.0800 
 38 H        5.4650    -3.9890     1.4860 H     1 <1>   0.0800 
 39 H        5.5660    -3.6420    -0.2260 H     1 <1>   0.0800 
@<TRIPOS>BOND
  1   1   2  1   
  2   2   3  ar  
  3   2   4  ar  
  4   3   5  1   
  5   3   6  ar  
  6   4   7  ar  
  7   4  21  1   
  8   5   8  1   
  9   5   9  2   
 10   6  10  ar  
 11   6  22  1   
 12   7  10  ar  
 13   7  23  1   
 14   8  11  1   
 15   9  12  1   
 16   9  24  1   
 17  10  25  1   
 18  11  12  2   
 19  11  13  1   
 20  12  26  1   
 21  13  14  1   
 22  13  27  1   
 23  13  28  1   
 24  14  15  1   
 25  14  29  1   
 26  14  30  1   
 27  15  16  1   
 28  15  31  1   
 29  15  32  1   
 30  16  17  1   
 31  16  18  1   
 32  16  33  1   
 33  17  19  1   
 34  18  20  1   
 35  18  34  1   
 36  18  35  1   
 37  19  20  1   
 38  19  36  1   
 39  19  37  1   
 40  20  38  1   
 41  20  39  1   
@<TRIPOS>SUBSTRUCTURE
  1 ****  11 GROUP 4 **** **** 0

# MOE 2024.06 (io_trps.svl 2023.06)
