@<TRIPOS>MOLECULE
NONAME
38 39 1 0 0 
SMALL
USER_CHARGES


@<TRIPOS>ATOM
  1 O       -0.3700    -0.0850     0.2440 O.2   1 <1>  -0.5700 
  2 C       -0.0240     1.0720     0.0750 C.2   1 <1>   0.8050 
  3 O        1.2830     1.3340    -0.0020 O.3   1 <1>  -0.4300 
  4 C       -0.9650     2.1460    -0.0340 C.2   1 <1>  -0.2370 
  5 C        2.2570     0.3230     0.1040 C.3   1 <1>   0.1200 
  6 N       -2.3160     1.9520     0.0710 N.pl3 1 <1>   0.0480 
  7 C       -0.7760     3.4970    -0.2460 C.2   1 <1>   0.1250 
  8 C        3.6280     0.9780    -0.0310 C.3   1 <1>  -0.2400 
  9 C       -2.9460     3.1160    -0.0730 C.2   1 <1>  -0.3320 
 10 C       -3.2250     0.8180     0.2590 C.3   1 <1>   0.0960 
 11 N        0.4550     4.1020    -0.4240 N.2   1 <1>  -0.5750 
 12 C       -2.0430     4.1180    -0.2820 C.2   1 <1>   0.0190 
 13 C       -4.4430     2.9600     0.0230 C.3   1 <1>   0.0200 
 14 C       -4.6160     1.4280    -0.0090 C.3   1 <1>  -0.1600 
 15 C        0.7160     5.1900     0.1790 C.2   1 <1>   0.4400 
 16 C       -2.3240     5.5050    -0.5110 C.1   1 <1>   0.5380 
 17 N        1.9050     5.8730     0.0550 N.pl3 1 <1>  -0.7880 
 18 N       -2.5630     6.6120    -0.6620 N.1   1 <1>  -0.5570 
 19 C        2.0950     7.2040     0.6790 C.3   1 <1>   0.1290 
 20 C        3.0290     5.3580    -0.7740 C.3   1 <1>   0.1290 
 21 H        2.1480    -0.1550     1.0630 H     1 <1>   0.0800 
 22 H        2.0910    -0.3940    -0.6820 H     1 <1>   0.0800 
 23 H        3.7660     1.7050     0.7500 H     1 <1>   0.0800 
 24 H        3.7120     1.4600    -0.9880 H     1 <1>   0.0800 
 25 H        4.3970     0.2330     0.0500 H     1 <1>   0.0800 
 26 H       -2.9870     0.0310    -0.4340 H     1 <1>   0.0800 
 27 H       -3.1360     0.4640     1.2710 H     1 <1>   0.0800 
 28 H       -4.7930     3.3630     0.9570 H     1 <1>   0.0800 
 29 H       -4.9480     3.4390    -0.7980 H     1 <1>   0.0800 
 30 H       -4.9430     1.1260    -0.9880 H     1 <1>   0.0800 
 31 H       -5.3380     1.0920     0.7130 H     1 <1>   0.0800 
 32 H       -0.0100     5.6370     0.8370 H     1 <1>   0.0600 
 33 H        2.3040     7.9350    -0.0820 H     1 <1>   0.0800 
 34 H        2.9180     7.1670     1.3720 H     1 <1>   0.0800 
 35 H        1.2070     7.5010     1.2090 H     1 <1>   0.0800 
 36 H        3.0900     5.9200    -1.6890 H     1 <1>   0.0800 
 37 H        2.8810     4.3190    -1.0160 H     1 <1>   0.0800 
 38 H        3.9550     5.4520    -0.2350 H     1 <1>   0.0800 
@<TRIPOS>BOND
  1   1   2  2   
  2   2   3  1   
  3   2   4  1   
  4   3   5  1   
  5   4   6  1   
  6   4   7  2   
  7   5   8  1   
  8   5  21  1   
  9   5  22  1   
 10   6   9  1   
 11   6  10  1   
 12   7  11  1   
 13   7  12  1   
 14   8  23  1   
 15   8  24  1   
 16   8  25  1   
 17   9  12  2   
 18   9  13  1   
 19  10  14  1   
 20  10  26  1   
 21  10  27  1   
 22  11  15  2   
 23  12  16  1   
 24  13  14  1   
 25  13  28  1   
 26  13  29  1   
 27  14  30  1   
 28  14  31  1   
 29  15  17  1   
 30  15  32  1   
 31  16  18  3   
 32  17  19  1   
 33  17  20  1   
 34  19  33  1   
 35  19  34  1   
 36  19  35  1   
 37  20  36  1   
 38  20  37  1   
 39  20  38  1   
@<TRIPOS>SUBSTRUCTURE
  1 ****   7 GROUP 4 **** **** 0

# MOE 2024.06 (io_trps.svl 2023.06)
