@<TRIPOS>MOLECULE
NONAME
34 36 1 0 0 
SMALL
USER_CHARGES


@<TRIPOS>ATOM
  1 O       -1.1530    -0.5770     1.0540 O.2   1 <1>  -0.5700 
  2 C       -1.7250    -1.3530     0.3190 C.2   1 <1>   0.7800 
  3 O       -1.0710    -1.9720    -0.6640 O.3   1 <1>  -0.4300 
  4 N       -3.0370    -1.6140     0.4760 N.am  1 <1>  -0.7300 
  5 C        0.3060    -1.7370    -0.8750 C.3   1 <1>   0.0400 
  6 C       -3.8790    -2.5250    -0.3250 C.3   1 <1>   0.2200 
  7 C       -5.0290    -1.7420    -0.9940 C.3   1 <1>  -0.0800 
  8 C       -4.4670    -3.6360     0.5720 C.3   1 <1>  -0.0800 
  9 C       -5.9820    -1.1480     0.0690 C.3   1 <1>  -0.1600 
 10 C       -5.8300    -2.7160    -1.8820 C.3   1 <1>  -0.1600 
 11 C       -5.4210    -3.0400     1.6330 C.3   1 <1>  -0.1600 
 12 C       -5.2690    -4.6080    -0.3190 C.3   1 <1>  -0.1600 
 13 C       -6.5670    -2.2760     0.9420 C.3   1 <1>  -0.0800 
 14 C       -6.4160    -3.8550    -1.0230 C.3   1 <1>  -0.0800 
 15 C       -7.3500    -3.2510     0.0430 C.3   1 <1>  -0.1600 
 16 H       -3.5070    -1.1270     1.2340 H     1 <1>   0.3700 
 17 H        0.6290    -2.3320    -1.7100 H     1 <1>   0.0800 
 18 H        0.8470    -2.0180     0.0130 H     1 <1>   0.0800 
 19 H        0.4530    -0.6920    -1.0840 H     1 <1>   0.0800 
 20 H       -3.2740    -2.9790    -1.0910 H     1 <1>   0.0800 
 21 H       -4.6190    -0.9570    -1.6060 H     1 <1>   0.0800 
 22 H       -3.6660    -4.1720     1.0500 H     1 <1>   0.0800 
 23 H       -6.7810    -0.6180    -0.4190 H     1 <1>   0.0800 
 24 H       -5.4600    -0.4390     0.6860 H     1 <1>   0.0800 
 25 H       -5.1900    -3.1260    -2.6440 H     1 <1>   0.0800 
 26 H       -6.6260    -2.1870    -2.3770 H     1 <1>   0.0800 
 27 H       -4.8840    -2.3810     2.2910 H     1 <1>   0.0800 
 28 H       -5.8280    -3.8320     2.2370 H     1 <1>   0.0800 
 29 H       -5.6720    -5.4050     0.2820 H     1 <1>   0.0800 
 30 H       -4.6190    -5.0510    -1.0540 H     1 <1>   0.0800 
 31 H       -7.2260    -1.8580     1.6840 H     1 <1>   0.0800 
 32 H       -6.9690    -4.5350    -1.6480 H     1 <1>   0.0800 
 33 H       -8.1620    -2.7330    -0.4370 H     1 <1>   0.0800 
 34 H       -7.7750    -4.0380     0.6420 H     1 <1>   0.0800 
@<TRIPOS>BOND
  1   1   2  2   
  2   2   3  1   
  3   2   4  am  
  4   3   5  1   
  5   4   6  1   
  6   4  16  1   
  7   5  17  1   
  8   5  18  1   
  9   5  19  1   
 10   6   7  1   
 11   6   8  1   
 12   6  20  1   
 13   7   9  1   
 14   7  10  1   
 15   7  21  1   
 16   8  11  1   
 17   8  12  1   
 18   8  22  1   
 19   9  13  1   
 20   9  23  1   
 21   9  24  1   
 22  10  14  1   
 23  10  25  1   
 24  10  26  1   
 25  11  13  1   
 26  11  27  1   
 27  11  28  1   
 28  12  14  1   
 29  12  29  1   
 30  12  30  1   
 31  13  15  1   
 32  13  31  1   
 33  14  15  1   
 34  14  32  1   
 35  15  33  1   
 36  15  34  1   
@<TRIPOS>SUBSTRUCTURE
  1 ****   6 GROUP 4 **** **** 0

# MOE 2024.06 (io_trps.svl 2023.06)
