@<TRIPOS>MOLECULE
NONAME
65 69 1 0 0 
SMALL
USER_CHARGES


@<TRIPOS>ATOM
  1 O       -0.4340    -0.9710    -2.0980 O.2   1 <1>  -0.5700 
  2 C       -0.3660    -1.4040    -0.9710 C.2   1 <1>   0.5690 
  3 N       -1.3890    -2.1410    -0.4310 N.am  1 <1>  -0.6600 
  4 C        0.8920    -1.1190    -0.1520 C.3   1 <1>  -0.0990 
  5 C       -1.3760    -2.8130     0.9090 C.3   1 <1>   0.1400 
  6 C       -2.6440    -2.4080    -1.2050 C.3   1 <1>   0.1400 
  7 C        1.9050    -0.1750    -0.8230 C.3   1 <1>  -0.2400 
  8 C       -1.6590    -4.3200     0.7780 C.3   1 <1>   0.2090 
  9 C       -2.9250    -3.9160    -1.3150 C.3   1 <1>   0.2090 
 10 N       -2.9280    -4.5730     0.0300 N.pl3 1 <1>  -0.8380 
 11 C       -3.3670    -5.9120     0.0270 C.ar  1 <1>   0.1000 
 12 C       -4.5870    -6.2540     0.6290 C.ar  1 <1>   0.1170 
 13 C       -2.6090    -6.9100    -0.5740 C.ar  1 <1>  -0.1500 
 14 N       -5.3080    -5.2070     1.2200 N.am  1 <1>  -0.5470 
 15 C       -5.0120    -7.5750     0.6200 C.ar  1 <1>  -0.1500 
 16 C       -3.0420    -8.2240    -0.5800 C.ar  1 <1>  -0.1500 
 17 C       -6.6010    -5.0680     1.6230 C.2   1 <1>   0.5690 
 18 C       -4.2440    -8.5570     0.0180 C.ar  1 <1>  -0.1500 
 19 O       -7.4120    -5.9620     1.5930 O.2   1 <1>  -0.5700 
 20 C       -7.0320    -3.7140     2.1550 C.3   1 <1>  -0.0990 
 21 C       -7.3810    -2.6580     1.0800 C.3   1 <1>   0.0000 
 22 C       -7.8930    -1.3810     1.7870 C.3   1 <1>  -0.1600 
 23 C       -6.1510    -2.2750     0.2210 C.3   1 <1>  -0.1600 
 24 C       -8.4940    -3.1710     0.1350 C.3   1 <1>  -0.1600 
 25 C       -8.2700    -0.2950     0.7630 C.3   1 <1>  -0.0800 
 26 C       -6.5170    -1.1910    -0.8100 C.3   1 <1>  -0.0800 
 27 C       -8.8710    -2.0940    -0.8990 C.3   1 <1>  -0.0800 
 28 C       -7.0290     0.0610    -0.0740 C.3   1 <1>  -0.1600 
 29 C       -9.3730    -0.8380    -0.1640 C.3   1 <1>  -0.1600 
 30 C       -7.6270    -1.7300    -1.7310 C.3   1 <1>  -0.1600 
 31 H        1.3800    -2.0550     0.0500 H     1 <1>   0.0800 
 32 H        0.5930    -0.6830     0.7830 H     1 <1>   0.0800 
 33 H       -2.1360    -2.3700     1.5280 H     1 <1>   0.0800 
 34 H       -0.4320    -2.6800     1.4020 H     1 <1>   0.0800 
 35 H       -2.5780    -1.9930    -2.1950 H     1 <1>   0.0800 
 36 H       -3.4670    -1.9300    -0.7080 H     1 <1>   0.0800 
 37 H        2.2460    -0.5960    -1.7530 H     1 <1>   0.0800 
 38 H        2.7550    -0.0180    -0.1830 H     1 <1>   0.0800 
 39 H        1.4460     0.7760    -1.0290 H     1 <1>   0.0800 
 40 H       -1.7340    -4.7580     1.7590 H     1 <1>   0.0800 
 41 H       -0.8370    -4.7900     0.2660 H     1 <1>   0.0800 
 42 H       -2.1730    -4.3670    -1.9390 H     1 <1>   0.0800 
 43 H       -3.8810    -4.0660    -1.7860 H     1 <1>   0.0800 
 44 H       -1.6770    -6.6570    -1.0430 H     1 <1>   0.1500 
 45 H       -4.7490    -4.3510     1.1780 H     1 <1>   0.3700 
 46 H       -5.9440    -7.8430     1.0830 H     1 <1>   0.1500 
 47 H       -2.4460    -8.9870    -1.0490 H     1 <1>   0.1500 
 48 H       -4.5860    -9.5780     0.0170 H     1 <1>   0.1500 
 49 H       -6.2530    -3.3360     2.7920 H     1 <1>   0.0800 
 50 H       -7.8940    -3.8750     2.7770 H     1 <1>   0.0800 
 51 H       -7.1360    -0.9980     2.4480 H     1 <1>   0.0800 
 52 H       -8.7570    -1.6160     2.3850 H     1 <1>   0.0800 
 53 H       -5.7880    -3.1340    -0.3130 H     1 <1>   0.0800 
 54 H       -5.3580    -1.9160     0.8540 H     1 <1>   0.0800 
 55 H       -9.3640    -3.4420     0.7070 H     1 <1>   0.0800 
 56 H       -8.1640    -4.0550    -0.3840 H     1 <1>   0.0800 
 57 H       -8.6270     0.5820     1.2770 H     1 <1>   0.0800 
 58 H       -5.6520    -0.9350    -1.3980 H     1 <1>   0.0800 
 59 H       -9.6450    -2.4690    -1.5470 H     1 <1>   0.0800 
 60 H       -6.2560     0.4510     0.5650 H     1 <1>   0.0800 
 61 H       -7.2790     0.8250    -0.7890 H     1 <1>   0.0800 
 62 H       -9.6510    -0.0840    -0.8790 H     1 <1>   0.0800 
 63 H      -10.2490    -1.0790     0.4130 H     1 <1>   0.0800 
 64 H       -7.2750    -2.6000    -2.2570 H     1 <1>   0.0800 
 65 H       -7.8850    -0.9870    -2.4650 H     1 <1>   0.0800 
@<TRIPOS>BOND
  1   1   2  2   
  2   2   3  am  
  3   2   4  1   
  4   3   5  1   
  5   3   6  1   
  6   4   7  1   
  7   4  31  1   
  8   4  32  1   
  9   5   8  1   
 10   5  33  1   
 11   5  34  1   
 12   6   9  1   
 13   6  35  1   
 14   6  36  1   
 15   7  37  1   
 16   7  38  1   
 17   7  39  1   
 18   8  10  1   
 19   8  40  1   
 20   8  41  1   
 21   9  10  1   
 22   9  42  1   
 23   9  43  1   
 24  10  11  1   
 25  11  12  ar  
 26  11  13  ar  
 27  12  14  1   
 28  12  15  ar  
 29  13  16  ar  
 30  13  44  1   
 31  14  17  am  
 32  14  45  1   
 33  15  18  ar  
 34  15  46  1   
 35  16  18  ar  
 36  16  47  1   
 37  17  19  2   
 38  17  20  1   
 39  18  48  1   
 40  20  21  1   
 41  20  49  1   
 42  20  50  1   
 43  21  22  1   
 44  21  23  1   
 45  21  24  1   
 46  22  25  1   
 47  22  51  1   
 48  22  52  1   
 49  23  26  1   
 50  23  53  1   
 51  23  54  1   
 52  24  27  1   
 53  24  55  1   
 54  24  56  1   
 55  25  28  1   
 56  25  29  1   
 57  25  57  1   
 58  26  28  1   
 59  26  30  1   
 60  26  58  1   
 61  27  29  1   
 62  27  30  1   
 63  27  59  1   
 64  28  60  1   
 65  28  61  1   
 66  29  62  1   
 67  29  63  1   
 68  30  64  1   
 69  30  65  1   
@<TRIPOS>SUBSTRUCTURE
  1 ****  23 GROUP 4 **** **** 0

# MOE 2024.06 (io_trps.svl 2023.06)
