@<TRIPOS>MOLECULE
NONAME
45 47 1 0 0 
SMALL
USER_CHARGES


@<TRIPOS>ATOM
  1 N        1.2950     0.9390    -1.2480 N.ar  1 <1>  -0.6200 
  2 C        1.4240     0.8250     0.0670 C.ar  1 <1>   0.4100 
  3 C        0.2180     1.5880    -1.6610 C.ar  1 <1>   0.1600 
  4 N        2.5420     0.1550     0.5110 N.pl3 1 <1>  -0.8380 
  5 C        0.5110     1.3380     0.9830 C.ar  1 <1>  -0.1500 
  6 C       -0.7450     2.1320    -0.8300 C.ar  1 <1>  -0.1500 
  7 C        3.8180     0.8970     0.2760 C.3   1 <1>   0.2090 
  8 C        2.5950    -1.2780     0.0940 C.3   1 <1>   0.2090 
  9 C       -0.6040     2.0090     0.5380 C.ar  1 <1>  -0.1500 
 10 C        5.0260     0.1550     0.8810 C.3   1 <1>   0.3430 
 11 C        3.8110    -2.0040     0.7030 C.3   1 <1>   0.3430 
 12 N        5.1040    -1.2830     0.4280 N.4   1 <1>  -0.9590 
 13 C        6.2750    -1.9860     1.0170 C.3   1 <1>   0.4860 
 14 C        7.5360    -1.2810     0.5630 C.ar  1 <1>  -0.1430 
 15 C        8.2560    -0.4980     1.4530 C.ar  1 <1>  -0.1500 
 16 C        7.9780    -1.4030    -0.7470 C.ar  1 <1>  -0.1500 
 17 C        9.3950     0.1650     1.0340 C.ar  1 <1>  -0.1500 
 18 C        9.1170    -0.7370    -1.1620 C.ar  1 <1>  -0.1500 
 19 C        9.8300     0.0530    -0.2760 C.ar  1 <1>  -0.1430 
 20 C       11.0830     0.7820    -0.7350 C.3   1 <1>  -0.0170 
 21 C       12.3190    -0.0970    -0.5320 C.3   1 <1>  -0.2400 
 22 H        0.0930     1.6920    -2.7260 H     1 <1>   0.1500 
 23 H        0.6910     1.2010     2.0310 H     1 <1>   0.1500 
 24 H       -1.5940     2.6450    -1.2460 H     1 <1>   0.1500 
 25 H        3.7430     1.8750     0.7200 H     1 <1>   0.0800 
 26 H        3.9680     1.0300    -0.7820 H     1 <1>   0.0800 
 27 H        2.6380    -1.3400    -0.9810 H     1 <1>   0.0800 
 28 H        1.6900    -1.7690     0.4120 H     1 <1>   0.0800 
 29 H       -1.3310     2.4180     1.2190 H     1 <1>   0.1500 
 30 H        4.9400     0.1920     1.9540 H     1 <1>   0.0800 
 31 H        5.9280     0.6770     0.6040 H     1 <1>   0.0800 
 32 H        3.8540    -3.0040     0.3050 H     1 <1>   0.0800 
 33 H        3.6570    -2.0760     1.7670 H     1 <1>   0.0800 
 34 H        5.2510    -1.2550    -0.5880 H     1 <1>   0.4500 
 35 H        6.3010    -3.0110     0.6840 H     1 <1>   0.0800 
 36 H        6.2150    -1.9760     2.0930 H     1 <1>   0.0800 
 37 H        7.9480    -0.3950     2.4800 H     1 <1>   0.1500 
 38 H        7.4520    -2.0170    -1.4590 H     1 <1>   0.1500 
 39 H        9.9510     0.7690     1.7310 H     1 <1>   0.1500 
 40 H        9.4550    -0.8380    -2.1800 H     1 <1>   0.1500 
 41 H       11.1970     1.6970    -0.1800 H     1 <1>   0.0800 
 42 H       10.9940     1.0420    -1.7760 H     1 <1>   0.0800 
 43 H       12.4310    -0.3480     0.5080 H     1 <1>   0.0800 
 44 H       13.2010     0.4240    -0.8580 H     1 <1>   0.0800 
 45 H       12.2260    -1.0070    -1.0980 H     1 <1>   0.0800 
@<TRIPOS>BOND
  1   1   2  ar  
  2   1   3  ar  
  3   2   4  1   
  4   2   5  ar  
  5   3   6  ar  
  6   3  22  1   
  7   4   7  1   
  8   4   8  1   
  9   5   9  ar  
 10   5  23  1   
 11   6   9  ar  
 12   6  24  1   
 13   7  10  1   
 14   7  25  1   
 15   7  26  1   
 16   8  11  1   
 17   8  27  1   
 18   8  28  1   
 19   9  29  1   
 20  10  12  1   
 21  10  30  1   
 22  10  31  1   
 23  11  12  1   
 24  11  32  1   
 25  11  33  1   
 26  12  13  1   
 27  12  34  1   
 28  13  14  1   
 29  13  35  1   
 30  13  36  1   
 31  14  15  ar  
 32  14  16  ar  
 33  15  17  ar  
 34  15  37  1   
 35  16  18  ar  
 36  16  38  1   
 37  17  19  ar  
 38  17  39  1   
 39  18  19  ar  
 40  18  40  1   
 41  19  20  1   
 42  20  21  1   
 43  20  41  1   
 44  20  42  1   
 45  21  43  1   
 46  21  44  1   
 47  21  45  1   
@<TRIPOS>SUBSTRUCTURE
  1 ****  10 GROUP 4 **** **** 0

# MOE 2024.06 (io_trps.svl 2023.06)
