@<TRIPOS>MOLECULE
NONAME
35 35 1 0 0 
SMALL
USER_CHARGES


@<TRIPOS>ATOM
  1 CL       0.2910    -0.1240     0.4620 Cl    1 <1>  -0.1770 
  2 C        1.7190     0.8310     0.1340 C.ar  1 <1>   0.1770 
  3 C        1.6100     2.1560    -0.2570 C.ar  1 <1>   0.1770 
  4 C        2.9610     0.2420     0.2700 C.ar  1 <1>  -0.1500 
  5 CL       0.0430     2.9130    -0.4330 Cl    1 <1>  -0.1770 
  6 C        2.7450     2.9040    -0.5140 C.ar  1 <1>  -0.1500 
  7 C        4.1060     0.9830     0.0140 C.ar  1 <1>   0.0830 
  8 C        3.9940     2.3180    -0.3790 C.ar  1 <1>  -0.1500 
  9 O        5.2890     0.3400     0.1690 O.3   1 <1>  -0.3630 
 10 C        6.5180     0.9960    -0.0640 C.3   1 <1>   0.1200 
 11 C        7.6440     0.0000     0.1970 C.3   1 <1>   0.1200 
 12 O        8.8660     0.6380    -0.0340 O.3   1 <1>  -0.5600 
 13 C        9.9790    -0.1670     0.1710 C.3   1 <1>   0.1200 
 14 C       11.2210     0.6890    -0.1100 C.3   1 <1>   0.3430 
 15 N       12.5100    -0.0470     0.1290 N.4   1 <1>  -0.9590 
 16 C       13.6590     0.9100     0.0730 C.3   1 <1>   0.2630 
 17 C       12.7180    -1.1590    -0.8530 C.3   1 <1>   0.2630 
 18 H        3.0420    -0.7860     0.5730 H     1 <1>   0.1500 
 19 H        2.6470     3.9320    -0.8170 H     1 <1>   0.1500 
 20 H        4.8640     2.9150    -0.5840 H     1 <1>   0.1500 
 21 H        6.5900     1.8300     0.6110 H     1 <1>   0.0800 
 22 H        6.5380     1.3250    -1.0880 H     1 <1>   0.0800 
 23 H        7.5560    -0.8380    -0.4730 H     1 <1>   0.0800 
 24 H        7.6120    -0.3300     1.2210 H     1 <1>   0.0800 
 25 H        9.9200    -1.0020    -0.5060 H     1 <1>   0.0800 
 26 H        9.9700    -0.5040     1.1930 H     1 <1>   0.0800 
 27 H       11.1790     1.5520     0.5350 H     1 <1>   0.0800 
 28 H       11.1820     1.0310    -1.1310 H     1 <1>   0.0800 
 29 H       12.4800    -0.4460     1.0800 H     1 <1>   0.4500 
 30 H       13.7260     1.3590    -0.9050 H     1 <1>   0.0800 
 31 H       14.5850     0.3970     0.2810 H     1 <1>   0.0800 
 32 H       13.5310     1.6930     0.8030 H     1 <1>   0.0800 
 33 H       12.7380    -0.7730    -1.8590 H     1 <1>   0.0800 
 34 H       11.9240    -1.8840    -0.7780 H     1 <1>   0.0800 
 35 H       13.6530    -1.6590    -0.6590 H     1 <1>   0.0800 
@<TRIPOS>BOND
  1   1   2  1   
  2   2   3  ar  
  3   2   4  ar  
  4   3   5  1   
  5   3   6  ar  
  6   4   7  ar  
  7   4  18  1   
  8   6   8  ar  
  9   6  19  1   
 10   7   8  ar  
 11   7   9  1   
 12   8  20  1   
 13   9  10  1   
 14  10  11  1   
 15  10  21  1   
 16  10  22  1   
 17  11  12  1   
 18  11  23  1   
 19  11  24  1   
 20  12  13  1   
 21  13  14  1   
 22  13  25  1   
 23  13  26  1   
 24  14  15  1   
 25  14  27  1   
 26  14  28  1   
 27  15  16  1   
 28  15  17  1   
 29  15  29  1   
 30  16  30  1   
 31  16  31  1   
 32  16  32  1   
 33  17  33  1   
 34  17  34  1   
 35  17  35  1   
@<TRIPOS>SUBSTRUCTURE
  1 ****  10 GROUP 4 **** **** 0

# MOE 2024.06 (io_trps.svl 2023.06)
