@<TRIPOS>MOLECULE
NONAME
47 48 1 0 0 
SMALL
USER_CHARGES


@<TRIPOS>ATOM
  1 O        0.4050    -0.9440    -0.4520 O.3   1 <1>  -0.5600 
  2 C        0.6730    -0.5420     0.8670 C.3   1 <1>   0.1200 
  3 C       -0.5840    -0.1850    -1.0830 C.3   1 <1>   0.0400 
  4 C        1.5820    -1.5970     1.5380 C.3   1 <1>   0.4230 
  5 N        2.4100    -2.2450     0.4940 N.4   1 <1>  -0.9060 
  6 C        0.7500    -2.7040     2.1760 C.3   1 <1>  -0.2400 
  7 C        3.5580    -1.4630    -0.0030 C.3   1 <1>   0.4230 
  8 C        3.9990    -2.0460    -1.3460 C.3   1 <1>  -0.1600 
  9 C        4.7080    -1.5040     1.0060 C.3   1 <1>  -0.1600 
 10 C        5.2390    -1.3290    -1.8800 C.3   1 <1>   0.3430 
 11 C        5.9470    -0.7970     0.4550 C.3   1 <1>   0.3430 
 12 N        6.3270    -1.3850    -0.8650 N.4   1 <1>  -0.9590 
 13 C        7.5820    -0.7590    -1.3870 C.3   1 <1>   0.4860 
 14 C        8.7000    -1.0740    -0.4150 C.ar  1 <1>  -0.1440 
 15 C        9.1890    -0.0870     0.4300 C.ar  1 <1>  -0.1500 
 16 C        9.2330    -2.3550    -0.3520 C.ar  1 <1>  -0.1500 
 17 C       10.1870    -0.3840     1.3410 C.ar  1 <1>  -0.1500 
 18 C       10.2310    -2.6480     0.5610 C.ar  1 <1>  -0.1500 
 19 C       10.7060    -1.6640     1.4090 C.ar  1 <1>  -0.1500 
 20 H       -0.2530    -0.4390     1.4080 H     1 <1>   0.0800 
 21 H        1.1630     0.4160     0.8360 H     1 <1>   0.0800 
 22 H       -0.2850     0.8500    -1.1110 H     1 <1>   0.0800 
 23 H       -1.5140    -0.2920    -0.5490 H     1 <1>   0.0800 
 24 H       -0.7070    -0.5510    -2.0880 H     1 <1>   0.0800 
 25 H        2.1930    -1.1380     2.2980 H     1 <1>   0.0800 
 26 H        1.7240    -2.3150    -0.2820 H     1 <1>   0.4500 
 27 H        2.6530    -3.2000     0.7730 H     1 <1>   0.4500 
 28 H        0.1080    -3.1760     1.4510 H     1 <1>   0.0800 
 29 H        0.1240    -2.2880     2.9470 H     1 <1>   0.0800 
 30 H        1.3800    -3.4440     2.6360 H     1 <1>   0.0800 
 31 H        3.2510    -0.4390    -0.1570 H     1 <1>   0.0800 
 32 H        3.2060    -1.9280    -2.0650 H     1 <1>   0.0800 
 33 H        4.2160    -3.0960    -1.2540 H     1 <1>   0.0800 
 34 H        4.9680    -2.5210     1.2460 H     1 <1>   0.0800 
 35 H        4.4190    -1.0090     1.9160 H     1 <1>   0.0800 
 36 H        4.9990    -0.3000    -2.1020 H     1 <1>   0.0800 
 37 H        5.5620    -1.8020    -2.7960 H     1 <1>   0.0800 
 38 H        6.7610    -0.9080     1.1560 H     1 <1>   0.0800 
 39 H        5.7490     0.2570     0.3410 H     1 <1>   0.0800 
 40 H        6.5920    -2.3670    -0.6990 H     1 <1>   0.4500 
 41 H        7.4650     0.3080    -1.4830 H     1 <1>   0.0800 
 42 H        7.8320    -1.1650    -2.3550 H     1 <1>   0.0800 
 43 H        8.8100     0.9200     0.3920 H     1 <1>   0.1500 
 44 H        8.8930    -3.1380    -1.0070 H     1 <1>   0.1500 
 45 H       10.5680     0.3810     1.9980 H     1 <1>   0.1500 
 46 H       10.6470    -3.6400     0.6120 H     1 <1>   0.1500 
 47 H       11.4840    -1.8930     2.1180 H     1 <1>   0.1500 
@<TRIPOS>BOND
  1   1   2  1   
  2   1   3  1   
  3   2   4  1   
  4   2  20  1   
  5   2  21  1   
  6   3  22  1   
  7   3  23  1   
  8   3  24  1   
  9   4   5  1   
 10   4   6  1   
 11   4  25  1   
 12   5   7  1   
 13   5  26  1   
 14   5  27  1   
 15   6  28  1   
 16   6  29  1   
 17   6  30  1   
 18   7   8  1   
 19   7   9  1   
 20   7  31  1   
 21   8  10  1   
 22   8  32  1   
 23   8  33  1   
 24   9  11  1   
 25   9  34  1   
 26   9  35  1   
 27  10  12  1   
 28  10  36  1   
 29  10  37  1   
 30  11  12  1   
 31  11  38  1   
 32  11  39  1   
 33  12  13  1   
 34  12  40  1   
 35  13  14  1   
 36  13  41  1   
 37  13  42  1   
 38  14  15  ar  
 39  14  16  ar  
 40  15  17  ar  
 41  15  43  1   
 42  16  18  ar  
 43  16  44  1   
 44  17  19  ar  
 45  17  45  1   
 46  18  19  ar  
 47  18  46  1   
 48  19  47  1   
@<TRIPOS>SUBSTRUCTURE
  1 ****  11 GROUP 4 **** **** 0

# MOE 2024.06 (io_trps.svl 2023.06)
