@<TRIPOS>MOLECULE
NONAME
40 42 1 0 0 
SMALL
USER_CHARGES


@<TRIPOS>ATOM
  1 O        0.4920    -0.5350    -0.6010 O.3   1 <1>  -0.3630 
  2 C       -0.1490    -1.6740    -0.3290 C.ar  1 <1>   0.0830 
  3 C        1.8000    -0.6570    -0.0400 C.3   1 <1>   0.4000 
  4 C        0.6580    -2.5100     0.3830 C.ar  1 <1>   0.0830 
  5 C       -1.4360    -2.0320    -0.6780 C.ar  1 <1>  -0.1500 
  6 O        1.8450    -1.9360     0.5920 O.3   1 <1>  -0.3630 
  7 C        0.2240    -3.7560     0.7870 C.ar  1 <1>  -0.1500 
  8 C       -1.9020    -3.2810    -0.2730 C.ar  1 <1>  -0.1440 
  9 C       -1.0690    -4.1380     0.4500 C.ar  1 <1>  -0.1500 
 10 C       -3.3150    -3.7060    -0.6160 C.3   1 <1>   0.4870 
 11 N       -4.1590    -3.5610     0.6070 N.4   1 <1>  -0.9590 
 12 C       -5.4770    -4.2540     0.5380 C.3   1 <1>   0.4230 
 13 C       -4.3130    -2.1220     0.9940 C.3   1 <1>   0.2630 
 14 C       -5.2750    -5.7750     0.5740 C.3   1 <1>  -0.1600 
 15 C       -6.3050    -3.8330    -0.6880 C.3   1 <1>  -0.1600 
 16 C       -6.6270    -6.5020     0.5650 C.3   1 <1>  -0.1600 
 17 C       -7.6600    -4.5570    -0.6990 C.3   1 <1>  -0.1600 
 18 C       -7.4770    -6.0790    -0.6410 C.3   1 <1>  -0.1600 
 19 H        1.9540     0.1150     0.6920 H     1 <1>   0.0800 
 20 H        2.5350    -0.6160    -0.8240 H     1 <1>   0.0800 
 21 H       -2.0330    -1.3430    -1.2480 H     1 <1>   0.1500 
 22 H        0.8830    -4.4010     1.3430 H     1 <1>   0.1500 
 23 H       -1.4100    -5.1120     0.7560 H     1 <1>   0.1500 
 24 H       -3.3030    -4.7310    -0.9470 H     1 <1>   0.0800 
 25 H       -3.7040    -3.0950    -1.4150 H     1 <1>   0.0800 
 26 H       -3.6230    -4.0120     1.3590 H     1 <1>   0.4500 
 27 H       -6.0440    -3.9910     1.4180 H     1 <1>   0.0800 
 28 H       -4.8160    -1.5730     0.2150 H     1 <1>   0.0800 
 29 H       -3.3460    -1.6740     1.1610 H     1 <1>   0.0800 
 30 H       -4.8870    -2.0380     1.9030 H     1 <1>   0.0800 
 31 H       -4.7420    -6.0540     1.4660 H     1 <1>   0.0800 
 32 H       -4.7140    -6.1050    -0.2820 H     1 <1>   0.0800 
 33 H       -5.7900    -4.0820    -1.5990 H     1 <1>   0.0800 
 34 H       -6.4870    -2.7740    -0.6720 H     1 <1>   0.0800 
 35 H       -7.1650    -6.2840     1.4720 H     1 <1>   0.0800 
 36 H       -6.4670    -7.5680     0.5320 H     1 <1>   0.0800 
 37 H       -8.2040    -4.2970    -1.5920 H     1 <1>   0.0800 
 38 H       -8.2500    -4.2380     0.1450 H     1 <1>   0.0800 
 39 H       -8.4430    -6.5540    -0.5820 H     1 <1>   0.0800 
 40 H       -7.0070    -6.4200    -1.5490 H     1 <1>   0.0800 
@<TRIPOS>BOND
  1   1   2  1   
  2   1   3  1   
  3   2   4  ar  
  4   2   5  ar  
  5   3   6  1   
  6   3  19  1   
  7   3  20  1   
  8   4   6  1   
  9   4   7  ar  
 10   5   8  ar  
 11   5  21  1   
 12   7   9  ar  
 13   7  22  1   
 14   8   9  ar  
 15   8  10  1   
 16   9  23  1   
 17  10  11  1   
 18  10  24  1   
 19  10  25  1   
 20  11  12  1   
 21  11  13  1   
 22  11  26  1   
 23  12  14  1   
 24  12  15  1   
 25  12  27  1   
 26  13  28  1   
 27  13  29  1   
 28  13  30  1   
 29  14  16  1   
 30  14  31  1   
 31  14  32  1   
 32  15  17  1   
 33  15  33  1   
 34  15  34  1   
 35  16  18  1   
 36  16  35  1   
 37  16  36  1   
 38  17  18  1   
 39  17  37  1   
 40  17  38  1   
 41  18  39  1   
 42  18  40  1   
@<TRIPOS>SUBSTRUCTURE
  1 ****  10 GROUP 4 **** **** 0

# MOE 2024.06 (io_trps.svl 2023.06)
