@<TRIPOS>MOLECULE
NONAME
46 47 1 0 0 
SMALL
USER_CHARGES


@<TRIPOS>ATOM
  1 O        0.2640     0.4430    -0.1080 O.2   1 <1>  -0.5700 
  2 C        0.6940     1.5790    -0.1740 C.2   1 <1>   0.7800 
  3 O        1.9900     1.8080     0.0400 O.3   1 <1>  -0.4300 
  4 N       -0.1060     2.6540    -0.4540 N.am  1 <1>  -0.6600 
  5 C        2.8730     0.7490     0.3290 C.3   1 <1>   0.1200 
  6 C        0.3770     4.0680    -0.4690 C.3   1 <1>   0.1400 
  7 C       -1.5740     2.5090    -0.6830 C.3   1 <1>   0.1400 
  8 C        4.2690     1.3340     0.5200 C.3   1 <1>  -0.2400 
  9 C       -0.4160     4.9170     0.5350 C.3   1 <1>   0.1400 
 10 C       -2.3760     3.3730     0.3050 C.3   1 <1>   0.1400 
 11 N       -1.8890     4.7890     0.2980 N.am  1 <1>  -0.6600 
 12 C       -2.6440     5.8540    -0.1480 C.2   1 <1>   0.5440 
 13 O       -2.0690     6.8400    -0.5720 O.2   1 <1>  -0.5700 
 14 C       -4.0950     5.8290    -0.1420 C.ar  1 <1>   0.0860 
 15 C       -4.8230     6.2340    -1.2600 C.ar  1 <1>  -0.1500 
 16 C       -4.8180     5.4120     0.9780 C.ar  1 <1>  -0.1500 
 17 C       -6.2050     6.2030    -1.2720 C.ar  1 <1>  -0.1500 
 18 C       -6.2000     5.3780     0.9760 C.ar  1 <1>  -0.1500 
 19 C       -6.9040     5.7660    -0.1580 C.ar  1 <1>   0.0820 
 20 O       -8.2590     5.7630    -0.2350 O.3   1 <1>  -0.2320 
 21 C       -9.1200     4.9630     0.3940 C.2   1 <1>   0.6590 
 22 O       -8.7930     4.0430     1.0980 O.2   1 <1>  -0.5700 
 23 C      -10.5870     5.2820     0.1620 C.3   1 <1>  -0.0990 
 24 C      -11.0420     4.9890    -1.2780 C.3   1 <1>  -0.2400 
 25 H        2.8530     0.0550    -0.4950 H     1 <1>   0.0800 
 26 H        2.5330     0.2560     1.2250 H     1 <1>   0.0800 
 27 H        0.2460     4.4770    -1.4550 H     1 <1>   0.0800 
 28 H        1.4230     4.1200    -0.2260 H     1 <1>   0.0800 
 29 H       -1.8740     1.4800    -0.5770 H     1 <1>   0.0800 
 30 H       -1.8030     2.8160    -1.6880 H     1 <1>   0.0800 
 31 H        4.5880     1.8310    -0.3780 H     1 <1>   0.0800 
 32 H        4.9640     0.5450     0.7420 H     1 <1>   0.0800 
 33 H        4.2680     2.0310     1.3390 H     1 <1>   0.0800 
 34 H       -0.1060     5.9440     0.4550 H     1 <1>   0.0800 
 35 H       -0.1910     4.5860     1.5340 H     1 <1>   0.0800 
 36 H       -2.2690     2.9680     1.2960 H     1 <1>   0.0800 
 37 H       -3.4160     3.3240     0.0370 H     1 <1>   0.0800 
 38 H       -4.2860     6.5790    -2.1280 H     1 <1>   0.1500 
 39 H       -4.2810     5.1170     1.8630 H     1 <1>   0.1500 
 40 H       -6.7450     6.5200    -2.1460 H     1 <1>   0.1500 
 41 H       -6.7190     5.0570     1.8620 H     1 <1>   0.1500 
 42 H      -10.7510     6.3190     0.3900 H     1 <1>   0.0800 
 43 H      -11.1750     4.6960     0.8450 H     1 <1>   0.0800 
 44 H      -10.4830     5.5830    -1.9790 H     1 <1>   0.0800 
 45 H      -12.0870     5.2190    -1.3890 H     1 <1>   0.0800 
 46 H      -10.8940     3.9480    -1.5100 H     1 <1>   0.0800 
@<TRIPOS>BOND
  1   1   2  2   
  2   2   3  1   
  3   2   4  am  
  4   3   5  1   
  5   4   6  1   
  6   4   7  1   
  7   5   8  1   
  8   5  25  1   
  9   5  26  1   
 10   6   9  1   
 11   6  27  1   
 12   6  28  1   
 13   7  10  1   
 14   7  29  1   
 15   7  30  1   
 16   8  31  1   
 17   8  32  1   
 18   8  33  1   
 19   9  11  1   
 20   9  34  1   
 21   9  35  1   
 22  10  11  1   
 23  10  36  1   
 24  10  37  1   
 25  11  12  am  
 26  12  13  2   
 27  12  14  1   
 28  14  15  ar  
 29  14  16  ar  
 30  15  17  ar  
 31  15  38  1   
 32  16  18  ar  
 33  16  39  1   
 34  17  19  ar  
 35  17  40  1   
 36  18  19  ar  
 37  18  41  1   
 38  19  20  1   
 39  20  21  1   
 40  21  22  2   
 41  21  23  1   
 42  23  24  1   
 43  23  42  1   
 44  23  43  1   
 45  24  44  1   
 46  24  45  1   
 47  24  46  1   
@<TRIPOS>SUBSTRUCTURE
  1 ****  10 GROUP 4 **** **** 0

# MOE 2024.06 (io_trps.svl 2023.06)
