@<TRIPOS>MOLECULE
NONAME
39 41 1 0 0 
SMALL
USER_CHARGES


@<TRIPOS>ATOM
  1 F       -3.5900    -4.2220     0.9570 F     1 <1>  -0.1900 
  2 C       -2.7050    -4.5670     0.0620 C.ar  1 <1>   0.1900 
  3 C       -1.3670    -4.5120     0.4040 C.ar  1 <1>  -0.1500 
  4 C       -3.1370    -4.9720    -1.1840 C.ar  1 <1>  -0.1500 
  5 C       -0.4110    -4.8800    -0.5390 C.ar  1 <1>  -0.1440 
  6 C       -2.1860    -5.3350    -2.1220 C.ar  1 <1>  -0.1500 
  7 C       -0.8380    -5.2880    -1.7990 C.ar  1 <1>  -0.1500 
  8 C        1.0860    -4.8650    -0.2540 C.3   1 <1>   0.5660 
  9 N        1.3240    -5.4100     1.1000 N.4   1 <1>  -0.9060 
 10 C        1.7410    -3.4800    -0.4110 C.3   1 <1>  -0.0800 
 11 C        2.7720    -5.6010     1.3730 C.3   1 <1>   0.3430 
 12 C        3.2490    -3.6230    -0.1310 C.3   1 <1>   0.2800 
 13 C        1.1060    -2.3470     0.4330 C.3   1 <1>  -0.1600 
 14 C        3.5050    -4.2660     1.2410 C.3   1 <1>  -0.1600 
 15 O        3.7470    -4.5020    -1.0670 O.3   1 <1>  -0.6800 
 16 C        3.9850    -2.2870    -0.3100 C.3   1 <1>  -0.1600 
 17 C        1.8550    -1.0230     0.2300 C.3   1 <1>  -0.1600 
 18 C        3.3550    -1.1580     0.5210 C.3   1 <1>  -0.1600 
 19 H       -1.1160    -4.1760     1.3930 H     1 <1>   0.1500 
 20 H       -4.1880    -5.0000    -1.4110 H     1 <1>   0.1500 
 21 H       -2.4980    -5.6520    -3.1040 H     1 <1>   0.1500 
 22 H       -0.1240    -5.5750    -2.5540 H     1 <1>   0.1500 
 23 H        1.5580    -5.5230    -0.9670 H     1 <1>   0.0800 
 24 H        0.8150    -6.2980     1.1660 H     1 <1>   0.4500 
 25 H        0.9120    -4.7630     1.7760 H     1 <1>   0.4500 
 26 H        1.6280    -3.1930    -1.4430 H     1 <1>   0.0800 
 27 H        3.1850    -6.3000     0.6620 H     1 <1>   0.0800 
 28 H        2.9160    -6.0010     2.3650 H     1 <1>   0.0800 
 29 H        1.1110    -2.5910     1.4800 H     1 <1>   0.0800 
 30 H        0.0820    -2.1950     0.1340 H     1 <1>   0.0800 
 31 H        4.5610    -4.4260     1.3730 H     1 <1>   0.0800 
 32 H        3.1900    -3.6120     2.0330 H     1 <1>   0.0800 
 33 H        4.6710    -4.2600    -1.2910 H     1 <1>   0.4000 
 34 H        3.9430    -1.9960    -1.3470 H     1 <1>   0.0800 
 35 H        5.0200    -2.3890    -0.0330 H     1 <1>   0.0800 
 36 H        1.4320    -0.2660     0.8710 H     1 <1>   0.0800 
 37 H        1.7220    -0.6910    -0.7870 H     1 <1>   0.0800 
 38 H        3.8450    -0.2280     0.2870 H     1 <1>   0.0800 
 39 H        3.5040    -1.3400     1.5710 H     1 <1>   0.0800 
@<TRIPOS>BOND
  1   1   2  1   
  2   2   3  ar  
  3   2   4  ar  
  4   3   5  ar  
  5   3  19  1   
  6   4   6  ar  
  7   4  20  1   
  8   5   7  ar  
  9   5   8  1   
 10   6   7  ar  
 11   6  21  1   
 12   7  22  1   
 13   8   9  1   
 14   8  10  1   
 15   8  23  1   
 16   9  11  1   
 17   9  24  1   
 18   9  25  1   
 19  10  12  1   
 20  10  13  1   
 21  10  26  1   
 22  11  14  1   
 23  11  27  1   
 24  11  28  1   
 25  12  14  1   
 26  12  15  1   
 27  12  16  1   
 28  13  17  1   
 29  13  29  1   
 30  13  30  1   
 31  14  31  1   
 32  14  32  1   
 33  15  33  1   
 34  16  18  1   
 35  16  34  1   
 36  16  35  1   
 37  17  18  1   
 38  17  36  1   
 39  17  37  1   
 40  18  38  1   
 41  18  39  1   
@<TRIPOS>SUBSTRUCTURE
  1 ****   8 GROUP 4 **** **** 0

# MOE 2024.06 (io_trps.svl 2023.06)
