@<TRIPOS>MOLECULE
NONAME
48 49 1 0 0 
SMALL
USER_CHARGES


@<TRIPOS>ATOM
  1 O       -0.7310    -0.0260    -0.5330 O.3   1 <1>  -0.5600 
  2 C       -0.7610     0.9100     0.5050 C.3   1 <1>   0.1200 
  3 C       -1.8500    -0.8610    -0.6070 C.3   1 <1>   0.1200 
  4 C       -1.9880     1.8310     0.3560 C.3   1 <1>   0.3430 
  5 C       -3.1290    -0.0240    -0.8050 C.3   1 <1>   0.3430 
  6 N       -3.2660     1.0420     0.2520 N.4   1 <1>  -0.9590 
  7 C       -4.4230     1.9460     0.0060 C.3   1 <1>   0.3430 
  8 C       -5.7420     1.2040     0.2350 C.3   1 <1>  -0.1600 
  9 C       -6.9380     2.1560     0.0960 C.3   1 <1>  -0.1600 
 10 C       -8.2600     1.4100     0.3250 C.3   1 <1>  -0.1600 
 11 C       -9.4650     2.3420     0.1930 C.3   1 <1>   0.1200 
 12 O      -10.6260     1.5780     0.4120 O.3   1 <1>  -0.3630 
 13 C      -11.8600     2.1400     0.3600 C.ar  1 <1>   0.0820 
 14 C      -12.0930     3.4860     0.0910 C.ar  1 <1>  -0.1500 
 15 C      -12.9360     1.3020     0.5900 C.ar  1 <1>  -0.1500 
 16 C      -13.3860     3.9870     0.0540 C.ar  1 <1>  -0.1440 
 17 C      -14.2260     1.7950     0.5550 C.ar  1 <1>  -0.1500 
 18 C      -14.4620     3.1360     0.2880 C.ar  1 <1>  -0.1440 
 19 C      -13.5980     5.4650    -0.2430 C.3   1 <1>  -0.0970 
 20 C      -15.8980     3.6400     0.2570 C.3   1 <1>  -0.0970 
 21 H        0.1450     1.4880     0.4490 H     1 <1>   0.0800 
 22 H       -0.7750     0.3860     1.4450 H     1 <1>   0.0800 
 23 H       -1.9040    -1.4510     0.2910 H     1 <1>   0.0800 
 24 H       -1.7070    -1.5240    -1.4430 H     1 <1>   0.0800 
 25 H       -1.8540     2.4270    -0.5320 H     1 <1>   0.0800 
 26 H       -2.0330     2.5000     1.2000 H     1 <1>   0.0800 
 27 H       -3.9840    -0.6790    -0.7850 H     1 <1>   0.0800 
 28 H       -3.0850     0.4330    -1.7800 H     1 <1>   0.0800 
 29 H       -3.4110     0.5700     1.1540 H     1 <1>   0.4500 
 30 H       -4.3870     2.3300    -1.0010 H     1 <1>   0.0800 
 31 H       -4.3770     2.7830     0.6850 H     1 <1>   0.0800 
 32 H       -5.7510     0.7810     1.2250 H     1 <1>   0.0800 
 33 H       -5.8520     0.4120    -0.4840 H     1 <1>   0.0800 
 34 H       -6.9460     2.5910    -0.8910 H     1 <1>   0.0800 
 35 H       -6.8560     2.9550     0.8140 H     1 <1>   0.0800 
 36 H       -8.2670     0.9790     1.3120 H     1 <1>   0.0800 
 37 H       -8.3600     0.6170    -0.3970 H     1 <1>   0.0800 
 38 H       -9.5210     2.7620    -0.7970 H     1 <1>   0.0800 
 39 H       -9.4310     3.1240     0.9320 H     1 <1>   0.0800 
 40 H      -11.2750     4.1540    -0.0910 H     1 <1>   0.1500 
 41 H      -12.7560     0.2630     0.7980 H     1 <1>   0.1500 
 42 H      -15.0470     1.1250     0.7370 H     1 <1>   0.1500 
 43 H      -12.6610     5.9690    -0.3980 H     1 <1>   0.0800 
 44 H      -14.1020     5.9370     0.5800 H     1 <1>   0.0800 
 45 H      -14.1920     5.5800    -1.1320 H     1 <1>   0.0800 
 46 H      -16.0350     4.4040     1.0010 H     1 <1>   0.0800 
 47 H      -16.5910     2.8430     0.4600 H     1 <1>   0.0800 
 48 H      -16.1250     4.0460    -0.7120 H     1 <1>   0.0800 
@<TRIPOS>BOND
  1   1   2  1   
  2   1   3  1   
  3   2   4  1   
  4   2  21  1   
  5   2  22  1   
  6   3   5  1   
  7   3  23  1   
  8   3  24  1   
  9   4   6  1   
 10   4  25  1   
 11   4  26  1   
 12   5   6  1   
 13   5  27  1   
 14   5  28  1   
 15   6   7  1   
 16   6  29  1   
 17   7   8  1   
 18   7  30  1   
 19   7  31  1   
 20   8   9  1   
 21   8  32  1   
 22   8  33  1   
 23   9  10  1   
 24   9  34  1   
 25   9  35  1   
 26  10  11  1   
 27  10  36  1   
 28  10  37  1   
 29  11  12  1   
 30  11  38  1   
 31  11  39  1   
 32  12  13  1   
 33  13  14  ar  
 34  13  15  ar  
 35  14  16  ar  
 36  14  40  1   
 37  15  17  ar  
 38  15  41  1   
 39  16  18  ar  
 40  16  19  1   
 41  17  18  ar  
 42  17  42  1   
 43  18  20  1   
 44  19  43  1   
 45  19  44  1   
 46  19  45  1   
 47  20  46  1   
 48  20  47  1   
 49  20  48  1   
@<TRIPOS>SUBSTRUCTURE
  1 ****  10 GROUP 4 **** **** 0

# MOE 2024.06 (io_trps.svl 2023.06)
