@<TRIPOS>MOLECULE
NONAME
44 46 1 0 0 
SMALL
USER_CHARGES


@<TRIPOS>ATOM
  1 O        0.0670    -0.4610    -0.7550 O.3   1 <1>  -0.5600 
  2 C        1.2590    -1.1700    -0.9280 C.3   1 <1>   0.1200 
  3 C       -1.0700    -1.2420    -0.9800 C.3   1 <1>   0.1200 
  4 C        1.3180    -2.3670     0.0360 C.3   1 <1>   0.1100 
  5 C       -1.0950    -2.4440    -0.0190 C.3   1 <1>   0.1100 
  6 N        0.1410    -3.2530    -0.1280 N.3   1 <1>  -0.8100 
  7 C        0.1420    -4.3770     0.8400 C.3   1 <1>   0.5340 
  8 C        1.3760    -5.2070     0.6860 C.1   1 <1>  -0.2000 
  9 C       -1.0830    -5.2740     0.6460 C.ar  1 <1>  -0.1440 
 10 C        2.3550    -5.8730     0.5590 C.1   1 <1>  -0.0730 
 11 C       -1.3690    -5.8230    -0.5980 C.ar  1 <1>  -0.1500 
 12 C       -1.9290    -5.5510     1.7120 C.ar  1 <1>  -0.1500 
 13 C        3.5240    -6.6830     0.3940 C.ar  1 <1>   0.0730 
 14 C       -2.4770    -6.6310    -0.7790 C.ar  1 <1>  -0.1500 
 15 C       -3.0380    -6.3590     1.5340 C.ar  1 <1>  -0.1500 
 16 C        3.4250    -7.9660    -0.1260 C.ar  1 <1>  -0.1500 
 17 C        4.7780    -6.2030     0.7470 C.ar  1 <1>  -0.1500 
 18 C       -3.3210    -6.9040     0.2930 C.ar  1 <1>   0.0820 
 19 C        4.5510    -8.7540    -0.2900 C.ar  1 <1>  -0.1500 
 20 C        5.9080    -6.9850     0.5850 C.ar  1 <1>  -0.1500 
 21 O       -4.4280    -7.6840     0.2050 O.3   1 <1>  -0.3630 
 22 C        5.7950    -8.2630     0.0650 C.ar  1 <1>  -0.1500 
 23 C       -4.7910    -8.3040    -1.0080 C.3   1 <1>   0.0400 
 24 H        2.0740    -0.4950    -0.7360 H     1 <1>   0.0800 
 25 H        1.3180    -1.5060    -1.9490 H     1 <1>   0.0800 
 26 H       -1.0630    -1.5780    -2.0020 H     1 <1>   0.0800 
 27 H       -1.9330    -0.6210    -0.8230 H     1 <1>   0.0800 
 28 H        1.3670    -1.9980     1.0470 H     1 <1>   0.0800 
 29 H        2.2220    -2.9140    -0.1670 H     1 <1>   0.0800 
 30 H       -1.9530    -3.0480    -0.2610 H     1 <1>   0.0800 
 31 H       -1.2140    -2.0810     0.9880 H     1 <1>   0.0800 
 32 H        0.1300    -3.9740     1.8380 H     1 <1>   0.0800 
 33 H       -0.7170    -5.6100    -1.4290 H     1 <1>   0.1500 
 34 H       -1.7290    -5.1420     2.6870 H     1 <1>   0.1500 
 35 H       -2.6630    -7.0360    -1.7550 H     1 <1>   0.1500 
 36 H       -3.6930    -6.5740     2.3580 H     1 <1>   0.1500 
 37 H        2.4580    -8.3480    -0.4020 H     1 <1>   0.1500 
 38 H        4.8680    -5.2100     1.1510 H     1 <1>   0.1500 
 39 H        4.4590    -9.7470    -0.6940 H     1 <1>   0.1500 
 40 H        6.8740    -6.6010     0.8630 H     1 <1>   0.1500 
 41 H        6.6720    -8.8730    -0.0620 H     1 <1>   0.1500 
 42 H       -5.6880    -8.8710    -0.8370 H     1 <1>   0.0800 
 43 H       -3.9960    -8.9600    -1.3160 H     1 <1>   0.0800 
 44 H       -4.9740    -7.5440    -1.7470 H     1 <1>   0.0800 
@<TRIPOS>BOND
  1   1   2  1   
  2   1   3  1   
  3   2   4  1   
  4   2  24  1   
  5   2  25  1   
  6   3   5  1   
  7   3  26  1   
  8   3  27  1   
  9   4   6  1   
 10   4  28  1   
 11   4  29  1   
 12   5   6  1   
 13   5  30  1   
 14   5  31  1   
 15   6   7  1   
 16   7   8  1   
 17   7   9  1   
 18   7  32  1   
 19   8  10  3   
 20   9  11  ar  
 21   9  12  ar  
 22  10  13  1   
 23  11  14  ar  
 24  11  33  1   
 25  12  15  ar  
 26  12  34  1   
 27  13  16  ar  
 28  13  17  ar  
 29  14  18  ar  
 30  14  35  1   
 31  15  18  ar  
 32  15  36  1   
 33  16  19  ar  
 34  16  37  1   
 35  17  20  ar  
 36  17  38  1   
 37  18  21  1   
 38  19  22  ar  
 39  19  39  1   
 40  20  22  ar  
 41  20  40  1   
 42  21  23  1   
 43  22  41  1   
 44  23  42  1   
 45  23  43  1   
 46  23  44  1   
@<TRIPOS>SUBSTRUCTURE
  1 ****   8 GROUP 4 **** **** 0

# MOE 2024.06 (io_trps.svl 2023.06)
