@<TRIPOS>MOLECULE
NONAME
51 53 1 0 0 
SMALL
USER_CHARGES


@<TRIPOS>ATOM
  1 S        0.2230    -1.3440     0.8330 S.o2  1 <1>   1.4470 
  2 O        1.0690    -0.7310    -0.1710 O.2   1 <1>  -0.6500 
  3 O        0.3220    -0.8180     2.1750 O.2   1 <1>  -0.6500 
  4 N        0.7590    -2.9590     0.9610 N.am  1 <1>  -0.8490 
  5 C       -1.5200    -1.4690     0.3540 C.ar  1 <1>  -0.0090 
  6 C        0.8150    -3.7050    -0.3100 C.3   1 <1>   0.1960 
  7 C        2.0510    -3.0630     1.6620 C.3   1 <1>   0.1960 
  8 C       -1.9180    -1.5810    -0.9780 C.ar  1 <1>   0.0830 
  9 C       -2.5080    -1.4750     1.3340 C.ar  1 <1>  -0.1500 
 10 C        1.9560    -3.2360    -1.2490 C.3   1 <1>   0.3430 
 11 C        3.2210    -2.5210     0.8080 C.3   1 <1>   0.3430 
 12 O       -0.9610    -1.5930    -1.9430 O.3   1 <1>  -0.3630 
 13 C       -3.2670    -1.6900    -1.3030 C.ar  1 <1>  -0.1500 
 14 C       -3.8490    -1.5810     1.0140 C.ar  1 <1>  -0.1500 
 15 N        3.2990    -3.1650    -0.5600 N.4   1 <1>  -0.9590 
 16 C       -1.2590    -1.1280    -3.2450 C.3   1 <1>   0.0400 
 17 C       -4.2350    -1.6880    -0.3160 C.ar  1 <1>   0.0830 
 18 C        4.2730    -2.4340    -1.4140 C.3   1 <1>   0.4860 
 19 O       -5.5230    -1.7960    -0.7230 O.3   1 <1>  -0.3620 
 20 C        5.6480    -2.5310    -0.7790 C.ar  1 <1>  -0.1430 
 21 C       -6.5890    -1.7920     0.2000 C.3   1 <1>   0.0400 
 22 C        6.3610    -3.7210    -0.8260 C.ar  1 <1>  -0.1500 
 23 C        6.2030    -1.4280    -0.1380 C.ar  1 <1>  -0.1500 
 24 C        7.6010    -3.7790    -0.2190 C.ar  1 <1>   0.1900 
 25 C        7.4510    -1.5080     0.4620 C.ar  1 <1>  -0.1500 
 26 F        8.2620    -4.9030    -0.2570 F     1 <1>  -0.1900 
 27 C        8.1620    -2.6950     0.4270 C.ar  1 <1>  -0.1500 
 28 H       -0.1290    -3.6340    -0.8210 H     1 <1>   0.0800 
 29 H        0.9600    -4.7490    -0.0900 H     1 <1>   0.0800 
 30 H        2.2390    -4.0940     1.9070 H     1 <1>   0.0800 
 31 H        2.0090    -2.5250     2.5950 H     1 <1>   0.0800 
 32 H       -2.2240    -1.3940     2.3710 H     1 <1>   0.1500 
 33 H        1.6950    -2.2650    -1.6370 H     1 <1>   0.0800 
 34 H        2.0120    -3.9070    -2.0900 H     1 <1>   0.0800 
 35 H        4.1450    -2.6810     1.3390 H     1 <1>   0.0800 
 36 H        3.0940    -1.4560     0.7000 H     1 <1>   0.0800 
 37 H       -3.5980    -1.7860    -2.3190 H     1 <1>   0.1500 
 38 H       -4.5730    -1.5780     1.8080 H     1 <1>   0.1500 
 39 H        3.6600    -4.1170    -0.4280 H     1 <1>   0.4500 
 40 H       -0.3350    -0.9940    -3.7770 H     1 <1>   0.0800 
 41 H       -1.7750    -0.1850    -3.1730 H     1 <1>   0.0800 
 42 H       -1.8680    -1.8560    -3.7510 H     1 <1>   0.0800 
 43 H        3.9800    -1.4000    -1.5050 H     1 <1>   0.0800 
 44 H        4.3050    -2.8680    -2.4000 H     1 <1>   0.0800 
 45 H       -7.5080    -1.8810    -0.3510 H     1 <1>   0.0800 
 46 H       -6.5790    -0.8630     0.7430 H     1 <1>   0.0800 
 47 H       -6.4800    -2.6300     0.8650 H     1 <1>   0.0800 
 48 H        5.9870    -4.6000    -1.3210 H     1 <1>   0.1500 
 49 H        5.6740    -0.4890    -0.1000 H     1 <1>   0.1500 
 50 H        7.8720    -0.6470     0.9550 H     1 <1>   0.1500 
 51 H        9.1310    -2.7810     0.8860 H     1 <1>   0.1500 
@<TRIPOS>BOND
  1   1   2  2   
  2   1   3  2   
  3   1   4  am  
  4   1   5  1   
  5   4   6  1   
  6   4   7  1   
  7   5   8  ar  
  8   5   9  ar  
  9   6  10  1   
 10   6  28  1   
 11   6  29  1   
 12   7  11  1   
 13   7  30  1   
 14   7  31  1   
 15   8  12  1   
 16   8  13  ar  
 17   9  14  ar  
 18   9  32  1   
 19  10  15  1   
 20  10  33  1   
 21  10  34  1   
 22  11  15  1   
 23  11  35  1   
 24  11  36  1   
 25  12  16  1   
 26  13  17  ar  
 27  13  37  1   
 28  14  17  ar  
 29  14  38  1   
 30  15  18  1   
 31  15  39  1   
 32  16  40  1   
 33  16  41  1   
 34  16  42  1   
 35  17  19  1   
 36  18  20  1   
 37  18  43  1   
 38  18  44  1   
 39  19  21  1   
 40  20  22  ar  
 41  20  23  ar  
 42  21  45  1   
 43  21  46  1   
 44  21  47  1   
 45  22  24  ar  
 46  22  48  1   
 47  23  25  ar  
 48  23  49  1   
 49  24  26  1   
 50  24  27  ar  
 51  25  27  ar  
 52  25  50  1   
 53  27  51  1   
@<TRIPOS>SUBSTRUCTURE
  1 ****   4 GROUP 4 **** **** 0

# MOE 2024.06 (io_trps.svl 2023.06)
