@<TRIPOS>MOLECULE
NONAME
43 45 1 0 0 
SMALL
USER_CHARGES


@<TRIPOS>ATOM
  1 S       -1.6510     0.3970    -1.8120 S.3   1 <1>  -0.0800 
  2 C       -1.9030     1.0620    -0.2030 C.2   1 <1>  -0.1400 
  3 C       -0.2620     1.4320    -2.0730 C.2   1 <1>  -0.1100 
  4 C       -0.9720     1.9990     0.0720 C.2   1 <1>  -0.1810 
  5 C       -3.0760     0.4990     0.5830 C.3   1 <1>   0.2900 
  6 C       -0.0410     2.2070    -0.9970 C.2   1 <1>  -0.1500 
  7 C       -0.8280     2.8090     1.3480 C.3   1 <1>  -0.0590 
  8 N       -4.3550     0.7930    -0.0960 N.3   1 <1>  -0.8100 
  9 C       -4.5830     2.2410    -0.2850 C.3   1 <1>   0.1100 
 10 C       -5.4960     0.1380     0.5660 C.3   1 <1>   0.1100 
 11 C       -5.8690     2.4930    -1.0960 C.3   1 <1>   0.3430 
 12 C       -6.7970     0.3640    -0.2300 C.3   1 <1>   0.3430 
 13 N       -7.0620     1.8270    -0.4710 N.4   1 <1>  -0.9590 
 14 C       -8.2930     2.0340    -1.2760 C.3   1 <1>   0.4860 
 15 C       -9.4740     1.5080    -0.4850 C.ar  1 <1>  -0.1430 
 16 C      -10.0690     0.3040    -0.8360 C.ar  1 <1>  -0.1500 
 17 C       -9.9650     2.2210     0.6010 C.ar  1 <1>  -0.1500 
 18 C      -11.1330    -0.1880    -0.1010 C.ar  1 <1>  -0.1500 
 19 C      -11.0280     1.7270     1.3350 C.ar  1 <1>  -0.1500 
 20 C      -11.6110     0.5220     0.9860 C.ar  1 <1>  -0.1500 
 21 H        0.2480     1.3480    -3.0160 H     1 <1>   0.1500 
 22 H       -3.0850     0.9110     1.5770 H     1 <1>   0.0800 
 23 H       -2.9480    -0.5670     0.6620 H     1 <1>   0.0800 
 24 H        0.7540     2.9270    -0.9080 H     1 <1>   0.1500 
 25 H       -1.5960     2.5620     2.0560 H     1 <1>   0.0800 
 26 H       -0.8900     3.8590     1.1240 H     1 <1>   0.0800 
 27 H        0.1280     2.6090     1.7980 H     1 <1>   0.0800 
 28 H       -3.7590     2.6710    -0.8290 H     1 <1>   0.0800 
 29 H       -4.6440     2.7360     0.6690 H     1 <1>   0.0800 
 30 H       -5.6120     0.5140     1.5680 H     1 <1>   0.0800 
 31 H       -5.3110    -0.9210     0.6270 H     1 <1>   0.0800 
 32 H       -5.7150     2.1050    -2.0900 H     1 <1>   0.0800 
 33 H       -6.0340     3.5550    -1.1740 H     1 <1>   0.0800 
 34 H       -7.6210    -0.0760     0.3080 H     1 <1>   0.0800 
 35 H       -6.7060    -0.1480    -1.1740 H     1 <1>   0.0800 
 36 H       -7.2290     2.2500     0.4490 H     1 <1>   0.4500 
 37 H       -8.2170     1.5140    -2.2170 H     1 <1>   0.0800 
 38 H       -8.4380     3.0830    -1.4740 H     1 <1>   0.0800 
 39 H       -9.7190    -0.2640    -1.6820 H     1 <1>   0.1500 
 40 H       -9.5350     3.1650     0.8880 H     1 <1>   0.1500 
 41 H      -11.5960    -1.1220    -0.3730 H     1 <1>   0.1500 
 42 H      -11.4100     2.2790     2.1780 H     1 <1>   0.1500 
 43 H      -12.4390     0.1380     1.5580 H     1 <1>   0.1500 
@<TRIPOS>BOND
  1   1   2  1   
  2   1   3  1   
  3   2   4  2   
  4   2   5  1   
  5   3   6  2   
  6   3  21  1   
  7   4   6  1   
  8   4   7  1   
  9   5   8  1   
 10   5  22  1   
 11   5  23  1   
 12   6  24  1   
 13   7  25  1   
 14   7  26  1   
 15   7  27  1   
 16   8   9  1   
 17   8  10  1   
 18   9  11  1   
 19   9  28  1   
 20   9  29  1   
 21  10  12  1   
 22  10  30  1   
 23  10  31  1   
 24  11  13  1   
 25  11  32  1   
 26  11  33  1   
 27  12  13  1   
 28  12  34  1   
 29  12  35  1   
 30  13  14  1   
 31  13  36  1   
 32  14  15  1   
 33  14  37  1   
 34  14  38  1   
 35  15  16  ar  
 36  15  17  ar  
 37  16  18  ar  
 38  16  39  1   
 39  17  19  ar  
 40  17  40  1   
 41  18  20  ar  
 42  18  41  1   
 43  19  20  ar  
 44  19  42  1   
 45  20  43  1   
@<TRIPOS>SUBSTRUCTURE
  1 ****  12 GROUP 4 **** **** 0

# MOE 2024.06 (io_trps.svl 2023.06)
