@<TRIPOS>MOLECULE
NONAME
33 35 1 0 0 
SMALL
USER_CHARGES


@<TRIPOS>ATOM
  1 S       -8.0080    -6.4160    -1.6250 S.3   1 <1>  -0.1570 
  2 C       -7.5630    -4.7150    -1.3780 C.2   1 <1>   0.2420 
  3 C       -9.3860    -6.2310    -0.5070 C.ar  1 <1>   0.1020 
  4 N       -6.6080    -3.9770    -1.8320 N.2   1 <1>  -0.3380 
  5 N       -8.4030    -4.1170    -0.5350 N.pl3 1 <1>   0.3260 
  6 C       -9.4400    -4.9340    -0.0220 C.ar  1 <1>  -0.0230 
  7 C      -10.2930    -7.2060    -0.1460 C.ar  1 <1>  -0.1500 
  8 N       -6.8030    -2.7760    -1.2670 N.2   1 <1>  -0.3380 
  9 C       -7.8460    -2.8950    -0.5120 C.2   1 <1>   0.2420 
 10 C      -10.4500    -4.5920     0.8680 C.ar  1 <1>  -0.1500 
 11 C      -11.2960    -6.8550     0.7440 C.ar  1 <1>  -0.1500 
 12 S       -8.4660    -1.5530     0.5100 S.3   1 <1>  -0.2860 
 13 C      -11.3720    -5.5590     1.2440 C.ar  1 <1>  -0.1500 
 14 C       -7.5720    -0.0330    -0.0730 C.3   1 <1>   0.0700 
 15 C       -6.2390     0.1210     0.6760 C.3   1 <1>   0.3430 
 16 N       -5.2020    -0.8560     0.2150 N.4   1 <1>  -0.9590 
 17 C       -4.1670    -1.1070     1.2610 C.3   1 <1>   0.2630 
 18 C       -4.5690    -0.4520    -1.0800 C.3   1 <1>   0.2630 
 19 H      -10.2170    -8.2030    -0.5440 H     1 <1>   0.1500 
 20 H      -10.5240    -3.5940     1.2640 H     1 <1>   0.1500 
 21 H      -12.0230    -7.5890     1.0490 H     1 <1>   0.1500 
 22 H      -12.1590    -5.3040     1.9340 H     1 <1>   0.1500 
 23 H       -8.2210     0.7940     0.1550 H     1 <1>   0.0800 
 24 H       -7.4460    -0.1000    -1.1390 H     1 <1>   0.0800 
 25 H       -6.4290    -0.0200     1.7280 H     1 <1>   0.0800 
 26 H       -5.8680     1.1230     0.5410 H     1 <1>   0.0800 
 27 H       -5.6900    -1.7540     0.0200 H     1 <1>   0.4500 
 28 H       -3.6250    -0.2010     1.4790 H     1 <1>   0.0800 
 29 H       -3.4690    -1.8550     0.9200 H     1 <1>   0.0800 
 30 H       -4.6310    -1.4610     2.1670 H     1 <1>   0.0800 
 31 H       -4.0520     0.4870    -0.9720 H     1 <1>   0.0800 
 32 H       -5.3200    -0.3540    -1.8480 H     1 <1>   0.0800 
 33 H       -3.8640    -1.2030    -1.3970 H     1 <1>   0.0800 
@<TRIPOS>BOND
  1   1   2  1   
  2   1   3  1   
  3   2   4  2   
  4   2   5  1   
  5   3   6  ar  
  6   3   7  ar  
  7   4   8  1   
  8   5   6  1   
  9   5   9  1   
 10   6  10  ar  
 11   7  11  ar  
 12   7  19  1   
 13   8   9  2   
 14   9  12  1   
 15  10  13  ar  
 16  10  20  1   
 17  11  13  ar  
 18  11  21  1   
 19  12  14  1   
 20  13  22  1   
 21  14  15  1   
 22  14  23  1   
 23  14  24  1   
 24  15  16  1   
 25  15  25  1   
 26  15  26  1   
 27  16  17  1   
 28  16  18  1   
 29  16  27  1   
 30  17  28  1   
 31  17  29  1   
 32  17  30  1   
 33  18  31  1   
 34  18  32  1   
 35  18  33  1   
@<TRIPOS>SUBSTRUCTURE
  1 ****   9 GROUP 4 **** **** 0

# MOE 2024.06 (io_trps.svl 2023.06)
