@<TRIPOS>MOLECULE
NONAME
37 39 1 0 0 
SMALL
USER_CHARGES


@<TRIPOS>ATOM
  1 F       -1.4120     0.7690     1.1840 F     1 <1>  -0.1900 
  2 C       -0.8960     1.8280     0.6180 C.ar  1 <1>   0.1900 
  3 C       -1.6120     2.4980    -0.3630 C.ar  1 <1>  -0.1440 
  4 C        0.3670     2.2240     1.0280 C.ar  1 <1>  -0.1500 
  5 C       -0.9840     3.5950    -0.9340 C.ar  1 <1>   0.1900 
  6 C       -3.0010     2.0430    -0.7900 C.3   1 <1>   0.2540 
  7 C        0.9570     3.3310     0.4380 C.ar  1 <1>  -0.1500 
  8 F       -1.5930     4.2690    -1.8740 F     1 <1>  -0.1900 
  9 C        0.2770     4.0220    -0.5530 C.ar  1 <1>  -0.1500 
 10 N       -4.0230     2.4980     0.1650 N.3   1 <1>  -0.8100 
 11 C       -5.3130     1.8170    -0.0910 C.3   1 <1>   0.1100 
 12 C       -4.2080     3.9710     0.1200 C.3   1 <1>   0.1100 
 13 C       -6.4110     2.2620     0.8920 C.3   1 <1>   0.2090 
 14 C       -5.3030     4.4620     1.0860 C.3   1 <1>   0.2090 
 15 N       -6.5900     3.7440     0.8330 N.pl3 1 <1>  -0.8380 
 16 C       -7.6660     4.3490     0.2190 C.ar  1 <1>   0.7200 
 17 N       -7.7480     5.6770     0.3100 N.ar  1 <1>  -0.6200 
 18 N       -8.5330     3.5590    -0.4150 N.ar  1 <1>  -0.6200 
 19 C       -8.7790     6.2400    -0.2700 C.ar  1 <1>   0.1600 
 20 C       -9.5530     4.1500    -0.9860 C.ar  1 <1>   0.1600 
 21 C       -9.7270     5.5110    -0.9430 C.ar  1 <1>  -0.1500 
 22 H        0.8760     1.6700     1.7960 H     1 <1>   0.1500 
 23 H       -3.0080     0.9670    -0.8280 H     1 <1>   0.0800 
 24 H       -3.2350     2.4040    -1.7770 H     1 <1>   0.0800 
 25 H        1.9380     3.6510     0.7470 H     1 <1>   0.1500 
 26 H        0.7170     4.8820    -1.0260 H     1 <1>   0.1500 
 27 H       -5.1790     0.7540     0.0060 H     1 <1>   0.0800 
 28 H       -5.6480     2.0250    -1.0930 H     1 <1>   0.0800 
 29 H       -4.4710     4.2760    -0.8790 H     1 <1>   0.0800 
 30 H       -3.2870     4.4580     0.3850 H     1 <1>   0.0800 
 31 H       -6.1210     1.9850     1.8900 H     1 <1>   0.0800 
 32 H       -7.3280     1.7470     0.6690 H     1 <1>   0.0800 
 33 H       -5.4170     5.5250     0.9750 H     1 <1>   0.0800 
 34 H       -4.9900     4.2730     2.0980 H     1 <1>   0.0800 
 35 H       -8.8690     7.3110    -0.2070 H     1 <1>   0.1500 
 36 H      -10.2690     3.5330    -1.5020 H     1 <1>   0.1500 
 37 H      -10.5670     5.9830    -1.4140 H     1 <1>   0.1500 
@<TRIPOS>BOND
  1   1   2  1   
  2   2   3  ar  
  3   2   4  ar  
  4   3   5  ar  
  5   3   6  1   
  6   4   7  ar  
  7   4  22  1   
  8   5   8  1   
  9   5   9  ar  
 10   6  10  1   
 11   6  23  1   
 12   6  24  1   
 13   7   9  ar  
 14   7  25  1   
 15   9  26  1   
 16  10  11  1   
 17  10  12  1   
 18  11  13  1   
 19  11  27  1   
 20  11  28  1   
 21  12  14  1   
 22  12  29  1   
 23  12  30  1   
 24  13  15  1   
 25  13  31  1   
 26  13  32  1   
 27  14  15  1   
 28  14  33  1   
 29  14  34  1   
 30  15  16  1   
 31  16  17  ar  
 32  16  18  ar  
 33  17  19  ar  
 34  18  20  ar  
 35  19  21  ar  
 36  19  35  1   
 37  20  21  ar  
 38  20  36  1   
 39  21  37  1   
@<TRIPOS>SUBSTRUCTURE
  1 ****  12 GROUP 4 **** **** 0

# MOE 2024.06 (io_trps.svl 2023.06)
