@<TRIPOS>MOLECULE
NONAME
30 31 1 0 0 
SMALL
USER_CHARGES


@<TRIPOS>ATOM
  1 S        0.2620    -0.0760     1.3950 S.3   1 <1>  -0.3710 
  2 C        1.3340     0.9860     0.5030 C.2   1 <1>   0.7320 
  3 C        0.9870    -1.5660     0.6230 C.3   1 <1>   0.0700 
  4 S        1.1260     2.7200     0.8240 S.3   1 <1>  -0.3710 
  5 N        2.1560     0.4530    -0.2830 N.2   1 <1>  -0.6960 
  6 C        2.0800    -1.0210    -0.3270 C.3   1 <1>   0.0860 
  7 C        2.4020     3.4600    -0.2810 C.3   1 <1>   0.2140 
  8 C        2.3680     4.9680    -0.1060 C.ar  1 <1>  -0.1440 
  9 C        3.3240     5.6110     0.6620 C.ar  1 <1>  -0.1500 
 10 C        1.3770     5.7210    -0.7140 C.ar  1 <1>  -0.1500 
 11 C        3.2900     6.9850     0.8130 C.ar  1 <1>  -0.1500 
 12 C        1.3470     7.0940    -0.5590 C.ar  1 <1>  -0.1500 
 13 C        2.3030     7.7660     0.2070 C.ar  1 <1>   0.0860 
 14 C        2.2840     9.2080     0.3760 C.2   1 <1>   0.6340 
 15 O        3.1100     9.8130     1.0300 O.2   1 <1>  -0.5700 
 16 O        1.3070     9.9000    -0.2210 O.3   1 <1>  -0.4300 
 17 C        1.2120    11.3060    -0.1070 C.3   1 <1>   0.0400 
 18 H        0.2070    -2.0830     0.0940 H     1 <1>   0.0800 
 19 H        1.3960    -2.1820     1.4040 H     1 <1>   0.0800 
 20 H        1.8670    -1.3300    -1.3360 H     1 <1>   0.0800 
 21 H        3.0360    -1.4290    -0.0480 H     1 <1>   0.0800 
 22 H        2.1630     3.1710    -1.2880 H     1 <1>   0.0800 
 23 H        3.3520     3.0430     0.0030 H     1 <1>   0.0800 
 24 H        4.0990     5.0440     1.1490 H     1 <1>   0.1500 
 25 H        0.6200     5.2350    -1.3070 H     1 <1>   0.1500 
 26 H        4.0420     7.4680     1.4140 H     1 <1>   0.1500 
 27 H        0.5650     7.6550    -1.0420 H     1 <1>   0.1500 
 28 H        0.3540    11.6360    -0.6660 H     1 <1>   0.0800 
 29 H        2.1080    11.7480    -0.5050 H     1 <1>   0.0800 
 30 H        1.1000    11.5630     0.9320 H     1 <1>   0.0800 
@<TRIPOS>BOND
  1   1   2  1   
  2   1   3  1   
  3   2   4  1   
  4   2   5  2   
  5   3   6  1   
  6   3  18  1   
  7   3  19  1   
  8   4   7  1   
  9   5   6  1   
 10   6  20  1   
 11   6  21  1   
 12   7   8  1   
 13   7  22  1   
 14   7  23  1   
 15   8   9  ar  
 16   8  10  ar  
 17   9  11  ar  
 18   9  24  1   
 19  10  12  ar  
 20  10  25  1   
 21  11  13  ar  
 22  11  26  1   
 23  12  13  ar  
 24  12  27  1   
 25  13  14  1   
 26  14  15  2   
 27  14  16  1   
 28  16  17  1   
 29  17  28  1   
 30  17  29  1   
 31  17  30  1   
@<TRIPOS>SUBSTRUCTURE
  1 ****   8 GROUP 4 **** **** 0

# MOE 2024.06 (io_trps.svl 2023.06)
