@<TRIPOS>MOLECULE
NONAME
31 33 1 0 0 
SMALL
USER_CHARGES


@<TRIPOS>ATOM
  1 O       -0.2870    -0.0230    -0.6680 O.2   1 <1>  -0.5700 
  2 C       -0.2260    -1.1400    -0.1800 C.2   1 <1>   0.7150 
  3 N        1.0160    -1.6510     0.1160 N.am  1 <1>  -0.5790 
  4 C       -1.4230    -1.9230     0.0890 C.2   1 <1>   0.3930 
  5 C        2.3080    -0.9810    -0.0990 C.3   1 <1>   0.0490 
  6 O       -1.3010    -3.1100     0.6110 O.3   1 <1>  -0.0190 
  7 N       -2.6720    -1.6580    -0.1000 N.2   1 <1>  -0.5650 
  8 C        3.4780    -1.8250    -0.4810 C.3   1 <1>  -0.2000 
  9 C        3.3960    -1.2290     0.8920 C.3   1 <1>  -0.2000 
 10 N       -2.4420    -3.6540     0.7800 N.2   1 <1>  -0.4100 
 11 C       -3.2820    -2.7730     0.3480 C.2   1 <1>   0.4620 
 12 C       -4.7280    -2.9330     0.3310 C.ar  1 <1>   0.0540 
 13 C       -5.5720    -1.9300    -0.1510 C.ar  1 <1>  -0.1500 
 14 C       -5.3330    -4.1010     0.7990 C.ar  1 <1>  -0.1500 
 15 C       -6.9490    -2.0770    -0.1700 C.ar  1 <1>  -0.1440 
 16 C       -6.7070    -4.2590     0.7870 C.ar  1 <1>  -0.1500 
 17 C       -7.5150    -3.2470     0.3020 C.ar  1 <1>  -0.1500 
 18 C       -7.8400    -0.9670    -0.7000 C.3   1 <1>  -0.0970 
 19 H        1.0800    -2.5840     0.5240 H     1 <1>   0.3700 
 20 H        2.2180     0.0040    -0.5320 H     1 <1>   0.1000 
 21 H        4.2020    -1.4210    -1.1670 H     1 <1>   0.1000 
 22 H        3.3430    -2.8860    -0.6000 H     1 <1>   0.1000 
 23 H        3.2050    -1.8740     1.7320 H     1 <1>   0.1000 
 24 H        4.0660    -0.4220     1.1340 H     1 <1>   0.1000 
 25 H       -5.1370    -1.0170    -0.5180 H     1 <1>   0.1500 
 26 H       -4.7210    -4.9000     1.1800 H     1 <1>   0.1500 
 27 H       -7.1490    -5.1690     1.1540 H     1 <1>   0.1500 
 28 H       -8.5840    -3.3740     0.2950 H     1 <1>   0.1500 
 29 H       -7.2610    -0.2310    -1.2290 H     1 <1>   0.0800 
 30 H       -8.3460    -0.4860     0.1170 H     1 <1>   0.0800 
 31 H       -8.5730    -1.3730    -1.3740 H     1 <1>   0.0800 
@<TRIPOS>BOND
  1   1   2  2   
  2   2   3  am  
  3   2   4  1   
  4   3   5  1   
  5   3  19  1   
  6   4   6  1   
  7   4   7  2   
  8   5   8  1   
  9   5   9  1   
 10   5  20  1   
 11   6  10  1   
 12   7  11  1   
 13   8   9  1   
 14   8  21  1   
 15   8  22  1   
 16   9  23  1   
 17   9  24  1   
 18  10  11  2   
 19  11  12  1   
 20  12  13  ar  
 21  12  14  ar  
 22  13  15  ar  
 23  13  25  1   
 24  14  16  ar  
 25  14  26  1   
 26  15  17  ar  
 27  15  18  1   
 28  16  17  ar  
 29  16  27  1   
 30  17  28  1   
 31  18  29  1   
 32  18  30  1   
 33  18  31  1   
@<TRIPOS>SUBSTRUCTURE
  1 ****   7 GROUP 4 **** **** 0

# MOE 2024.06 (io_trps.svl 2023.06)
