@<TRIPOS>MOLECULE
NONAME
44 45 1 0 0 
SMALL
USER_CHARGES


@<TRIPOS>ATOM
  1 S       -0.3750    -0.2320    -0.0560 S.3   1 <1>  -0.3310 
  2 C       -0.9150     1.4420    -0.3720 C.2   1 <1>  -0.0370 
  3 C        1.3880     0.1560     0.2960 C.3   1 <1>   0.0700 
  4 C       -2.1820     1.6720    -0.7420 C.2   1 <1>  -0.2880 
  5 C        0.2900     2.3440    -0.1170 C.3   1 <1>   0.3380 
  6 C        1.5800     1.5270    -0.3580 C.3   1 <1>   0.2200 
  7 C       -2.8650     3.0050    -1.0110 C.3   1 <1>  -0.0220 
  8 O        0.2830     3.4600    -0.9440 O.3   1 <1>  -0.6800 
  9 N        2.7860     2.2480     0.1360 N.am  1 <1>  -0.7300 
 10 C       -4.0960     3.1540    -0.1100 C.3   1 <1>  -0.1600 
 11 C        4.0750     1.8060     0.0300 C.2   1 <1>   0.5440 
 12 C       -4.8190     4.4940    -0.3470 C.3   1 <1>  -0.0990 
 13 O        4.2610     0.6640    -0.3390 O.2   1 <1>  -0.5700 
 14 C        5.1910     2.6780     0.3560 C.ar  1 <1>   0.0860 
 15 C       -6.0560     4.6920     0.5140 C.2   1 <1>   0.6590 
 16 C        5.1020     4.0700     0.2540 C.ar  1 <1>  -0.1500 
 17 C        6.4090     2.1480     0.7850 C.ar  1 <1>  -0.1500 
 18 O       -6.3830     3.9150     1.3740 O.2   1 <1>  -0.5700 
 19 O       -6.7550     5.7900     0.2540 O.3   1 <1>  -0.4300 
 20 C        6.1690     4.8880     0.5790 C.ar  1 <1>  -0.1500 
 21 C        7.4800     2.9600     1.1110 C.ar  1 <1>  -0.1500 
 22 C       -7.9270     6.1090     0.9750 C.3   1 <1>   0.0400 
 23 C        7.3610     4.3340     1.0100 C.ar  1 <1>  -0.1500 
 24 H        1.5050     0.1930     1.3640 H     1 <1>   0.0800 
 25 H        2.0010    -0.6080    -0.1470 H     1 <1>   0.0800 
 26 H       -2.8630     0.8470    -0.8710 H     1 <1>   0.1500 
 27 H        0.2650     2.6790     0.9050 H     1 <1>   0.0800 
 28 H        1.6860     1.3630    -1.4170 H     1 <1>   0.0800 
 29 H       -2.1970     3.8240    -0.8230 H     1 <1>   0.0800 
 30 H       -3.1640     3.0440    -2.0440 H     1 <1>   0.0800 
 31 H        0.0210     3.1780    -1.8420 H     1 <1>   0.4000 
 32 H        2.6220     3.2370     0.3360 H     1 <1>   0.3700 
 33 H       -3.7900     3.0910     0.9210 H     1 <1>   0.0800 
 34 H       -4.7800     2.3440    -0.2990 H     1 <1>   0.0800 
 35 H       -5.1210     4.5600    -1.3760 H     1 <1>   0.0800 
 36 H       -4.1460     5.3060    -0.1450 H     1 <1>   0.0800 
 37 H        4.1910     4.5240    -0.0900 H     1 <1>   0.1500 
 38 H        6.5110     1.0790     0.8630 H     1 <1>   0.1500 
 39 H        6.0770     5.9570     0.4950 H     1 <1>   0.1500 
 40 H        8.4070     2.5230     1.4410 H     1 <1>   0.1500 
 41 H       -8.3210     7.0340     0.5940 H     1 <1>   0.0800 
 42 H       -7.6760     6.2130     2.0170 H     1 <1>   0.0800 
 43 H       -8.6430     5.3170     0.8430 H     1 <1>   0.0800 
 44 H        8.1930     4.9680     1.2630 H     1 <1>   0.1500 
@<TRIPOS>BOND
  1   1   2  1   
  2   1   3  1   
  3   2   4  2   
  4   2   5  1   
  5   3   6  1   
  6   3  24  1   
  7   3  25  1   
  8   4   7  1   
  9   4  26  1   
 10   5   6  1   
 11   5   8  1   
 12   5  27  1   
 13   6   9  1   
 14   6  28  1   
 15   7  10  1   
 16   7  29  1   
 17   7  30  1   
 18   8  31  1   
 19   9  11  am  
 20   9  32  1   
 21  10  12  1   
 22  10  33  1   
 23  10  34  1   
 24  11  13  2   
 25  11  14  1   
 26  12  15  1   
 27  12  35  1   
 28  12  36  1   
 29  14  16  ar  
 30  14  17  ar  
 31  15  18  2   
 32  15  19  1   
 33  16  20  ar  
 34  16  37  1   
 35  17  21  ar  
 36  17  38  1   
 37  19  22  1   
 38  20  23  ar  
 39  20  39  1   
 40  21  23  ar  
 41  21  40  1   
 42  22  41  1   
 43  22  42  1   
 44  22  43  1   
 45  23  44  1   
@<TRIPOS>SUBSTRUCTURE
  1 ****   5 GROUP 4 **** **** 0

# MOE 2024.06 (io_trps.svl 2023.06)
