@<TRIPOS>MOLECULE
NONAME
42 43 1 0 0 
SMALL
USER_CHARGES


@<TRIPOS>ATOM
  1 S        0.3590    -0.0410     1.5320 S.3   1 <1>  -0.4600 
  2 C        0.7390    -1.8080     1.4220 C.3   1 <1>   0.0700 
  3 C        1.9870     0.7280     1.3310 C.3   1 <1>   0.0700 
  4 C        1.5310    -2.0680     0.1330 C.3   1 <1>   0.3430 
  5 C        2.6430     0.1840     0.0550 C.3   1 <1>   0.3430 
  6 N        2.8310    -1.3120     0.0890 N.4   1 <1>  -0.9590 
  7 C        3.6650    -1.7690    -1.0590 C.3   1 <1>   0.4860 
  8 C        5.0520    -1.1710    -0.9190 C.ar  1 <1>  -0.1430 
  9 C        5.4410    -0.1180    -1.7350 C.ar  1 <1>  -0.1500 
 10 C        5.9410    -1.6660     0.0260 C.ar  1 <1>  -0.1500 
 11 C        6.6970     0.4420    -1.5950 C.ar  1 <1>  -0.1500 
 12 C        7.1990    -1.1060     0.1650 C.ar  1 <1>  -0.1500 
 13 C        7.5820    -0.0430    -0.6470 C.ar  1 <1>   0.0830 
 14 O        8.7900     0.5670    -0.5770 O.3   1 <1>  -0.3630 
 15 C        9.8080     0.0980     0.2790 C.3   1 <1>   0.1200 
 16 C       11.0450     0.9720     0.0740 C.3   1 <1>  -0.1600 
 17 C       12.2010     0.5200     0.9750 C.3   1 <1>  -0.1600 
 18 C       13.4380     1.3980     0.7650 C.3   1 <1>  -0.2400 
 19 H       -0.2020    -2.3300     1.4120 H     1 <1>   0.0800 
 20 H        1.2950    -2.0830     2.3010 H     1 <1>   0.0800 
 21 H        2.5700     0.5090     2.2080 H     1 <1>   0.0800 
 22 H        1.8270     1.7900     1.2620 H     1 <1>   0.0800 
 23 H        0.9190    -1.7870    -0.7090 H     1 <1>   0.0800 
 24 H        1.7260    -3.1260     0.0630 H     1 <1>   0.0800 
 25 H        3.6010     0.6670    -0.0590 H     1 <1>   0.0800 
 26 H        2.0340     0.4560    -0.7910 H     1 <1>   0.0800 
 27 H        3.3700    -1.5260     0.9370 H     1 <1>   0.4500 
 28 H        3.2220    -1.4590    -1.9920 H     1 <1>   0.0800 
 29 H        3.7440    -2.8440    -1.0590 H     1 <1>   0.0800 
 30 H        4.7810     0.2790    -2.4890 H     1 <1>   0.1500 
 31 H        5.6740    -2.4940     0.6610 H     1 <1>   0.1500 
 32 H        7.0080     1.2590    -2.2220 H     1 <1>   0.1500 
 33 H        7.8690    -1.5060     0.9030 H     1 <1>   0.1500 
 34 H       10.0210    -0.9260     0.0260 H     1 <1>   0.0800 
 35 H        9.4580     0.1690     1.2940 H     1 <1>   0.0800 
 36 H       10.7940     1.9940     0.2990 H     1 <1>   0.0800 
 37 H       11.3500     0.9110    -0.9570 H     1 <1>   0.0800 
 38 H       12.4540    -0.5040     0.7560 H     1 <1>   0.0800 
 39 H       11.9000     0.5770     2.0080 H     1 <1>   0.0800 
 40 H       13.7710     1.3400    -0.2570 H     1 <1>   0.0800 
 41 H       14.2380     1.0670     1.4040 H     1 <1>   0.0800 
 42 H       13.2150     2.4240     0.9990 H     1 <1>   0.0800 
@<TRIPOS>BOND
  1   1   2  1   
  2   1   3  1   
  3   2   4  1   
  4   2  19  1   
  5   2  20  1   
  6   3   5  1   
  7   3  21  1   
  8   3  22  1   
  9   4   6  1   
 10   4  23  1   
 11   4  24  1   
 12   5   6  1   
 13   5  25  1   
 14   5  26  1   
 15   6   7  1   
 16   6  27  1   
 17   7   8  1   
 18   7  28  1   
 19   7  29  1   
 20   8   9  ar  
 21   8  10  ar  
 22   9  11  ar  
 23   9  30  1   
 24  10  12  ar  
 25  10  31  1   
 26  11  13  ar  
 27  11  32  1   
 28  12  13  ar  
 29  12  33  1   
 30  13  14  1   
 31  14  15  1   
 32  15  16  1   
 33  15  34  1   
 34  15  35  1   
 35  16  17  1   
 36  16  36  1   
 37  16  37  1   
 38  17  18  1   
 39  17  38  1   
 40  17  39  1   
 41  18  40  1   
 42  18  41  1   
 43  18  42  1   
@<TRIPOS>SUBSTRUCTURE
  1 ****  10 GROUP 4 **** **** 0

# MOE 2024.06 (io_trps.svl 2023.06)
