@<TRIPOS>MOLECULE
NONAME
44 47 1 0 0 
SMALL
USER_CHARGES


@<TRIPOS>ATOM
  1 O        1.3610    -0.5470    -2.2950 O.2   1 <1>  -0.5700 
  2 C        0.9120    -1.2830    -1.4550 C.2   1 <1>   0.5690 
  3 N        1.5950    -2.0380    -0.5160 N.am  1 <1>  -0.2370 
  4 C       -0.5500    -1.5630    -1.2640 C.3   1 <1>  -0.0190 
  5 C        2.9860    -2.2640    -0.5150 C.ar  1 <1>   0.1170 
  6 C        0.7020    -2.4660     0.4530 C.2   1 <1>   0.5690 
  7 C       -1.9210    -0.9070    -1.5450 C.3   1 <1>   0.1960 
  8 C       -0.5550    -1.6710     0.2630 C.3   1 <1>  -0.0190 
  9 C        3.5310    -3.5280    -0.7520 C.ar  1 <1>  -0.1440 
 10 C        3.8410    -1.1930    -0.2760 C.ar  1 <1>  -0.1500 
 11 O        0.8660    -3.2840     1.3210 O.2   1 <1>  -0.5700 
 12 C       -2.3300    -0.3970    -0.1710 C.2   1 <1>  -0.2760 
 13 C       -2.8560    -2.1080    -1.5280 C.2   1 <1>  -0.2880 
 14 C       -2.0510    -1.6800     0.6070 C.3   1 <1>   0.1960 
 15 C        4.9070    -3.6920    -0.7270 C.ar  1 <1>  -0.1500 
 16 C        2.6550    -4.7410    -1.0390 C.3   1 <1>  -0.0970 
 17 C        5.2140    -1.3600    -0.2570 C.ar  1 <1>  -0.1430 
 18 C       -2.7830     0.8030     0.2240 C.2   1 <1>  -0.2760 
 19 C       -2.8830    -2.5930    -0.2830 C.2   1 <1>  -0.2880 
 20 C        5.7440    -2.6180    -0.4810 C.ar  1 <1>  -0.1500 
 21 C        6.1340    -0.1820     0.0060 C.3   1 <1>  -0.0970 
 22 C       -3.1500     1.1540     1.6590 C.3   1 <1>  -0.1020 
 23 C       -2.9960     1.9840    -0.7130 C.3   1 <1>  -0.1020 
 24 H       -0.6170    -2.5510    -1.6940 H     1 <1>   0.0800 
 25 H       -2.0040    -0.2540    -2.3950 H     1 <1>   0.0800 
 26 H       -0.2310    -0.7290     0.6840 H     1 <1>   0.0800 
 27 H        3.4200    -0.2190    -0.1070 H     1 <1>   0.1500 
 28 H       -3.3300    -2.4480    -2.4330 H     1 <1>   0.1500 
 29 H       -2.3100    -1.6580     1.6490 H     1 <1>   0.0800 
 30 H        5.3410    -4.6620    -0.9000 H     1 <1>   0.1500 
 31 H        3.2380    -5.5470    -1.4460 H     1 <1>   0.0800 
 32 H        1.8880    -4.4930    -1.7490 H     1 <1>   0.0800 
 33 H        2.1950    -5.0840    -0.1290 H     1 <1>   0.0800 
 34 H       -3.3830    -3.4500     0.1340 H     1 <1>   0.1500 
 35 H        6.8090    -2.7670    -0.4650 H     1 <1>   0.1500 
 36 H        6.4630    -0.1990     1.0290 H     1 <1>   0.0800 
 37 H        5.6260     0.7470    -0.1800 H     1 <1>   0.0800 
 38 H        6.9940    -0.2320    -0.6370 H     1 <1>   0.0800 
 39 H       -4.1850     1.4410     1.7120 H     1 <1>   0.0800 
 40 H       -2.5470     1.9750     2.0030 H     1 <1>   0.0800 
 41 H       -3.0010     0.3280     2.3270 H     1 <1>   0.0800 
 42 H       -2.3890     2.8150    -0.4020 H     1 <1>   0.0800 
 43 H       -4.0290     2.2850    -0.6940 H     1 <1>   0.0800 
 44 H       -2.7390     1.7450    -1.7260 H     1 <1>   0.0800 
@<TRIPOS>BOND
  1   1   2  2   
  2   2   3  am  
  3   2   4  1   
  4   3   5  1   
  5   3   6  am  
  6   4   7  1   
  7   4   8  1   
  8   4  24  1   
  9   5   9  ar  
 10   5  10  ar  
 11   6   8  1   
 12   6  11  2   
 13   7  12  1   
 14   7  13  1   
 15   7  25  1   
 16   8  14  1   
 17   8  26  1   
 18   9  15  ar  
 19   9  16  1   
 20  10  17  ar  
 21  10  27  1   
 22  12  14  1   
 23  12  18  2   
 24  13  19  2   
 25  13  28  1   
 26  14  19  1   
 27  14  29  1   
 28  15  20  ar  
 29  15  30  1   
 30  16  31  1   
 31  16  32  1   
 32  16  33  1   
 33  17  20  ar  
 34  17  21  1   
 35  18  22  1   
 36  18  23  1   
 37  19  34  1   
 38  20  35  1   
 39  21  36  1   
 40  21  37  1   
 41  21  38  1   
 42  22  39  1   
 43  22  40  1   
 44  22  41  1   
 45  23  42  1   
 46  23  43  1   
 47  23  44  1   
@<TRIPOS>SUBSTRUCTURE
  1 ****   3 GROUP 4 **** **** 0

# MOE 2024.06 (io_trps.svl 2023.06)
