@<TRIPOS>MOLECULE
NONAME
40 41 1 0 0 
SMALL
USER_CHARGES


@<TRIPOS>ATOM
  1 F        1.7500    -0.1480    -1.3600 F     1 <1>  -0.1900 
  2 C        2.5520     0.7090    -0.7790 C.ar  1 <1>   0.1900 
  3 C        2.5510     2.0210    -1.2120 C.ar  1 <1>  -0.1500 
  4 C        3.3680     0.2690     0.2460 C.ar  1 <1>  -0.1500 
  5 C        3.4030     2.9200    -0.5940 C.ar  1 <1>  -0.1500 
  6 C        4.2140     1.1800     0.8540 C.ar  1 <1>  -0.1500 
  7 C        4.2450     2.5080     0.4370 C.ar  1 <1>   0.1000 
  8 N        5.1040     3.4060     1.0540 N.pl3 1 <1>  -0.8690 
  9 C        6.1340     4.0640     0.2380 C.3   1 <1>   0.2890 
 10 C        7.4630     3.3390     0.4790 C.3   1 <1>  -0.1600 
 11 C        6.1650     5.5310     0.6530 C.3   1 <1>  -0.2400 
 12 C        8.5930     3.8310    -0.4360 C.3   1 <1>  -0.0170 
 13 C        9.8500     3.0080    -0.2070 C.ar  1 <1>  -0.1430 
 14 C       10.7750     3.3960     0.7510 C.ar  1 <1>  -0.1500 
 15 C       10.0830     1.8600    -0.9490 C.ar  1 <1>  -0.1500 
 16 C       11.9180     2.6450     0.9610 C.ar  1 <1>  -0.1500 
 17 C       11.2260     1.1070    -0.7420 C.ar  1 <1>  -0.1500 
 18 C       12.1540     1.4990     0.2190 C.ar  1 <1>   0.0830 
 19 O       13.2990     0.8220     0.4860 O.3   1 <1>  -0.3630 
 20 C       13.6430    -0.3440    -0.2270 C.3   1 <1>   0.0400 
 21 H        1.8980     2.3270    -2.0090 H     1 <1>   0.1500 
 22 H        3.3360    -0.7590     0.5570 H     1 <1>   0.1500 
 23 H        3.4180     3.9500    -0.8990 H     1 <1>   0.1500 
 24 H        4.8580     0.8630     1.6540 H     1 <1>   0.1500 
 25 H        5.5090     3.0590     1.9280 H     1 <1>   0.4000 
 26 H        5.8700     3.9910    -0.8050 H     1 <1>   0.0800 
 27 H        7.3170     2.2900     0.2930 H     1 <1>   0.0800 
 28 H        7.7630     3.4600     1.5040 H     1 <1>   0.0800 
 29 H        6.4730     5.6270     1.6780 H     1 <1>   0.0800 
 30 H        5.1850     5.9580     0.5400 H     1 <1>   0.0800 
 31 H        6.8440     6.0860     0.0320 H     1 <1>   0.0800 
 32 H        8.8110     4.8660    -0.2420 H     1 <1>   0.0800 
 33 H        8.2930     3.7460    -1.4660 H     1 <1>   0.0800 
 34 H       10.6090     4.2820     1.3370 H     1 <1>   0.1500 
 35 H        9.3710     1.5470    -1.6930 H     1 <1>   0.1500 
 36 H       12.6370     2.9440     1.7020 H     1 <1>   0.1500 
 37 H       11.3750     0.2250    -1.3330 H     1 <1>   0.1500 
 38 H       14.5860    -0.6980     0.1480 H     1 <1>   0.0800 
 39 H       13.7330    -0.1010    -1.2710 H     1 <1>   0.0800 
 40 H       12.8830    -1.0880    -0.0670 H     1 <1>   0.0800 
@<TRIPOS>BOND
  1   1   2  1   
  2   2   3  ar  
  3   2   4  ar  
  4   3   5  ar  
  5   3  21  1   
  6   4   6  ar  
  7   4  22  1   
  8   5   7  ar  
  9   5  23  1   
 10   6   7  ar  
 11   6  24  1   
 12   7   8  1   
 13   8   9  1   
 14   8  25  1   
 15   9  10  1   
 16   9  11  1   
 17   9  26  1   
 18  10  12  1   
 19  10  27  1   
 20  10  28  1   
 21  11  29  1   
 22  11  30  1   
 23  11  31  1   
 24  12  13  1   
 25  12  32  1   
 26  12  33  1   
 27  13  14  ar  
 28  13  15  ar  
 29  14  16  ar  
 30  14  34  1   
 31  15  17  ar  
 32  15  35  1   
 33  16  18  ar  
 34  16  36  1   
 35  17  18  ar  
 36  17  37  1   
 37  18  19  1   
 38  19  20  1   
 39  20  38  1   
 40  20  39  1   
 41  20  40  1   
@<TRIPOS>SUBSTRUCTURE
  1 ****  10 GROUP 4 **** **** 0

# MOE 2024.06 (io_trps.svl 2023.06)
