@<TRIPOS>MOLECULE
NONAME
57 58 1 0 0 
SMALL
USER_CHARGES


@<TRIPOS>ATOM
  1 O       -0.0130    -0.4660     1.4050 O.2   1 <1>  -0.5700 
  2 C        0.5500    -1.3130     0.7380 C.2   1 <1>   0.5440 
  3 N       -0.2330    -2.2180     0.0730 N.am  1 <1>  -0.7300 
  4 C        1.9980    -1.3440     0.6290 C.ar  1 <1>   0.0860 
  5 C       -1.6990    -2.2530     0.1780 C.3   1 <1>   0.2200 
  6 C        2.6980    -2.5260     0.3680 C.ar  1 <1>  -0.1500 
  7 C        2.7520    -0.1800     0.7830 C.ar  1 <1>  -0.1500 
  8 C       -2.2030    -3.6700    -0.0660 C.3   1 <1>  -0.1600 
  9 C       -2.2970    -1.3100    -0.8600 C.3   1 <1>  -0.1600 
 10 C        4.0760    -2.5440     0.2510 C.ar  1 <1>  -0.1500 
 11 C        4.1290    -0.1890     0.6680 C.ar  1 <1>  -0.1500 
 12 C       -3.7360    -3.7480    -0.0030 C.3   1 <1>   0.5030 
 13 C       -3.8300    -1.3090    -0.8160 C.3   1 <1>   0.5030 
 14 C        4.8040    -1.3670     0.3990 C.ar  1 <1>   0.0830 
 15 N       -4.3640    -2.6830    -0.8060 N.4   1 <1>  -0.9060 
 16 C       -4.2570    -3.6940     1.4350 C.3   1 <1>  -0.2400 
 17 C       -4.2050    -5.0610    -0.6270 C.3   1 <1>  -0.2400 
 18 C       -4.3750    -0.6670    -2.0900 C.3   1 <1>  -0.2400 
 19 C       -4.3730    -0.5240     0.3810 C.3   1 <1>  -0.2400 
 20 O        6.1490    -1.2940     0.3000 O.3   1 <1>  -0.3620 
 21 C        6.9450    -2.4360     0.0660 C.3   1 <1>   0.1200 
 22 C        8.4270    -2.0310     0.0460 C.3   1 <1>  -0.0800 
 23 C        9.3030    -3.2440    -0.2930 C.3   1 <1>  -0.2400 
 24 C        8.8720    -1.4310     1.3880 C.3   1 <1>  -0.2400 
 25 H        0.2070    -2.8340    -0.6120 H     1 <1>   0.3700 
 26 H       -1.9740    -1.9330     1.1700 H     1 <1>   0.0800 
 27 H        2.1590    -3.4500     0.2650 H     1 <1>   0.1500 
 28 H        2.2450     0.7460     0.9970 H     1 <1>   0.1500 
 29 H       -1.7830    -4.3290     0.6750 H     1 <1>   0.0800 
 30 H       -1.8640    -4.0040    -1.0310 H     1 <1>   0.0800 
 31 H       -1.9590    -1.6010    -1.8390 H     1 <1>   0.0800 
 32 H       -1.9390    -0.3110    -0.6770 H     1 <1>   0.0800 
 33 H        4.5690    -3.4770     0.0490 H     1 <1>   0.1500 
 34 H        4.6930     0.7190     0.7870 H     1 <1>   0.1500 
 35 H       -5.3500    -2.6320    -0.5440 H     1 <1>   0.4500 
 36 H       -4.3430    -3.0030    -1.7750 H     1 <1>   0.4500 
 37 H       -3.8610    -2.8650     1.9870 H     1 <1>   0.0800 
 38 H       -3.9510    -4.5810     1.9630 H     1 <1>   0.0800 
 39 H       -5.3320    -3.6570     1.4610 H     1 <1>   0.0800 
 40 H       -3.8900    -5.1440    -1.6530 H     1 <1>   0.0800 
 41 H       -5.2760    -5.1550    -0.5790 H     1 <1>   0.0800 
 42 H       -3.7810    -5.8930    -0.0910 H     1 <1>   0.0800 
 43 H       -4.0460    -1.1940    -2.9690 H     1 <1>   0.0800 
 44 H       -4.0190     0.3460    -2.1690 H     1 <1>   0.0800 
 45 H       -5.4510    -0.6330    -2.0810 H     1 <1>   0.0800 
 46 H       -3.9270    -0.8250     1.3080 H     1 <1>   0.0800 
 47 H       -5.4420    -0.6100     0.4550 H     1 <1>   0.0800 
 48 H       -4.1380     0.5190     0.2620 H     1 <1>   0.0800 
 49 H        6.6580    -2.8550    -0.8830 H     1 <1>   0.0800 
 50 H        6.7600    -3.1450     0.8540 H     1 <1>   0.0800 
 51 H        8.5620    -1.2940    -0.7280 H     1 <1>   0.0800 
 52 H        9.1990    -4.0100     0.4560 H     1 <1>   0.0800 
 53 H       10.3380    -2.9530    -0.3430 H     1 <1>   0.0800 
 54 H        9.0230    -3.6540    -1.2470 H     1 <1>   0.0800 
 55 H        8.7360    -2.1410     2.1850 H     1 <1>   0.0800 
 56 H        8.2950    -0.5510     1.6130 H     1 <1>   0.0800 
 57 H        9.9090    -1.1510     1.3480 H     1 <1>   0.0800 
@<TRIPOS>BOND
  1   1   2  2   
  2   2   3  am  
  3   2   4  1   
  4   3   5  1   
  5   3  25  1   
  6   4   6  ar  
  7   4   7  ar  
  8   5   8  1   
  9   5   9  1   
 10   5  26  1   
 11   6  10  ar  
 12   6  27  1   
 13   7  11  ar  
 14   7  28  1   
 15   8  12  1   
 16   8  29  1   
 17   8  30  1   
 18   9  13  1   
 19   9  31  1   
 20   9  32  1   
 21  10  14  ar  
 22  10  33  1   
 23  11  14  ar  
 24  11  34  1   
 25  12  15  1   
 26  12  16  1   
 27  12  17  1   
 28  13  15  1   
 29  13  18  1   
 30  13  19  1   
 31  14  20  1   
 32  15  35  1   
 33  15  36  1   
 34  16  37  1   
 35  16  38  1   
 36  16  39  1   
 37  17  40  1   
 38  17  41  1   
 39  17  42  1   
 40  18  43  1   
 41  18  44  1   
 42  18  45  1   
 43  19  46  1   
 44  19  47  1   
 45  19  48  1   
 46  20  21  1   
 47  21  22  1   
 48  21  49  1   
 49  21  50  1   
 50  22  23  1   
 51  22  24  1   
 52  22  51  1   
 53  23  52  1   
 54  23  53  1   
 55  23  54  1   
 56  24  55  1   
 57  24  56  1   
 58  24  57  1   
@<TRIPOS>SUBSTRUCTURE
  1 ****   2 GROUP 4 **** **** 0

# MOE 2024.06 (io_trps.svl 2023.06)
