@<TRIPOS>MOLECULE
NONAME
32 32 1 0 0 
SMALL
USER_CHARGES


@<TRIPOS>ATOM
  1 CL      -1.3090     0.2210    -2.0470 Cl    1 <1>  -0.1770 
  2 C       -2.4100     1.0800    -0.9950 C.ar  1 <1>   0.1770 
  3 C       -2.0660     2.3120    -0.4630 C.ar  1 <1>   0.1770 
  4 C       -3.6360     0.5120    -0.7020 C.ar  1 <1>  -0.1500 
  5 CL      -0.5210     3.0450    -0.8240 Cl    1 <1>  -0.1770 
  6 C       -2.9450     2.9830     0.3670 C.ar  1 <1>  -0.1500 
  7 C       -4.5260     1.1780     0.1310 C.ar  1 <1>  -0.1440 
  8 C       -4.1740     2.4130     0.6620 C.ar  1 <1>  -0.1500 
  9 C       -5.8770     0.5530     0.4590 C.3   1 <1>   0.2540 
 10 N       -6.6040     0.1900    -0.7720 N.3   1 <1>  -0.8100 
 11 C       -7.7970    -0.6540    -0.4650 C.3   1 <1>   0.1710 
 12 C       -6.9700     1.3730    -1.5680 C.3   1 <1>   0.0300 
 13 C       -8.8700    -0.0180     0.4280 C.2   1 <1>   0.6590 
 14 O       -8.8240    -0.1000     1.6300 O.2   1 <1>  -0.5700 
 15 O       -9.8480     0.6280    -0.1970 O.3   1 <1>  -0.4300 
 16 C      -10.8880     1.2560     0.5160 C.3   1 <1>   0.1200 
 17 C      -11.8240     1.9120    -0.4930 C.3   1 <1>  -0.2400 
 18 H       -3.8990    -0.4420    -1.1250 H     1 <1>   0.1500 
 19 H       -2.6690     3.9390     0.7760 H     1 <1>   0.1500 
 20 H       -4.8580     2.9380     1.3080 H     1 <1>   0.1500 
 21 H       -6.4680     1.2330     1.0500 H     1 <1>   0.0800 
 22 H       -5.7060    -0.3340     1.0470 H     1 <1>   0.0800 
 23 H       -7.4620    -1.5540     0.0180 H     1 <1>   0.0800 
 24 H       -8.2610    -0.9470    -1.3900 H     1 <1>   0.0800 
 25 H       -6.0820     1.8940    -1.8850 H     1 <1>   0.0800 
 26 H       -7.5820     2.0470    -0.9930 H     1 <1>   0.0800 
 27 H       -7.5110     1.0710    -2.4480 H     1 <1>   0.0800 
 28 H      -10.4550     1.9890     1.1760 H     1 <1>   0.0800 
 29 H      -11.4040     0.5080     1.0950 H     1 <1>   0.0800 
 30 H      -11.2920     2.6470    -1.0700 H     1 <1>   0.0800 
 31 H      -12.6300     2.4000     0.0240 H     1 <1>   0.0800 
 32 H      -12.2400     1.1700    -1.1510 H     1 <1>   0.0800 
@<TRIPOS>BOND
  1   1   2  1   
  2   2   3  ar  
  3   2   4  ar  
  4   3   5  1   
  5   3   6  ar  
  6   4   7  ar  
  7   4  18  1   
  8   6   8  ar  
  9   6  19  1   
 10   7   8  ar  
 11   7   9  1   
 12   8  20  1   
 13   9  10  1   
 14   9  21  1   
 15   9  22  1   
 16  10  11  1   
 17  10  12  1   
 18  11  13  1   
 19  11  23  1   
 20  11  24  1   
 21  12  25  1   
 22  12  26  1   
 23  12  27  1   
 24  13  14  2   
 25  13  15  1   
 26  15  16  1   
 27  16  17  1   
 28  16  28  1   
 29  16  29  1   
 30  17  30  1   
 31  17  31  1   
 32  17  32  1   
@<TRIPOS>SUBSTRUCTURE
  1 ****   9 GROUP 4 **** **** 0

# MOE 2024.06 (io_trps.svl 2023.06)
