@<TRIPOS>MOLECULE
NONAME
33 34 1 0 0 
SMALL
USER_CHARGES


@<TRIPOS>ATOM
  1 O       -0.1650     0.7190    -0.8840 O.2   1 <1>  -0.5700 
  2 C       -1.0330     1.4180    -0.4280 C.2   1 <1>   0.5690 
  3 N       -0.8880     2.6900     0.0640 N.am  1 <1>  -0.2370 
  4 C       -2.4650     0.9430    -0.3380 C.3   1 <1>  -0.0990 
  5 C        0.3250     3.4100     0.1080 C.ar  1 <1>   0.1170 
  6 C       -2.1030     3.1540     0.5010 C.2   1 <1>   0.5690 
  7 C       -3.1960     2.1290     0.3030 C.3   1 <1>  -0.0990 
  8 C        0.3890     4.7420    -0.2880 C.ar  1 <1>  -0.1500 
  9 C        1.5010     2.8110     0.5480 C.ar  1 <1>  -0.1500 
 10 O       -2.3310     4.2310     0.9870 O.2   1 <1>  -0.5700 
 11 C        1.5810     5.4400    -0.2530 C.ar  1 <1>  -0.1500 
 12 C        2.6920     3.5120     0.5820 C.ar  1 <1>  -0.1500 
 13 C        2.7700     4.8470     0.1760 C.ar  1 <1>   0.0860 
 14 C        4.0170     5.5930     0.1920 C.2   1 <1>   0.5440 
 15 O        4.0220     6.8090     0.1610 O.2   1 <1>  -0.5700 
 16 N        5.2220     4.9510     0.2310 N.am  1 <1>  -0.7300 
 17 C        6.5480     5.6040     0.1840 C.3   1 <1>   0.1400 
 18 C        7.5910     4.6350    -0.3890 C.3   1 <1>   0.1200 
 19 O        7.4910     3.3910     0.2310 O.3   1 <1>  -0.6800 
 20 H       -2.5210     0.0630     0.2770 H     1 <1>   0.0800 
 21 H       -2.8420     0.7290    -1.3220 H     1 <1>   0.0800 
 22 H       -3.6250     1.8640     1.2530 H     1 <1>   0.0800 
 23 H       -3.9570     2.5240    -0.3460 H     1 <1>   0.0800 
 24 H       -0.5030     5.2420    -0.6250 H     1 <1>   0.1500 
 25 H        1.4850     1.7820     0.8640 H     1 <1>   0.1500 
 26 H        1.6000     6.4720    -0.5620 H     1 <1>   0.1500 
 27 H        3.5740     3.0100     0.9350 H     1 <1>   0.1500 
 28 H        5.2740     3.9320     0.1420 H     1 <1>   0.3700 
 29 H        6.8310     5.9030     1.1790 H     1 <1>   0.0800 
 30 H        6.4970     6.4900    -0.4270 H     1 <1>   0.0800 
 31 H        8.5870     5.0150    -0.2430 H     1 <1>   0.0800 
 32 H        7.4230     4.4940    -1.4430 H     1 <1>   0.0800 
 33 H        7.6580     3.4710     1.1910 H     1 <1>   0.4000 
@<TRIPOS>BOND
  1   1   2  2   
  2   2   3  am  
  3   2   4  1   
  4   3   5  1   
  5   3   6  am  
  6   4   7  1   
  7   4  20  1   
  8   4  21  1   
  9   5   8  ar  
 10   5   9  ar  
 11   6   7  1   
 12   6  10  2   
 13   7  22  1   
 14   7  23  1   
 15   8  11  ar  
 16   8  24  1   
 17   9  12  ar  
 18   9  25  1   
 19  11  13  ar  
 20  11  26  1   
 21  12  13  ar  
 22  12  27  1   
 23  13  14  1   
 24  14  15  2   
 25  14  16  am  
 26  16  17  1   
 27  16  28  1   
 28  17  18  1   
 29  17  29  1   
 30  17  30  1   
 31  18  19  1   
 32  18  31  1   
 33  18  32  1   
 34  19  33  1   
@<TRIPOS>SUBSTRUCTURE
  1 ****   9 GROUP 4 **** **** 0

# MOE 2024.06 (io_trps.svl 2023.06)
