@<TRIPOS>MOLECULE
NONAME
44 46 1 0 0 
SMALL
USER_CHARGES


@<TRIPOS>ATOM
  1 O        2.7700     1.8430     0.8690 O.co2 1 <1>  -0.9000 
  2 C        3.4720     0.9950     1.4240 C.2   1 <1>   0.9060 
  3 O        4.3880     1.3170     2.1910 O.co2 1 <1>  -0.9000 
  4 C        3.2740    -0.4930     1.1860 C.3   1 <1>  -0.1860 
  5 C        4.3790    -1.2200     0.3360 C.3   1 <1>  -0.0190 
  6 C        1.8540    -0.8830     0.6940 C.3   1 <1>  -0.0800 
  7 C        5.4330    -0.3880    -0.4380 C.2   1 <1>   0.5690 
  8 C        3.6810    -2.2880    -0.5620 C.3   1 <1>  -0.0800 
  9 C        1.7570    -0.6630    -0.8290 C.3   1 <1>  -0.1600 
 10 C        1.6580    -2.3880     0.9690 C.3   1 <1>  -0.1600 
 11 O        5.7280    -0.7200    -1.5660 O.2   1 <1>  -0.5700 
 12 N        6.1050     0.6240     0.1860 N.am  1 <1>  -0.5470 
 13 C        2.7460    -1.5840    -1.5720 C.3   1 <1>  -0.1600 
 14 C        2.8020    -3.2010     0.3220 C.3   1 <1>  -0.1600 
 15 C        7.1210     1.4460    -0.3300 C.ar  1 <1>   0.1170 
 16 C        6.8660     2.8030    -0.5400 C.ar  1 <1>  -0.1440 
 17 C        8.3930     0.9390    -0.6190 C.ar  1 <1>  -0.1440 
 18 C        7.8610     3.6280    -1.0360 C.ar  1 <1>  -0.1500 
 19 C        5.4950     3.3960    -0.2330 C.3   1 <1>  -0.0970 
 20 C        9.3740     1.7780    -1.1200 C.ar  1 <1>  -0.1500 
 21 C        8.7340    -0.5280    -0.3900 C.3   1 <1>  -0.0970 
 22 C        9.1120     3.1200    -1.3280 C.ar  1 <1>  -0.1500 
 23 H        3.3530    -0.8960     2.1780 H     1 <1>   0.0800 
 24 H        4.9750    -1.7670     1.0430 H     1 <1>   0.0800 
 25 H        1.1070    -0.3010     1.2070 H     1 <1>   0.0800 
 26 H        4.4140    -2.8810    -1.0820 H     1 <1>   0.0800 
 27 H        1.9820     0.3650    -1.0560 H     1 <1>   0.0800 
 28 H        0.7540    -0.8560    -1.1650 H     1 <1>   0.0800 
 29 H        0.7120    -2.7020     0.5650 H     1 <1>   0.0800 
 30 H        1.6370    -2.5670     2.0300 H     1 <1>   0.0800 
 31 H        5.6350     0.9980     1.0330 H     1 <1>   0.3700 
 32 H        2.2020    -2.3240    -2.1310 H     1 <1>   0.0800 
 33 H        3.3140    -1.0030    -2.2760 H     1 <1>   0.0800 
 34 H        3.4090    -3.6490     1.0890 H     1 <1>   0.0800 
 35 H        2.3870    -3.9950    -0.2740 H     1 <1>   0.0800 
 36 H        7.6630     4.6720    -1.1980 H     1 <1>   0.1500 
 37 H        5.3070     3.3640     0.8260 H     1 <1>   0.0800 
 38 H        4.7250     2.8280    -0.7270 H     1 <1>   0.0800 
 39 H        5.4230     4.4150    -0.5600 H     1 <1>   0.0800 
 40 H       10.3500     1.3920    -1.3510 H     1 <1>   0.1500 
 41 H        8.3030    -1.1250    -1.1740 H     1 <1>   0.0800 
 42 H        8.3400    -0.8570     0.5540 H     1 <1>   0.0800 
 43 H        9.7970    -0.6810    -0.3840 H     1 <1>   0.0800 
 44 H        9.8790     3.7650    -1.7170 H     1 <1>   0.1500 
@<TRIPOS>BOND
  1   1   2  ar  
  2   2   3  ar  
  3   2   4  1   
  4   4   5  1   
  5   4   6  1   
  6   4  23  1   
  7   5   7  1   
  8   5   8  1   
  9   5  24  1   
 10   6   9  1   
 11   6  10  1   
 12   6  25  1   
 13   7  11  2   
 14   7  12  am  
 15   8  13  1   
 16   8  14  1   
 17   8  26  1   
 18   9  13  1   
 19   9  27  1   
 20   9  28  1   
 21  10  14  1   
 22  10  29  1   
 23  10  30  1   
 24  12  15  1   
 25  12  31  1   
 26  13  32  1   
 27  13  33  1   
 28  14  34  1   
 29  14  35  1   
 30  15  16  ar  
 31  15  17  ar  
 32  16  18  ar  
 33  16  19  1   
 34  17  20  ar  
 35  17  21  1   
 36  18  22  ar  
 37  18  36  1   
 38  19  37  1   
 39  19  38  1   
 40  19  39  1   
 41  20  22  ar  
 42  20  40  1   
 43  21  41  1   
 44  21  42  1   
 45  21  43  1   
 46  22  44  1   
@<TRIPOS>SUBSTRUCTURE
  1 ****   7 GROUP 4 **** **** 0

# MOE 2024.06 (io_trps.svl 2023.06)
