@<TRIPOS>MOLECULE
NONAME
53 55 1 0 0 
SMALL
USER_CHARGES


@<TRIPOS>ATOM
  1 O       -0.0070    -0.9720     1.0390 O.2   1 <1>  -0.5700 
  2 C       -0.5410    -1.6640     0.1970 C.2   1 <1>   0.6340 
  3 O        0.0380    -1.7770    -1.0040 O.3   1 <1>  -0.4300 
  4 C       -1.7860    -2.3770     0.4250 C.ar  1 <1>   0.0860 
  5 C        1.2490    -1.1150    -1.3130 C.3   1 <1>   0.0400 
  6 C       -2.3910    -3.1530    -0.5660 C.ar  1 <1>  -0.1500 
  7 C       -2.4350    -2.3110     1.6590 C.ar  1 <1>  -0.1500 
  8 C       -3.5820    -3.8190    -0.3390 C.ar  1 <1>  -0.1500 
  9 C       -3.6250    -2.9760     1.8940 C.ar  1 <1>  -0.1500 
 10 C       -4.2110    -3.7330     0.8920 C.ar  1 <1>  -0.1440 
 11 C       -5.5290    -4.4550     1.1310 C.3   1 <1>   0.2530 
 12 N       -6.5740    -3.9460     0.2190 N.3   1 <1>  -0.8100 
 13 C       -6.8260    -2.5010     0.4060 C.3   1 <1>   0.1100 
 14 C       -7.8180    -4.7300     0.3290 C.3   1 <1>   0.1100 
 15 C       -7.8650    -1.9820    -0.6060 C.3   1 <1>   0.3430 
 16 C       -8.8770    -4.2410    -0.6800 C.3   1 <1>   0.3430 
 17 N       -9.1450    -2.7660    -0.5420 N.4   1 <1>  -0.9590 
 18 C      -10.1260    -2.2760    -1.5330 C.3   1 <1>   0.4810 
 19 C      -11.4760    -2.8060    -1.1180 C.2   1 <1>  -0.2880 
 20 C      -12.4280    -2.0820    -0.5050 C.2   1 <1>  -0.1780 
 21 C      -13.7360    -2.5260    -0.0770 C.ar  1 <1>   0.0280 
 22 C      -14.4500    -1.7830     0.8600 C.ar  1 <1>  -0.1500 
 23 C      -14.3300    -3.6870    -0.5690 C.ar  1 <1>  -0.1500 
 24 C      -15.6990    -2.1840     1.2980 C.ar  1 <1>  -0.1500 
 25 C      -15.5790    -4.0950    -0.1350 C.ar  1 <1>  -0.1500 
 26 C      -16.2660    -3.3440     0.8020 C.ar  1 <1>  -0.1500 
 27 H        1.5180    -1.3520    -2.3260 H     1 <1>   0.0800 
 28 H        2.0130    -1.4550    -0.6350 H     1 <1>   0.0800 
 29 H        1.1020    -0.0540    -1.2050 H     1 <1>   0.0800 
 30 H       -1.9240    -3.2380    -1.5320 H     1 <1>   0.1500 
 31 H       -1.9930    -1.7260     2.4490 H     1 <1>   0.1500 
 32 H       -4.0260    -4.4050    -1.1250 H     1 <1>   0.1500 
 33 H       -4.0890    -2.8970     2.8620 H     1 <1>   0.1500 
 34 H       -5.8400    -4.3320     2.1550 H     1 <1>   0.0800 
 35 H       -5.3770    -5.5070     0.9530 H     1 <1>   0.0800 
 36 H       -7.1630    -2.3090     1.4110 H     1 <1>   0.0800 
 37 H       -5.9130    -1.9500     0.2550 H     1 <1>   0.0800 
 38 H       -7.6040    -5.7660     0.1270 H     1 <1>   0.0800 
 39 H       -8.2120    -4.6620     1.3300 H     1 <1>   0.0800 
 40 H       -7.4390    -2.0610    -1.5920 H     1 <1>   0.0800 
 41 H       -8.0590    -0.9400    -0.4080 H     1 <1>   0.0800 
 42 H       -9.7880    -4.7970    -0.5290 H     1 <1>   0.0800 
 43 H       -8.5190    -4.4530    -1.6740 H     1 <1>   0.0800 
 44 H       -9.5700    -2.6180     0.3820 H     1 <1>   0.4500 
 45 H      -10.1510    -1.1980    -1.5180 H     1 <1>   0.0800 
 46 H       -9.8710    -2.6030    -2.5290 H     1 <1>   0.0800 
 47 H      -11.6120    -3.8440    -1.3640 H     1 <1>   0.1500 
 48 H      -12.2480    -1.0440    -0.2780 H     1 <1>   0.1500 
 49 H      -14.0280    -0.8780     1.2590 H     1 <1>   0.1500 
 50 H      -13.8240    -4.2820    -1.3040 H     1 <1>   0.1500 
 51 H      -16.2330    -1.5960     2.0240 H     1 <1>   0.1500 
 52 H      -16.0210    -4.9950    -0.5260 H     1 <1>   0.1500 
 53 H      -17.2370    -3.6590     1.1410 H     1 <1>   0.1500 
@<TRIPOS>BOND
  1   1   2  2   
  2   2   3  1   
  3   2   4  1   
  4   3   5  1   
  5   4   6  ar  
  6   4   7  ar  
  7   5  27  1   
  8   5  28  1   
  9   5  29  1   
 10   6   8  ar  
 11   6  30  1   
 12   7   9  ar  
 13   7  31  1   
 14   8  10  ar  
 15   8  32  1   
 16   9  10  ar  
 17   9  33  1   
 18  10  11  1   
 19  11  12  1   
 20  11  34  1   
 21  11  35  1   
 22  12  13  1   
 23  12  14  1   
 24  13  15  1   
 25  13  36  1   
 26  13  37  1   
 27  14  16  1   
 28  14  38  1   
 29  14  39  1   
 30  15  17  1   
 31  15  40  1   
 32  15  41  1   
 33  16  17  1   
 34  16  42  1   
 35  16  43  1   
 36  17  18  1   
 37  17  44  1   
 38  18  19  1   
 39  18  45  1   
 40  18  46  1   
 41  19  20  2   
 42  19  47  1   
 43  20  21  1   
 44  20  48  1   
 45  21  22  ar  
 46  21  23  ar  
 47  22  24  ar  
 48  22  49  1   
 49  23  25  ar  
 50  23  50  1   
 51  24  26  ar  
 52  24  51  1   
 53  25  26  ar  
 54  25  52  1   
 55  26  53  1   
@<TRIPOS>SUBSTRUCTURE
  1 ****  13 GROUP 4 **** **** 0

# MOE 2024.06 (io_trps.svl 2023.06)
