@<TRIPOS>MOLECULE
NONAME
37 39 1 0 0 
SMALL
USER_CHARGES


@<TRIPOS>ATOM
  1 O       -0.5000     0.0190     1.0760 O.2   1 <1>  -0.5700 
  2 C        0.0380    -1.0750     1.1560 C.2   1 <1>   0.4950 
  3 C       -0.4290    -2.3460     0.7810 C.2   1 <1>  -0.0140 
  4 C        1.4350    -1.2390     1.7340 C.3   1 <1>   0.2700 
  5 C       -1.7020    -2.6090     0.1650 C.ar  1 <1>   0.0280 
  6 C        0.5410    -3.2750     1.1030 C.2   1 <1>   0.2000 
  7 N        1.6440    -2.7130     1.6320 N.pl3 1 <1>  -0.8380 
  8 C       -2.8710    -1.9930     0.6130 C.ar  1 <1>  -0.1500 
  9 C       -1.8150    -3.4930    -0.9110 C.ar  1 <1>  -0.1500 
 10 N        0.5000    -4.6100     0.9780 N.pl3 1 <1>  -0.9000 
 11 C        2.9160    -3.3530     2.0850 C.3   1 <1>   0.2090 
 12 C       -4.0950    -2.2560     0.0280 C.ar  1 <1>  -0.1500 
 13 C       -3.0360    -3.7610    -1.5000 C.ar  1 <1>  -0.1500 
 14 C        3.8160    -3.7120     0.8930 C.3   1 <1>   0.2000 
 15 C       -4.1820    -3.1440    -1.0300 C.ar  1 <1>  -0.1500 
 16 O        4.9860    -4.3080     1.3540 O.3   1 <1>  -0.5600 
 17 C        4.3040    -2.5270     0.0700 C.3   1 <1>  -0.1600 
 18 C        5.9870    -4.2120     0.3910 C.3   1 <1>   0.1200 
 19 C        5.6130    -3.0350    -0.5090 C.3   1 <1>  -0.1600 
 20 H        1.4610    -0.9170     2.7590 H     1 <1>   0.0800 
 21 H        2.1540    -0.7040     1.1420 H     1 <1>   0.0800 
 22 H       -2.8160    -1.2970     1.4320 H     1 <1>   0.1500 
 23 H       -0.9270    -3.9670    -1.2910 H     1 <1>   0.1500 
 24 H       -0.3520    -5.1050     0.7000 H     1 <1>   0.4000 
 25 H        1.2520    -5.2040     1.3270 H     1 <1>   0.4000 
 26 H        2.6810    -4.2500     2.6290 H     1 <1>   0.0800 
 27 H        3.4400    -2.6850     2.7440 H     1 <1>   0.0800 
 28 H       -4.9820    -1.7690     0.3940 H     1 <1>   0.1500 
 29 H       -3.0970    -4.4470    -2.3270 H     1 <1>   0.1500 
 30 H        3.3190    -4.4270     0.2610 H     1 <1>   0.0800 
 31 H       -5.1340    -3.3500    -1.4860 H     1 <1>   0.1500 
 32 H        4.4850    -1.6870     0.7160 H     1 <1>   0.0800 
 33 H        3.5890    -2.2520    -0.6850 H     1 <1>   0.0800 
 34 H        6.0130    -5.1360    -0.1620 H     1 <1>   0.0800 
 35 H        6.9260    -4.0550     0.8930 H     1 <1>   0.0800 
 36 H        6.3750    -2.2770    -0.5000 H     1 <1>   0.0800 
 37 H        5.4770    -3.3840    -1.5180 H     1 <1>   0.0800 
@<TRIPOS>BOND
  1   1   2  2   
  2   2   3  1   
  3   2   4  1   
  4   3   5  1   
  5   3   6  2   
  6   4   7  1   
  7   4  20  1   
  8   4  21  1   
  9   5   8  ar  
 10   5   9  ar  
 11   6   7  1   
 12   6  10  1   
 13   7  11  1   
 14   8  12  ar  
 15   8  22  1   
 16   9  13  ar  
 17   9  23  1   
 18  10  24  1   
 19  10  25  1   
 20  11  14  1   
 21  11  26  1   
 22  11  27  1   
 23  12  15  ar  
 24  12  28  1   
 25  13  15  ar  
 26  13  29  1   
 27  14  16  1   
 28  14  17  1   
 29  14  30  1   
 30  15  31  1   
 31  16  18  1   
 32  17  19  1   
 33  17  32  1   
 34  17  33  1   
 35  18  19  1   
 36  18  34  1   
 37  18  35  1   
 38  19  36  1   
 39  19  37  1   
@<TRIPOS>SUBSTRUCTURE
  1 ****   6 GROUP 4 **** **** 0

# MOE 2024.06 (io_trps.svl 2023.06)
