@<TRIPOS>MOLECULE
NONAME
38 39 1 0 0 
SMALL
USER_CHARGES


@<TRIPOS>ATOM
  1 O        0.0820     0.8230     1.0430 O.2   1 <1>  -0.5700 
  2 C        0.2630     1.7310     0.2670 C.2   1 <1>   0.5690 
  3 N        1.4700     1.9980    -0.3200 N.am  1 <1>  -0.5470 
  4 C       -0.9050     2.6560    -0.0790 C.3   1 <1>  -0.0190 
  5 C        2.7170     1.3560    -0.2350 C.ar  1 <1>   0.1170 
  6 C       -1.3310     3.4950     1.1420 C.3   1 <1>  -0.1600 
  7 C       -2.1070     1.8700    -0.6400 C.3   1 <1>  -0.1600 
  8 C        3.8790     2.0680    -0.5440 C.ar  1 <1>  -0.1430 
  9 C        2.8330     0.0170     0.1280 C.ar  1 <1>  -0.1500 
 10 C       -2.5060     4.4250     0.8060 C.3   1 <1>  -0.1600 
 11 C       -3.2810     2.8000    -0.9790 C.3   1 <1>  -0.1600 
 12 C        5.1110     1.4380    -0.4810 C.ar  1 <1>  -0.1500 
 13 C        3.8270     3.5380    -0.9460 C.3   1 <1>  -0.0970 
 14 C        4.0640    -0.6100     0.1940 C.ar  1 <1>  -0.1430 
 15 C       -3.6930     3.6360     0.2400 C.3   1 <1>  -0.1600 
 16 C        5.2060     0.1070    -0.1150 C.ar  1 <1>  -0.1500 
 17 C        4.1650    -2.0700     0.5970 C.3   1 <1>  -0.0970 
 18 H        1.4900     2.8410    -0.8860 H     1 <1>   0.3700 
 19 H       -0.5790     3.3360    -0.8450 H     1 <1>   0.0800 
 20 H       -0.4970     4.0790     1.4900 H     1 <1>   0.0800 
 21 H       -1.6210     2.8320     1.9410 H     1 <1>   0.0800 
 22 H       -2.4290     1.1460     0.0900 H     1 <1>   0.0800 
 23 H       -1.8060     1.3320    -1.5220 H     1 <1>   0.0800 
 24 H        1.9480    -0.5460     0.3590 H     1 <1>   0.1500 
 25 H       -2.1890     5.1580     0.0840 H     1 <1>   0.0800 
 26 H       -2.8140     4.9500     1.6940 H     1 <1>   0.0800 
 27 H       -4.1190     2.2130    -1.3120 H     1 <1>   0.0800 
 28 H       -2.9980     3.4580    -1.7830 H     1 <1>   0.0800 
 29 H        6.0120     1.9770    -0.7170 H     1 <1>   0.1500 
 30 H        3.3250     4.1100    -0.1870 H     1 <1>   0.0800 
 31 H        3.3060     3.6470    -1.8800 H     1 <1>   0.0800 
 32 H        4.8180     3.9390    -1.0650 H     1 <1>   0.0800 
 33 H       -4.4800     4.3160    -0.0380 H     1 <1>   0.0800 
 34 H       -4.0790     2.9810     1.0040 H     1 <1>   0.0800 
 35 H        6.1710    -0.3660    -0.0710 H     1 <1>   0.1500 
 36 H        3.2880    -2.3740     1.1400 H     1 <1>   0.0800 
 37 H        5.0230    -2.2240     1.2250 H     1 <1>   0.0800 
 38 H        4.2600    -2.6830    -0.2810 H     1 <1>   0.0800 
@<TRIPOS>BOND
  1   1   2  2   
  2   2   3  am  
  3   2   4  1   
  4   3   5  1   
  5   3  18  1   
  6   4   6  1   
  7   4   7  1   
  8   4  19  1   
  9   5   8  ar  
 10   5   9  ar  
 11   6  10  1   
 12   6  20  1   
 13   6  21  1   
 14   7  11  1   
 15   7  22  1   
 16   7  23  1   
 17   8  12  ar  
 18   8  13  1   
 19   9  14  ar  
 20   9  24  1   
 21  10  15  1   
 22  10  25  1   
 23  10  26  1   
 24  11  15  1   
 25  11  27  1   
 26  11  28  1   
 27  12  16  ar  
 28  12  29  1   
 29  13  30  1   
 30  13  31  1   
 31  13  32  1   
 32  14  16  ar  
 33  14  17  1   
 34  15  33  1   
 35  15  34  1   
 36  16  35  1   
 37  17  36  1   
 38  17  37  1   
 39  17  38  1   
@<TRIPOS>SUBSTRUCTURE
  1 ****   3 GROUP 4 **** **** 0

# MOE 2024.06 (io_trps.svl 2023.06)
