@<TRIPOS>MOLECULE
22666
46 47 1 0 0 
SMALL
USER_CHARGES


@<TRIPOS>ATOM
  1 O        0.0580     0.4100     3.1050 O.2   1 <1>  -0.5700 
  2 C        0.0940    -0.6490     2.5320 C.2   1 <1>   0.5690 
  3 N        1.2750    -1.1220     2.0580 N.am  1 <1>  -0.5470 
  4 C       -1.1970    -1.4280     2.3370 C.3   1 <1>  -0.0990 
  5 C        1.5300    -2.2910     1.3340 C.ar  1 <1>   0.1170 
  6 C       -1.7860    -1.2230     0.9320 C.3   1 <1>  -0.1600 
  7 C        1.7410    -2.2750    -0.0490 C.ar  1 <1>  -0.1430 
  8 C        1.5800    -3.4940     2.0230 C.ar  1 <1>  -0.1500 
  9 C       -3.0980    -1.9860     0.7610 C.3   1 <1>   0.1200 
 10 C        2.0010    -3.4700    -0.7150 C.ar  1 <1>  -0.1430 
 11 C        1.6880    -0.9630    -0.8370 C.3   1 <1>  -0.0970 
 12 C        1.8330    -4.6770     1.3580 C.ar  1 <1>  -0.1500 
 13 O       -3.5760    -1.7470    -0.5420 O.3   1 <1>  -0.3630 
 14 C        2.0420    -4.6620    -0.0070 C.ar  1 <1>  -0.1500 
 15 C        2.2480    -3.5190    -2.2180 C.3   1 <1>  -0.0970 
 16 C       -4.7210    -2.3870    -0.8830 C.ar  1 <1>   0.0830 
 17 C       -5.9590    -2.0900    -0.2990 C.ar  1 <1>   0.0830 
 18 C       -4.6360    -3.3750    -1.8490 C.ar  1 <1>  -0.1500 
 19 O       -6.1280    -1.1060     0.6190 O.3   1 <1>  -0.3630 
 20 C       -7.0780    -2.8220    -0.6610 C.ar  1 <1>  -0.1500 
 21 C       -5.7630    -4.0920    -2.2160 C.ar  1 <1>  -0.1500 
 22 C       -5.8660     0.2130     0.1880 C.3   1 <1>   0.0400 
 23 C       -6.9820    -3.8200    -1.6170 C.ar  1 <1>  -0.1500 
 24 H        2.0550    -0.4790     2.1860 H     1 <1>   0.3700 
 25 H       -1.9050    -1.0940     3.0740 H     1 <1>   0.0800 
 26 H       -1.0130    -2.4720     2.5100 H     1 <1>   0.0800 
 27 H       -1.0850    -1.5700     0.1940 H     1 <1>   0.0800 
 28 H       -1.9640    -0.1730     0.7730 H     1 <1>   0.0800 
 29 H        1.4240    -3.5020     3.0860 H     1 <1>   0.1500 
 30 H       -3.8320    -1.6480     1.4700 H     1 <1>   0.0800 
 31 H       -2.9460    -3.0460     0.8740 H     1 <1>   0.0800 
 32 H        1.2450    -0.1630    -0.2750 H     1 <1>   0.0800 
 33 H        1.0980    -1.0850    -1.7270 H     1 <1>   0.0800 
 34 H        2.6830    -0.6690    -1.1160 H     1 <1>   0.0800 
 35 H        1.8690    -5.6060     1.8990 H     1 <1>   0.1500 
 36 H        2.2400    -5.5900    -0.5150 H     1 <1>   0.1500 
 37 H        3.0110    -2.8150    -2.4940 H     1 <1>   0.0800 
 38 H        1.3420    -3.2820    -2.7460 H     1 <1>   0.0800 
 39 H        2.5720    -4.4970    -2.5260 H     1 <1>   0.0800 
 40 H       -3.6860    -3.5840    -2.3060 H     1 <1>   0.1500 
 41 H       -8.0220    -2.6030    -0.1960 H     1 <1>   0.1500 
 42 H       -5.6910    -4.8620    -2.9640 H     1 <1>   0.1500 
 43 H       -6.1970     0.8890     0.9550 H     1 <1>   0.0800 
 44 H       -6.4080     0.3950    -0.7230 H     1 <1>   0.0800 
 45 H       -4.8110     0.3330     0.0250 H     1 <1>   0.0800 
 46 H       -7.8570    -4.3810    -1.8970 H     1 <1>   0.1500 
@<TRIPOS>BOND
  1   1   2  2   
  2   2   3  am  
  3   2   4  1   
  4   3   5  1   
  5   3  24  1   
  6   4   6  1   
  7   4  25  1   
  8   4  26  1   
  9   5   7  ar  
 10   5   8  ar  
 11   6   9  1   
 12   6  27  1   
 13   6  28  1   
 14   7  10  ar  
 15   7  11  1   
 16   8  12  ar  
 17   8  29  1   
 18   9  13  1   
 19   9  30  1   
 20   9  31  1   
 21  10  14  ar  
 22  10  15  1   
 23  11  32  1   
 24  11  33  1   
 25  11  34  1   
 26  12  14  ar  
 27  12  35  1   
 28  13  16  1   
 29  14  36  1   
 30  15  37  1   
 31  15  38  1   
 32  15  39  1   
 33  16  17  ar  
 34  16  18  ar  
 35  17  19  1   
 36  17  20  ar  
 37  18  21  ar  
 38  18  40  1   
 39  19  22  1   
 40  20  23  ar  
 41  20  41  1   
 42  21  23  ar  
 43  21  42  1   
 44  22  43  1   
 45  22  44  1   
 46  22  45  1   
 47  23  46  1   
@<TRIPOS>SUBSTRUCTURE
  1 ****   6 GROUP 4 **** **** 0

# MOE 2024.06 (io_trps.svl 2023.06)
