@<TRIPOS>MOLECULE
NONAME
47 48 1 0 0 
SMALL
USER_CHARGES


@<TRIPOS>ATOM
  1 O        0.4740    -2.1100    -1.7880 O.2   1 <1>  -0.5700 
  2 C        0.3370    -2.0930    -0.5930 C.2   1 <1>   0.6590 
  3 O       -0.7290    -1.5780     0.0000 O.3   1 <1>  -0.4300 
  4 C        1.4030    -2.6730     0.3330 C.3   1 <1>  -0.0190 
  5 C       -1.7810    -1.0100    -0.7450 C.3   1 <1>   0.1200 
  6 C        2.7050    -1.8540     0.2510 C.3   1 <1>  -0.1600 
  7 C        1.6820    -4.1520     0.0000 C.3   1 <1>  -0.1600 
  8 C       -2.8400    -0.5130     0.2330 C.3   1 <1>  -0.2400 
  9 C        3.8280    -2.4720     1.0820 C.3   1 <1>   0.3430 
 10 C        2.8230    -4.7240     0.8390 C.3   1 <1>   0.3430 
 11 N        4.0410    -3.8870     0.6580 N.4   1 <1>  -0.9590 
 12 C        5.2220    -4.4930     1.3340 C.3   1 <1>   0.4860 
 13 C        6.4650    -3.7200     0.9370 C.ar  1 <1>  -0.1440 
 14 C        7.0670    -2.8580     1.8440 C.ar  1 <1>  -0.1500 
 15 C        7.0090    -3.8620    -0.3320 C.ar  1 <1>  -0.1500 
 16 C        8.1890    -2.1380     1.4780 C.ar  1 <1>  -0.1500 
 17 C        8.1330    -3.1410    -0.6980 C.ar  1 <1>  -0.1500 
 18 C        8.7280    -2.2700     0.2090 C.ar  1 <1>   0.0820 
 19 O        9.8250    -1.5240    -0.0640 O.3   1 <1>  -0.3630 
 20 C       10.4980    -1.6220    -1.2980 C.3   1 <1>   0.1200 
 21 C       11.6960    -0.6770    -1.2580 C.3   1 <1>  -0.2400 
 22 H        1.0260    -2.6160     1.3400 H     1 <1>   0.0800 
 23 H       -2.1840    -1.7650    -1.4000 H     1 <1>   0.0800 
 24 H       -1.3860    -0.1980    -1.3330 H     1 <1>   0.0800 
 25 H        2.5190    -0.8530     0.6020 H     1 <1>   0.0800 
 26 H        3.0270    -1.7760    -0.7740 H     1 <1>   0.0800 
 27 H        1.9260    -4.2550    -1.0440 H     1 <1>   0.0800 
 28 H        0.7910    -4.7300     0.1770 H     1 <1>   0.0800 
 29 H       -3.2200    -1.3320     0.8180 H     1 <1>   0.0800 
 30 H       -3.6570    -0.0740    -0.3100 H     1 <1>   0.0800 
 31 H       -2.4240     0.2340     0.8850 H     1 <1>   0.0800 
 32 H        3.5680    -2.4360     2.1280 H     1 <1>   0.0800 
 33 H        4.7310    -1.8990     0.9360 H     1 <1>   0.0800 
 34 H        3.0190    -5.7380     0.5290 H     1 <1>   0.0800 
 35 H        2.5360    -4.7350     1.8780 H     1 <1>   0.0800 
 36 H        4.2670    -3.8570    -0.3450 H     1 <1>   0.4500 
 37 H        5.3370    -5.5220     1.0330 H     1 <1>   0.0800 
 38 H        5.0970    -4.4630     2.4040 H     1 <1>   0.0800 
 39 H        6.6780    -2.7350     2.8410 H     1 <1>   0.1500 
 40 H        6.5730    -4.5340    -1.0510 H     1 <1>   0.1500 
 41 H        8.6630    -1.4670     2.1730 H     1 <1>   0.1500 
 42 H        8.5340    -3.2680    -1.6860 H     1 <1>   0.1500 
 43 H        9.8180    -1.3390    -2.0830 H     1 <1>   0.0800 
 44 H       10.8220    -2.6400    -1.4310 H     1 <1>   0.0800 
 45 H       11.3630     0.3340    -1.1090 H     1 <1>   0.0800 
 46 H       12.2320    -0.7290    -2.1880 H     1 <1>   0.0800 
 47 H       12.3610    -0.9580    -0.4620 H     1 <1>   0.0800 
@<TRIPOS>BOND
  1   1   2  2   
  2   2   3  1   
  3   2   4  1   
  4   3   5  1   
  5   4   6  1   
  6   4   7  1   
  7   4  22  1   
  8   5   8  1   
  9   5  23  1   
 10   5  24  1   
 11   6   9  1   
 12   6  25  1   
 13   6  26  1   
 14   7  10  1   
 15   7  27  1   
 16   7  28  1   
 17   8  29  1   
 18   8  30  1   
 19   8  31  1   
 20   9  11  1   
 21   9  32  1   
 22   9  33  1   
 23  10  11  1   
 24  10  34  1   
 25  10  35  1   
 26  11  12  1   
 27  11  36  1   
 28  12  13  1   
 29  12  37  1   
 30  12  38  1   
 31  13  14  ar  
 32  13  15  ar  
 33  14  16  ar  
 34  14  39  1   
 35  15  17  ar  
 36  15  40  1   
 37  16  18  ar  
 38  16  41  1   
 39  17  18  ar  
 40  17  42  1   
 41  18  19  1   
 42  19  20  1   
 43  20  21  1   
 44  20  43  1   
 45  20  44  1   
 46  21  45  1   
 47  21  46  1   
 48  21  47  1   
@<TRIPOS>SUBSTRUCTURE
  1 ****   9 GROUP 4 **** **** 0

# MOE 2024.06 (io_trps.svl 2023.06)
