@<TRIPOS>MOLECULE
NONAME
43 45 1 0 0 
SMALL
USER_CHARGES


@<TRIPOS>ATOM
  1 BR      -1.8480     0.4410     0.9980 Br    1 <1>  -0.1110 
  2 C       -3.0600    -0.8390     0.2310 C.ar  1 <1>   0.1110 
  3 C       -2.7920    -2.1850     0.3970 C.ar  1 <1>  -0.1500 
  4 C       -4.1630    -0.3820    -0.4630 C.ar  1 <1>  -0.1500 
  5 C       -3.6690    -3.1130    -0.1480 C.ar  1 <1>  -0.1440 
  6 C       -5.0270    -1.3120    -1.0130 C.ar  1 <1>  -0.1500 
  7 C       -4.7800    -2.6680    -0.8570 C.ar  1 <1>  -0.1500 
  8 C       -3.4290    -4.6010     0.0230 C.3   1 <1>   0.4870 
  9 N       -3.7150    -4.9810     1.4410 N.4   1 <1>  -0.9590 
 10 C       -3.1790    -6.3780     1.7020 C.3   1 <1>   0.3430 
 11 C       -5.1800    -4.7160     1.7630 C.3   1 <1>   0.3430 
 12 C       -4.2260    -7.4830     2.0090 C.3   1 <1>   0.1960 
 13 C       -6.0540    -5.9530     2.0910 C.3   1 <1>   0.1960 
 14 N       -5.5640    -7.1940     1.4750 N.am  1 <1>  -0.8490 
 15 S       -5.6960    -7.2600    -0.2230 S.o2  1 <1>   1.4470 
 16 O       -6.3070    -6.0110    -0.6260 O.2   1 <1>  -0.6500 
 17 O       -4.3600    -7.5250    -0.7150 O.2   1 <1>  -0.6500 
 18 C       -6.8040    -8.6650    -0.5270 C.ar  1 <1>  -0.0090 
 19 C       -6.2970    -9.9440    -0.7510 C.ar  1 <1>  -0.1500 
 20 C       -8.1870    -8.5010    -0.5160 C.ar  1 <1>  -0.1500 
 21 C       -7.1390   -11.0240    -0.9610 C.ar  1 <1>  -0.1500 
 22 C       -9.0400    -9.5730    -0.7250 C.ar  1 <1>  -0.1500 
 23 C       -8.5050   -10.8270    -0.9450 C.ar  1 <1>   0.1770 
 24 CL      -9.5710   -12.1810    -1.2080 Cl    1 <1>  -0.1770 
 25 H       -1.9090    -2.4750     0.9390 H     1 <1>   0.1500 
 26 H       -4.3370     0.6740    -0.5730 H     1 <1>   0.1500 
 27 H       -5.8910    -0.9800    -1.5660 H     1 <1>   0.1500 
 28 H       -5.4670    -3.3730    -1.3010 H     1 <1>   0.1500 
 29 H       -2.4040    -4.8230    -0.2240 H     1 <1>   0.0800 
 30 H       -4.0620    -5.1500    -0.6540 H     1 <1>   0.0800 
 31 H       -3.1670    -4.3160     2.0000 H     1 <1>   0.4500 
 32 H       -2.4810    -6.3470     2.5220 H     1 <1>   0.0800 
 33 H       -2.6190    -6.7030     0.8400 H     1 <1>   0.0800 
 34 H       -5.6410    -4.2210     0.9250 H     1 <1>   0.0800 
 35 H       -5.2470    -4.0290     2.5900 H     1 <1>   0.0800 
 36 H       -4.2970    -7.5980     3.0780 H     1 <1>   0.0800 
 37 H       -3.8730    -8.4260     1.6250 H     1 <1>   0.0800 
 38 H       -7.0690    -5.7640     1.7820 H     1 <1>   0.0800 
 39 H       -6.0810    -6.0820     3.1600 H     1 <1>   0.0800 
 40 H       -5.2310   -10.1000    -0.7660 H     1 <1>   0.1500 
 41 H       -8.6060    -7.5230    -0.3460 H     1 <1>   0.1500 
 42 H       -6.7450   -12.0100    -1.1360 H     1 <1>   0.1500 
 43 H      -10.1080    -9.4430    -0.7180 H     1 <1>   0.1500 
@<TRIPOS>BOND
  1   1   2  1   
  2   2   3  ar  
  3   2   4  ar  
  4   3   5  ar  
  5   3  25  1   
  6   4   6  ar  
  7   4  26  1   
  8   5   7  ar  
  9   5   8  1   
 10   6   7  ar  
 11   6  27  1   
 12   7  28  1   
 13   8   9  1   
 14   8  29  1   
 15   8  30  1   
 16   9  10  1   
 17   9  11  1   
 18   9  31  1   
 19  10  12  1   
 20  10  32  1   
 21  10  33  1   
 22  11  13  1   
 23  11  34  1   
 24  11  35  1   
 25  12  14  1   
 26  12  36  1   
 27  12  37  1   
 28  13  14  1   
 29  13  38  1   
 30  13  39  1   
 31  14  15  am  
 32  15  16  2   
 33  15  17  2   
 34  15  18  1   
 35  18  19  ar  
 36  18  20  ar  
 37  19  21  ar  
 38  19  40  1   
 39  20  22  ar  
 40  20  41  1   
 41  21  23  ar  
 42  21  42  1   
 43  22  23  ar  
 44  22  43  1   
 45  23  24  1   
@<TRIPOS>SUBSTRUCTURE
  1 ****  16 GROUP 4 **** **** 0

# MOE 2024.06 (io_trps.svl 2023.06)
