@<TRIPOS>MOLECULE
NONAME
40 42 1 0 0 
SMALL
USER_CHARGES


@<TRIPOS>ATOM
  1 O       -0.4060     1.9600     2.3970 O.2   1 <1>  -0.5700 
  2 C       -0.1330     2.0280     1.2140 C.2   1 <1>   0.6900 
  3 N        1.1100     2.4320     0.8190 N.am  1 <1>  -0.6600 
  4 N       -1.0540     1.7790     0.2420 N.am  1 <1>  -0.5470 
  5 C        2.1180     1.5550     0.1460 C.3   1 <1>   0.2200 
  6 C        1.7140     3.5930     1.5190 C.3   1 <1>   0.1400 
  7 C       -2.3760     1.3120     0.2910 C.ar  1 <1>   0.1170 
  8 C        2.8610     2.4030    -0.9030 C.3   1 <1>  -0.1600 
  9 C        1.5130     0.2720    -0.4600 C.3   1 <1>  -0.1600 
 10 C        2.4490     4.4680     0.5010 C.3   1 <1>  -0.1600 
 11 C       -3.2070     1.5650    -0.7990 C.ar  1 <1>  -0.1500 
 12 C       -2.8810     0.5890     1.3780 C.ar  1 <1>  -0.1500 
 13 C        3.4920     3.6600    -0.2820 C.3   1 <1>  -0.1600 
 14 C        2.5650    -0.7210    -0.9780 C.3   1 <1>  -0.2400 
 15 C       -4.5040     1.0980    -0.7660 C.ar  1 <1>   0.0820 
 16 C       -4.1910     0.1260     1.3970 C.ar  1 <1>  -0.1500 
 17 O       -5.4570     1.2310    -1.6950 O.3   1 <1>  -0.3620 
 18 C       -4.9850     0.3980     0.3020 C.ar  1 <1>   0.0820 
 19 C       -6.6190     0.5800    -1.1840 C.3   1 <1>   0.4000 
 20 O       -6.2640     0.0580     0.0950 O.3   1 <1>  -0.3630 
 21 H       -0.7140     2.0630    -0.6710 H     1 <1>   0.3700 
 22 H        2.8290     1.2520     0.8970 H     1 <1>   0.0800 
 23 H        2.3970     3.2370     2.2720 H     1 <1>   0.0800 
 24 H        0.9450     4.1670     2.0090 H     1 <1>   0.0800 
 25 H        2.1710     2.6890    -1.6780 H     1 <1>   0.0800 
 26 H        3.6430     1.8250    -1.3580 H     1 <1>   0.0800 
 27 H        0.8510     0.5240    -1.2690 H     1 <1>   0.0800 
 28 H        0.9450    -0.2370     0.3000 H     1 <1>   0.0800 
 29 H        2.9310     5.2820     1.0140 H     1 <1>   0.0800 
 30 H        1.7290     4.8890    -0.1780 H     1 <1>   0.0800 
 31 H       -2.8600     2.1150    -1.6520 H     1 <1>   0.1500 
 32 H       -2.2470     0.3820     2.2210 H     1 <1>   0.1500 
 33 H        3.9230     4.2730    -1.0560 H     1 <1>   0.0800 
 34 H        4.2840     3.3650     0.3850 H     1 <1>   0.0800 
 35 H        3.0860    -0.3270    -1.8320 H     1 <1>   0.0800 
 36 H        2.0840    -1.6360    -1.2760 H     1 <1>   0.0800 
 37 H        3.2790    -0.9500    -0.2060 H     1 <1>   0.0800 
 38 H       -4.5820    -0.4260     2.2310 H     1 <1>   0.1500 
 39 H       -6.8970    -0.2270    -1.8380 H     1 <1>   0.0800 
 40 H       -7.4140     1.2960    -1.0730 H     1 <1>   0.0800 
@<TRIPOS>BOND
  1   1   2  2   
  2   2   3  am  
  3   2   4  am  
  4   3   5  1   
  5   3   6  1   
  6   4   7  1   
  7   4  21  1   
  8   5   8  1   
  9   5   9  1   
 10   5  22  1   
 11   6  10  1   
 12   6  23  1   
 13   6  24  1   
 14   7  11  ar  
 15   7  12  ar  
 16   8  13  1   
 17   8  25  1   
 18   8  26  1   
 19   9  14  1   
 20   9  27  1   
 21   9  28  1   
 22  10  13  1   
 23  10  29  1   
 24  10  30  1   
 25  11  15  ar  
 26  11  31  1   
 27  12  16  ar  
 28  12  32  1   
 29  13  33  1   
 30  13  34  1   
 31  14  35  1   
 32  14  36  1   
 33  14  37  1   
 34  15  17  1   
 35  15  18  ar  
 36  16  18  ar  
 37  16  38  1   
 38  17  19  1   
 39  18  20  1   
 40  19  20  1   
 41  19  39  1   
 42  19  40  1   
@<TRIPOS>SUBSTRUCTURE
  1 ****   4 GROUP 4 **** **** 0

# MOE 2024.06 (io_trps.svl 2023.06)
