@<TRIPOS>MOLECULE
NONAME
39 40 1 0 0 
SMALL
USER_CHARGES


@<TRIPOS>ATOM
  1 S        0.3480    -0.1780    -0.0900 S.3   1 <1>  -0.2860 
  2 C       -1.3810    -0.5680     0.1790 C.2   1 <1>   0.2420 
  3 C        1.2050    -1.3040     1.1190 C.3   1 <1>   0.1310 
  4 N       -1.7680    -1.4670     1.0200 N.2   1 <1>  -0.5650 
  5 N       -2.3650     0.0680    -0.4950 N.pl3 1 <1>   0.0480 
  6 C        2.7200    -1.1890     1.0300 C.2   1 <1>   0.5690 
  7 C       -3.1100    -1.4230     0.8950 C.2   1 <1>   0.0770 
  8 C       -3.4910    -0.4990    -0.0190 C.2   1 <1>  -0.3020 
  9 C       -2.2480     1.1320    -1.5070 C.3   1 <1>   0.0160 
 10 O        3.3740    -1.6290     1.9450 O.2   1 <1>  -0.5700 
 11 N        3.2850    -0.6120    -0.0680 N.am  1 <1>  -0.7300 
 12 C        4.7190    -0.3960    -0.3580 C.3   1 <1>   0.2200 
 13 C        5.4020    -1.7530    -0.5760 C.3   1 <1>  -0.1600 
 14 C        5.3450     0.4890     0.7320 C.3   1 <1>  -0.1600 
 15 C        6.9020    -1.6730    -0.9050 C.3   1 <1>  -0.1600 
 16 C        6.6810     1.1070     0.2890 C.3   1 <1>  -0.1600 
 17 C        7.7470    -1.2850     0.3170 C.3   1 <1>  -0.1600 
 18 C        7.9160     0.2270     0.5360 C.3   1 <1>  -0.1600 
 19 H        0.8940    -2.3070     0.8960 H     1 <1>   0.0800 
 20 H        0.8660    -1.0300     2.1010 H     1 <1>   0.0800 
 21 H       -3.7440    -2.0710     1.4780 H     1 <1>   0.1500 
 22 H       -4.4780    -0.2250    -0.3450 H     1 <1>   0.1500 
 23 H       -1.6920     0.7610    -2.3480 H     1 <1>   0.0800 
 24 H       -1.7340     1.9730    -1.0790 H     1 <1>   0.0800 
 25 H       -3.2280     1.4350    -1.8280 H     1 <1>   0.0800 
 26 H        2.6470    -0.2410    -0.7750 H     1 <1>   0.3700 
 27 H        4.7700     0.1460    -1.2870 H     1 <1>   0.0800 
 28 H        4.9060    -2.2450    -1.3940 H     1 <1>   0.0800 
 29 H        5.2700    -2.3660     0.2980 H     1 <1>   0.0800 
 30 H        5.4730    -0.0660     1.6450 H     1 <1>   0.0800 
 31 H        4.6630     1.2960     0.9330 H     1 <1>   0.0800 
 32 H        7.0830    -1.0000    -1.7250 H     1 <1>   0.0800 
 33 H        7.2150    -2.6540    -1.2210 H     1 <1>   0.0800 
 34 H        6.8250     2.0300     0.8240 H     1 <1>   0.0800 
 35 H        6.6280     1.3630    -0.7560 H     1 <1>   0.0800 
 36 H        8.7290    -1.7110     0.2060 H     1 <1>   0.0800 
 37 H        7.3190    -1.7270     1.2020 H     1 <1>   0.0800 
 38 H        8.2430     0.3740     1.5520 H     1 <1>   0.0800 
 39 H        8.7080     0.5820    -0.1000 H     1 <1>   0.0800 
@<TRIPOS>BOND
  1   1   2  1   
  2   1   3  1   
  3   2   4  2   
  4   2   5  1   
  5   3   6  1   
  6   3  19  1   
  7   3  20  1   
  8   4   7  1   
  9   5   8  1   
 10   5   9  1   
 11   6  10  2   
 12   6  11  am  
 13   7   8  2   
 14   7  21  1   
 15   8  22  1   
 16   9  23  1   
 17   9  24  1   
 18   9  25  1   
 19  11  12  1   
 20  11  26  1   
 21  12  13  1   
 22  12  14  1   
 23  12  27  1   
 24  13  15  1   
 25  13  28  1   
 26  13  29  1   
 27  14  16  1   
 28  14  30  1   
 29  14  31  1   
 30  15  17  1   
 31  15  32  1   
 32  15  33  1   
 33  16  18  1   
 34  16  34  1   
 35  16  35  1   
 36  17  18  1   
 37  17  36  1   
 38  17  37  1   
 39  18  38  1   
 40  18  39  1   
@<TRIPOS>SUBSTRUCTURE
  1 ****  11 GROUP 4 **** **** 0

# MOE 2024.06 (io_trps.svl 2023.06)
