@<TRIPOS>MOLECULE
NONAME
50 51 1 0 0 
SMALL
USER_CHARGES


@<TRIPOS>ATOM
  1 CL      -0.0250     0.6330    -1.1790 Cl    1 <1>  -0.1770 
  2 C        1.5430     1.1670    -0.6300 C.ar  1 <1>   0.1770 
  3 C        1.8150     2.5210    -0.5700 C.ar  1 <1>  -0.1500 
  4 C        2.4900     0.2300    -0.2650 C.ar  1 <1>  -0.1500 
  5 C        3.0590     2.9440    -0.1330 C.ar  1 <1>  -0.1500 
  6 C        3.7320     0.6590     0.1710 C.ar  1 <1>  -0.1500 
  7 C        4.0230     2.0150     0.2400 C.ar  1 <1>  -0.1430 
  8 C        5.3910     2.4730     0.7240 C.3   1 <1>   0.1770 
  9 S        6.7290     1.9570    -0.3930 S.o   1 <1>   0.1130 
 10 O        6.9840     0.4960    -0.1480 O.2   1 <1>  -0.5000 
 11 C        8.1540     2.8660     0.2760 C.3   1 <1>   0.0330 
 12 C        9.4760     2.3630    -0.3090 C.3   1 <1>   0.2000 
 13 O        9.6620     1.0610     0.1250 O.3   1 <1>  -0.6800 
 14 C       10.6700     3.2260     0.1250 C.3   1 <1>   0.1200 
 15 O       11.8070     2.8970    -0.6450 O.3   1 <1>  -0.3630 
 16 C       12.9890     3.5370    -0.4640 C.ar  1 <1>   0.0830 
 17 C       14.0310     3.1730    -1.2980 C.ar  1 <1>  -0.1500 
 18 C       13.2050     4.5200     0.4930 C.ar  1 <1>  -0.1500 
 19 C       15.2700     3.7790    -1.1870 C.ar  1 <1>  -0.1500 
 20 C       14.4470     5.1230     0.5990 C.ar  1 <1>  -0.1500 
 21 C       15.5040     4.7680    -0.2350 C.ar  1 <1>  -0.1430 
 22 C       16.8690     5.4730    -0.0720 C.3   1 <1>   0.1440 
 23 C       16.6980     6.9830    -0.2980 C.3   1 <1>  -0.2400 
 24 C       17.9310     4.9730    -1.0650 C.3   1 <1>  -0.2400 
 25 C       17.4080     5.2270     1.3450 C.3   1 <1>  -0.2400 
 26 H        1.0600     3.2280    -0.8610 H     1 <1>   0.1500 
 27 H        2.2580    -0.8180    -0.3230 H     1 <1>   0.1500 
 28 H        3.2670     3.9990    -0.0880 H     1 <1>   0.1500 
 29 H        4.4760    -0.0700     0.4520 H     1 <1>   0.1500 
 30 H        5.5580     2.0700     1.7060 H     1 <1>   0.0800 
 31 H        5.3810     3.5440     0.8140 H     1 <1>   0.0800 
 32 H        8.2010     2.7700     1.3460 H     1 <1>   0.0800 
 33 H        8.0550     3.9110     0.0450 H     1 <1>   0.0800 
 34 H        9.4140     2.3520    -1.3840 H     1 <1>   0.0800 
 35 H        8.8310     0.5460    -0.0350 H     1 <1>   0.4000 
 36 H       10.8940     3.0580     1.1640 H     1 <1>   0.0800 
 37 H       10.4570     4.2660    -0.0440 H     1 <1>   0.0800 
 38 H       13.8640     2.4080    -2.0350 H     1 <1>   0.1500 
 39 H       12.4270     4.8290     1.1630 H     1 <1>   0.1500 
 40 H       16.0390     3.4540    -1.8610 H     1 <1>   0.1500 
 41 H       14.5820     5.8800     1.3490 H     1 <1>   0.1500 
 42 H       16.2870     7.1630    -1.2760 H     1 <1>   0.0800 
 43 H       17.6440     7.4880    -0.2260 H     1 <1>   0.0800 
 44 H       16.0350     7.4120     0.4300 H     1 <1>   0.0800 
 45 H       18.1090     3.9220    -0.9290 H     1 <1>   0.0800 
 46 H       17.6130     5.1470    -2.0780 H     1 <1>   0.0800 
 47 H       18.8620     5.4900    -0.9160 H     1 <1>   0.0800 
 48 H       16.7510     5.6400     2.0880 H     1 <1>   0.0800 
 49 H       18.3760     5.6780     1.4680 H     1 <1>   0.0800 
 50 H       17.4960     4.1700     1.5250 H     1 <1>   0.0800 
@<TRIPOS>BOND
  1   1   2  1   
  2   2   3  ar  
  3   2   4  ar  
  4   3   5  ar  
  5   3  26  1   
  6   4   6  ar  
  7   4  27  1   
  8   5   7  ar  
  9   5  28  1   
 10   6   7  ar  
 11   6  29  1   
 12   7   8  1   
 13   8   9  1   
 14   8  30  1   
 15   8  31  1   
 16   9  10  2   
 17   9  11  1   
 18  11  12  1   
 19  11  32  1   
 20  11  33  1   
 21  12  13  1   
 22  12  14  1   
 23  12  34  1   
 24  13  35  1   
 25  14  15  1   
 26  14  36  1   
 27  14  37  1   
 28  15  16  1   
 29  16  17  ar  
 30  16  18  ar  
 31  17  19  ar  
 32  17  38  1   
 33  18  20  ar  
 34  18  39  1   
 35  19  21  ar  
 36  19  40  1   
 37  20  21  ar  
 38  20  41  1   
 39  21  22  1   
 40  22  23  1   
 41  22  24  1   
 42  22  25  1   
 43  23  42  1   
 44  23  43  1   
 45  23  44  1   
 46  24  45  1   
 47  24  46  1   
 48  24  47  1   
 49  25  48  1   
 50  25  49  1   
 51  25  50  1   
@<TRIPOS>SUBSTRUCTURE
  1 ****  12 GROUP 4 **** **** 0

# MOE 2024.06 (io_trps.svl 2023.06)
