@<TRIPOS>MOLECULE
NONAME
41 43 1 0 0 
SMALL
USER_CHARGES


@<TRIPOS>ATOM
  1 CL       3.0270     4.0710    -2.3950 Cl    1 <1>  -0.1770 
  2 C        1.8450     3.8400    -1.1240 C.ar  1 <1>   0.1770 
  3 C        2.0590     2.8830    -0.1350 C.ar  1 <1>   0.0820 
  4 C        0.7170     4.6370    -1.1240 C.ar  1 <1>  -0.1500 
  5 O        3.1870     2.1310    -0.1910 O.3   1 <1>  -0.3630 
  6 C        1.1110     2.7260     0.8740 C.ar  1 <1>  -0.1500 
  7 C       -0.2080     4.4660    -0.1120 C.ar  1 <1>   0.1770 
  8 C        3.8350     1.7310     1.0090 C.3   1 <1>   0.1810 
  9 C       -0.0240     3.5220     0.8840 C.ar  1 <1>  -0.1500 
 10 CL      -1.6400     5.4630    -0.0880 Cl    1 <1>  -0.1770 
 11 C        5.2180     1.1440     0.7370 C.2   1 <1>   0.5690 
 12 O        5.4360     0.0410     1.1850 O.2   1 <1>  -0.5700 
 13 N        6.1860     1.8380     0.0480 N.am  1 <1>  -0.6600 
 14 C        6.0260     3.2130    -0.5330 C.3   1 <1>   0.1400 
 15 C        7.5230     1.2310    -0.2470 C.3   1 <1>   0.1400 
 16 C        7.1960     4.1360    -0.1490 C.3   1 <1>   0.2090 
 17 C        8.6720     2.1690     0.1570 C.3   1 <1>   0.2090 
 18 N        8.5170     3.5140    -0.4670 N.pl3 1 <1>  -0.8380 
 19 C        9.6300     4.3300    -0.4370 C.ar  1 <1>   0.4100 
 20 N        9.6530     5.2980     0.4720 N.ar  1 <1>  -0.6200 
 21 C       10.6700     4.1010    -1.3340 C.ar  1 <1>  -0.1500 
 22 C       10.7400     6.0520     0.4840 C.ar  1 <1>   0.1600 
 23 C       11.7940     4.8910    -1.3100 C.ar  1 <1>  -0.1500 
 24 C       11.8200     5.8970    -0.3660 C.ar  1 <1>  -0.1500 
 25 H        0.5620     5.3730    -1.8910 H     1 <1>   0.1500 
 26 H        1.2360     1.9860     1.6430 H     1 <1>   0.1500 
 27 H        3.2280     0.9840     1.4860 H     1 <1>   0.0800 
 28 H        3.9300     2.5870     1.6500 H     1 <1>   0.0800 
 29 H       -0.7680     3.4130     1.6540 H     1 <1>   0.1500 
 30 H        5.1150     3.6720    -0.2000 H     1 <1>   0.0800 
 31 H        5.9820     3.1360    -1.6050 H     1 <1>   0.0800 
 32 H        7.5900     1.0310    -1.3010 H     1 <1>   0.0800 
 33 H        7.6380     0.2960     0.2730 H     1 <1>   0.0800 
 34 H        7.1500     4.3500     0.9050 H     1 <1>   0.0800 
 35 H        7.1060     5.0670    -0.6800 H     1 <1>   0.0800 
 36 H        9.6090     1.7350    -0.1450 H     1 <1>   0.0800 
 37 H        8.6850     2.2750     1.2290 H     1 <1>   0.0800 
 38 H       10.5700     3.3020    -2.0430 H     1 <1>   0.1500 
 39 H       10.7710     6.8400     1.2160 H     1 <1>   0.1500 
 40 H       12.6110     4.7370    -1.9930 H     1 <1>   0.1500 
 41 H       12.6680     6.5540    -0.2900 H     1 <1>   0.1500 
@<TRIPOS>BOND
  1   1   2  1   
  2   2   3  ar  
  3   2   4  ar  
  4   3   5  1   
  5   3   6  ar  
  6   4   7  ar  
  7   4  25  1   
  8   5   8  1   
  9   6   9  ar  
 10   6  26  1   
 11   7   9  ar  
 12   7  10  1   
 13   8  11  1   
 14   8  27  1   
 15   8  28  1   
 16   9  29  1   
 17  11  12  2   
 18  11  13  am  
 19  13  14  1   
 20  13  15  1   
 21  14  16  1   
 22  14  30  1   
 23  14  31  1   
 24  15  17  1   
 25  15  32  1   
 26  15  33  1   
 27  16  18  1   
 28  16  34  1   
 29  16  35  1   
 30  17  18  1   
 31  17  36  1   
 32  17  37  1   
 33  18  19  1   
 34  19  20  ar  
 35  19  21  ar  
 36  20  22  ar  
 37  21  23  ar  
 38  21  38  1   
 39  22  24  ar  
 40  22  39  1   
 41  23  24  ar  
 42  23  40  1   
 43  24  41  1   
@<TRIPOS>SUBSTRUCTURE
  1 ****  14 GROUP 4 **** **** 0

# MOE 2024.06 (io_trps.svl 2023.06)
