@<TRIPOS>MOLECULE
NONAME
46 48 1 0 0 
SMALL
USER_CHARGES


@<TRIPOS>ATOM
  1 CL       0.7320    -0.3660    -3.4020 Cl    1 <1>  -0.1770 
  2 C        0.9760    -1.7000    -2.2990 C.ar  1 <1>   0.1770 
  3 C        0.0070    -2.6770    -2.1920 C.ar  1 <1>  -0.1500 
  4 C        2.1390    -1.7510    -1.5540 C.ar  1 <1>  -0.1500 
  5 C        0.1970    -3.7360    -1.3160 C.ar  1 <1>   0.1170 
  6 C        2.3340    -2.8080    -0.6810 C.ar  1 <1>  -0.1500 
  7 N       -0.7270    -4.7760    -1.1310 N.am  1 <1>  -0.5470 
  8 C        1.3730    -3.8040    -0.5490 C.ar  1 <1>   0.1000 
  9 C       -1.9760    -5.0810    -1.6020 C.2   1 <1>   0.5440 
 10 N        1.5650    -4.8850     0.3310 N.pl3 1 <1>  -0.8380 
 11 O       -2.5350    -4.3160    -2.3640 O.2   1 <1>  -0.5700 
 12 C       -2.6150    -6.3250    -1.2060 C.ar  1 <1>   0.0860 
 13 C        2.0180    -4.6160     1.7270 C.3   1 <1>   0.2090 
 14 C        2.2300    -6.0940    -0.2410 C.3   1 <1>   0.2090 
 15 C       -2.3610    -6.9830     0.0120 C.ar  1 <1>   0.0830 
 16 C       -3.5210    -6.9330    -2.0770 C.ar  1 <1>  -0.1500 
 17 C        1.8820    -5.8870     2.5870 C.3   1 <1>   0.1200 
 18 C        2.0850    -7.2900     0.7170 C.3   1 <1>   0.1200 
 19 O       -1.5370    -6.4450     0.9370 O.3   1 <1>  -0.3630 
 20 C       -2.9460    -8.2130     0.3080 C.ar  1 <1>  -0.1430 
 21 C       -4.1210    -8.1410    -1.7800 C.ar  1 <1>  -0.1500 
 22 O        2.5580    -6.9660     1.9980 O.3   1 <1>  -0.5600 
 23 C       -2.0700    -5.4140     1.7420 C.3   1 <1>   0.0400 
 24 C       -3.8280    -8.7840    -0.5910 C.ar  1 <1>  -0.1500 
 25 C       -2.6310    -8.9380     1.6100 C.3   1 <1>  -0.0970 
 26 H       -0.8820    -2.6040    -2.7890 H     1 <1>   0.1500 
 27 H        2.8770    -0.9770    -1.6610 H     1 <1>   0.1500 
 28 H        3.2390    -2.8610    -0.1060 H     1 <1>   0.1500 
 29 H       -0.3900    -5.4090    -0.3930 H     1 <1>   0.3700 
 30 H        1.4210    -3.8270     2.1500 H     1 <1>   0.0800 
 31 H        3.0470    -4.3030     1.7250 H     1 <1>   0.0800 
 32 H        3.2740    -5.8900    -0.4030 H     1 <1>   0.0800 
 33 H        1.7840    -6.3360    -1.1900 H     1 <1>   0.0800 
 34 H       -3.7530    -6.4470    -3.0090 H     1 <1>   0.1500 
 35 H        0.8470    -6.1540     2.7010 H     1 <1>   0.0800 
 36 H        2.3090    -5.7250     3.5600 H     1 <1>   0.0800 
 37 H        2.6570    -8.1260     0.3570 H     1 <1>   0.0800 
 38 H        1.0520    -7.5830     0.7950 H     1 <1>   0.0800 
 39 H       -4.8140    -8.5850    -2.4740 H     1 <1>   0.1500 
 40 H       -2.3890    -4.5990     1.1160 H     1 <1>   0.0800 
 41 H       -1.3020    -5.0770     2.4140 H     1 <1>   0.0800 
 42 H       -2.9040    -5.8030     2.2980 H     1 <1>   0.0800 
 43 H       -4.2950    -9.7290    -0.3750 H     1 <1>   0.1500 
 44 H       -1.5670    -9.0080     1.7440 H     1 <1>   0.0800 
 45 H       -3.0380    -9.9330     1.6080 H     1 <1>   0.0800 
 46 H       -3.0500    -8.3970     2.4400 H     1 <1>   0.0800 
@<TRIPOS>BOND
  1   1   2  1   
  2   2   3  ar  
  3   2   4  ar  
  4   3   5  ar  
  5   3  26  1   
  6   4   6  ar  
  7   4  27  1   
  8   5   7  1   
  9   5   8  ar  
 10   6   8  ar  
 11   6  28  1   
 12   7   9  am  
 13   7  29  1   
 14   8  10  1   
 15   9  11  2   
 16   9  12  1   
 17  10  13  1   
 18  10  14  1   
 19  12  15  ar  
 20  12  16  ar  
 21  13  17  1   
 22  13  30  1   
 23  13  31  1   
 24  14  18  1   
 25  14  32  1   
 26  14  33  1   
 27  15  19  1   
 28  15  20  ar  
 29  16  21  ar  
 30  16  34  1   
 31  17  22  1   
 32  17  35  1   
 33  17  36  1   
 34  18  22  1   
 35  18  37  1   
 36  18  38  1   
 37  19  23  1   
 38  20  24  ar  
 39  20  25  1   
 40  21  24  ar  
 41  21  39  1   
 42  23  40  1   
 43  23  41  1   
 44  23  42  1   
 45  24  43  1   
 46  25  44  1   
 47  25  45  1   
 48  25  46  1   
@<TRIPOS>SUBSTRUCTURE
  1 ****   7 GROUP 4 **** **** 0

# MOE 2024.06 (io_trps.svl 2023.06)
