@<TRIPOS>MOLECULE
NONAME
34 36 1 0 0 
SMALL
USER_CHARGES


@<TRIPOS>ATOM
  1 O       -3.1560    -0.8210     2.7970 O.2   1 <1>  -0.5700 
  2 C       -3.3240    -0.4650     1.6500 C.2   1 <1>   0.6900 
  3 N       -3.0750    -1.2210     0.5360 N.am  1 <1>  -0.6600 
  4 N       -3.8770     0.7460     1.3390 N.am  1 <1>  -0.7300 
  5 C       -3.1710    -0.2770    -0.5410 C.3   1 <1>   0.5200 
  6 C       -2.2600    -2.4820     0.4000 C.3   1 <1>   0.1140 
  7 C       -4.3180     0.5500    -0.0200 C.3   1 <1>   0.5200 
  8 N       -3.6120    -0.4660    -1.8940 N.am  1 <1>  -0.7300 
  9 C       -0.9970    -2.3670    -0.4820 C.2   1 <1>   0.9060 
 10 C       -3.1530    -3.6060    -0.1520 C.3   1 <1>  -0.0170 
 11 N       -4.4310     1.4960    -1.1030 N.am  1 <1>  -0.7300 
 12 C       -4.1710     0.7350    -2.2060 C.2   1 <1>   0.6900 
 13 O        0.0740    -2.8070    -0.0500 O.co2 1 <1>  -0.9000 
 14 O       -1.0810    -1.8690    -1.6180 O.co2 1 <1>  -0.9000 
 15 C       -4.5290    -3.6810     0.5060 C.ar  1 <1>  -0.1440 
 16 O       -4.4560     1.0890    -3.3270 O.2   1 <1>  -0.5700 
 17 C       -5.6740    -3.4670    -0.2470 C.ar  1 <1>  -0.1500 
 18 C       -4.6500    -3.9500     1.8600 C.ar  1 <1>  -0.1500 
 19 C       -6.9240    -3.5290     0.3440 C.ar  1 <1>  -0.1500 
 20 C       -5.8990    -4.0110     2.4540 C.ar  1 <1>  -0.1500 
 21 C       -7.0380    -3.8020     1.6960 C.ar  1 <1>  -0.1500 
 22 H       -4.5170     1.1380     2.0230 H     1 <1>   0.3700 
 23 H       -2.2630     0.3080    -0.5590 H     1 <1>   0.0800 
 24 H       -1.9280    -2.7630     1.3820 H     1 <1>   0.0800 
 25 H       -5.2080    -0.0620    -0.0050 H     1 <1>   0.0800 
 26 H       -2.8730    -0.8710    -2.4840 H     1 <1>   0.3700 
 27 H       -2.6430    -4.5430    -0.0190 H     1 <1>   0.0800 
 28 H       -3.2660    -3.4600    -1.2110 H     1 <1>   0.0800 
 29 H       -5.2260     2.1270    -1.1480 H     1 <1>   0.3700 
 30 H       -5.5910    -3.2470    -1.2970 H     1 <1>   0.1500 
 31 H       -3.7670    -4.1020     2.4570 H     1 <1>   0.1500 
 32 H       -7.8060    -3.3640    -0.2500 H     1 <1>   0.1500 
 33 H       -5.9790    -4.2160     3.5060 H     1 <1>   0.1500 
 34 H       -8.0080    -3.8500     2.1570 H     1 <1>   0.1500 
@<TRIPOS>BOND
  1   1   2  2   
  2   2   3  am  
  3   2   4  am  
  4   3   5  1   
  5   3   6  1   
  6   4   7  1   
  7   4  22  1   
  8   5   7  1   
  9   5   8  1   
 10   5  23  1   
 11   6   9  1   
 12   6  10  1   
 13   6  24  1   
 14   7  11  1   
 15   7  25  1   
 16   8  12  am  
 17   8  26  1   
 18   9  13  ar  
 19   9  14  ar  
 20  10  15  1   
 21  10  27  1   
 22  10  28  1   
 23  11  12  am  
 24  11  29  1   
 25  12  16  2   
 26  15  17  ar  
 27  15  18  ar  
 28  17  19  ar  
 29  17  30  1   
 30  18  20  ar  
 31  18  31  1   
 32  19  21  ar  
 33  19  32  1   
 34  20  21  ar  
 35  20  33  1   
 36  21  34  1   
@<TRIPOS>SUBSTRUCTURE
  1 ****   3 GROUP 4 **** **** 0

# MOE 2024.06 (io_trps.svl 2023.06)
