@<TRIPOS>MOLECULE
NONAME
41 41 1 0 0 
SMALL
USER_CHARGES


@<TRIPOS>ATOM
  1 O       -0.2280    -1.6250    -2.3890 O.2   1 <1>  -0.5700 
  2 C       -0.0170    -2.1230    -1.2980 C.2   1 <1>   0.5440 
  3 N       -1.0320    -2.1370    -0.3610 N.am  1 <1>  -0.6600 
  4 C        1.3010    -2.6560    -1.0240 C.ar  1 <1>   0.0860 
  5 C       -1.3940    -3.3500     0.4360 C.3   1 <1>   0.2200 
  6 C       -2.0170    -1.0170    -0.3830 C.3   1 <1>   0.2200 
  7 C        2.0600    -2.1950     0.0510 C.ar  1 <1>  -0.1500 
  8 C        1.8730    -3.6330    -1.8360 C.ar  1 <1>  -0.1500 
  9 C       -0.4820    -3.5210     1.6500 C.3   1 <1>  -0.2400 
 10 C       -1.4040    -4.6030    -0.4400 C.3   1 <1>  -0.2400 
 11 C       -2.2450    -0.4670     1.0260 C.3   1 <1>  -0.2400 
 12 C       -3.3250    -1.4510    -1.0480 C.3   1 <1>  -0.2400 
 13 C        3.3190    -2.7000     0.3120 C.ar  1 <1>  -0.1500 
 14 C        3.1320    -4.1390    -1.5750 C.ar  1 <1>  -0.1500 
 15 C        3.8890    -3.6830    -0.4980 C.ar  1 <1>   0.0860 
 16 C        5.2110    -4.2200    -0.2360 C.2   1 <1>   0.5440 
 17 O        5.4160    -5.4140    -0.2840 O.2   1 <1>  -0.5700 
 18 N        6.2860    -3.4390     0.0630 N.am  1 <1>  -0.7300 
 19 C        6.4630    -1.9880    -0.1970 C.3   1 <1>   0.0600 
 20 H       -2.3940    -3.2260     0.8110 H     1 <1>   0.0800 
 21 H       -1.6050    -0.2140    -0.9730 H     1 <1>   0.0800 
 22 H        1.6420    -1.4330     0.6860 H     1 <1>   0.1500 
 23 H        1.3120    -3.9920    -2.6820 H     1 <1>   0.1500 
 24 H        0.4890    -3.8740     1.3620 H     1 <1>   0.0800 
 25 H       -0.9080    -4.2500     2.3150 H     1 <1>   0.0800 
 26 H       -0.3890    -2.5930     2.1830 H     1 <1>   0.0800 
 27 H       -0.4120    -4.8750    -0.7470 H     1 <1>   0.0800 
 28 H       -2.0140    -4.4380    -1.3100 H     1 <1>   0.0800 
 29 H       -1.8170    -5.4270     0.1120 H     1 <1>   0.0800 
 30 H       -2.7430    -1.1820     1.6540 H     1 <1>   0.0800 
 31 H       -2.8590     0.4140     0.9720 H     1 <1>   0.0800 
 32 H       -1.3040    -0.1940     1.4670 H     1 <1>   0.0800 
 33 H       -3.8440    -2.1880    -0.4660 H     1 <1>   0.0800 
 34 H       -3.1170    -1.8490    -2.0260 H     1 <1>   0.0800 
 35 H       -3.9690    -0.5990    -1.1640 H     1 <1>   0.0800 
 36 H        3.8750    -2.3360     1.1580 H     1 <1>   0.1500 
 37 H        3.5470    -4.9020    -2.2120 H     1 <1>   0.1500 
 38 H        7.1380    -3.9670     0.2670 H     1 <1>   0.3700 
 39 H        5.6300    -1.5960    -0.7530 H     1 <1>   0.0800 
 40 H        7.3620    -1.8320    -0.7690 H     1 <1>   0.0800 
 41 H        6.5460    -1.4600     0.7370 H     1 <1>   0.0800 
@<TRIPOS>BOND
  1   1   2  2   
  2   2   3  am  
  3   2   4  1   
  4   3   5  1   
  5   3   6  1   
  6   4   7  ar  
  7   4   8  ar  
  8   5   9  1   
  9   5  10  1   
 10   5  20  1   
 11   6  11  1   
 12   6  12  1   
 13   6  21  1   
 14   7  13  ar  
 15   7  22  1   
 16   8  14  ar  
 17   8  23  1   
 18   9  24  1   
 19   9  25  1   
 20   9  26  1   
 21  10  27  1   
 22  10  28  1   
 23  10  29  1   
 24  11  30  1   
 25  11  31  1   
 26  11  32  1   
 27  12  33  1   
 28  12  34  1   
 29  12  35  1   
 30  13  15  ar  
 31  13  36  1   
 32  14  15  ar  
 33  14  37  1   
 34  15  16  1   
 35  16  17  2   
 36  16  18  am  
 37  18  19  1   
 38  18  38  1   
 39  19  39  1   
 40  19  40  1   
 41  19  41  1   
@<TRIPOS>SUBSTRUCTURE
  1 ****   4 GROUP 4 **** **** 0

# MOE 2024.06 (io_trps.svl 2023.06)
