@<TRIPOS>MOLECULE
NONAME
47 49 1 0 0 
SMALL
USER_CHARGES


@<TRIPOS>ATOM
  1 CL      -5.1580     1.5600     2.4730 Cl    1 <1>  -0.1770 
  2 C       -3.7460     1.9760     1.5210 C.ar  1 <1>   0.1770 
  3 C       -3.5190     1.3210     0.3120 C.ar  1 <1>   0.1170 
  4 C       -2.8930     2.9520     2.0000 C.ar  1 <1>  -0.1500 
  5 N       -4.4160     0.3290    -0.1220 N.am  1 <1>  -0.5470 
  6 C       -2.3880     1.6850    -0.4130 C.ar  1 <1>  -0.1500 
  7 C       -1.7750     3.2980     1.2610 C.ar  1 <1>  -0.1500 
  8 C       -4.6680    -0.2340    -1.3400 C.2   1 <1>   0.5690 
  9 C       -1.5260     2.6630     0.0560 C.ar  1 <1>  -0.1500 
 10 O       -4.0670     0.0350    -2.3520 O.2   1 <1>  -0.5700 
 11 C       -5.8000    -1.2630    -1.3900 C.3   1 <1>   0.1710 
 12 N       -6.7430    -1.1730    -0.2340 N.3   1 <1>  -0.8100 
 13 C       -7.5540    -2.4060    -0.1150 C.3   1 <1>   0.1100 
 14 C       -7.6520    -0.0050    -0.3700 C.3   1 <1>   0.1100 
 15 C       -8.5370    -2.3550     1.0730 C.3   1 <1>   0.2090 
 16 C       -8.6150     0.1290     0.8250 C.3   1 <1>   0.2090 
 17 N       -9.3900    -1.1290     1.0380 N.pl3 1 <1>  -0.8380 
 18 C      -10.7200    -1.1700     0.6160 C.ar  1 <1>   0.1000 
 19 C      -11.6520    -0.3310     1.2130 C.ar  1 <1>  -0.1500 
 20 C      -11.1540    -2.0210    -0.3960 C.ar  1 <1>  -0.1500 
 21 C      -12.9780    -0.3260     0.8180 C.ar  1 <1>   0.0830 
 22 C      -12.4770    -2.0310    -0.7980 C.ar  1 <1>  -0.1500 
 23 O      -13.8060     0.5360     1.4620 O.3   1 <1>  -0.3620 
 24 C      -13.3930    -1.1850    -0.1960 C.ar  1 <1>  -0.1500 
 25 C      -15.1810     0.5930     1.1560 C.3   1 <1>   0.0400 
 26 H       -3.1030     3.4340     2.9380 H     1 <1>   0.1500 
 27 H       -5.1010     0.0120     0.5760 H     1 <1>   0.3700 
 28 H       -2.1720     1.2020    -1.3500 H     1 <1>   0.1500 
 29 H       -1.1010     4.0570     1.6210 H     1 <1>   0.1500 
 30 H       -0.6570     2.9290    -0.5220 H     1 <1>   0.1500 
 31 H       -5.3380    -2.2330    -1.3970 H     1 <1>   0.0800 
 32 H       -6.3370    -1.1460    -2.3150 H     1 <1>   0.0800 
 33 H       -6.9010    -3.2510     0.0200 H     1 <1>   0.0800 
 34 H       -8.1130    -2.5610    -1.0220 H     1 <1>   0.0800 
 35 H       -8.2380    -0.0990    -1.2680 H     1 <1>   0.0800 
 36 H       -7.0770     0.9020    -0.4450 H     1 <1>   0.0800 
 37 H       -7.9750    -2.3570     1.9910 H     1 <1>   0.0800 
 38 H       -9.1600    -3.2320     1.0720 H     1 <1>   0.0800 
 39 H       -9.2900     0.9470     0.6460 H     1 <1>   0.0800 
 40 H       -8.0520     0.3510     1.7150 H     1 <1>   0.0800 
 41 H      -11.3370     0.3230     2.0020 H     1 <1>   0.1500 
 42 H      -10.4530    -2.6750    -0.8770 H     1 <1>   0.1500 
 43 H      -12.7960    -2.6960    -1.5820 H     1 <1>   0.1500 
 44 H      -14.4130    -1.2100    -0.5260 H     1 <1>   0.1500 
 45 H      -15.6350     1.3310     1.7930 H     1 <1>   0.0800 
 46 H      -15.6200    -0.3710     1.3430 H     1 <1>   0.0800 
 47 H      -15.2970     0.8780     0.1250 H     1 <1>   0.0800 
@<TRIPOS>BOND
  1   1   2  1   
  2   2   3  ar  
  3   2   4  ar  
  4   3   5  1   
  5   3   6  ar  
  6   4   7  ar  
  7   4  26  1   
  8   5   8  am  
  9   5  27  1   
 10   6   9  ar  
 11   6  28  1   
 12   7   9  ar  
 13   7  29  1   
 14   8  10  2   
 15   8  11  1   
 16   9  30  1   
 17  11  12  1   
 18  11  31  1   
 19  11  32  1   
 20  12  13  1   
 21  12  14  1   
 22  13  15  1   
 23  13  33  1   
 24  13  34  1   
 25  14  16  1   
 26  14  35  1   
 27  14  36  1   
 28  15  17  1   
 29  15  37  1   
 30  15  38  1   
 31  16  17  1   
 32  16  39  1   
 33  16  40  1   
 34  17  18  1   
 35  18  19  ar  
 36  18  20  ar  
 37  19  21  ar  
 38  19  41  1   
 39  20  22  ar  
 40  20  42  1   
 41  21  23  1   
 42  21  24  ar  
 43  22  24  ar  
 44  22  43  1   
 45  23  25  1   
 46  24  44  1   
 47  25  45  1   
 48  25  46  1   
 49  25  47  1   
@<TRIPOS>SUBSTRUCTURE
  1 ****  14 GROUP 4 **** **** 0

# MOE 2024.06 (io_trps.svl 2023.06)
