@<TRIPOS>MOLECULE
NONAME
49 51 1 0 0 
SMALL
USER_CHARGES


@<TRIPOS>ATOM
  1 CL       2.3400    -0.1760    -1.8580 Cl    1 <1>  -0.1770 
  2 C        3.8710     0.0130    -1.0450 C.ar  1 <1>   0.1770 
  3 C        5.0300     0.1070    -1.7910 C.ar  1 <1>  -0.1500 
  4 C        3.9030     0.0650     0.3360 C.ar  1 <1>  -0.1500 
  5 C        6.2440     0.2550    -1.1420 C.ar  1 <1>  -0.1500 
  6 C        5.1190     0.2130     0.9820 C.ar  1 <1>  -0.1500 
  7 C        6.2930     0.3080     0.2460 C.ar  1 <1>  -0.1430 
  8 C        7.6400     0.4580     0.9500 C.3   1 <1>   0.0450 
  9 C        8.5140    -0.7820     0.8420 C.2   1 <1>   0.5690 
 10 O        9.6750    -0.7000     1.1730 O.2   1 <1>  -0.5700 
 11 N        7.9480    -1.9390     0.3800 N.am  1 <1>  -0.5470 
 12 C        8.5260    -3.1270    -0.0830 C.ar  1 <1>   0.1170 
 13 C        9.5570    -3.1670    -1.0390 C.ar  1 <1>   0.0860 
 14 C        8.0000    -4.3190     0.4030 C.ar  1 <1>  -0.1500 
 15 C       10.1650    -1.9660    -1.5690 C.2   1 <1>   0.5440 
 16 C        9.9930    -4.4160    -1.4880 C.ar  1 <1>  -0.1500 
 17 C        8.4620    -5.5410    -0.0410 C.ar  1 <1>  -0.1500 
 18 O        9.4770    -1.1330    -2.1310 O.2   1 <1>  -0.5700 
 19 N       11.5200    -1.7120    -1.4290 N.am  1 <1>  -0.6600 
 20 C        9.4610    -5.5900    -0.9960 C.ar  1 <1>  -0.1500 
 21 C       12.0700    -0.3790    -1.8060 C.3   1 <1>   0.1400 
 22 C       12.3830    -2.4210    -0.4350 C.3   1 <1>   0.1400 
 23 C       12.1650     0.4920    -0.5420 C.3   1 <1>   0.3430 
 24 C       12.5930    -1.5560     0.8270 C.3   1 <1>   0.3430 
 25 N       13.0290    -0.1410     0.5230 N.4   1 <1>  -0.9590 
 26 C       12.9650     0.6740     1.7710 C.3   1 <1>   0.2630 
 27 H        4.9820     0.0630    -2.8650 H     1 <1>   0.1500 
 28 H        2.9870    -0.0090     0.8930 H     1 <1>   0.1500 
 29 H        7.1480     0.3230    -1.7260 H     1 <1>   0.1500 
 30 H        5.1400     0.2550     2.0580 H     1 <1>   0.1500 
 31 H        7.4940     0.6780     1.9910 H     1 <1>   0.0800 
 32 H        8.1700     1.2850     0.5140 H     1 <1>   0.0800 
 33 H        6.9450    -1.8520     0.1870 H     1 <1>   0.3700 
 34 H        7.2160    -4.2890     1.1390 H     1 <1>   0.1500 
 35 H       10.7610    -4.4590    -2.2420 H     1 <1>   0.1500 
 36 H        8.0430    -6.4550     0.3470 H     1 <1>   0.1500 
 37 H        9.8150    -6.5430    -1.3550 H     1 <1>   0.1500 
 38 H       11.4390     0.1060    -2.5310 H     1 <1>   0.0800 
 39 H       13.0410    -0.4980    -2.2540 H     1 <1>   0.0800 
 40 H       13.3350    -2.6400    -0.8860 H     1 <1>   0.0800 
 41 H       11.9470    -3.3570    -0.1380 H     1 <1>   0.0800 
 42 H       11.1660     0.6320    -0.1610 H     1 <1>   0.0800 
 43 H       12.5580     1.4590    -0.8070 H     1 <1>   0.0800 
 44 H       13.3240    -2.0330     1.4590 H     1 <1>   0.0800 
 45 H       11.6680    -1.5380     1.3740 H     1 <1>   0.0800 
 46 H       13.9970    -0.1680     0.1750 H     1 <1>   0.4500 
 47 H       11.9520     0.6990     2.1430 H     1 <1>   0.0800 
 48 H       13.2870     1.6850     1.5770 H     1 <1>   0.0800 
 49 H       13.6010     0.2500     2.5310 H     1 <1>   0.0800 
@<TRIPOS>BOND
  1   1   2  1   
  2   2   3  ar  
  3   2   4  ar  
  4   3   5  ar  
  5   3  27  1   
  6   4   6  ar  
  7   4  28  1   
  8   5   7  ar  
  9   5  29  1   
 10   6   7  ar  
 11   6  30  1   
 12   7   8  1   
 13   8   9  1   
 14   8  31  1   
 15   8  32  1   
 16   9  10  2   
 17   9  11  am  
 18  11  12  1   
 19  11  33  1   
 20  12  13  ar  
 21  12  14  ar  
 22  13  15  1   
 23  13  16  ar  
 24  14  17  ar  
 25  14  34  1   
 26  15  18  2   
 27  15  19  am  
 28  16  20  ar  
 29  16  35  1   
 30  17  20  ar  
 31  17  36  1   
 32  19  21  1   
 33  19  22  1   
 34  20  37  1   
 35  21  23  1   
 36  21  38  1   
 37  21  39  1   
 38  22  24  1   
 39  22  40  1   
 40  22  41  1   
 41  23  25  1   
 42  23  42  1   
 43  23  43  1   
 44  24  25  1   
 45  24  44  1   
 46  24  45  1   
 47  25  26  1   
 48  25  46  1   
 49  26  47  1   
 50  26  48  1   
 51  26  49  1   
@<TRIPOS>SUBSTRUCTURE
  1 ****  11 GROUP 4 **** **** 0

# MOE 2024.06 (io_trps.svl 2023.06)
