@<TRIPOS>MOLECULE
NONAME
50 52 1 0 0 
SMALL
USER_CHARGES


@<TRIPOS>ATOM
  1 S       -0.2860     0.8470     0.8790 S.o2  1 <1>   1.3330 
  2 O       -1.5490     1.3550     1.3580 O.2   1 <1>  -0.6500 
  3 O        0.1560     1.1010    -0.4690 O.2   1 <1>  -0.6500 
  4 N       -0.2740    -0.8620     1.1580 N.am  1 <1>  -0.6930 
  5 C        0.9720     1.3960     2.0120 C.3   1 <1>  -0.1350 
  6 C        0.8230    -1.6410     0.8360 C.ar  1 <1>   0.1990 
  7 C       -1.5970    -1.5210     1.2050 C.3   1 <1>   0.3390 
  8 C        1.5120    -2.3190     1.8340 C.ar  1 <1>  -0.1500 
  9 C        1.2600    -1.7820    -0.4760 C.ar  1 <1>  -0.1500 
 10 C       -2.1180    -1.7950    -0.1990 C.ar  1 <1>  -0.1430 
 11 C        2.6120    -3.0980     1.5300 C.ar  1 <1>  -0.1500 
 12 C        2.3580    -2.5630    -0.7780 C.ar  1 <1>  -0.1500 
 13 C       -2.8780    -0.8450    -0.8660 C.ar  1 <1>  -0.1500 
 14 C       -1.8400    -3.0010    -0.8260 C.ar  1 <1>  -0.1500 
 15 C        3.0720    -3.2330     0.2190 C.ar  1 <1>   0.0860 
 16 C       -3.3540    -1.0970    -2.1410 C.ar  1 <1>  -0.1500 
 17 C       -2.3160    -3.2550    -2.1010 C.ar  1 <1>  -0.1500 
 18 C        4.2300    -4.0490    -0.0820 C.2   1 <1>   0.5440 
 19 C       -3.0740    -2.3030    -2.7590 C.ar  1 <1>  -0.1500 
 20 O        4.2860    -5.1760     0.3750 O.2   1 <1>  -0.5700 
 21 N        5.2750    -3.5900    -0.8620 N.am  1 <1>  -0.6600 
 22 C        5.5450    -2.1480    -1.1240 C.3   1 <1>   0.1400 
 23 C        6.3250    -4.5130    -1.3810 C.3   1 <1>   0.1400 
 24 C        6.9060    -1.7580    -0.5360 C.3   1 <1>  -0.1600 
 25 C        7.6870    -4.1400    -0.7860 C.3   1 <1>  -0.1600 
 26 C        8.0320    -2.6680    -1.0470 C.3   1 <1>  -0.1600 
 27 H        1.0650     2.4630     1.9650 H     1 <1>   0.0800 
 28 H        1.9160     0.9570     1.7570 H     1 <1>   0.0800 
 29 H        0.7160     1.1150     3.0140 H     1 <1>   0.0800 
 30 H       -2.3010    -0.9140     1.7480 H     1 <1>   0.0800 
 31 H       -1.5040    -2.4520     1.7350 H     1 <1>   0.0800 
 32 H        1.1780    -2.2320     2.8520 H     1 <1>   0.1500 
 33 H        0.7230    -1.2780    -1.2630 H     1 <1>   0.1500 
 34 H        3.1350    -3.6230     2.3120 H     1 <1>   0.1500 
 35 H        2.6730    -2.6660    -1.8020 H     1 <1>   0.1500 
 36 H       -3.1010     0.1000    -0.3990 H     1 <1>   0.1500 
 37 H       -1.2460    -3.7470    -0.3260 H     1 <1>   0.1500 
 38 H       -3.9390    -0.3530    -2.6510 H     1 <1>   0.1500 
 39 H       -2.0960    -4.1930    -2.5800 H     1 <1>   0.1500 
 40 H       -3.4450    -2.4980    -3.7500 H     1 <1>   0.1500 
 41 H        4.7860    -1.5260    -0.6840 H     1 <1>   0.0800 
 42 H        5.5440    -1.9790    -2.1870 H     1 <1>   0.0800 
 43 H        6.3610    -4.4300    -2.4540 H     1 <1>   0.0800 
 44 H        6.0910    -5.5350    -1.1370 H     1 <1>   0.0800 
 45 H        6.8500    -1.8220     0.5370 H     1 <1>   0.0800 
 46 H        7.1240    -0.7360    -0.7910 H     1 <1>   0.0800 
 47 H        8.4450    -4.7720    -1.2110 H     1 <1>   0.0800 
 48 H        7.6600    -4.3280     0.2740 H     1 <1>   0.0800 
 49 H        8.9550    -2.4180    -0.5540 H     1 <1>   0.0800 
 50 H        8.1650    -2.5130    -2.1040 H     1 <1>   0.0800 
@<TRIPOS>BOND
  1   1   2  2   
  2   1   3  2   
  3   1   4  am  
  4   1   5  1   
  5   4   6  1   
  6   4   7  1   
  7   5  27  1   
  8   5  28  1   
  9   5  29  1   
 10   6   8  ar  
 11   6   9  ar  
 12   7  10  1   
 13   7  30  1   
 14   7  31  1   
 15   8  11  ar  
 16   8  32  1   
 17   9  12  ar  
 18   9  33  1   
 19  10  13  ar  
 20  10  14  ar  
 21  11  15  ar  
 22  11  34  1   
 23  12  15  ar  
 24  12  35  1   
 25  13  16  ar  
 26  13  36  1   
 27  14  17  ar  
 28  14  37  1   
 29  15  18  1   
 30  16  19  ar  
 31  16  38  1   
 32  17  19  ar  
 33  17  39  1   
 34  18  20  2   
 35  18  21  am  
 36  19  40  1   
 37  21  22  1   
 38  21  23  1   
 39  22  24  1   
 40  22  41  1   
 41  22  42  1   
 42  23  25  1   
 43  23  43  1   
 44  23  44  1   
 45  24  26  1   
 46  24  45  1   
 47  24  46  1   
 48  25  26  1   
 49  25  47  1   
 50  25  48  1   
 51  26  49  1   
 52  26  50  1   
@<TRIPOS>SUBSTRUCTURE
  1 ****   9 GROUP 4 **** **** 0

# MOE 2024.06 (io_trps.svl 2023.06)
