@<TRIPOS>MOLECULE
NONAME
42 43 1 0 0 
SMALL
USER_CHARGES


@<TRIPOS>ATOM
  1 O       -2.0260     1.3220    -2.3320 O.2   1 <1>  -0.5700 
  2 C       -1.8290     1.6370    -1.1840 C.2   1 <1>   0.6590 
  3 O       -1.8060     0.7320    -0.2090 O.3   1 <1>  -0.4300 
  4 C       -1.5830     3.1120    -0.7920 C.3   1 <1>   0.2510 
  5 C       -1.9860    -0.6390    -0.4680 C.3   1 <1>   0.1200 
  6 N       -0.1840     3.4300    -0.3600 N.3   1 <1>  -0.8100 
  7 C       -2.5720     3.5420     0.3080 C.3   1 <1>  -0.1600 
  8 C       -1.9040    -1.3850     0.8600 C.3   1 <1>  -0.2400 
  9 C       -0.0140     4.8690    -0.0880 C.3   1 <1>   0.1100 
 10 C        0.8070     2.9630    -1.3560 C.3   1 <1>   0.2530 
 11 C       -2.4230     5.0250     0.6670 C.3   1 <1>  -0.1600 
 12 C       -0.9640     5.3200     1.0240 C.3   1 <1>  -0.1600 
 13 C        2.2380     3.1580    -0.8700 C.ar  1 <1>  -0.1430 
 14 C        2.6300     2.6540     0.3610 C.ar  1 <1>  -0.1500 
 15 C        3.1630     3.8360    -1.6500 C.ar  1 <1>  -0.1500 
 16 C        3.9280     2.8200     0.8150 C.ar  1 <1>  -0.1430 
 17 C        4.4620     4.0040    -1.2040 C.ar  1 <1>  -0.1500 
 18 C        4.8430     3.4970     0.0260 C.ar  1 <1>  -0.1500 
 19 C        4.3390     2.2630     2.1660 C.3   1 <1>  -0.0970 
 20 H       -1.7970     3.6950    -1.6710 H     1 <1>   0.0800 
 21 H       -1.2120    -0.9620    -1.1430 H     1 <1>   0.0800 
 22 H       -2.9500    -0.7750    -0.9300 H     1 <1>   0.0800 
 23 H       -2.3970     2.9430     1.1860 H     1 <1>   0.0800 
 24 H       -3.5780     3.3550    -0.0220 H     1 <1>   0.0800 
 25 H       -0.9410    -1.2260     1.3130 H     1 <1>   0.0800 
 26 H       -2.0350    -2.4380     0.6940 H     1 <1>   0.0800 
 27 H       -2.6760    -1.0420     1.5260 H     1 <1>   0.0800 
 28 H       -0.2010     5.4370    -0.9840 H     1 <1>   0.0800 
 29 H        0.9950     5.0680     0.2320 H     1 <1>   0.0800 
 30 H        0.6580     3.4830    -2.2860 H     1 <1>   0.0800 
 31 H        0.6750     1.9110    -1.5380 H     1 <1>   0.0800 
 32 H       -3.0610     5.2680     1.4990 H     1 <1>   0.0800 
 33 H       -2.7180     5.6310    -0.1730 H     1 <1>   0.0800 
 34 H       -0.8390     6.3750     1.1930 H     1 <1>   0.0800 
 35 H       -0.6980     4.8080     1.9320 H     1 <1>   0.0800 
 36 H        1.9070     2.1340     0.9650 H     1 <1>   0.1500 
 37 H        2.8770     4.2340    -2.6080 H     1 <1>   0.1500 
 38 H        5.1760     4.5290    -1.8120 H     1 <1>   0.1500 
 39 H        5.8550     3.6310     0.3650 H     1 <1>   0.1500 
 40 H        3.5020     2.2640     2.8410 H     1 <1>   0.0800 
 41 H        5.1230     2.8600     2.5960 H     1 <1>   0.0800 
 42 H        4.6910     1.2540     2.0500 H     1 <1>   0.0800 
@<TRIPOS>BOND
  1   1   2  2   
  2   2   3  1   
  3   2   4  1   
  4   3   5  1   
  5   4   6  1   
  6   4   7  1   
  7   4  20  1   
  8   5   8  1   
  9   5  21  1   
 10   5  22  1   
 11   6   9  1   
 12   6  10  1   
 13   7  11  1   
 14   7  23  1   
 15   7  24  1   
 16   8  25  1   
 17   8  26  1   
 18   8  27  1   
 19   9  12  1   
 20   9  28  1   
 21   9  29  1   
 22  10  13  1   
 23  10  30  1   
 24  10  31  1   
 25  11  12  1   
 26  11  32  1   
 27  11  33  1   
 28  12  34  1   
 29  12  35  1   
 30  13  14  ar  
 31  13  15  ar  
 32  14  16  ar  
 33  14  36  1   
 34  15  17  ar  
 35  15  37  1   
 36  16  18  ar  
 37  16  19  1   
 38  17  18  ar  
 39  17  38  1   
 40  18  39  1   
 41  19  40  1   
 42  19  41  1   
 43  19  42  1   
@<TRIPOS>SUBSTRUCTURE
  1 ****   6 GROUP 4 **** **** 0

# MOE 2024.06 (io_trps.svl 2023.06)
