@<TRIPOS>MOLECULE
NONAME
49 52 1 0 0 
SMALL
USER_CHARGES


@<TRIPOS>ATOM
  1 O        0.8330     4.8640     3.0530 O.2   1 <1>  -0.5700 
  2 C        0.9330     5.4270     1.9860 C.2   1 <1>   0.5180 
  3 N        2.0970     5.4310     1.2180 N.pl3 1 <1>   0.2940 
  4 C       -0.2720     6.1760     1.4170 C.3   1 <1>   0.1710 
  5 C        2.8760     6.5430     0.8930 C.ar  1 <1>  -0.1520 
  6 C        2.6540     4.3690     0.5240 C.2   1 <1>  -0.3320 
  7 N       -1.0350     5.3950     0.4130 N.3   1 <1>  -0.8100 
  8 C        3.8820     6.1580     0.0110 C.ar  1 <1>   0.0000 
  9 C        2.7840     7.8700     1.3200 C.ar  1 <1>  -0.1500 
 10 C        3.7190     4.7710    -0.1940 C.2   1 <1>  -0.1810 
 11 C        2.1230     2.9460     0.5660 C.3   1 <1>   0.0200 
 12 C       -1.9670     6.2530    -0.3310 C.3   1 <1>   0.1100 
 13 C       -1.7350     4.2580     1.0350 C.3   1 <1>   0.1100 
 14 C        4.7890     7.1040    -0.4700 C.ar  1 <1>  -0.1500 
 15 C        3.6850     8.7950     0.8410 C.ar  1 <1>  -0.1500 
 16 C        4.5580     3.8560    -1.0630 C.3   1 <1>   0.0210 
 17 C        2.7540     2.1150    -0.5670 C.3   1 <1>  -0.1600 
 18 C       -2.6290     5.4510    -1.4560 C.3   1 <1>  -0.1600 
 19 C       -2.3870     3.3930    -0.0470 C.3   1 <1>  -0.1600 
 20 C        4.6860     8.4130    -0.0560 C.ar  1 <1>  -0.1500 
 21 C        4.2660     2.3840    -0.7160 C.3   1 <1>  -0.1600 
 22 C       -3.3560     4.2160    -0.9070 C.3   1 <1>  -0.0800 
 23 C       -3.9280     3.3670    -2.0480 C.3   1 <1>  -0.2400 
 24 H        0.0840     7.0800     0.9570 H     1 <1>   0.0800 
 25 H       -0.9220     6.4530     2.2290 H     1 <1>   0.0800 
 26 H        2.0230     8.1680     2.0200 H     1 <1>   0.1500 
 27 H        1.0530     2.9440     0.4530 H     1 <1>   0.0800 
 28 H        2.3650     2.5120     1.5210 H     1 <1>   0.0800 
 29 H       -1.4280     7.0790    -0.7640 H     1 <1>   0.0800 
 30 H       -2.7190     6.6430     0.3340 H     1 <1>   0.0800 
 31 H       -2.4860     4.6180     1.7190 H     1 <1>   0.0800 
 32 H       -1.0380     3.6520     1.5890 H     1 <1>   0.0800 
 33 H        5.5550     6.7940    -1.1570 H     1 <1>   0.1500 
 34 H        3.6290     9.8220     1.1570 H     1 <1>   0.1500 
 35 H        5.6020     4.0650    -0.9130 H     1 <1>   0.0800 
 36 H        4.3160     4.0440    -2.0940 H     1 <1>   0.0800 
 37 H        2.2660     2.3690    -1.4920 H     1 <1>   0.0800 
 38 H        2.5830     1.0700    -0.3790 H     1 <1>   0.0800 
 39 H       -1.8670     5.1500    -2.1540 H     1 <1>   0.0800 
 40 H       -3.3250     6.0820    -1.9780 H     1 <1>   0.0800 
 41 H       -2.9140     2.5810     0.4210 H     1 <1>   0.0800 
 42 H       -1.6110     2.9740    -0.6630 H     1 <1>   0.0800 
 43 H        5.3790     9.1520    -0.4190 H     1 <1>   0.1500 
 44 H        4.7520     2.1450     0.2140 H     1 <1>   0.0800 
 45 H        4.6780     1.7480    -1.4790 H     1 <1>   0.0800 
 46 H       -4.1710     4.5470    -0.2840 H     1 <1>   0.0800 
 47 H       -3.1400     3.0200    -2.6930 H     1 <1>   0.0800 
 48 H       -4.6200     3.9470    -2.6330 H     1 <1>   0.0800 
 49 H       -4.4500     2.5140    -1.6530 H     1 <1>   0.0800 
@<TRIPOS>BOND
  1   1   2  2   
  2   2   3  1   
  3   2   4  1   
  4   3   5  1   
  5   3   6  1   
  6   4   7  1   
  7   4  24  1   
  8   4  25  1   
  9   5   8  ar  
 10   5   9  ar  
 11   6  10  2   
 12   6  11  1   
 13   7  12  1   
 14   7  13  1   
 15   8  10  1   
 16   8  14  ar  
 17   9  15  ar  
 18   9  26  1   
 19  10  16  1   
 20  11  17  1   
 21  11  27  1   
 22  11  28  1   
 23  12  18  1   
 24  12  29  1   
 25  12  30  1   
 26  13  19  1   
 27  13  31  1   
 28  13  32  1   
 29  14  20  ar  
 30  14  33  1   
 31  15  20  ar  
 32  15  34  1   
 33  16  21  1   
 34  16  35  1   
 35  16  36  1   
 36  17  21  1   
 37  17  37  1   
 38  17  38  1   
 39  18  22  1   
 40  18  39  1   
 41  18  40  1   
 42  19  22  1   
 43  19  41  1   
 44  19  42  1   
 45  20  43  1   
 46  21  44  1   
 47  21  45  1   
 48  22  23  1   
 49  22  46  1   
 50  23  47  1   
 51  23  48  1   
 52  23  49  1   
@<TRIPOS>SUBSTRUCTURE
  1 ****   3 GROUP 4 **** **** 0

# MOE 2024.06 (io_trps.svl 2023.06)
