@<TRIPOS>MOLECULE
NONAME
46 48 1 0 0 
SMALL
USER_CHARGES


@<TRIPOS>ATOM
  1 O       -0.3220     0.5930    -0.4720 O.2   1 <1>  -0.5700 
  2 C       -0.1160     1.6770     0.0420 C.2   1 <1>   0.5440 
  3 N       -1.1740     2.3530     0.6140 N.am  1 <1>  -0.6600 
  4 C        1.2270     2.2230     0.0310 C.ar  1 <1>   0.0860 
  5 C       -2.5100     1.7030     0.8170 C.3   1 <1>   0.1400 
  6 C       -1.2040     3.8380     0.8160 C.3   1 <1>   0.1400 
  7 C        1.9670     2.2840    -1.1500 C.ar  1 <1>  -0.1500 
  8 C        1.8330     2.7010     1.1940 C.ar  1 <1>  -0.1500 
  9 C       -3.5980     2.3810    -0.0310 C.3   1 <1>   0.2090 
 10 C       -2.3200     4.5010    -0.0120 C.3   1 <1>   0.2090 
 11 C        3.2460     2.8100    -1.1780 C.ar  1 <1>  -0.1500 
 12 C        3.1120     3.2260     1.1750 C.ar  1 <1>  -0.1500 
 13 N       -3.6430     3.8490     0.2320 N.pl3 1 <1>  -0.8380 
 14 C        3.8310     3.2830    -0.0080 C.ar  1 <1>   0.0820 
 15 C       -4.7830     4.5190    -0.1680 C.ar  1 <1>   0.4100 
 16 O        5.0770     3.8180     0.0560 O.3   1 <1>  -0.2320 
 17 N       -4.6800     5.3320    -1.2150 N.ar  1 <1>  -0.6200 
 18 C       -5.9750     4.3150     0.5230 C.ar  1 <1>  -0.1500 
 19 C        6.1210     3.6390    -0.7550 C.2   1 <1>   0.6590 
 20 C       -5.7920     5.9470    -1.5800 C.ar  1 <1>   0.1600 
 21 C       -7.1240     4.9610     0.1320 C.ar  1 <1>  -0.1500 
 22 O        6.1240     2.8900    -1.6970 O.2   1 <1>  -0.5700 
 23 C        7.3530     4.4570    -0.4110 C.3   1 <1>  -0.0990 
 24 C       -7.0190     5.8020    -0.9580 C.ar  1 <1>  -0.1500 
 25 C        8.0220     4.0090     0.8990 C.3   1 <1>  -0.2400 
 26 H       -2.7800     1.7780     1.8550 H     1 <1>   0.0800 
 27 H       -2.4660     0.6580     0.5660 H     1 <1>   0.0800 
 28 H       -0.2650     4.2810     0.5360 H     1 <1>   0.0800 
 29 H       -1.3740     4.0470     1.8570 H     1 <1>   0.0800 
 30 H        1.5240     1.9080    -2.0560 H     1 <1>   0.1500 
 31 H        1.2890     2.6510     2.1210 H     1 <1>   0.1500 
 32 H       -4.5530     1.9390     0.1930 H     1 <1>   0.0800 
 33 H       -3.3900     2.2120    -1.0740 H     1 <1>   0.0800 
 34 H       -2.0780     4.4310    -1.0590 H     1 <1>   0.0800 
 35 H       -2.3850     5.5440     0.2430 H     1 <1>   0.0800 
 36 H        3.7700     2.8450    -2.1160 H     1 <1>   0.1500 
 37 H        3.5600     3.5900     2.0830 H     1 <1>   0.1500 
 38 H       -5.9750     3.6520     1.3650 H     1 <1>   0.1500 
 39 H       -5.7210     6.6070    -2.4280 H     1 <1>   0.1500 
 40 H       -8.0580     4.8220     0.6480 H     1 <1>   0.1500 
 41 H        7.0670     5.4900    -0.3360 H     1 <1>   0.0800 
 42 H        8.0580     4.3670    -1.2180 H     1 <1>   0.0800 
 43 H       -7.8770     6.3400    -1.3180 H     1 <1>   0.1500 
 44 H        7.3410     4.1140     1.7260 H     1 <1>   0.0800 
 45 H        8.8940     4.6080     1.0940 H     1 <1>   0.0800 
 46 H        8.3230     2.9780     0.8280 H     1 <1>   0.0800 
@<TRIPOS>BOND
  1   1   2  2   
  2   2   3  am  
  3   2   4  1   
  4   3   5  1   
  5   3   6  1   
  6   4   7  ar  
  7   4   8  ar  
  8   5   9  1   
  9   5  26  1   
 10   5  27  1   
 11   6  10  1   
 12   6  28  1   
 13   6  29  1   
 14   7  11  ar  
 15   7  30  1   
 16   8  12  ar  
 17   8  31  1   
 18   9  13  1   
 19   9  32  1   
 20   9  33  1   
 21  10  13  1   
 22  10  34  1   
 23  10  35  1   
 24  11  14  ar  
 25  11  36  1   
 26  12  14  ar  
 27  12  37  1   
 28  13  15  1   
 29  14  16  1   
 30  15  17  ar  
 31  15  18  ar  
 32  16  19  1   
 33  17  20  ar  
 34  18  21  ar  
 35  18  38  1   
 36  19  22  2   
 37  19  23  1   
 38  20  24  ar  
 39  20  39  1   
 40  21  24  ar  
 41  21  40  1   
 42  23  25  1   
 43  23  41  1   
 44  23  42  1   
 45  24  43  1   
 46  25  44  1   
 47  25  45  1   
 48  25  46  1   
@<TRIPOS>SUBSTRUCTURE
  1 ****   6 GROUP 4 **** **** 0

# MOE 2024.06 (io_trps.svl 2023.06)
