@<TRIPOS>MOLECULE
NONAME
41 43 1 0 0 
SMALL
USER_CHARGES


@<TRIPOS>ATOM
  1 O        0.4430    -0.7110    -0.4080 O.2   1 <1>  -0.5700 
  2 C        1.1240    -1.7250    -0.3800 C.2   1 <1>   0.7160 
  3 N        2.4570    -1.6090    -0.7430 N.am  1 <1>  -0.6600 
  4 C        0.4910    -2.9750     0.0270 C.2   1 <1>   0.2030 
  5 C        3.1750    -0.3090    -0.6860 C.3   1 <1>   0.1400 
  6 C        3.3180    -2.7420    -1.1780 C.3   1 <1>   0.1400 
  7 N        1.0510    -4.0560     0.4920 N.2   1 <1>  -0.4100 
  8 C       -0.8800    -3.1900    -0.0030 C.2   1 <1>  -0.1500 
  9 C        4.3410    -0.4250     0.3030 C.3   1 <1>  -0.1600 
 10 C        4.4750    -2.9020    -0.1890 C.3   1 <1>  -0.1600 
 11 O        0.1470    -4.9660     0.7600 O.3   1 <1>  -0.0190 
 12 C       -1.0170    -4.4340     0.4600 C.2   1 <1>  -0.0400 
 13 C        5.2810    -1.5950    -0.0460 C.3   1 <1>  -0.0800 
 14 C       -2.2690    -5.2580     0.6750 C.3   1 <1>  -0.0600 
 15 C        6.3950    -1.7240     1.0080 C.3   1 <1>  -0.0170 
 16 C        7.4180    -2.7870     0.6340 C.ar  1 <1>  -0.1430 
 17 C        8.3830    -2.5180    -0.3250 C.ar  1 <1>  -0.1500 
 18 C        7.3960    -4.0320     1.2440 C.ar  1 <1>  -0.1500 
 19 C        9.3130    -3.4830    -0.6720 C.ar  1 <1>  -0.1500 
 20 C        8.3260    -4.9980     0.8980 C.ar  1 <1>  -0.1500 
 21 C        9.2840    -4.7240    -0.0610 C.ar  1 <1>  -0.1500 
 22 H        2.5150     0.4820    -0.3700 H     1 <1>   0.0800 
 23 H        3.5430    -0.0650    -1.6680 H     1 <1>   0.0800 
 24 H        3.7100    -2.5230    -2.1560 H     1 <1>   0.0800 
 25 H        2.7600    -3.6570    -1.2540 H     1 <1>   0.0800 
 26 H       -1.6170    -2.4790    -0.3300 H     1 <1>   0.1500 
 27 H        3.9360    -0.5630     1.2900 H     1 <1>   0.0800 
 28 H        4.8920     0.4980     0.3000 H     1 <1>   0.0800 
 29 H        5.1150    -3.6920    -0.5380 H     1 <1>   0.0800 
 30 H        4.0750    -3.2010     0.7640 H     1 <1>   0.0800 
 31 H        5.7410    -1.3810    -0.9960 H     1 <1>   0.0800 
 32 H       -3.1390    -4.6960     0.3890 H     1 <1>   0.0800 
 33 H       -2.3530    -5.5300     1.7110 H     1 <1>   0.0800 
 34 H       -2.2210    -6.1540     0.0820 H     1 <1>   0.0800 
 35 H        5.9620    -1.9570     1.9650 H     1 <1>   0.0800 
 36 H        6.9040    -0.7810     1.1090 H     1 <1>   0.0800 
 37 H        8.4130    -1.5560    -0.8050 H     1 <1>   0.1500 
 38 H        6.6530    -4.2570     1.9890 H     1 <1>   0.1500 
 39 H       10.0590    -3.2670    -1.4180 H     1 <1>   0.1500 
 40 H        8.3030    -5.9620     1.3750 H     1 <1>   0.1500 
 41 H       10.0070    -5.4740    -0.3310 H     1 <1>   0.1500 
@<TRIPOS>BOND
  1   1   2  2   
  2   2   3  am  
  3   2   4  1   
  4   3   5  1   
  5   3   6  1   
  6   4   7  2   
  7   4   8  1   
  8   5   9  1   
  9   5  22  1   
 10   5  23  1   
 11   6  10  1   
 12   6  24  1   
 13   6  25  1   
 14   7  11  1   
 15   8  12  2   
 16   8  26  1   
 17   9  13  1   
 18   9  27  1   
 19   9  28  1   
 20  10  13  1   
 21  10  29  1   
 22  10  30  1   
 23  11  12  1   
 24  12  14  1   
 25  13  15  1   
 26  13  31  1   
 27  14  32  1   
 28  14  33  1   
 29  14  34  1   
 30  15  16  1   
 31  15  35  1   
 32  15  36  1   
 33  16  17  ar  
 34  16  18  ar  
 35  17  19  ar  
 36  17  37  1   
 37  18  20  ar  
 38  18  38  1   
 39  19  21  ar  
 40  19  39  1   
 41  20  21  ar  
 42  20  40  1   
 43  21  41  1   
@<TRIPOS>SUBSTRUCTURE
  1 ****  10 GROUP 4 **** **** 0

# MOE 2024.06 (io_trps.svl 2023.06)
