@<TRIPOS>MOLECULE
NONAME
41 43 1 0 0 
SMALL
USER_CHARGES


@<TRIPOS>ATOM
  1 S        0.2890     0.1240     1.3610 S.3   1 <1>  -0.0800 
  2 C       -1.3800    -0.4080     1.0900 C.2   1 <1>  -0.0450 
  3 C        0.8890    -1.4690     0.9260 C.2   1 <1>  -0.1400 
  4 C       -2.5720     0.3470     1.2330 C.2   1 <1>   0.8660 
  5 C       -1.3960    -1.7080     0.7050 C.2   1 <1>   0.0830 
  6 C       -0.1040    -2.3110     0.6130 C.2   1 <1>  -0.1810 
  7 C        2.3570    -1.8140     0.9250 C.3   1 <1>   0.0200 
  8 O       -2.5640     1.5220     1.5770 O.2   1 <1>  -0.5700 
  9 N       -3.7780    -0.2500     0.9790 N.2   1 <1>  -0.6610 
 10 N       -2.6320    -2.2520     0.4650 N.pl3 1 <1>  -0.5330 
 11 C        0.2010    -3.7430     0.2090 C.3   1 <1>   0.3010 
 12 C        2.5630    -3.1520     0.1640 C.3   1 <1>   0.2800 
 13 C       -3.7480    -1.4830     0.6200 C.2   1 <1>   0.6410 
 14 O        1.5420    -4.0690     0.4930 O.3   1 <1>  -0.5600 
 15 C        3.9040    -3.8240     0.5410 C.3   1 <1>  -0.1600 
 16 C        2.5460    -2.9290    -1.3590 C.3   1 <1>  -0.2400 
 17 S       -5.3020    -2.2830     0.2870 S.3   1 <1>  -0.3710 
 18 C        4.0170    -4.3320     1.9910 C.3   1 <1>  -0.2400 
 19 C       -4.9300    -4.0290    -0.1900 C.3   1 <1>   0.0700 
 20 C       -6.2590    -4.7270    -0.4780 C.3   1 <1>  -0.1600 
 21 C       -6.0440    -6.1880    -0.8840 C.3   1 <1>  -0.2400 
 22 H        2.6840    -1.8920     1.9430 H     1 <1>   0.0800 
 23 H        2.9250    -1.0310     0.4550 H     1 <1>   0.0800 
 24 H       -2.7380    -3.2220     0.1840 H     1 <1>   0.4000 
 25 H        0.0290    -3.8890    -0.8430 H     1 <1>   0.0800 
 26 H       -0.4150    -4.4280     0.7640 H     1 <1>   0.0800 
 27 H        4.7060    -3.1320     0.3550 H     1 <1>   0.0800 
 28 H        4.0570    -4.6630    -0.1150 H     1 <1>   0.0800 
 29 H        3.4080    -2.3580    -1.6550 H     1 <1>   0.0800 
 30 H        1.6760    -2.3790    -1.6670 H     1 <1>   0.0800 
 31 H        2.5740    -3.8720    -1.8750 H     1 <1>   0.0800 
 32 H        3.9830    -3.5240     2.6980 H     1 <1>   0.0800 
 33 H        4.9500    -4.8500     2.1220 H     1 <1>   0.0800 
 34 H        3.2190    -5.0190     2.2130 H     1 <1>   0.0800 
 35 H       -4.4190    -4.4910     0.6370 H     1 <1>   0.0800 
 36 H       -4.3060    -4.0020    -1.0660 H     1 <1>   0.0800 
 37 H       -6.7690    -4.2070    -1.2720 H     1 <1>   0.0800 
 38 H       -6.8800    -4.6880     0.4010 H     1 <1>   0.0800 
 39 H       -5.4440    -6.2500    -1.7750 H     1 <1>   0.0800 
 40 H       -6.9930    -6.6560    -1.0820 H     1 <1>   0.0800 
 41 H       -5.5560    -6.7330    -0.0950 H     1 <1>   0.0800 
@<TRIPOS>BOND
  1   1   2  1   
  2   1   3  1   
  3   2   4  1   
  4   2   5  2   
  5   3   6  2   
  6   3   7  1   
  7   4   8  2   
  8   4   9  1   
  9   5   6  1   
 10   5  10  1   
 11   6  11  1   
 12   7  12  1   
 13   7  22  1   
 14   7  23  1   
 15   9  13  2   
 16  10  13  1   
 17  10  24  1   
 18  11  14  1   
 19  11  25  1   
 20  11  26  1   
 21  12  14  1   
 22  12  15  1   
 23  12  16  1   
 24  13  17  1   
 25  15  18  1   
 26  15  27  1   
 27  15  28  1   
 28  16  29  1   
 29  16  30  1   
 30  16  31  1   
 31  17  19  1   
 32  18  32  1   
 33  18  33  1   
 34  18  34  1   
 35  19  20  1   
 36  19  35  1   
 37  19  36  1   
 38  20  21  1   
 39  20  37  1   
 40  20  38  1   
 41  21  39  1   
 42  21  40  1   
 43  21  41  1   
@<TRIPOS>SUBSTRUCTURE
  1 ****   5 GROUP 4 **** **** 0

# MOE 2024.06 (io_trps.svl 2023.06)
