@<TRIPOS>MOLECULE
NONAME
44 45 1 0 0 
SMALL
USER_CHARGES


@<TRIPOS>ATOM
  1 S       -0.2270     0.4460     1.4070 S.o2  1 <1>   1.4470 
  2 O       -0.1550     1.8410     1.7830 O.2   1 <1>  -0.6500 
  3 O       -0.6070    -0.5210     2.4150 O.2   1 <1>  -0.6500 
  4 N       -1.3120     0.2940     0.1000 N.am  1 <1>  -0.8490 
  5 C        1.3900     0.0050     0.7030 C.ar  1 <1>  -0.0090 
  6 C       -1.8070    -1.0800    -0.0970 C.3   1 <1>   0.1960 
  7 C       -2.4280     1.2450     0.1930 C.3   1 <1>   0.1960 
  8 C        1.7980     0.5050    -0.5280 C.ar  1 <1>  -0.1500 
  9 C        2.2690    -0.8330     1.3800 C.ar  1 <1>  -0.1500 
 10 C       -0.7200    -1.9970    -0.6510 C.3   1 <1>  -0.2400 
 11 C       -3.0430     1.4980    -1.1850 C.3   1 <1>  -0.2400 
 12 C        3.0320     0.1810    -1.0610 C.ar  1 <1>  -0.1500 
 13 C        3.5040    -1.1570     0.8470 C.ar  1 <1>  -0.1500 
 14 C        3.9190    -0.6500    -0.3820 C.ar  1 <1>   0.0860 
 15 C        5.2200    -0.9680    -0.9390 C.2   1 <1>   0.5440 
 16 O        5.2900    -1.3990    -2.0740 O.2   1 <1>  -0.5700 
 17 N        6.3830    -0.7820    -0.2210 N.am  1 <1>  -0.6600 
 18 C        6.4930     0.1110     0.9730 C.3   1 <1>   0.1400 
 19 C        7.7090    -1.2670    -0.7130 C.3   1 <1>   0.1400 
 20 C        7.5540     1.2000     0.7360 C.3   1 <1>   0.1200 
 21 C        8.6950    -0.0960    -0.8510 C.3   1 <1>   0.1200 
 22 O        8.7700     0.6310     0.3440 O.3   1 <1>  -0.5600 
 23 H       -2.6080    -1.0820    -0.8130 H     1 <1>   0.0800 
 24 H       -2.2030    -1.4780     0.8240 H     1 <1>   0.0800 
 25 H       -2.0790     2.2000     0.5470 H     1 <1>   0.0800 
 26 H       -3.1700     0.8890     0.8890 H     1 <1>   0.0800 
 27 H        1.1340     1.1550    -1.0740 H     1 <1>   0.1500 
 28 H        1.9770    -1.2380     2.3350 H     1 <1>   0.1500 
 29 H       -0.2390    -1.5420    -1.4980 H     1 <1>   0.0800 
 30 H       -1.1660    -2.9210    -0.9720 H     1 <1>   0.0800 
 31 H        0.0070    -2.2370     0.1020 H     1 <1>   0.0800 
 32 H       -2.2730     1.7590    -1.8890 H     1 <1>   0.0800 
 33 H       -3.7310     2.3210    -1.1180 H     1 <1>   0.0800 
 34 H       -3.5880     0.6470    -1.5440 H     1 <1>   0.0800 
 35 H        3.3230     0.5730    -2.0210 H     1 <1>   0.1500 
 36 H        4.1620    -1.8160     1.3870 H     1 <1>   0.1500 
 37 H        6.7740    -0.4750     1.8300 H     1 <1>   0.0800 
 38 H        5.5540     0.5870     1.1860 H     1 <1>   0.0800 
 39 H        7.6090    -1.7610    -1.6630 H     1 <1>   0.0800 
 40 H        8.1060    -1.9810    -0.0130 H     1 <1>   0.0800 
 41 H        7.7270     1.7530     1.6420 H     1 <1>   0.0800 
 42 H        7.2290     1.8830    -0.0290 H     1 <1>   0.0800 
 43 H        8.3860     0.5660    -1.6420 H     1 <1>   0.0800 
 44 H        9.6800    -0.4650    -1.0740 H     1 <1>   0.0800 
@<TRIPOS>BOND
  1   1   2  2   
  2   1   3  2   
  3   1   4  am  
  4   1   5  1   
  5   4   6  1   
  6   4   7  1   
  7   5   8  ar  
  8   5   9  ar  
  9   6  10  1   
 10   6  23  1   
 11   6  24  1   
 12   7  11  1   
 13   7  25  1   
 14   7  26  1   
 15   8  12  ar  
 16   8  27  1   
 17   9  13  ar  
 18   9  28  1   
 19  10  29  1   
 20  10  30  1   
 21  10  31  1   
 22  11  32  1   
 23  11  33  1   
 24  11  34  1   
 25  12  14  ar  
 26  12  35  1   
 27  13  14  ar  
 28  13  36  1   
 29  14  15  1   
 30  15  16  2   
 31  15  17  am  
 32  17  18  1   
 33  17  19  1   
 34  18  20  1   
 35  18  37  1   
 36  18  38  1   
 37  19  21  1   
 38  19  39  1   
 39  19  40  1   
 40  20  22  1   
 41  20  41  1   
 42  20  42  1   
 43  21  22  1   
 44  21  43  1   
 45  21  44  1   
@<TRIPOS>SUBSTRUCTURE
  1 ****  12 GROUP 4 **** **** 0

# MOE 2024.06 (io_trps.svl 2023.06)
