@<TRIPOS>MOLECULE
NONAME
33 34 1 0 0 
SMALL
USER_CHARGES


@<TRIPOS>ATOM
  1 O       -0.0200     0.3950     1.3730 O.2   1 <1>  -0.5700 
  2 C        0.5520     1.4490     1.1570 C.2   1 <1>   0.5440 
  3 N        1.8590     1.5740     1.5350 N.am  1 <1>  -0.3680 
  4 C       -0.0540     2.5770     0.5140 C.ar  1 <1>   0.0860 
  5 N        2.6380     2.6780     1.3820 N.2   1 <1>  -0.5120 
  6 C        0.7290     3.7320     0.3330 C.ar  1 <1>   0.0860 
  7 C       -1.3760     2.5480     0.0590 C.ar  1 <1>  -0.1500 
  8 C        2.0990     3.7340     0.8190 C.2   1 <1>   0.3640 
  9 C        0.1300     4.8160    -0.3300 C.ar  1 <1>  -0.1500 
 10 C       -1.9340     3.6320    -0.5790 C.ar  1 <1>  -0.1500 
 11 C        2.8890     4.9460     0.6650 C.2   1 <1>   0.6300 
 12 C       -1.1730     4.7720    -0.7760 C.ar  1 <1>  -0.1500 
 13 O        2.4800     5.9930     1.1480 O.2   1 <1>  -0.5700 
 14 N        4.0920     4.9840    -0.0330 N.am  1 <1>  -0.6600 
 15 C        4.5690     3.8550    -0.8800 C.3   1 <1>   0.1400 
 16 C        4.9130     6.2260    -0.0850 C.3   1 <1>   0.1400 
 17 C        5.7290     3.1330    -0.2000 C.3   1 <1>  -0.2400 
 18 C        5.6980     6.3930     1.2150 C.3   1 <1>  -0.2400 
 19 H        2.2450     0.7410     1.9930 H     1 <1>   0.3700 
 20 H       -1.9610     1.6560     0.2130 H     1 <1>   0.1500 
 21 H        0.6850     5.7220    -0.5060 H     1 <1>   0.1500 
 22 H       -2.9540     3.5990    -0.9250 H     1 <1>   0.1500 
 23 H       -1.6060     5.6220    -1.2770 H     1 <1>   0.1500 
 24 H        4.8840     4.2310    -1.8390 H     1 <1>   0.0800 
 25 H        3.7710     3.1540    -1.0560 H     1 <1>   0.0800 
 26 H        4.2670     7.0780    -0.2260 H     1 <1>   0.0800 
 27 H        5.5930     6.1860    -0.9180 H     1 <1>   0.0800 
 28 H        6.5890     3.7730    -0.1360 H     1 <1>   0.0800 
 29 H        5.9990     2.2640    -0.7730 H     1 <1>   0.0800 
 30 H        5.4420     2.8140     0.7860 H     1 <1>   0.0800 
 31 H        5.0220     6.4880     2.0460 H     1 <1>   0.0800 
 32 H        6.2970     7.2830     1.1640 H     1 <1>   0.0800 
 33 H        6.3460     5.5530     1.3820 H     1 <1>   0.0800 
@<TRIPOS>BOND
  1   1   2  2   
  2   2   3  am  
  3   2   4  1   
  4   3   5  1   
  5   3  19  1   
  6   4   6  ar  
  7   4   7  ar  
  8   5   8  2   
  9   6   8  1   
 10   6   9  ar  
 11   7  10  ar  
 12   7  20  1   
 13   8  11  1   
 14   9  12  ar  
 15   9  21  1   
 16  10  12  ar  
 17  10  22  1   
 18  11  13  2   
 19  11  14  am  
 20  12  23  1   
 21  14  15  1   
 22  14  16  1   
 23  15  17  1   
 24  15  24  1   
 25  15  25  1   
 26  16  18  1   
 27  16  26  1   
 28  16  27  1   
 29  17  28  1   
 30  17  29  1   
 31  17  30  1   
 32  18  31  1   
 33  18  32  1   
 34  18  33  1   
@<TRIPOS>SUBSTRUCTURE
  1 ****   8 GROUP 4 **** **** 0

# MOE 2024.06 (io_trps.svl 2023.06)
