@<TRIPOS>MOLECULE
NONAME
46 47 1 0 0 
SMALL
USER_CHARGES


@<TRIPOS>ATOM
  1 CL      -1.9020    -1.2250    -0.1670 Cl    1 <1>  -0.1770 
  2 C       -2.2240     0.4870    -0.0750 C.ar  1 <1>   0.1770 
  3 C       -1.8230     1.1930     1.0440 C.ar  1 <1>  -0.1500 
  4 C       -2.8740     1.1110    -1.1220 C.ar  1 <1>  -0.1500 
  5 C       -2.0830     2.5520     1.1170 C.ar  1 <1>  -0.1500 
  6 C       -3.1310     2.4700    -1.0430 C.ar  1 <1>  -0.1500 
  7 C       -2.7410     3.1950     0.0750 C.ar  1 <1>  -0.1430 
  8 C       -3.0440     4.6860     0.1490 C.3   1 <1>   0.3390 
  9 N       -4.4920     4.9050     0.1420 N.am  1 <1>  -0.8490 
 10 S       -4.8110     6.5440    -0.1200 S.o2  1 <1>   1.3330 
 11 C       -5.1160     4.3920     1.3970 C.3   1 <1>   0.2570 
 12 O       -4.1380     6.9050    -1.3440 O.2   1 <1>  -0.6500 
 13 O       -4.4700     7.2320     1.1030 O.2   1 <1>  -0.6500 
 14 C       -6.5640     6.6660    -0.4180 C.3   1 <1>  -0.1350 
 15 C       -6.5690     3.9530     1.2070 C.2   1 <1>   0.5690 
 16 O       -7.3960     4.3060     2.0130 O.2   1 <1>  -0.5700 
 17 N       -6.8630     3.2000     0.1120 N.am  1 <1>  -0.7300 
 18 C       -8.1580     2.6160    -0.2960 C.3   1 <1>   0.2200 
 19 C       -9.1820     3.7170    -0.5990 C.3   1 <1>  -0.1600 
 20 C       -8.6750     1.6380     0.7660 C.3   1 <1>  -0.1600 
 21 C      -10.5300     3.1120    -1.0200 C.3   1 <1>  -0.1600 
 22 C      -10.0220     1.0320     0.3440 C.3   1 <1>  -0.1600 
 23 C      -11.0510     2.1300     0.0390 C.3   1 <1>  -0.1600 
 24 H       -1.3160     0.6830     1.8420 H     1 <1>   0.1500 
 25 H       -3.1720     0.5400    -1.9830 H     1 <1>   0.1500 
 26 H       -1.7690     3.1020     1.9880 H     1 <1>   0.1500 
 27 H       -3.6360     2.9680    -1.8550 H     1 <1>   0.1500 
 28 H       -2.5930     5.1530    -0.7110 H     1 <1>   0.0800 
 29 H       -2.6060     5.1280     1.0300 H     1 <1>   0.0800 
 30 H       -5.0670     5.1280     2.1810 H     1 <1>   0.0800 
 31 H       -4.5940     3.5230     1.7520 H     1 <1>   0.0800 
 32 H       -6.8560     5.9850    -1.1920 H     1 <1>   0.0800 
 33 H       -6.8090     7.6620    -0.7290 H     1 <1>   0.0800 
 34 H       -7.1200     6.4490     0.4720 H     1 <1>   0.0800 
 35 H       -6.0870     3.0120    -0.5290 H     1 <1>   0.3700 
 36 H       -7.9940     2.0590    -1.2030 H     1 <1>   0.0800 
 37 H       -8.8130     4.3470    -1.3880 H     1 <1>   0.0800 
 38 H       -9.3350     4.3200     0.2780 H     1 <1>   0.0800 
 39 H       -8.8100     2.1550     1.7010 H     1 <1>   0.0800 
 40 H       -7.9580     0.8510     0.9130 H     1 <1>   0.0800 
 41 H      -10.4150     2.5970    -1.9580 H     1 <1>   0.0800 
 42 H      -11.2490     3.9000    -1.1630 H     1 <1>   0.0800 
 43 H      -10.3940     0.3990     1.1320 H     1 <1>   0.0800 
 44 H       -9.8820     0.4200    -0.5310 H     1 <1>   0.0800 
 45 H      -11.9670     1.6800    -0.3040 H     1 <1>   0.0800 
 46 H      -11.2700     2.6700     0.9450 H     1 <1>   0.0800 
@<TRIPOS>BOND
  1   1   2  1   
  2   2   3  ar  
  3   2   4  ar  
  4   3   5  ar  
  5   3  24  1   
  6   4   6  ar  
  7   4  25  1   
  8   5   7  ar  
  9   5  26  1   
 10   6   7  ar  
 11   6  27  1   
 12   7   8  1   
 13   8   9  1   
 14   8  28  1   
 15   8  29  1   
 16   9  10  am  
 17   9  11  1   
 18  10  12  2   
 19  10  13  2   
 20  10  14  1   
 21  11  15  1   
 22  11  30  1   
 23  11  31  1   
 24  14  32  1   
 25  14  33  1   
 26  14  34  1   
 27  15  16  2   
 28  15  17  am  
 29  17  18  1   
 30  17  35  1   
 31  18  19  1   
 32  18  20  1   
 33  18  36  1   
 34  19  21  1   
 35  19  37  1   
 36  19  38  1   
 37  20  22  1   
 38  20  39  1   
 39  20  40  1   
 40  21  23  1   
 41  21  41  1   
 42  21  42  1   
 43  22  23  1   
 44  22  43  1   
 45  22  44  1   
 46  23  45  1   
 47  23  46  1   
@<TRIPOS>SUBSTRUCTURE
  1 ****  17 GROUP 4 **** **** 0

# MOE 2024.06 (io_trps.svl 2023.06)
