@<TRIPOS>MOLECULE
NONAME
52 55 1 0 0 
SMALL
USER_CHARGES


@<TRIPOS>ATOM
  1 O       -0.5300    -0.0270     1.0670 O.2   1 <1>  -0.5700 
  2 C       -1.5650    -0.6420     0.9230 C.2   1 <1>   0.6340 
  3 O       -1.6400    -1.8940     1.3890 O.3   1 <1>  -0.4300 
  4 C       -2.7270    -0.1000     0.2430 C.ar  1 <1>   0.0860 
  5 C       -0.5440    -2.5300     2.0150 C.3   1 <1>   0.0400 
  6 C       -3.9390    -0.7890     0.2030 C.ar  1 <1>  -0.1500 
  7 C       -2.6730     1.1320    -0.4150 C.ar  1 <1>  -0.1500 
  8 C       -5.0350    -0.2990    -0.4950 C.ar  1 <1>   0.0830 
  9 C       -3.7670     1.6420    -1.0920 C.ar  1 <1>  -0.1500 
 10 O       -6.2140    -0.9740    -0.5650 O.3   1 <1>  -0.1650 
 11 C       -4.9490     0.9260    -1.1350 C.ar  1 <1>  -0.1500 
 12 C       -6.3330    -2.3150    -0.6570 C.ar  1 <1>   0.7020 
 13 N       -7.4680    -2.7990    -0.2430 N.ar  1 <1>  -0.6200 
 14 N       -5.3250    -2.9990    -1.1290 N.ar  1 <1>  -0.6200 
 15 C       -7.5470    -4.1050    -0.3090 C.ar  1 <1>   0.7200 
 16 C       -5.5050    -4.2930    -1.1170 C.ar  1 <1>   0.7200 
 17 N       -6.5940    -4.8970    -0.7250 N.ar  1 <1>  -0.6200 
 18 N       -8.7220    -4.6880     0.1070 N.pl3 1 <1>  -0.8380 
 19 N       -4.4510    -5.0790    -1.5190 N.pl3 1 <1>  -0.8380 
 20 C       -9.8440    -3.9230     0.7390 C.3   1 <1>   0.2090 
 21 C       -9.0720    -6.1190    -0.1580 C.3   1 <1>   0.2090 
 22 C       -3.2200    -4.5060    -2.1490 C.3   1 <1>   0.2090 
 23 C       -4.1520    -6.3670    -0.8240 C.3   1 <1>   0.2090 
 24 C      -10.4370    -4.7040     1.9260 C.3   1 <1>   0.1200 
 25 C       -9.7040    -6.7660     1.0860 C.3   1 <1>   0.1200 
 26 C       -2.0970    -4.3950    -1.1030 C.3   1 <1>   0.1200 
 27 C       -2.9770    -6.1790     0.1540 C.3   1 <1>   0.1200 
 28 O      -10.7860    -6.0090     1.5530 O.3   1 <1>  -0.5600 
 29 O       -1.8560    -5.6360    -0.4930 O.3   1 <1>  -0.5600 
 30 H       -0.8360    -3.5320     2.2770 H     1 <1>   0.0800 
 31 H       -0.2780    -1.9760     2.8990 H     1 <1>   0.0800 
 32 H        0.2840    -2.5540     1.3280 H     1 <1>   0.0800 
 33 H       -4.0230    -1.7260     0.7240 H     1 <1>   0.1500 
 34 H       -1.7550     1.6950    -0.3940 H     1 <1>   0.1500 
 35 H       -3.6970     2.5950    -1.5880 H     1 <1>   0.1500 
 36 H       -5.8020     1.3130    -1.6640 H     1 <1>   0.1500 
 37 H      -10.6130    -3.7540     0.0060 H     1 <1>   0.0800 
 38 H       -9.5090    -2.9650     1.0950 H     1 <1>   0.0800 
 39 H       -8.2060    -6.6900    -0.4410 H     1 <1>   0.0800 
 40 H       -9.7730    -6.1640    -0.9730 H     1 <1>   0.0800 
 41 H       -3.4160    -3.5390    -2.5790 H     1 <1>   0.0800 
 42 H       -2.8970    -5.1520    -2.9460 H     1 <1>   0.0800 
 43 H       -3.8920    -7.1130    -1.5550 H     1 <1>   0.0800 
 44 H       -5.0090    -6.7260    -0.2830 H     1 <1>   0.0800 
 45 H      -11.3260    -4.2150     2.2820 H     1 <1>   0.0800 
 46 H       -9.7250    -4.7550     2.7310 H     1 <1>   0.0800 
 47 H       -8.9760    -6.8490     1.8740 H     1 <1>   0.0800 
 48 H      -10.0690    -7.7480     0.8470 H     1 <1>   0.0800 
 49 H       -2.3690    -3.6840    -0.3430 H     1 <1>   0.0800 
 50 H       -1.1840    -4.0730    -1.5690 H     1 <1>   0.0800 
 51 H       -2.6880    -7.1260     0.5720 H     1 <1>   0.0800 
 52 H       -3.2630    -5.5190     0.9550 H     1 <1>   0.0800 
@<TRIPOS>BOND
  1   1   2  2   
  2   2   3  1   
  3   2   4  1   
  4   3   5  1   
  5   4   6  ar  
  6   4   7  ar  
  7   5  30  1   
  8   5  31  1   
  9   5  32  1   
 10   6   8  ar  
 11   6  33  1   
 12   7   9  ar  
 13   7  34  1   
 14   8  10  1   
 15   8  11  ar  
 16   9  11  ar  
 17   9  35  1   
 18  10  12  1   
 19  11  36  1   
 20  12  13  ar  
 21  12  14  ar  
 22  13  15  ar  
 23  14  16  ar  
 24  15  17  ar  
 25  15  18  1   
 26  16  17  ar  
 27  16  19  1   
 28  18  20  1   
 29  18  21  1   
 30  19  22  1   
 31  19  23  1   
 32  20  24  1   
 33  20  37  1   
 34  20  38  1   
 35  21  25  1   
 36  21  39  1   
 37  21  40  1   
 38  22  26  1   
 39  22  41  1   
 40  22  42  1   
 41  23  27  1   
 42  23  43  1   
 43  23  44  1   
 44  24  28  1   
 45  24  45  1   
 46  24  46  1   
 47  25  28  1   
 48  25  47  1   
 49  25  48  1   
 50  26  29  1   
 51  26  49  1   
 52  26  50  1   
 53  27  29  1   
 54  27  51  1   
 55  27  52  1   
@<TRIPOS>SUBSTRUCTURE
  1 ****  14 GROUP 4 **** **** 0

# MOE 2024.06 (io_trps.svl 2023.06)
