@<TRIPOS>MOLECULE
NONAME
35 37 1 0 0 
SMALL
USER_CHARGES


@<TRIPOS>ATOM
  1 N       -3.5570    -2.3840    -1.1720 N.4   1 <1>  -0.8530 
  2 C       -4.8580    -2.2730    -0.5270 C.3   1 <1>   0.5030 
  3 C       -5.9240    -2.9130    -1.4300 C.3   1 <1>  -0.1600 
  4 C       -5.1850    -0.7880    -0.3060 C.3   1 <1>  -0.1600 
  5 C       -4.8140    -3.0030     0.8240 C.3   1 <1>  -0.1600 
  6 C       -7.3080    -2.8030    -0.7600 C.3   1 <1>   0.0000 
  7 C       -6.5610    -0.6540     0.3770 C.3   1 <1>   0.0000 
  8 C       -6.1870    -2.8890     1.5110 C.3   1 <1>  -0.0800 
  9 C       -7.6290    -1.3120    -0.5230 C.3   1 <1>  -0.1600 
 10 C       -7.2600    -3.5210     0.6050 C.3   1 <1>  -0.1600 
 11 C       -8.3810    -3.4380    -1.6530 C.3   1 <1>  -0.2400 
 12 C       -6.5230    -1.4020     1.7260 C.3   1 <1>  -0.1600 
 13 C       -6.9000     0.8240     0.6030 C.3   1 <1>  -0.2400 
 14 H       -3.5750    -1.9010    -2.0730 H     1 <1>   0.4500 
 15 H       -3.3290    -3.3690    -1.3240 H     1 <1>   0.4500 
 16 H       -2.8390    -1.9610    -0.5790 H     1 <1>   0.4500 
 17 H       -5.6970    -3.9510    -1.5980 H     1 <1>   0.0800 
 18 H       -5.9550    -2.4130    -2.3830 H     1 <1>   0.0800 
 19 H       -5.2100    -0.2670    -1.2480 H     1 <1>   0.0800 
 20 H       -4.4380    -0.3300     0.3180 H     1 <1>   0.0800 
 21 H       -4.0680    -2.5690     1.4660 H     1 <1>   0.0800 
 22 H       -4.5810    -4.0450     0.6850 H     1 <1>   0.0800 
 23 H       -6.1690    -3.3980     2.4610 H     1 <1>   0.0800 
 24 H       -8.5950    -1.2240    -0.0540 H     1 <1>   0.0800 
 25 H       -7.6860    -0.7940    -1.4650 H     1 <1>   0.0800 
 26 H       -7.0520    -4.5690     0.4670 H     1 <1>   0.0800 
 27 H       -8.2210    -3.4500     1.0870 H     1 <1>   0.0800 
 28 H       -9.3490    -3.3630    -1.1870 H     1 <1>   0.0800 
 29 H       -8.1710    -4.4800    -1.8210 H     1 <1>   0.0800 
 30 H       -8.4290    -2.9420    -2.6060 H     1 <1>   0.0800 
 31 H       -7.4810    -1.3200     2.2140 H     1 <1>   0.0800 
 32 H       -5.7950    -0.9540     2.3800 H     1 <1>   0.0800 
 33 H       -6.1650     1.2930     1.2330 H     1 <1>   0.0800 
 34 H       -7.8600     0.9210     1.0790 H     1 <1>   0.0800 
 35 H       -6.9350     1.3560    -0.3320 H     1 <1>   0.0800 
@<TRIPOS>BOND
  1   1   2  1   
  2   1  14  1   
  3   1  15  1   
  4   1  16  1   
  5   2   3  1   
  6   2   4  1   
  7   2   5  1   
  8   3   6  1   
  9   3  17  1   
 10   3  18  1   
 11   4   7  1   
 12   4  19  1   
 13   4  20  1   
 14   5   8  1   
 15   5  21  1   
 16   5  22  1   
 17   6   9  1   
 18   6  10  1   
 19   6  11  1   
 20   7   9  1   
 21   7  12  1   
 22   7  13  1   
 23   8  10  1   
 24   8  12  1   
 25   8  23  1   
 26   9  24  1   
 27   9  25  1   
 28  10  26  1   
 29  10  27  1   
 30  11  28  1   
 31  11  29  1   
 32  11  30  1   
 33  12  31  1   
 34  12  32  1   
 35  13  33  1   
 36  13  34  1   
 37  13  35  1   
@<TRIPOS>SUBSTRUCTURE
  1 ****   2 GROUP 4 **** **** 0

# MOE 2024.06 (io_trps.svl 2023.06)
