@<TRIPOS>MOLECULE
NONAME
50 51 1 0 0 
SMALL
USER_CHARGES


@<TRIPOS>ATOM
  1 O       -9.3730     0.9420    -0.2920 O.3   1 <1>  -0.3630 
  2 C       -8.1780     1.5860    -0.2520 C.ar  1 <1>   0.0830 
  3 C      -10.5710     1.6030     0.0510 C.3   1 <1>   0.1200 
  4 C       -7.0710     0.8690    -0.6770 C.ar  1 <1>  -0.1500 
  5 C       -8.0160     2.8980     0.1860 C.ar  1 <1>  -0.1500 
  6 C      -11.7210     0.6060    -0.1070 C.3   1 <1>   0.1100 
  7 C       -5.8160     1.4500    -0.6710 C.ar  1 <1>  -0.1500 
  8 C       -6.7590     3.4800     0.1930 C.ar  1 <1>  -0.1500 
  9 N      -13.0310     1.2190     0.2120 N.3   1 <1>  -0.8100 
 10 C       -5.6500     2.7560    -0.2380 C.ar  1 <1>   0.0830 
 11 C      -14.0220     0.1770     0.5500 C.3   1 <1>   0.1100 
 12 C      -13.5210     2.0890    -0.8790 C.3   1 <1>   0.1100 
 13 O       -4.3850     3.2500    -0.2640 O.3   1 <1>  -0.3630 
 14 C      -15.3880     0.7920     0.9190 C.3   1 <1>   0.3430 
 15 C      -14.8840     2.7240    -0.5300 C.3   1 <1>   0.3430 
 16 C       -4.1070     4.5650     0.1610 C.3   1 <1>   0.1200 
 17 N      -15.9110     1.6840    -0.1740 N.4   1 <1>  -0.9590 
 18 C       -2.6050     4.8080     0.0110 C.3   1 <1>  -0.1600 
 19 C      -17.2080     2.3130     0.2130 C.3   1 <1>   0.2630 
 20 C       -2.2250     6.2270     0.4560 C.3   1 <1>  -0.1600 
 21 C       -0.7210     6.4660     0.3040 C.3   1 <1>  -0.2400 
 22 H      -10.6860     2.4410    -0.6110 H     1 <1>   0.0800 
 23 H      -10.4970     1.9270     1.0740 H     1 <1>   0.0800 
 24 H       -7.1980    -0.1440    -1.0130 H     1 <1>   0.1500 
 25 H       -8.8510     3.4800     0.5260 H     1 <1>   0.1500 
 26 H      -11.5320    -0.2090     0.5720 H     1 <1>   0.0800 
 27 H      -11.7290     0.2160    -1.1110 H     1 <1>   0.0800 
 28 H       -4.9570     0.8950    -1.0010 H     1 <1>   0.1500 
 29 H       -6.6630     4.4920     0.5360 H     1 <1>   0.1500 
 30 H      -13.6650    -0.3890     1.3940 H     1 <1>   0.0800 
 31 H      -14.1410    -0.5030    -0.2770 H     1 <1>   0.0800 
 32 H      -13.6100     1.5240    -1.7910 H     1 <1>   0.0800 
 33 H      -12.8140     2.8820    -1.0520 H     1 <1>   0.0800 
 34 H      -15.2680     1.3610     1.8260 H     1 <1>   0.0800 
 35 H      -16.0920    -0.0010     1.1150 H     1 <1>   0.0800 
 36 H      -15.2270     3.3090    -1.3680 H     1 <1>   0.0800 
 37 H      -14.7400     3.3910     0.3040 H     1 <1>   0.0800 
 38 H       -4.4060     4.6590     1.1900 H     1 <1>   0.0800 
 39 H       -4.6660     5.2460    -0.4570 H     1 <1>   0.0800 
 40 H      -16.0530     1.0960    -1.0070 H     1 <1>   0.4500 
 41 H       -2.3300     4.6700    -1.0210 H     1 <1>   0.0800 
 42 H       -2.0730     4.0900     0.6100 H     1 <1>   0.0800 
 43 H      -17.0780     2.9320     1.0860 H     1 <1>   0.0800 
 44 H      -17.9410     1.5530     0.4370 H     1 <1>   0.0800 
 45 H      -17.5840     2.9240    -0.5910 H     1 <1>   0.0800 
 46 H       -2.5030     6.3700     1.4860 H     1 <1>   0.0800 
 47 H       -2.7590     6.9490    -0.1390 H     1 <1>   0.0800 
 48 H       -0.1660     5.7680     0.9070 H     1 <1>   0.0800 
 49 H       -0.4720     7.4630     0.6200 H     1 <1>   0.0800 
 50 H       -0.4230     6.3480    -0.7240 H     1 <1>   0.0800 
@<TRIPOS>BOND
  1   1   2  1   
  2   1   3  1   
  3   2   4  ar  
  4   2   5  ar  
  5   3   6  1   
  6   3  22  1   
  7   3  23  1   
  8   4   7  ar  
  9   4  24  1   
 10   5   8  ar  
 11   5  25  1   
 12   6   9  1   
 13   6  26  1   
 14   6  27  1   
 15   7  10  ar  
 16   7  28  1   
 17   8  10  ar  
 18   8  29  1   
 19   9  11  1   
 20   9  12  1   
 21  10  13  1   
 22  11  14  1   
 23  11  30  1   
 24  11  31  1   
 25  12  15  1   
 26  12  32  1   
 27  12  33  1   
 28  13  16  1   
 29  14  17  1   
 30  14  34  1   
 31  14  35  1   
 32  15  17  1   
 33  15  36  1   
 34  15  37  1   
 35  16  18  1   
 36  16  38  1   
 37  16  39  1   
 38  17  19  1   
 39  17  40  1   
 40  18  20  1   
 41  18  41  1   
 42  18  42  1   
 43  19  43  1   
 44  19  44  1   
 45  19  45  1   
 46  20  21  1   
 47  20  46  1   
 48  20  47  1   
 49  21  48  1   
 50  21  49  1   
 51  21  50  1   
@<TRIPOS>SUBSTRUCTURE
  1 ****   5 GROUP 4 **** **** 0

# MOE 2024.06 (io_trps.svl 2023.06)
