@<TRIPOS>MOLECULE
NONAME
46 48 1 0 0 
SMALL
USER_CHARGES


@<TRIPOS>ATOM
  1 O       -0.9170    -0.4710     1.0510 O.3   1 <1>  -0.5600 
  2 C       -1.6500    -1.2310     0.1470 C.3   1 <1>   0.2640 
  3 C       -1.2680     0.8740     1.0830 C.3   1 <1>   0.0400 
  4 C       -0.9940    -2.6010     0.0640 C.ar  1 <1>  -0.1440 
  5 C        0.1670    -2.8240    -0.6630 C.ar  1 <1>   0.0730 
  6 C       -1.5370    -3.6790     0.7320 C.ar  1 <1>  -0.1500 
  7 C        0.8050    -1.7690    -1.3930 C.1   1 <1>   0.4840 
  8 C        0.7130    -4.1170    -0.6780 C.ar  1 <1>   0.4100 
  9 C       -0.9260    -4.9170     0.6500 C.ar  1 <1>   0.1660 
 10 N        1.2760    -0.9000    -1.9650 N.1   1 <1>  -0.5570 
 11 N        0.1710    -5.1510    -0.0380 N.ar  1 <1>  -0.6200 
 12 N        1.8810    -4.3970    -1.3690 N.pl3 1 <1>  -0.8380 
 13 C       -1.5120    -6.1070     1.3790 C.3   1 <1>  -0.0970 
 14 C        3.1800    -3.9570    -0.7630 C.3   1 <1>   0.2090 
 15 C        2.0110    -5.7000    -2.1050 C.3   1 <1>   0.2090 
 16 C        3.8280    -5.0680     0.0870 C.3   1 <1>   0.2090 
 17 C        2.6890    -6.7940    -1.2540 C.3   1 <1>   0.2090 
 18 N        3.9970    -6.3340    -0.6900 N.pl3 1 <1>  -0.8380 
 19 C        4.7680    -7.3160    -0.0790 C.ar  1 <1>   0.1000 
 20 C        5.9860    -7.6750    -0.6370 C.ar  1 <1>  -0.1500 
 21 C        4.3510    -7.9540     1.0850 C.ar  1 <1>  -0.1500 
 22 C        6.7750    -8.6480    -0.0500 C.ar  1 <1>  -0.1500 
 23 C        5.1360    -8.9270     1.6760 C.ar  1 <1>  -0.1500 
 24 C        6.3500    -9.2760     1.1090 C.ar  1 <1>  -0.1500 
 25 H       -1.6450    -0.7420    -0.8130 H     1 <1>   0.0800 
 26 H       -2.6620    -1.3050     0.5070 H     1 <1>   0.0800 
 27 H       -0.6620     1.3600     1.8280 H     1 <1>   0.0800 
 28 H       -2.3080     0.9670     1.3460 H     1 <1>   0.0800 
 29 H       -1.0760     1.3150     0.1200 H     1 <1>   0.0800 
 30 H       -2.4290    -3.5570     1.3200 H     1 <1>   0.1500 
 31 H       -2.4030    -5.8370     1.9140 H     1 <1>   0.0800 
 32 H       -0.7900    -6.4910     2.0750 H     1 <1>   0.0800 
 33 H       -1.7520    -6.8790     0.6700 H     1 <1>   0.0800 
 34 H        3.0220    -3.0930    -0.1430 H     1 <1>   0.0800 
 35 H        3.8580    -3.6790    -1.5500 H     1 <1>   0.0800 
 36 H        2.5950    -5.5410    -2.9940 H     1 <1>   0.0800 
 37 H        1.0370    -6.0410    -2.4080 H     1 <1>   0.0800 
 38 H        3.2060    -5.2540     0.9450 H     1 <1>   0.0800 
 39 H        4.7900    -4.7360     0.4350 H     1 <1>   0.0800 
 40 H        2.8540    -7.6650    -1.8630 H     1 <1>   0.0800 
 41 H        2.0280    -7.0700    -0.4510 H     1 <1>   0.0800 
 42 H        6.3040    -7.1810    -1.5360 H     1 <1>   0.1500 
 43 H        3.4090    -7.6810     1.5220 H     1 <1>   0.1500 
 44 H        7.7170    -8.9160    -0.4950 H     1 <1>   0.1500 
 45 H        4.8030    -9.4130     2.5760 H     1 <1>   0.1500 
 46 H        6.9620   -10.0330     1.5670 H     1 <1>   0.1500 
@<TRIPOS>BOND
  1   1   2  1   
  2   1   3  1   
  3   2   4  1   
  4   2  25  1   
  5   2  26  1   
  6   3  27  1   
  7   3  28  1   
  8   3  29  1   
  9   4   5  ar  
 10   4   6  ar  
 11   5   7  1   
 12   5   8  ar  
 13   6   9  ar  
 14   6  30  1   
 15   7  10  3   
 16   8  11  ar  
 17   8  12  1   
 18   9  11  ar  
 19   9  13  1   
 20  12  14  1   
 21  12  15  1   
 22  13  31  1   
 23  13  32  1   
 24  13  33  1   
 25  14  16  1   
 26  14  34  1   
 27  14  35  1   
 28  15  17  1   
 29  15  36  1   
 30  15  37  1   
 31  16  18  1   
 32  16  38  1   
 33  16  39  1   
 34  17  18  1   
 35  17  40  1   
 36  17  41  1   
 37  18  19  1   
 38  19  20  ar  
 39  19  21  ar  
 40  20  22  ar  
 41  20  42  1   
 42  21  23  ar  
 43  21  43  1   
 44  22  24  ar  
 45  22  44  1   
 46  23  24  ar  
 47  23  45  1   
 48  24  46  1   
@<TRIPOS>SUBSTRUCTURE
  1 ****  12 GROUP 4 **** **** 0

# MOE 2024.06 (io_trps.svl 2023.06)
