@<TRIPOS>MOLECULE
NONAME
54 56 1 0 0 
SMALL
USER_CHARGES


@<TRIPOS>ATOM
  1 O       -2.3240     3.1840     2.3700 O.2   1 <1>  -0.5700 
  2 C       -3.5050     3.1340     2.5960 C.2   1 <1>   0.6590 
  3 O       -4.3550     2.3930     1.8960 O.3   1 <1>  -0.2330 
  4 C       -4.1110     3.9130     3.7360 C.3   1 <1>  -0.1790 
  5 C       -3.9890     1.5390     0.9110 C.ar  1 <1>   0.0830 
  6 C       -4.1040     1.8570    -0.4460 C.ar  1 <1>  -0.1440 
  7 C       -3.5310     0.2910     1.3110 C.ar  1 <1>  -0.1500 
  8 C       -3.7690     0.8740    -1.3720 C.ar  1 <1>  -0.1500 
  9 C       -4.5540     3.2080    -1.0350 C.3   1 <1>   0.5070 
 10 C       -3.1930    -0.6630     0.3720 C.ar  1 <1>  -0.1500 
 11 C       -3.3140    -0.3800    -0.9760 C.ar  1 <1>   0.0830 
 12 N       -3.3900     3.8240    -1.7320 N.am  1 <1>  -0.6600 
 13 C       -5.1650     4.2280    -0.0620 C.ar  1 <1>  -0.1430 
 14 O       -2.9690    -1.3680    -1.8420 O.3   1 <1>  -0.3630 
 15 C       -3.3090     3.8310    -3.0940 C.2   1 <1>   0.5690 
 16 C       -2.4030     4.4250    -0.7980 C.3   1 <1>   0.1400 
 17 C       -4.4630     5.3470     0.3770 C.ar  1 <1>  -0.1430 
 18 C       -6.4610     4.0280     0.3910 C.ar  1 <1>  -0.1500 
 19 C       -3.0350    -1.1660    -3.2370 C.3   1 <1>   0.0400 
 20 O       -4.1230     3.2740    -3.7900 O.2   1 <1>  -0.5700 
 21 C       -2.1730     4.5410    -3.7910 C.3   1 <1>  -0.1790 
 22 C       -3.0420     5.6270    -0.1010 C.3   1 <1>  -0.0170 
 23 C       -5.0590     6.2380     1.2570 C.ar  1 <1>  -0.1500 
 24 C       -7.0650     4.9130     1.2680 C.ar  1 <1>   0.0830 
 25 C       -6.3550     6.0340     1.7220 C.ar  1 <1>   0.0830 
 26 O       -8.3370     4.5950     1.6330 O.3   1 <1>  -0.3620 
 27 O       -6.9340     6.8810     2.6230 O.3   1 <1>  -0.3620 
 28 C       -9.3160     5.6060     1.7310 C.3   1 <1>   0.0400 
 29 C       -6.2750     8.0300     3.1070 C.3   1 <1>   0.0400 
 30 H       -5.1080     4.2200     3.4820 H     1 <1>   0.0800 
 31 H       -3.5130     4.7820     3.9380 H     1 <1>   0.0800 
 32 H       -4.1460     3.2940     4.6110 H     1 <1>   0.0800 
 33 H       -3.4430     0.0660     2.3580 H     1 <1>   0.1500 
 34 H       -3.8640     1.1020    -2.4160 H     1 <1>   0.1500 
 35 H       -5.3190     2.9930    -1.7610 H     1 <1>   0.0800 
 36 H       -2.8370    -1.6310     0.6770 H     1 <1>   0.1500 
 37 H       -1.5080     4.7300    -1.3090 H     1 <1>   0.0800 
 38 H       -2.1210     3.6870    -0.0680 H     1 <1>   0.0800 
 39 H       -7.0210     3.1690     0.0670 H     1 <1>   0.1500 
 40 H       -2.7090    -2.0690    -3.7210 H     1 <1>   0.0800 
 41 H       -2.3830    -0.3530    -3.5040 H     1 <1>   0.0800 
 42 H       -4.0520    -0.9500    -3.5120 H     1 <1>   0.0800 
 43 H       -1.2440     4.0570    -3.5580 H     1 <1>   0.0800 
 44 H       -2.1390     5.5690    -3.4830 H     1 <1>   0.0800 
 45 H       -2.3220     4.5060    -4.8550 H     1 <1>   0.0800 
 46 H       -3.0650     6.4540    -0.7880 H     1 <1>   0.0800 
 47 H       -2.4250     5.9070     0.7340 H     1 <1>   0.0800 
 48 H       -4.4890     7.0900     1.5720 H     1 <1>   0.1500 
 49 H      -10.2810     5.1510     1.6050 H     1 <1>   0.0800 
 50 H       -9.1480     6.3370     0.9590 H     1 <1>   0.0800 
 51 H       -9.2530     6.0580     2.7040 H     1 <1>   0.0800 
 52 H       -6.9370     8.5310     3.7900 H     1 <1>   0.0800 
 53 H       -6.0480     8.6770     2.2790 H     1 <1>   0.0800 
 54 H       -5.3800     7.7290     3.6220 H     1 <1>   0.0800 
@<TRIPOS>BOND
  1   1   2  2   
  2   2   3  1   
  3   2   4  1   
  4   3   5  1   
  5   4  30  1   
  6   4  31  1   
  7   4  32  1   
  8   5   6  ar  
  9   5   7  ar  
 10   6   8  ar  
 11   6   9  1   
 12   7  10  ar  
 13   7  33  1   
 14   8  11  ar  
 15   8  34  1   
 16   9  12  1   
 17   9  13  1   
 18   9  35  1   
 19  10  11  ar  
 20  10  36  1   
 21  11  14  1   
 22  12  15  am  
 23  12  16  1   
 24  13  17  ar  
 25  13  18  ar  
 26  14  19  1   
 27  15  20  2   
 28  15  21  1   
 29  16  22  1   
 30  16  37  1   
 31  16  38  1   
 32  17  22  1   
 33  17  23  ar  
 34  18  24  ar  
 35  18  39  1   
 36  19  40  1   
 37  19  41  1   
 38  19  42  1   
 39  21  43  1   
 40  21  44  1   
 41  21  45  1   
 42  22  46  1   
 43  22  47  1   
 44  23  25  ar  
 45  23  48  1   
 46  24  25  ar  
 47  24  26  1   
 48  25  27  1   
 49  26  28  1   
 50  27  29  1   
 51  28  49  1   
 52  28  50  1   
 53  28  51  1   
 54  29  52  1   
 55  29  53  1   
 56  29  54  1   
@<TRIPOS>SUBSTRUCTURE
  1 ****  13 GROUP 4 **** **** 0

# MOE 2024.06 (io_trps.svl 2023.06)
