@<TRIPOS>MOLECULE
NONAME
38 39 1 0 0 
SMALL
USER_CHARGES


@<TRIPOS>ATOM
  1 F       -0.0730    -1.6340    -2.3880 F     1 <1>  -0.3400 
  2 C        0.1720    -1.4150    -1.1000 C.3   1 <1>   1.0200 
  3 F       -0.3440    -0.2160    -0.8520 F     1 <1>  -0.3400 
  4 F        1.4930    -1.2850    -1.0040 F     1 <1>  -0.3400 
  5 C       -0.4180    -2.5330    -0.1990 C.3   1 <1>   0.4990 
  6 N       -1.9360    -2.6690    -0.2670 N.am  1 <1>  -0.7300 
  7 C        0.1030    -2.2490     1.2160 C.2   1 <1>   0.5690 
  8 C        0.2650    -3.8850    -0.4400 C.2   1 <1>  -0.0730 
  9 C       -2.6660    -3.5420     0.4700 C.2   1 <1>   0.5690 
 10 O       -0.1800    -1.2950     1.8990 O.2   1 <1>  -0.5700 
 11 N        0.9460    -3.2420     1.6000 N.am  1 <1>  -0.5390 
 12 C        0.0250    -4.5840    -1.6570 C.1   1 <1>   0.4920 
 13 C        1.0190    -4.2140     0.6230 C.2   1 <1>  -0.0290 
 14 O       -2.1330    -4.3630     1.1730 O.2   1 <1>  -0.5700 
 15 C       -4.1900    -3.4710     0.3960 C.3   1 <1>  -0.0190 
 16 N       -0.1610    -5.1190    -2.6450 N.1   1 <1>  -0.5570 
 17 C        1.8630    -5.4480     0.8700 C.3   1 <1>  -0.1020 
 18 C       -4.7970    -3.0960     1.7610 C.3   1 <1>  -0.1600 
 19 C       -4.7890    -4.7940    -0.1190 C.3   1 <1>  -0.1600 
 20 C       -6.3300    -3.0330     1.6980 C.3   1 <1>  -0.1600 
 21 C       -6.3210    -4.7320    -0.1830 C.3   1 <1>  -0.1600 
 22 C       -6.9170    -4.3520     1.1790 C.3   1 <1>  -0.1600 
 23 H       -2.4200    -1.9250    -0.7740 H     1 <1>   0.3700 
 24 H        1.3280    -3.2860     2.5490 H     1 <1>   0.3700 
 25 H       -4.4560    -2.6990    -0.3040 H     1 <1>   0.0800 
 26 H        2.8880    -5.1690     1.0370 H     1 <1>   0.0800 
 27 H        1.8210    -6.1130     0.0260 H     1 <1>   0.0800 
 28 H        1.4980    -5.9730     1.7350 H     1 <1>   0.0800 
 29 H       -4.4110    -2.1430     2.0810 H     1 <1>   0.0800 
 30 H       -4.5030    -3.8290     2.4930 H     1 <1>   0.0800 
 31 H       -4.4950    -5.5960     0.5380 H     1 <1>   0.0800 
 32 H       -4.3960    -5.0130    -1.0970 H     1 <1>   0.0800 
 33 H       -6.6300    -2.2290     1.0490 H     1 <1>   0.0800 
 34 H       -6.7210    -2.8270     2.6800 H     1 <1>   0.0800 
 35 H       -6.7070    -5.6890    -0.4890 H     1 <1>   0.0800 
 36 H       -6.6210    -4.0060    -0.9190 H     1 <1>   0.0800 
 37 H       -7.9860    -4.2620     1.0930 H     1 <1>   0.0800 
 38 H       -6.7090    -5.1360     1.8880 H     1 <1>   0.0800 
@<TRIPOS>BOND
  1   1   2  1   
  2   2   3  1   
  3   2   4  1   
  4   2   5  1   
  5   5   6  1   
  6   5   7  1   
  7   5   8  1   
  8   6   9  am  
  9   6  23  1   
 10   7  10  2   
 11   7  11  am  
 12   8  12  1   
 13   8  13  2   
 14   9  14  2   
 15   9  15  1   
 16  11  13  1   
 17  11  24  1   
 18  12  16  3   
 19  13  17  1   
 20  15  18  1   
 21  15  19  1   
 22  15  25  1   
 23  17  26  1   
 24  17  27  1   
 25  17  28  1   
 26  18  20  1   
 27  18  29  1   
 28  18  30  1   
 29  19  21  1   
 30  19  31  1   
 31  19  32  1   
 32  20  22  1   
 33  20  33  1   
 34  20  34  1   
 35  21  22  1   
 36  21  35  1   
 37  21  36  1   
 38  22  37  1   
 39  22  38  1   
@<TRIPOS>SUBSTRUCTURE
  1 ****   6 GROUP 4 **** **** 0

# MOE 2024.06 (io_trps.svl 2023.06)
