@<TRIPOS>MOLECULE
NONAME
47 48 1 0 0 
SMALL
USER_CHARGES


@<TRIPOS>ATOM
  1 CL      -2.4340     0.1360    -2.9950 Cl    1 <1>  -0.1770 
  2 C       -2.5580    -0.2320    -1.2890 C.ar  1 <1>   0.1770 
  3 C       -2.2000     0.7160    -0.3370 C.ar  1 <1>   0.0830 
  4 C       -3.0230    -1.4800    -0.9240 C.ar  1 <1>  -0.1500 
  5 O       -1.7530     1.9260    -0.7640 O.3   1 <1>  -0.3630 
  6 C       -2.3200     0.3760     1.0070 C.ar  1 <1>  -0.1500 
  7 C       -3.1510    -1.8260     0.4150 C.ar  1 <1>  -0.0090 
  8 C       -1.3660     2.9380     0.1350 C.3   1 <1>   0.1200 
  9 C       -2.7890    -0.8780     1.3680 C.ar  1 <1>  -0.1500 
 10 S       -3.7810    -3.4590     0.8930 S.o2  1 <1>   1.4470 
 11 C       -0.9210     4.1480    -0.6810 C.3   1 <1>  -0.2400 
 12 O       -4.0820    -3.4840     2.3080 O.2   1 <1>  -0.6500 
 13 O       -2.9200    -4.4760     0.3310 O.2   1 <1>  -0.6500 
 14 N       -5.2610    -3.5500     0.0710 N.am  1 <1>  -0.8490 
 15 C       -6.2520    -2.6050     0.6120 C.3   1 <1>   0.1960 
 16 C       -5.7910    -4.9170     0.0940 C.3   1 <1>   0.1960 
 17 C       -7.5080    -2.5900    -0.2700 C.3   1 <1>  -0.0190 
 18 C       -7.0500    -5.0140    -0.7780 C.3   1 <1>  -0.1600 
 19 C       -8.5150    -1.5730     0.2470 C.2   1 <1>   0.5690 
 20 C       -8.1200    -4.0000    -0.3480 C.3   1 <1>  -0.1600 
 21 O       -8.5820    -1.3490     1.4320 O.2   1 <1>  -0.5700 
 22 N       -9.3160    -0.9440    -0.6510 N.am  1 <1>  -0.7300 
 23 C      -10.3560     0.0460    -0.3130 C.3   1 <1>   0.1400 
 24 C      -11.6480    -0.3480    -1.0170 C.3   1 <1>  -0.2400 
 25 H       -3.2890    -2.1890    -1.6890 H     1 <1>   0.1500 
 26 H       -2.0550     1.0680     1.7850 H     1 <1>   0.1500 
 27 H       -0.5550     2.5680     0.7390 H     1 <1>   0.0800 
 28 H       -2.2110     3.1880     0.7540 H     1 <1>   0.0800 
 29 H       -2.8780    -1.1260     2.4140 H     1 <1>   0.1500 
 30 H       -0.0880     3.8840    -1.3080 H     1 <1>   0.0800 
 31 H       -0.6180     4.9420    -0.0220 H     1 <1>   0.0800 
 32 H       -1.7320     4.5000    -1.2930 H     1 <1>   0.0800 
 33 H       -5.8380    -1.6110     0.6380 H     1 <1>   0.0800 
 34 H       -6.5150    -2.8820     1.6210 H     1 <1>   0.0800 
 35 H       -6.0190    -5.2040     1.1080 H     1 <1>   0.0800 
 36 H       -5.0530    -5.6010    -0.2900 H     1 <1>   0.0800 
 37 H       -7.2070    -2.2820    -1.2540 H     1 <1>   0.0800 
 38 H       -7.4490    -6.0100    -0.7130 H     1 <1>   0.0800 
 39 H       -6.7710    -4.8390    -1.8020 H     1 <1>   0.0800 
 40 H       -8.9390    -4.0110    -1.0460 H     1 <1>   0.0800 
 41 H       -8.5030    -4.2740     0.6210 H     1 <1>   0.0800 
 42 H       -9.2310    -1.1620    -1.6450 H     1 <1>   0.3700 
 43 H      -10.0380     1.0230    -0.6340 H     1 <1>   0.0800 
 44 H      -10.5110     0.0710     0.7540 H     1 <1>   0.0800 
 45 H      -11.5140    -0.3480    -2.0840 H     1 <1>   0.0800 
 46 H      -12.4200     0.3580    -0.7710 H     1 <1>   0.0800 
 47 H      -11.9650    -1.3230    -0.6920 H     1 <1>   0.0800 
@<TRIPOS>BOND
  1   1   2  1   
  2   2   3  ar  
  3   2   4  ar  
  4   3   5  1   
  5   3   6  ar  
  6   4   7  ar  
  7   4  25  1   
  8   5   8  1   
  9   6   9  ar  
 10   6  26  1   
 11   7   9  ar  
 12   7  10  1   
 13   8  11  1   
 14   8  27  1   
 15   8  28  1   
 16   9  29  1   
 17  10  12  2   
 18  10  13  2   
 19  10  14  am  
 20  11  30  1   
 21  11  31  1   
 22  11  32  1   
 23  14  15  1   
 24  14  16  1   
 25  15  17  1   
 26  15  33  1   
 27  15  34  1   
 28  16  18  1   
 29  16  35  1   
 30  16  36  1   
 31  17  19  1   
 32  17  20  1   
 33  17  37  1   
 34  18  20  1   
 35  18  38  1   
 36  18  39  1   
 37  19  21  2   
 38  19  22  am  
 39  20  40  1   
 40  20  41  1   
 41  22  23  1   
 42  22  42  1   
 43  23  24  1   
 44  23  43  1   
 45  23  44  1   
 46  24  45  1   
 47  24  46  1   
 48  24  47  1   
@<TRIPOS>SUBSTRUCTURE
  1 ****  15 GROUP 4 **** **** 0

# MOE 2024.06 (io_trps.svl 2023.06)
