@<TRIPOS>MOLECULE
NONAME
43 45 1 0 0 
SMALL
USER_CHARGES


@<TRIPOS>ATOM
  1 O       -0.0540     0.8830    -1.9790 O.2   1 <1>  -0.5700 
  2 C       -0.0590     1.4710    -0.9150 C.2   1 <1>   0.5440 
  3 N        1.1130     1.5950    -0.2240 N.am  1 <1>  -0.7300 
  4 C       -1.2860     2.0330    -0.3790 C.ar  1 <1>   0.0860 
  5 C        2.4240     1.0750    -0.6490 C.3   1 <1>   0.2200 
  6 C       -2.5060     1.3820    -0.5350 C.ar  1 <1>  -0.1500 
  7 C       -1.2900     3.2470     0.3060 C.ar  1 <1>  -0.1500 
  8 C        2.9340     0.1070     0.4110 C.3   1 <1>  -0.1600 
  9 C        3.4390     2.2090    -0.6070 C.3   1 <1>  -0.1600 
 10 C       -3.6930     1.8950    -0.0250 C.ar  1 <1>   0.1170 
 11 C       -2.4600     3.7780     0.8160 C.ar  1 <1>  -0.1500 
 12 C        3.5590     0.9770     1.5090 C.3   1 <1>  -0.1600 
 13 C        3.8660     2.3330     0.8600 C.3   1 <1>  -0.1600 
 14 N       -4.9150     1.2300    -0.2020 N.am  1 <1>  -0.5470 
 15 C       -3.6630     3.1120     0.6570 C.ar  1 <1>  -0.1430 
 16 C       -5.2280    -0.1040    -0.2740 C.2   1 <1>   0.7150 
 17 C       -4.9310     3.7280     1.2380 C.3   1 <1>  -0.0970 
 18 O       -4.3620    -0.9520    -0.1630 O.2   1 <1>  -0.5700 
 19 C       -6.6100    -0.4770    -0.4580 C.2   1 <1>   0.0550 
 20 O       -7.5650     0.4500    -0.5270 O.3   1 <1>  -0.2800 
 21 C       -7.1910    -1.7020    -0.5830 C.2   1 <1>  -0.1500 
 22 C       -8.7230    -0.1480    -0.6930 C.2   1 <1>  -0.0100 
 23 C       -8.5610    -1.4880    -0.7360 C.2   1 <1>  -0.1500 
 24 H        1.1030     1.9810     0.7180 H     1 <1>   0.3700 
 25 H        2.3600     0.6180    -1.6240 H     1 <1>   0.0800 
 26 H       -2.5170     0.4520    -1.0740 H     1 <1>   0.1500 
 27 H       -0.3680     3.7860     0.4320 H     1 <1>   0.1500 
 28 H        3.7020    -0.5030    -0.0300 H     1 <1>   0.0800 
 29 H        2.1560    -0.5380     0.7800 H     1 <1>   0.0800 
 30 H        3.0390     3.1260    -1.0060 H     1 <1>   0.0800 
 31 H        4.2920     1.9220    -1.1960 H     1 <1>   0.0800 
 32 H       -2.4240     4.7180     1.3390 H     1 <1>   0.1500 
 33 H        4.4520     0.5160     1.8980 H     1 <1>   0.0800 
 34 H        2.8590     1.1100     2.3160 H     1 <1>   0.0800 
 35 H        3.2910     3.1040     1.3440 H     1 <1>   0.0800 
 36 H        4.9110     2.5800     0.9370 H     1 <1>   0.0800 
 37 H       -5.7420     1.8250    -0.2110 H     1 <1>   0.3700 
 38 H       -5.4140     3.0280     1.8970 H     1 <1>   0.0800 
 39 H       -5.6100     3.9930     0.4470 H     1 <1>   0.0800 
 40 H       -4.7070     4.6160     1.8010 H     1 <1>   0.0800 
 41 H       -6.6970    -2.6590    -0.5690 H     1 <1>   0.1500 
 42 H       -9.6170     0.4470    -0.7720 H     1 <1>   0.1500 
 43 H       -9.3080    -2.2530    -0.8610 H     1 <1>   0.1500 
@<TRIPOS>BOND
  1   1   2  2   
  2   2   3  am  
  3   2   4  1   
  4   3   5  1   
  5   3  24  1   
  6   4   6  ar  
  7   4   7  ar  
  8   5   8  1   
  9   5   9  1   
 10   5  25  1   
 11   6  10  ar  
 12   6  26  1   
 13   7  11  ar  
 14   7  27  1   
 15   8  12  1   
 16   8  28  1   
 17   8  29  1   
 18   9  13  1   
 19   9  30  1   
 20   9  31  1   
 21  10  14  1   
 22  10  15  ar  
 23  11  15  ar  
 24  11  32  1   
 25  12  13  1   
 26  12  33  1   
 27  12  34  1   
 28  13  35  1   
 29  13  36  1   
 30  14  16  am  
 31  14  37  1   
 32  15  17  1   
 33  16  18  2   
 34  16  19  1   
 35  17  38  1   
 36  17  39  1   
 37  17  40  1   
 38  19  20  1   
 39  19  21  2   
 40  20  22  1   
 41  21  23  1   
 42  21  41  1   
 43  22  23  2   
 44  22  42  1   
 45  23  43  1   
@<TRIPOS>SUBSTRUCTURE
  1 ****   6 GROUP 4 **** **** 0

# MOE 2024.06 (io_trps.svl 2023.06)
