@<TRIPOS>MOLECULE
NONAME
27 28 1 0 0 
SMALL
USER_CHARGES


@<TRIPOS>ATOM
  1 S        0.1160     0.2640     0.0220 S.3   1 <1>  -0.2860 
  2 C       -1.5790    -0.2390    -0.3240 C.2   1 <1>   0.2420 
  3 C        1.0440    -1.3310     0.0560 C.3   1 <1>   0.0700 
  4 N       -1.9310    -1.4520    -0.4950 N.2   1 <1>  -0.3380 
  5 N       -2.6050     0.6020    -0.4200 N.pl3 1 <1>   0.5930 
  6 C        2.5110    -1.0160     0.3410 C.3   1 <1>  -0.2400 
  7 N       -3.2420    -1.3890    -0.7040 N.2   1 <1>   0.0000 
  8 N       -3.6600    -0.1730    -0.6590 N.2   1 <1>  -0.4180 
  9 C       -2.6660     2.0190    -0.2880 C.ar  1 <1>  -0.0230 
 10 C       -3.6170     2.6070     0.5420 C.ar  1 <1>  -0.1500 
 11 C       -1.7890     2.8480    -0.9830 C.ar  1 <1>  -0.1500 
 12 C       -3.6830     3.9810     0.6790 C.ar  1 <1>  -0.1500 
 13 C       -1.8570     4.2220    -0.8440 C.ar  1 <1>  -0.1500 
 14 C       -2.8030     4.7970    -0.0130 C.ar  1 <1>  -0.1430 
 15 C       -2.8740     6.3060     0.1400 C.3   1 <1>  -0.0970 
 16 H        0.9150    -1.7990    -0.9050 H     1 <1>   0.0800 
 17 H        0.6070    -1.9410     0.8270 H     1 <1>   0.0800 
 18 H        2.9110    -0.3800    -0.4280 H     1 <1>   0.0800 
 19 H        3.0810    -1.9270     0.3690 H     1 <1>   0.0800 
 20 H        2.6050    -0.5210     1.2920 H     1 <1>   0.0800 
 21 H       -4.3120     1.9870     1.0830 H     1 <1>   0.1500 
 22 H       -1.0470     2.4250    -1.6390 H     1 <1>   0.1500 
 23 H       -4.4240     4.4150     1.3280 H     1 <1>   0.1500 
 24 H       -1.1670     4.8460    -1.3860 H     1 <1>   0.1500 
 25 H       -3.8810     6.6150     0.3560 H     1 <1>   0.0800 
 26 H       -2.5580     6.7910    -0.7650 H     1 <1>   0.0800 
 27 H       -2.2340     6.6200     0.9450 H     1 <1>   0.0800 
@<TRIPOS>BOND
  1   1   2  1   
  2   1   3  1   
  3   2   4  2   
  4   2   5  1   
  5   3   6  1   
  6   3  16  1   
  7   3  17  1   
  8   4   7  1   
  9   5   8  1   
 10   5   9  1   
 11   6  18  1   
 12   6  19  1   
 13   6  20  1   
 14   7   8  2   
 15   9  10  ar  
 16   9  11  ar  
 17  10  12  ar  
 18  10  21  1   
 19  11  13  ar  
 20  11  22  1   
 21  12  14  ar  
 22  12  23  1   
 23  13  14  ar  
 24  13  24  1   
 25  14  15  1   
 26  15  25  1   
 27  15  26  1   
 28  15  27  1   
@<TRIPOS>SUBSTRUCTURE
  1 ****   9 GROUP 4 **** **** 0

# MOE 2024.06 (io_trps.svl 2023.06)
