@<TRIPOS>MOLECULE
NONAME
43 46 1 0 0 
SMALL
USER_CHARGES


@<TRIPOS>ATOM
  1 BR      -1.4310     2.3200     1.2370 Br    1 <1>  -0.0580 
  2 C       -3.0410     1.3300     1.5760 C.2   1 <1>   0.0980 
  3 S       -3.4980     0.1690     0.3520 S.3   1 <1>  -0.0800 
  4 C       -3.8980     1.3710     2.6090 C.2   1 <1>  -0.1500 
  5 C       -4.9230    -0.2700     1.2990 C.2   1 <1>  -0.1400 
  6 C       -4.9790     0.4450     2.4430 C.2   1 <1>  -0.1500 
  7 C       -5.8330    -1.3470     0.7340 C.3   1 <1>   0.2900 
  8 N       -6.9980    -0.7550     0.0420 N.3   1 <1>  -0.8100 
  9 C       -6.6060     0.1170    -1.0970 C.3   1 <1>   0.1100 
 10 C       -7.9460    -1.8030    -0.4030 C.3   1 <1>   0.1100 
 11 C       -7.8240     0.6800    -1.8690 C.3   1 <1>   0.3430 
 12 C       -9.2060    -1.2110    -1.0820 C.3   1 <1>   0.3430 
 13 N       -9.1070     0.2820    -1.2090 N.4   1 <1>  -0.9590 
 14 C      -10.3140     0.9270    -1.7860 C.3   1 <1>   0.4860 
 15 C      -11.5250     0.5360    -0.9600 C.ar  1 <1>  -0.1440 
 16 C      -11.6760     1.0350     0.3320 C.ar  1 <1>  -0.1500 
 17 C      -12.4830    -0.3300    -1.4910 C.ar  1 <1>  -0.1500 
 18 C      -12.7810     0.6390     1.0570 C.ar  1 <1>   0.0820 
 19 C      -13.5890    -0.7140    -0.7430 C.ar  1 <1>  -0.1500 
 20 O      -13.1190     0.9850     2.3020 O.3   1 <1>  -0.3620 
 21 C      -13.7100    -0.2120     0.5360 C.ar  1 <1>   0.0820 
 22 C      -14.3530     0.3260     2.5890 C.3   1 <1>   0.4000 
 23 O      -14.6770    -0.4400     1.4300 O.3   1 <1>  -0.3620 
 24 H       -3.8160     2.0070     3.4730 H     1 <1>   0.1500 
 25 H       -5.7480     0.3600     3.1920 H     1 <1>   0.1500 
 26 H       -6.1840    -1.9510     1.5540 H     1 <1>   0.0800 
 27 H       -5.2760    -1.9820     0.0650 H     1 <1>   0.0800 
 28 H       -5.9730    -0.4260    -1.7780 H     1 <1>   0.0800 
 29 H       -6.0370     0.9530    -0.7260 H     1 <1>   0.0800 
 30 H       -8.2580    -2.3890     0.4450 H     1 <1>   0.0800 
 31 H       -7.4560    -2.4700    -1.0930 H     1 <1>   0.0800 
 32 H       -7.8000     0.3110    -2.8810 H     1 <1>   0.0800 
 33 H       -7.7430     1.7540    -1.9070 H     1 <1>   0.0800 
 34 H      -10.0700    -1.4690    -0.4890 H     1 <1>   0.0800 
 35 H       -9.3320    -1.6600    -2.0530 H     1 <1>   0.0800 
 36 H       -9.0000     0.5920    -0.2310 H     1 <1>   0.4500 
 37 H      -10.4510     0.6110    -2.8070 H     1 <1>   0.0800 
 38 H      -10.2040     2.0000    -1.7710 H     1 <1>   0.0800 
 39 H      -10.9730     1.7140     0.7820 H     1 <1>   0.1500 
 40 H      -12.3840    -0.7150    -2.4920 H     1 <1>   0.1500 
 41 H      -14.3390    -1.3790    -1.1330 H     1 <1>   0.1500 
 42 H      -15.1210     1.0580     2.7650 H     1 <1>   0.0800 
 43 H      -14.2260    -0.3290     3.4330 H     1 <1>   0.0800 
@<TRIPOS>BOND
  1   1   2  1   
  2   2   3  1   
  3   2   4  2   
  4   3   5  1   
  5   4   6  1   
  6   4  24  1   
  7   5   6  2   
  8   5   7  1   
  9   6  25  1   
 10   7   8  1   
 11   7  26  1   
 12   7  27  1   
 13   8   9  1   
 14   8  10  1   
 15   9  11  1   
 16   9  28  1   
 17   9  29  1   
 18  10  12  1   
 19  10  30  1   
 20  10  31  1   
 21  11  13  1   
 22  11  32  1   
 23  11  33  1   
 24  12  13  1   
 25  12  34  1   
 26  12  35  1   
 27  13  14  1   
 28  13  36  1   
 29  14  15  1   
 30  14  37  1   
 31  14  38  1   
 32  15  16  ar  
 33  15  17  ar  
 34  16  18  ar  
 35  16  39  1   
 36  17  19  ar  
 37  17  40  1   
 38  18  20  1   
 39  18  21  ar  
 40  19  21  ar  
 41  19  41  1   
 42  20  22  1   
 43  21  23  1   
 44  22  23  1   
 45  22  42  1   
 46  22  43  1   
@<TRIPOS>SUBSTRUCTURE
  1 ****  13 GROUP 4 **** **** 0

# MOE 2024.06 (io_trps.svl 2023.06)
