@<TRIPOS>MOLECULE
NONAME
48 50 1 0 0 
SMALL
USER_CHARGES


@<TRIPOS>ATOM
  1 S        0.2450    -0.0040     1.0490 S.o2  1 <1>   1.4470 
  2 O       -0.2910    -1.3390     1.2020 O.2   1 <1>  -0.6500 
  3 O        0.8290     0.6640     2.1930 O.2   1 <1>  -0.6500 
  4 N        1.4520    -0.0990    -0.1350 N.am  1 <1>  -0.8490 
  5 C       -1.0000     1.0590     0.2680 C.ar  1 <1>  -0.0090 
  6 C        2.2420     1.1090    -0.3010 C.3   1 <1>   0.1960 
  7 C        2.4130    -1.1560     0.1250 C.3   1 <1>   0.1960 
  8 C       -1.4820     2.1960     0.8980 C.ar  1 <1>  -0.1500 
  9 C       -1.5010     0.7580    -0.9930 C.ar  1 <1>  -0.1500 
 10 C        3.4530     0.6540    -1.1050 C.3   1 <1>  -0.1600 
 11 C        3.5950    -0.8350    -0.7840 C.3   1 <1>  -0.1600 
 12 C       -2.4290     3.0410     0.3200 C.ar  1 <1>   0.0860 
 13 C       -2.4530     1.5610    -1.5880 C.ar  1 <1>  -0.1500 
 14 C       -2.9340     2.6870    -0.9420 C.ar  1 <1>   0.0830 
 15 C       -2.8060     4.2390     1.0350 C.2   1 <1>   0.5440 
 16 O       -3.8840     3.3830    -1.6060 O.3   1 <1>  -0.3630 
 17 O       -3.4500     4.1330     2.0630 O.2   1 <1>  -0.5700 
 18 N       -2.4420     5.4950     0.5940 N.am  1 <1>  -0.6600 
 19 C       -5.0240     3.8850    -0.9360 C.3   1 <1>   0.0400 
 20 C       -1.6270     5.6980    -0.6430 C.3   1 <1>   0.1400 
 21 C       -2.8750     6.7180     1.3360 C.3   1 <1>   0.1400 
 22 C       -0.8320     7.0050    -0.5590 C.3   1 <1>  -0.1600 
 23 C       -3.0430     7.8990     0.3740 C.3   1 <1>  -0.1600 
 24 C       -1.7430     8.2320    -0.3790 C.3   1 <1>  -0.1600 
 25 H        2.5700     1.4800     0.6570 H     1 <1>   0.0800 
 26 H        1.6830     1.8740    -0.8140 H     1 <1>   0.0800 
 27 H        1.9880    -2.1240    -0.0900 H     1 <1>   0.0800 
 28 H        2.7240    -1.1230     1.1570 H     1 <1>   0.0800 
 29 H       -1.1090     2.4490     1.8780 H     1 <1>   0.1500 
 30 H       -1.1400    -0.1190    -1.5060 H     1 <1>   0.1500 
 31 H        4.3290     1.2150    -0.8340 H     1 <1>   0.0800 
 32 H        3.2580     0.7890    -2.1550 H     1 <1>   0.0800 
 33 H        3.5320    -1.4210    -1.6840 H     1 <1>   0.0800 
 34 H        4.5230    -1.0540    -0.2860 H     1 <1>   0.0800 
 35 H       -2.8380     1.3130    -2.5620 H     1 <1>   0.1500 
 36 H       -5.8330     3.9310    -1.6410 H     1 <1>   0.0800 
 37 H       -4.8110     4.8720    -0.5680 H     1 <1>   0.0800 
 38 H       -5.2820     3.2250    -0.1250 H     1 <1>   0.0800 
 39 H       -2.2850     5.7270    -1.4940 H     1 <1>   0.0800 
 40 H       -0.9420     4.8780    -0.7730 H     1 <1>   0.0800 
 41 H       -2.1350     6.9530     2.0810 H     1 <1>   0.0800 
 42 H       -3.8090     6.5320     1.8380 H     1 <1>   0.0800 
 43 H       -0.2370     7.1240    -1.4460 H     1 <1>   0.0800 
 44 H       -0.1560     6.9320     0.2760 H     1 <1>   0.0800 
 45 H       -3.3750     8.7630     0.9200 H     1 <1>   0.0800 
 46 H       -3.8150     7.6470    -0.3320 H     1 <1>   0.0800 
 47 H       -1.9990     8.6380    -1.3430 H     1 <1>   0.0800 
 48 H       -1.1970     8.9890     0.1580 H     1 <1>   0.0800 
@<TRIPOS>BOND
  1   1   2  2   
  2   1   3  2   
  3   1   4  am  
  4   1   5  1   
  5   4   6  1   
  6   4   7  1   
  7   5   8  ar  
  8   5   9  ar  
  9   6  10  1   
 10   6  25  1   
 11   6  26  1   
 12   7  11  1   
 13   7  27  1   
 14   7  28  1   
 15   8  12  ar  
 16   8  29  1   
 17   9  13  ar  
 18   9  30  1   
 19  10  11  1   
 20  10  31  1   
 21  10  32  1   
 22  11  33  1   
 23  11  34  1   
 24  12  14  ar  
 25  12  15  1   
 26  13  14  ar  
 27  13  35  1   
 28  14  16  1   
 29  15  17  2   
 30  15  18  am  
 31  16  19  1   
 32  18  20  1   
 33  18  21  1   
 34  19  36  1   
 35  19  37  1   
 36  19  38  1   
 37  20  22  1   
 38  20  39  1   
 39  20  40  1   
 40  21  23  1   
 41  21  41  1   
 42  21  42  1   
 43  22  24  1   
 44  22  43  1   
 45  22  44  1   
 46  23  24  1   
 47  23  45  1   
 48  23  46  1   
 49  24  47  1   
 50  24  48  1   
@<TRIPOS>SUBSTRUCTURE
  1 ****   8 GROUP 4 **** **** 0

# MOE 2024.06 (io_trps.svl 2023.06)
