@<TRIPOS>MOLECULE
NONAME
29 30 1 0 0 
SMALL
USER_CHARGES


@<TRIPOS>ATOM
  1 BR      -0.0710     0.3070     0.3540 Br    1 <1>  -0.1110 
  2 C        1.4770    -0.8360     0.2960 C.ar  1 <1>   0.1110 
  3 C        2.6750    -0.3050    -0.1550 C.ar  1 <1>  -0.1500 
  4 C        1.3450    -2.1530     0.7090 C.ar  1 <1>  -0.1500 
  5 C        3.7750    -1.1470    -0.1920 C.ar  1 <1>  -0.1440 
  6 C        2.4550    -2.9820     0.6740 C.ar  1 <1>  -0.1500 
  7 C        3.6610    -2.4630     0.2230 C.ar  1 <1>   0.1170 
  8 C        5.2150    -0.8630    -0.6360 C.3   1 <1>   0.4850 
  9 N        4.8830    -3.0940     0.1130 N.am  1 <1>  -0.5470 
 10 P        6.0460     0.4010     0.3650 P.3   1 <1>   1.2420 
 11 O        5.1280    -0.6070    -2.0290 O.3   1 <1>  -0.6800 
 12 C        5.8270    -2.2480    -0.3680 C.2   1 <1>   0.5690 
 13 O        5.2010     1.5640     0.6500 O.2   1 <1>  -0.7000 
 14 O        6.5590    -0.2970     1.7230 O.3   1 <1>  -0.5510 
 15 O        7.4140     0.8650    -0.3570 O.3   1 <1>  -0.5510 
 16 O        6.9740    -2.5840    -0.5520 O.2   1 <1>  -0.5700 
 17 C        7.1740     0.4710     2.7020 C.3   1 <1>   0.0400 
 18 C        8.4340    -0.0010    -0.7290 C.3   1 <1>   0.0400 
 19 H        2.7320     0.7270    -0.4550 H     1 <1>   0.1500 
 20 H        0.3920    -2.5160     1.0510 H     1 <1>   0.1500 
 21 H        2.3890    -4.0080     0.9900 H     1 <1>   0.1500 
 22 H        5.0860    -4.0710     0.3270 H     1 <1>   0.3700 
 23 H        4.5930     0.1960    -2.1770 H     1 <1>   0.4000 
 24 H        7.4390    -0.1730     3.5230 H     1 <1>   0.0800 
 25 H        6.4850     1.2290     3.0370 H     1 <1>   0.0800 
 26 H        8.0580     0.9280     2.2910 H     1 <1>   0.0800 
 27 H        8.6990    -0.6260     0.1070 H     1 <1>   0.0800 
 28 H        9.2830     0.5880    -1.0270 H     1 <1>   0.0800 
 29 H        8.1050    -0.5990    -1.5610 H     1 <1>   0.0800 
@<TRIPOS>BOND
  1   1   2  1   
  2   2   3  ar  
  3   2   4  ar  
  4   3   5  ar  
  5   3  19  1   
  6   4   6  ar  
  7   4  20  1   
  8   5   7  ar  
  9   5   8  1   
 10   6   7  ar  
 11   6  21  1   
 12   7   9  1   
 13   8  10  1   
 14   8  11  1   
 15   8  12  1   
 16   9  12  am  
 17   9  22  1   
 18  10  13  2   
 19  10  14  1   
 20  10  15  1   
 21  11  23  1   
 22  12  16  2   
 23  14  17  1   
 24  15  18  1   
 25  17  24  1   
 26  17  25  1   
 27  17  26  1   
 28  18  27  1   
 29  18  28  1   
 30  18  29  1   
@<TRIPOS>SUBSTRUCTURE
  1 ****   8 GROUP 4 **** **** 0

# MOE 2024.06 (io_trps.svl 2023.06)
