@<TRIPOS>MOLECULE
NONAME
41 42 1 0 0 
SMALL
USER_CHARGES


@<TRIPOS>ATOM
  1 CL      -0.7110     2.3400     0.2610 Cl    1 <1>  -0.1770 
  2 C        0.9900     2.3770    -0.1580 C.ar  1 <1>   0.1770 
  3 C        1.7820     3.4760     0.1720 C.ar  1 <1>   0.0820 
  4 C        1.5210     1.2860    -0.8170 C.ar  1 <1>  -0.1500 
  5 O        1.2440     4.5460     0.8060 O.3   1 <1>  -0.3630 
  6 C        3.1400     3.4630    -0.1420 C.ar  1 <1>  -0.1440 
  7 C        2.8640     1.2820    -1.1480 C.ar  1 <1>  -0.1500 
  8 C        0.4160     5.3970     0.0430 C.3   1 <1>   0.1200 
  9 C        3.6630     2.3630    -0.8100 C.ar  1 <1>  -0.1500 
 10 C        4.0650     4.6240     0.2180 C.3   1 <1>   0.1220 
 11 C       -0.6760     5.9460     0.9640 C.3   1 <1>   0.1100 
 12 C        5.3240     4.1300     0.9140 C.2   1 <1>  -0.2880 
 13 N       -1.6140     6.8270     0.2340 N.3   1 <1>  -0.8100 
 14 C        6.5740     4.3190     0.4800 C.2   1 <1>  -0.3000 
 15 C       -1.0530     8.1740    -0.0040 C.3   1 <1>   0.1100 
 16 C       -2.9160     6.8920     0.9270 C.3   1 <1>   0.1100 
 17 C       -2.0370     9.0540    -0.8020 C.3   1 <1>   0.3430 
 18 C       -3.9260     7.7520     0.1410 C.3   1 <1>   0.3430 
 19 N       -3.3820     9.1230    -0.1380 N.4   1 <1>  -0.9060 
 20 H        0.8900     0.4510    -1.0650 H     1 <1>   0.1500 
 21 H        3.2910     0.4390    -1.6640 H     1 <1>   0.1500 
 22 H       -0.0280     4.8380    -0.7620 H     1 <1>   0.0800 
 23 H        1.0340     6.1810    -0.3530 H     1 <1>   0.0800 
 24 H        4.7090     2.3420    -1.0670 H     1 <1>   0.1500 
 25 H        3.5740     5.3210     0.8730 H     1 <1>   0.0800 
 26 H        4.3270     5.1520    -0.6820 H     1 <1>   0.0800 
 27 H       -0.2280     6.4770     1.7880 H     1 <1>   0.0800 
 28 H       -1.2130     5.0990     1.3580 H     1 <1>   0.0800 
 29 H        5.1000     3.5930     1.8210 H     1 <1>   0.1500 
 30 H        7.4470     3.9550     0.9950 H     1 <1>   0.1500 
 31 H        6.8330     4.8490    -0.4200 H     1 <1>   0.1500 
 32 H       -0.1400     8.0890    -0.5670 H     1 <1>   0.0800 
 33 H       -0.8180     8.6470     0.9350 H     1 <1>   0.0800 
 34 H       -2.7880     7.2900     1.9190 H     1 <1>   0.0800 
 35 H       -3.3170     5.8960     1.0200 H     1 <1>   0.0800 
 36 H       -2.1420     8.6310    -1.7880 H     1 <1>   0.0800 
 37 H       -1.6260    10.0450    -0.9080 H     1 <1>   0.0800 
 38 H       -4.8450     7.8250     0.7000 H     1 <1>   0.0800 
 39 H       -4.1420     7.2510    -0.7890 H     1 <1>   0.0800 
 40 H       -4.0390     9.6470    -0.7290 H     1 <1>   0.4500 
 41 H       -3.2890     9.6290     0.7500 H     1 <1>   0.4500 
@<TRIPOS>BOND
  1   1   2  1   
  2   2   3  ar  
  3   2   4  ar  
  4   3   5  1   
  5   3   6  ar  
  6   4   7  ar  
  7   4  20  1   
  8   5   8  1   
  9   6   9  ar  
 10   6  10  1   
 11   7   9  ar  
 12   7  21  1   
 13   8  11  1   
 14   8  22  1   
 15   8  23  1   
 16   9  24  1   
 17  10  12  1   
 18  10  25  1   
 19  10  26  1   
 20  11  13  1   
 21  11  27  1   
 22  11  28  1   
 23  12  14  2   
 24  12  29  1   
 25  13  15  1   
 26  13  16  1   
 27  14  30  1   
 28  14  31  1   
 29  15  17  1   
 30  15  32  1   
 31  15  33  1   
 32  16  18  1   
 33  16  34  1   
 34  16  35  1   
 35  17  19  1   
 36  17  36  1   
 37  17  37  1   
 38  18  19  1   
 39  18  38  1   
 40  18  39  1   
 41  19  40  1   
 42  19  41  1   
@<TRIPOS>SUBSTRUCTURE
  1 ****   8 GROUP 4 **** **** 0

# MOE 2024.06 (io_trps.svl 2023.06)
