@<TRIPOS>MOLECULE
NONAME
46 48 1 0 0 
SMALL
USER_CHARGES


@<TRIPOS>ATOM
  1 O       -0.5260    -1.6400    -2.1880 O.2   1 <1>  -0.5700 
  2 C       -0.9360    -1.5750    -1.0510 C.2   1 <1>   0.5690 
  3 N       -0.1200    -1.5830     0.0520 N.am  1 <1>  -0.5470 
  4 C       -2.4490    -1.4170    -0.8020 C.3   1 <1>   0.3950 
  5 C        1.2700    -1.6980     0.1980 C.ar  1 <1>   0.1170 
  6 N       -2.7640    -0.4640     0.3200 N.3   1 <1>  -0.8100 
  7 C       -3.0640    -2.7970    -0.5420 C.ar  1 <1>  -0.1430 
  8 C        2.0940    -2.2320    -0.7880 C.ar  1 <1>  -0.1500 
  9 C        1.8530    -1.2700     1.3850 C.ar  1 <1>  -0.1500 
 10 C       -4.2250    -0.3850     0.5730 C.3   1 <1>   0.1100 
 11 C       -2.2720     0.9000     0.0050 C.3   1 <1>   0.1100 
 12 C       -3.7970    -3.4230    -1.5410 C.ar  1 <1>  -0.1500 
 13 C       -2.9000    -3.4440     0.6760 C.ar  1 <1>  -0.1500 
 14 C        3.4620    -2.3290    -0.6000 C.ar  1 <1>  -0.1500 
 15 C        3.2190    -1.3650     1.5790 C.ar  1 <1>  -0.1500 
 16 C       -4.5520     0.6570     1.6560 C.3   1 <1>   0.1200 
 17 C       -2.6510     1.9020     1.1100 C.3   1 <1>   0.1200 
 18 C       -4.3580    -4.6700    -1.3260 C.ar  1 <1>  -0.1500 
 19 C       -3.4600    -4.6910     0.8930 C.ar  1 <1>  -0.1500 
 20 C        4.0340    -1.8920     0.5920 C.ar  1 <1>   0.0830 
 21 O       -4.0340     1.9080     1.3060 O.3   1 <1>  -0.5600 
 22 C       -4.1910    -5.3050    -0.1080 C.ar  1 <1>  -0.1500 
 23 O        5.3650    -1.9480     0.8610 O.3   1 <1>  -0.3620 
 24 C        6.2760    -2.4460    -0.0930 C.3   1 <1>   0.0400 
 25 H       -0.6430    -1.3880     0.9090 H     1 <1>   0.3700 
 26 H       -2.8760    -1.0220    -1.7080 H     1 <1>   0.0800 
 27 H        1.6680    -2.5800    -1.7110 H     1 <1>   0.1500 
 28 H        1.2380    -0.8570     2.1630 H     1 <1>   0.1500 
 29 H       -4.5980    -1.3390     0.9030 H     1 <1>   0.0800 
 30 H       -4.7450    -0.1210    -0.3330 H     1 <1>   0.0800 
 31 H       -2.6910     1.2410    -0.9270 H     1 <1>   0.0800 
 32 H       -1.2000     0.8970    -0.0950 H     1 <1>   0.0800 
 33 H       -3.9320    -2.9470    -2.4970 H     1 <1>   0.1500 
 34 H       -2.3370    -2.9760     1.4640 H     1 <1>   0.1500 
 35 H        4.0590    -2.7460    -1.3880 H     1 <1>   0.1500 
 36 H        3.6650    -1.0310     2.4990 H     1 <1>   0.1500 
 37 H       -4.1330     0.3630     2.6030 H     1 <1>   0.0800 
 38 H       -5.6160     0.7610     1.7650 H     1 <1>   0.0800 
 39 H       -2.3560     2.8970     0.8290 H     1 <1>   0.0800 
 40 H       -2.1710     1.6450     2.0380 H     1 <1>   0.0800 
 41 H       -4.9240    -5.1480    -2.1070 H     1 <1>   0.1500 
 42 H       -3.3260    -5.1840     1.8400 H     1 <1>   0.1500 
 43 H       -4.6260    -6.2740     0.0590 H     1 <1>   0.1500 
 44 H        7.2640    -2.3870     0.3270 H     1 <1>   0.0800 
 45 H        6.2190    -1.8410    -0.9800 H     1 <1>   0.0800 
 46 H        6.0310    -3.4710    -0.3070 H     1 <1>   0.0800 
@<TRIPOS>BOND
  1   1   2  2   
  2   2   3  am  
  3   2   4  1   
  4   3   5  1   
  5   3  25  1   
  6   4   6  1   
  7   4   7  1   
  8   4  26  1   
  9   5   8  ar  
 10   5   9  ar  
 11   6  10  1   
 12   6  11  1   
 13   7  12  ar  
 14   7  13  ar  
 15   8  14  ar  
 16   8  27  1   
 17   9  15  ar  
 18   9  28  1   
 19  10  16  1   
 20  10  29  1   
 21  10  30  1   
 22  11  17  1   
 23  11  31  1   
 24  11  32  1   
 25  12  18  ar  
 26  12  33  1   
 27  13  19  ar  
 28  13  34  1   
 29  14  20  ar  
 30  14  35  1   
 31  15  20  ar  
 32  15  36  1   
 33  16  21  1   
 34  16  37  1   
 35  16  38  1   
 36  17  21  1   
 37  17  39  1   
 38  17  40  1   
 39  18  22  ar  
 40  18  41  1   
 41  19  22  ar  
 42  19  42  1   
 43  20  23  1   
 44  22  43  1   
 45  23  24  1   
 46  24  44  1   
 47  24  45  1   
 48  24  46  1   
@<TRIPOS>SUBSTRUCTURE
  1 ****   3 GROUP 4 **** **** 0

# MOE 2024.06 (io_trps.svl 2023.06)
