@<TRIPOS>MOLECULE
NONAME
40 41 1 0 0 
SMALL
USER_CHARGES


@<TRIPOS>ATOM
  1 BR      -0.5930    -0.4500     0.6420 Br    1 <1>  -0.0570 
  2 C       -1.5440     1.2310     0.4470 C.2   1 <1>   0.0570 
  3 C       -1.0020     2.3990    -0.0640 C.2   1 <1>   0.1080 
  4 C       -2.8270     1.4800     0.7670 C.2   1 <1>  -0.3320 
  5 N       -1.8900     3.3450    -0.0720 N.2   1 <1>  -0.7070 
  6 C        0.4140     2.5910    -0.5570 C.3   1 <1>  -0.0590 
  7 N       -3.0160     2.7860     0.4450 N.pl3 1 <1>   0.3140 
  8 C       -3.8740     0.5480     1.3560 C.3   1 <1>  -0.0600 
  9 C       -4.2640     3.5670     0.5740 C.3   1 <1>   0.0960 
 10 C       -4.8130     3.9370    -0.8100 C.3   1 <1>   0.2000 
 11 O       -3.9010     4.7560    -1.4580 O.3   1 <1>  -0.6800 
 12 C       -6.1440     4.6850    -0.7290 C.3   1 <1>   0.1200 
 13 O       -7.0720     3.8990    -0.0060 O.3   1 <1>  -0.3630 
 14 C       -8.3250     4.3550     0.2430 C.ar  1 <1>   0.0820 
 15 C       -8.7900     5.5990    -0.1710 C.ar  1 <1>  -0.1500 
 16 C       -9.1670     3.5140     0.9540 C.ar  1 <1>  -0.1500 
 17 C      -10.0820     5.9970     0.1260 C.ar  1 <1>   0.0820 
 18 C      -10.4600     3.9070     1.2530 C.ar  1 <1>  -0.1500 
 19 O      -10.4540     7.2260    -0.3130 O.3   1 <1>  -0.3620 
 20 C      -10.9200     5.1450     0.8420 C.ar  1 <1>  -0.1500 
 21 C      -11.7490     7.7300    -0.0730 C.3   1 <1>   0.0400 
 22 H        0.4850     2.2720    -1.5810 H     1 <1>   0.0800 
 23 H        1.0980     2.0180     0.0420 H     1 <1>   0.0800 
 24 H        0.6830     3.6290    -0.4950 H     1 <1>   0.0800 
 25 H       -3.4620    -0.4350     1.4990 H     1 <1>   0.0800 
 26 H       -4.7180     0.4690     0.6940 H     1 <1>   0.0800 
 27 H       -4.2080     0.9160     2.3100 H     1 <1>   0.0800 
 28 H       -4.0590     4.4570     1.1390 H     1 <1>   0.0800 
 29 H       -4.9860     2.9840     1.1110 H     1 <1>   0.0800 
 30 H       -4.9380     3.0500    -1.4070 H     1 <1>   0.0800 
 31 H       -2.9880     4.4200    -1.2570 H     1 <1>   0.4000 
 32 H       -6.5380     4.8530    -1.7160 H     1 <1>   0.0800 
 33 H       -6.0140     5.6180    -0.2090 H     1 <1>   0.0800 
 34 H       -8.1750     6.2800    -0.7250 H     1 <1>   0.1500 
 35 H       -8.8050     2.5530     1.2710 H     1 <1>   0.1500 
 36 H      -11.1070     3.2470     1.8060 H     1 <1>   0.1500 
 37 H      -11.9270     5.4270     1.0860 H     1 <1>   0.1500 
 38 H      -11.8120     8.7090    -0.5110 H     1 <1>   0.0800 
 39 H      -11.9060     7.7940     0.9890 H     1 <1>   0.0800 
 40 H      -12.4690     7.0760    -0.5320 H     1 <1>   0.0800 
@<TRIPOS>BOND
  1   1   2  1   
  2   2   3  1   
  3   2   4  2   
  4   3   5  2   
  5   3   6  1   
  6   4   7  1   
  7   4   8  1   
  8   5   7  1   
  9   6  22  1   
 10   6  23  1   
 11   6  24  1   
 12   7   9  1   
 13   8  25  1   
 14   8  26  1   
 15   8  27  1   
 16   9  10  1   
 17   9  28  1   
 18   9  29  1   
 19  10  11  1   
 20  10  12  1   
 21  10  30  1   
 22  11  31  1   
 23  12  13  1   
 24  12  32  1   
 25  12  33  1   
 26  13  14  1   
 27  14  15  ar  
 28  14  16  ar  
 29  15  17  ar  
 30  15  34  1   
 31  16  18  ar  
 32  16  35  1   
 33  17  19  1   
 34  17  20  ar  
 35  18  20  ar  
 36  18  36  1   
 37  19  21  1   
 38  20  37  1   
 39  21  38  1   
 40  21  39  1   
 41  21  40  1   
@<TRIPOS>SUBSTRUCTURE
  1 ****  13 GROUP 4 **** **** 0

# MOE 2024.06 (io_trps.svl 2023.06)
