@<TRIPOS>MOLECULE
NONAME
29 31 1 0 0 
SMALL
USER_CHARGES


@<TRIPOS>ATOM
  1 S        0.1550     0.5030    -1.1810 S.3   1 <1>  -0.4600 
  2 C       -1.6320     0.7490    -1.3950 C.3   1 <1>   0.0700 
  3 C        0.4940     1.4490     0.3320 C.3   1 <1>   0.0700 
  4 C       -1.9560     2.2470    -1.3510 C.3   1 <1>   0.1400 
  5 C       -0.0550     2.8690     0.1610 C.3   1 <1>   0.1400 
  6 N       -1.5370     2.8480    -0.0450 N.am  1 <1>  -0.6600 
  7 C       -2.4080     3.2010     0.9780 C.2   1 <1>   0.7150 
  8 O       -1.9390     3.2590     2.1040 O.2   1 <1>  -0.5700 
  9 C       -3.8250     3.4980     0.7790 C.2   1 <1>   0.2930 
 10 S       -4.8600     3.4240     2.2180 S.3   1 <1>  -0.0800 
 11 N       -4.4880     3.8220    -0.2830 N.2   1 <1>  -0.5650 
 12 C       -6.2540     3.8660     1.2680 C.ar  1 <1>   0.0400 
 13 C       -5.8360     4.0320    -0.0360 C.ar  1 <1>   0.2270 
 14 C       -7.5620     4.0350     1.6810 C.ar  1 <1>  -0.1500 
 15 C       -6.7840     4.3900    -0.9860 C.ar  1 <1>  -0.1500 
 16 C       -8.4950     4.3910     0.7210 C.ar  1 <1>  -0.1500 
 17 C       -8.1050     4.5680    -0.6050 C.ar  1 <1>  -0.1500 
 18 H       -2.1320     0.2180    -0.6050 H     1 <1>   0.0800 
 19 H       -1.8980     0.3210    -2.3450 H     1 <1>   0.0800 
 20 H        1.5590     1.4560     0.4710 H     1 <1>   0.0800 
 21 H        0.0180     0.9450     1.1540 H     1 <1>   0.0800 
 22 H       -3.0080     2.3660    -1.5190 H     1 <1>   0.0800 
 23 H       -1.4420     2.7490    -2.1520 H     1 <1>   0.0800 
 24 H        0.4160     3.3360    -0.6860 H     1 <1>   0.0800 
 25 H        0.1950     3.4520     1.0320 H     1 <1>   0.0800 
 26 H       -7.8370     3.8940     2.7120 H     1 <1>   0.1500 
 27 H       -6.4750     4.5260    -2.0060 H     1 <1>   0.1500 
 28 H       -9.5250     4.5340     0.9990 H     1 <1>   0.1500 
 29 H       -8.8410     4.8460    -1.3410 H     1 <1>   0.1500 
@<TRIPOS>BOND
  1   1   2  1   
  2   1   3  1   
  3   2   4  1   
  4   2  18  1   
  5   2  19  1   
  6   3   5  1   
  7   3  20  1   
  8   3  21  1   
  9   4   6  1   
 10   4  22  1   
 11   4  23  1   
 12   5   6  1   
 13   5  24  1   
 14   5  25  1   
 15   6   7  am  
 16   7   8  2   
 17   7   9  1   
 18   9  10  1   
 19   9  11  2   
 20  10  12  1   
 21  11  13  1   
 22  12  13  ar  
 23  12  14  ar  
 24  13  15  ar  
 25  14  16  ar  
 26  14  26  1   
 27  15  17  ar  
 28  15  27  1   
 29  16  17  ar  
 30  16  28  1   
 31  17  29  1   
@<TRIPOS>SUBSTRUCTURE
  1 ****   9 GROUP 4 **** **** 0

# MOE 2024.06 (io_trps.svl 2023.06)
