@<TRIPOS>MOLECULE
NONAME
39 41 1 0 0 
SMALL
USER_CHARGES


@<TRIPOS>ATOM
  1 O        0.0620    -0.4650     1.6070 O.2   1 <1>  -0.5700 
  2 C        0.5150    -1.5150     1.2240 C.2   1 <1>   0.5690 
  3 N       -0.1950    -2.5570     0.6900 N.am  1 <1>  -0.2370 
  4 C        1.9830    -1.8570     1.3280 C.3   1 <1>   0.2370 
  5 C       -1.5580    -2.5080     0.3110 C.ar  1 <1>   0.1170 
  6 C        0.6240    -3.6460     0.5550 C.2   1 <1>   0.5690 
  7 N        2.7640    -1.1400     0.2940 N.pl3 1 <1>   0.3140 
  8 C        2.0080    -3.3730     1.0810 C.3   1 <1>  -0.0990 
  9 C       -2.5230    -1.9960     1.1730 C.ar  1 <1>  -0.1500 
 10 C       -1.9640    -2.9670    -0.9380 C.ar  1 <1>  -0.1500 
 11 O        0.3250    -4.7170     0.0960 O.2   1 <1>  -0.5700 
 12 N        4.0900    -1.3540     0.1870 N.2   1 <1>  -0.7070 
 13 C        2.3460    -0.2580    -0.6420 C.2   1 <1>  -0.3020 
 14 C       -3.8550    -1.9390     0.8010 C.ar  1 <1>  -0.1500 
 15 C       -3.2940    -2.9130    -1.3140 C.ar  1 <1>  -0.1500 
 16 C        4.4770    -0.6120    -0.8010 C.2   1 <1>   0.1080 
 17 C        3.4270     0.1000    -1.3640 C.2   1 <1>  -0.1500 
 18 C       -4.2480    -2.4000    -0.4520 C.ar  1 <1>   0.0830 
 19 C        5.9160    -0.5560    -1.2570 C.3   1 <1>  -0.0590 
 20 O       -5.5290    -2.3800    -0.9010 O.3   1 <1>  -0.3630 
 21 C       -6.5730    -1.8770    -0.1010 C.3   1 <1>   0.1200 
 22 C       -7.8720    -1.9950    -0.8930 C.3   1 <1>  -0.2400 
 23 H        2.3700    -1.6030     2.2960 H     1 <1>   0.0800 
 24 H        2.1420    -3.9070     2.0040 H     1 <1>   0.0800 
 25 H        2.7570    -3.6760     0.3710 H     1 <1>   0.0800 
 26 H       -2.2330    -1.6330     2.1430 H     1 <1>   0.1500 
 27 H       -1.2400    -3.3740    -1.6220 H     1 <1>   0.1500 
 28 H        1.3280     0.0740    -0.7510 H     1 <1>   0.1500 
 29 H       -4.5660    -1.5340     1.4960 H     1 <1>   0.1500 
 30 H       -3.6020    -3.2710    -2.2800 H     1 <1>   0.1500 
 31 H        3.4910     0.7840    -2.1920 H     1 <1>   0.1500 
 32 H        6.2370    -1.5370    -1.5550 H     1 <1>   0.0800 
 33 H        6.5360    -0.2180    -0.4470 H     1 <1>   0.0800 
 34 H        6.0220     0.1180    -2.0870 H     1 <1>   0.0800 
 35 H       -6.3600    -0.8470     0.1280 H     1 <1>   0.0800 
 36 H       -6.6230    -2.4600     0.8020 H     1 <1>   0.0800 
 37 H       -7.8040    -1.4230    -1.8000 H     1 <1>   0.0800 
 38 H       -8.6910    -1.6180    -0.3080 H     1 <1>   0.0800 
 39 H       -8.0650    -3.0260    -1.1320 H     1 <1>   0.0800 
@<TRIPOS>BOND
  1   1   2  2   
  2   2   3  am  
  3   2   4  1   
  4   3   5  1   
  5   3   6  am  
  6   4   7  1   
  7   4   8  1   
  8   4  23  1   
  9   5   9  ar  
 10   5  10  ar  
 11   6   8  1   
 12   6  11  2   
 13   7  12  1   
 14   7  13  1   
 15   8  24  1   
 16   8  25  1   
 17   9  14  ar  
 18   9  26  1   
 19  10  15  ar  
 20  10  27  1   
 21  12  16  2   
 22  13  17  2   
 23  13  28  1   
 24  14  18  ar  
 25  14  29  1   
 26  15  18  ar  
 27  15  30  1   
 28  16  17  1   
 29  16  19  1   
 30  17  31  1   
 31  18  20  1   
 32  19  32  1   
 33  19  33  1   
 34  19  34  1   
 35  20  21  1   
 36  21  22  1   
 37  21  35  1   
 38  21  36  1   
 39  22  37  1   
 40  22  38  1   
 41  22  39  1   
@<TRIPOS>SUBSTRUCTURE
  1 ****   3 GROUP 4 **** **** 0

# MOE 2024.06 (io_trps.svl 2023.06)
