@<TRIPOS>MOLECULE
NONAME
41 43 1 0 0 
SMALL
USER_CHARGES


@<TRIPOS>ATOM
  1 S        0.2670    -0.2640     0.0220 S.3   1 <1>  -0.0800 
  2 C       -0.5340     1.2910    -0.0370 C.2   1 <1>  -0.1400 
  3 C        1.8390     0.4990     0.0030 C.2   1 <1>  -0.1100 
  4 C        0.3730     2.2830    -0.0690 C.2   1 <1>  -0.1500 
  5 C       -2.0480     1.2930    -0.0410 C.3   1 <1>  -0.0600 
  6 C        1.7490     1.8530    -0.0500 C.2   1 <1>  -0.0860 
  7 C        2.8440     2.8020    -0.0840 C.2   1 <1>   0.7160 
  8 O        2.6380     3.9920     0.0420 O.2   1 <1>  -0.5700 
  9 N        4.1200     2.3300    -0.2830 N.am  1 <1>  -0.5470 
 10 C        5.3650     2.9680    -0.2980 C.ar  1 <1>   0.1170 
 11 C        5.6020     4.2090     0.2870 C.ar  1 <1>  -0.1500 
 12 C        6.4350     2.3290    -0.9170 C.ar  1 <1>  -0.1500 
 13 C        6.8560     4.7870     0.2480 C.ar  1 <1>  -0.1500 
 14 C        7.6890     2.9080    -0.9520 C.ar  1 <1>  -0.1500 
 15 C        7.9330     4.1490    -0.3640 C.ar  1 <1>   0.0860 
 16 C        9.2450     4.7610    -0.3950 C.2   1 <1>   0.5440 
 17 O        9.3790     5.8530    -0.9140 O.2   1 <1>  -0.5700 
 18 N       10.3530     4.1470     0.1520 N.am  1 <1>  -0.6600 
 19 C       11.7280     4.7030    -0.0240 C.3   1 <1>   0.1400 
 20 C       10.3070     3.0010     1.1080 C.3   1 <1>   0.1400 
 21 C       12.7390     3.5760    -0.2920 C.3   1 <1>   0.1200 
 22 C       11.3940     1.9680     0.7660 C.3   1 <1>   0.1200 
 23 O       12.6500     2.5800     0.6890 O.3   1 <1>  -0.5600 
 24 H        2.6870    -0.1600     0.0410 H     1 <1>   0.1500 
 25 H        0.1360     3.3340    -0.1050 H     1 <1>   0.1500 
 26 H       -2.4130     0.7580    -0.8980 H     1 <1>   0.0800 
 27 H       -2.4170     2.3020    -0.0770 H     1 <1>   0.0800 
 28 H       -2.4170     0.8200     0.8510 H     1 <1>   0.0800 
 29 H        4.1400     1.3460    -0.5310 H     1 <1>   0.3700 
 30 H        4.8040     4.7370     0.7780 H     1 <1>   0.1500 
 31 H        6.2840     1.3720    -1.3830 H     1 <1>   0.1500 
 32 H        7.0150     5.7540     0.6940 H     1 <1>   0.1500 
 33 H        8.5010     2.4030    -1.4460 H     1 <1>   0.1500 
 34 H       12.0120     5.2340     0.8680 H     1 <1>   0.0800 
 35 H       11.7500     5.3980    -0.8450 H     1 <1>   0.0800 
 36 H        9.3440     2.5250     1.0980 H     1 <1>   0.0800 
 37 H       10.4800     3.3710     2.1040 H     1 <1>   0.0800 
 38 H       13.7410     3.9670    -0.2740 H     1 <1>   0.0800 
 39 H       12.5590     3.1300    -1.2540 H     1 <1>   0.0800 
 40 H       11.1840     1.4930    -0.1760 H     1 <1>   0.0800 
 41 H       11.4440     1.2140     1.5320 H     1 <1>   0.0800 
@<TRIPOS>BOND
  1   1   2  1   
  2   1   3  1   
  3   2   4  2   
  4   2   5  1   
  5   3   6  2   
  6   3  24  1   
  7   4   6  1   
  8   4  25  1   
  9   5  26  1   
 10   5  27  1   
 11   5  28  1   
 12   6   7  1   
 13   7   8  2   
 14   7   9  am  
 15   9  10  1   
 16   9  29  1   
 17  10  11  ar  
 18  10  12  ar  
 19  11  13  ar  
 20  11  30  1   
 21  12  14  ar  
 22  12  31  1   
 23  13  15  ar  
 24  13  32  1   
 25  14  15  ar  
 26  14  33  1   
 27  15  16  1   
 28  16  17  2   
 29  16  18  am  
 30  18  19  1   
 31  18  20  1   
 32  19  21  1   
 33  19  34  1   
 34  19  35  1   
 35  20  22  1   
 36  20  36  1   
 37  20  37  1   
 38  21  23  1   
 39  21  38  1   
 40  21  39  1   
 41  22  23  1   
 42  22  40  1   
 43  22  41  1   
@<TRIPOS>SUBSTRUCTURE
  1 ****  10 GROUP 4 **** **** 0

# MOE 2024.06 (io_trps.svl 2023.06)
