@<TRIPOS>MOLECULE
NONAME
29 29 1 0 0 
SMALL
USER_CHARGES


@<TRIPOS>ATOM
  1 O        0.1200    -0.3750     0.3940 O.2   1 <1>  -0.5700 
  2 C        0.0250    -1.5660     0.4060 C.2   1 <1>   0.4480 
  3 C       -1.3040    -2.2950     0.6050 C.3   1 <1>  -0.0190 
  4 C        1.2400    -2.4530     0.2140 C.3   1 <1>  -0.0990 
  5 C       -1.5070    -3.3400    -0.5130 C.3   1 <1>  -0.1600 
  6 C       -2.4890    -1.3100     0.6890 C.3   1 <1>  -0.0990 
  7 C        1.0000    -3.4880    -0.8940 C.3   1 <1>  -0.1600 
  8 C       -0.2950    -4.2750    -0.6480 C.3   1 <1>  -0.1600 
  9 C       -3.7970    -2.0050     0.9950 C.2   1 <1>   0.6590 
 10 O       -4.0680    -2.3710     2.1080 O.2   1 <1>  -0.5700 
 11 O       -4.6080    -2.1980    -0.0350 O.3   1 <1>  -0.4300 
 12 C       -5.8490    -2.8460     0.1210 C.3   1 <1>   0.1200 
 13 C       -6.5100    -2.9370    -1.2500 C.3   1 <1>  -0.2400 
 14 H       -1.2410    -2.8150     1.5460 H     1 <1>   0.0800 
 15 H        1.4500    -2.9540     1.1420 H     1 <1>   0.0800 
 16 H        2.0890    -1.8420    -0.0350 H     1 <1>   0.0800 
 17 H       -1.6660    -2.8330    -1.4510 H     1 <1>   0.0800 
 18 H       -2.3810    -3.9360    -0.3110 H     1 <1>   0.0800 
 19 H       -2.5830    -0.7650    -0.2320 H     1 <1>   0.0800 
 20 H       -2.3050    -0.5980     1.4730 H     1 <1>   0.0800 
 21 H        1.8340    -4.1670    -0.9440 H     1 <1>   0.0800 
 22 H        0.9320    -2.9800    -1.8420 H     1 <1>   0.0800 
 23 H       -0.4600    -4.9560    -1.4660 H     1 <1>   0.0800 
 24 H       -0.1940    -4.8620     0.2490 H     1 <1>   0.0800 
 25 H       -6.4500    -2.2710     0.8050 H     1 <1>   0.0800 
 26 H       -5.6730    -3.8260     0.5320 H     1 <1>   0.0800 
 27 H       -6.6700    -1.9520    -1.6510 H     1 <1>   0.0800 
 28 H       -7.4620    -3.4290    -1.1610 H     1 <1>   0.0800 
 29 H       -5.8920    -3.5050    -1.9230 H     1 <1>   0.0800 
@<TRIPOS>BOND
  1   1   2  2   
  2   2   3  1   
  3   2   4  1   
  4   3   5  1   
  5   3   6  1   
  6   3  14  1   
  7   4   7  1   
  8   4  15  1   
  9   4  16  1   
 10   5   8  1   
 11   5  17  1   
 12   5  18  1   
 13   6   9  1   
 14   6  19  1   
 15   6  20  1   
 16   7   8  1   
 17   7  21  1   
 18   7  22  1   
 19   8  23  1   
 20   8  24  1   
 21   9  10  2   
 22   9  11  1   
 23  11  12  1   
 24  12  13  1   
 25  12  25  1   
 26  12  26  1   
 27  13  27  1   
 28  13  28  1   
 29  13  29  1   
@<TRIPOS>SUBSTRUCTURE
  1 ****   3 GROUP 4 **** **** 0

# MOE 2024.06 (io_trps.svl 2023.06)
