@<TRIPOS>MOLECULE
NONAME
46 47 1 0 0 
SMALL
USER_CHARGES


@<TRIPOS>ATOM
  1 O       -0.0140     1.9650     3.7990 O.2   1 <1>  -0.5700 
  2 C        0.1910     2.6390     2.8070 C.2   1 <1>   0.5440 
  3 N       -0.8770     3.2580     2.1880 N.am  1 <1>  -0.6600 
  4 C        1.5520     2.7800     2.3210 C.ar  1 <1>   0.0860 
  5 C       -0.7440     4.4230     1.2720 C.3   1 <1>   0.1400 
  6 C       -2.2820     2.8780     2.4990 C.3   1 <1>   0.1400 
  7 C        1.8820     2.5350     0.9900 C.ar  1 <1>  -0.1500 
  8 C        2.5810     3.1630     3.1800 C.ar  1 <1>  -0.1500 
  9 C       -1.4650     4.1250    -0.0430 C.3   1 <1>  -0.1600 
 10 C       -3.0250     2.5690     1.1960 C.3   1 <1>  -0.1600 
 11 C        3.1740     2.6860     0.5200 C.ar  1 <1>   0.0830 
 12 C        3.8790     3.3140     2.7260 C.ar  1 <1>  -0.1500 
 13 C       -2.9410     3.7380     0.1950 C.3   1 <1>  -0.0190 
 14 O        3.3730     2.4340    -0.7960 O.3   1 <1>  -0.3630 
 15 C        4.1810     3.0800     1.3960 C.ar  1 <1>  -0.1500 
 16 C       -3.6850     3.4070    -1.0980 C.2   1 <1>   0.6590 
 17 C        4.6470     2.5540    -1.3850 C.3   1 <1>   0.2580 
 18 O       -3.1210     3.2140    -2.1460 O.2   1 <1>  -0.5700 
 19 O       -5.0060     3.3480    -0.9930 O.3   1 <1>  -0.4300 
 20 C        4.5150     2.2140    -2.8560 C.2   1 <1>  -0.2880 
 21 C       -5.8180     3.0450    -2.1030 C.3   1 <1>   0.1200 
 22 C        4.8450     3.0180    -3.8730 C.2   1 <1>  -0.3000 
 23 C       -7.2710     3.0400    -1.6390 C.3   1 <1>  -0.2400 
 24 H        0.2900     4.6530     1.0800 H     1 <1>   0.0800 
 25 H       -1.1870     5.2840     1.7430 H     1 <1>   0.0800 
 26 H       -2.7590     3.6910     3.0180 H     1 <1>   0.0800 
 27 H       -2.3090     2.0110     3.1380 H     1 <1>   0.0800 
 28 H        1.1150     2.2170     0.3070 H     1 <1>   0.1500 
 29 H        2.3490     3.3390     4.2160 H     1 <1>   0.1500 
 30 H       -0.9540     3.3230    -0.5490 H     1 <1>   0.0800 
 31 H       -1.4170     4.9910    -0.6790 H     1 <1>   0.0800 
 32 H       -4.0540     2.3570     1.4240 H     1 <1>   0.0800 
 33 H       -2.5980     1.6830     0.7570 H     1 <1>   0.0800 
 34 H        4.6550     3.6130     3.4110 H     1 <1>   0.1500 
 35 H       -3.4380     4.5860     0.6290 H     1 <1>   0.0800 
 36 H        5.1950     3.2070     1.0690 H     1 <1>   0.1500 
 37 H        5.3130     1.8650    -0.8960 H     1 <1>   0.0800 
 38 H        4.9910     3.5650    -1.2540 H     1 <1>   0.0800 
 39 H        4.1120     1.2270    -3.0050 H     1 <1>   0.1500 
 40 H       -5.5300     2.0790    -2.4830 H     1 <1>   0.0800 
 41 H       -5.6550     3.7940    -2.8600 H     1 <1>   0.0800 
 42 H        4.7350     2.7460    -4.9090 H     1 <1>   0.1500 
 43 H        5.2450     4.0110    -3.7600 H     1 <1>   0.1500 
 44 H       -7.4140     2.2960    -0.8760 H     1 <1>   0.0800 
 45 H       -7.9150     2.8090    -2.4680 H     1 <1>   0.0800 
 46 H       -7.5410     4.0080    -1.2560 H     1 <1>   0.0800 
@<TRIPOS>BOND
  1   1   2  2   
  2   2   3  am  
  3   2   4  1   
  4   3   5  1   
  5   3   6  1   
  6   4   7  ar  
  7   4   8  ar  
  8   5   9  1   
  9   5  24  1   
 10   5  25  1   
 11   6  10  1   
 12   6  26  1   
 13   6  27  1   
 14   7  11  ar  
 15   7  28  1   
 16   8  12  ar  
 17   8  29  1   
 18   9  13  1   
 19   9  30  1   
 20   9  31  1   
 21  10  13  1   
 22  10  32  1   
 23  10  33  1   
 24  11  14  1   
 25  11  15  ar  
 26  12  15  ar  
 27  12  34  1   
 28  13  16  1   
 29  13  35  1   
 30  14  17  1   
 31  15  36  1   
 32  16  18  2   
 33  16  19  1   
 34  17  20  1   
 35  17  37  1   
 36  17  38  1   
 37  19  21  1   
 38  20  22  2   
 39  20  39  1   
 40  21  23  1   
 41  21  40  1   
 42  21  41  1   
 43  22  42  1   
 44  22  43  1   
 45  23  44  1   
 46  23  45  1   
 47  23  46  1   
@<TRIPOS>SUBSTRUCTURE
  1 ****   5 GROUP 4 **** **** 0

# MOE 2024.06 (io_trps.svl 2023.06)
