@<TRIPOS>MOLECULE
NONAME
32 33 1 0 0 
SMALL
USER_CHARGES


@<TRIPOS>ATOM
  1 BR      -0.1790     0.0540    -1.4480 Br    1 <1>  -0.1110 
  2 C       -1.7460    -0.7810    -0.7090 C.ar  1 <1>   0.1110 
  3 C       -2.2070    -0.3620     0.5230 C.ar  1 <1>  -0.1500 
  4 C       -2.3710    -1.7810    -1.4290 C.ar  1 <1>  -0.1500 
  5 C       -3.3370    -0.9630     1.0490 C.ar  1 <1>  -0.1500 
  6 C       -3.5000    -2.3770    -0.8950 C.ar  1 <1>  -0.1500 
  7 C       -3.9910    -1.9670     0.3410 C.ar  1 <1>  -0.1430 
  8 C       -5.2410    -2.6090     0.9140 C.3   1 <1>   0.4870 
  9 N       -6.4250    -2.0970     0.1680 N.4   1 <1>  -0.9590 
 10 C       -6.6020    -0.6250     0.3670 C.3   1 <1>   0.3430 
 11 C       -7.6530    -2.8760     0.5040 C.3   1 <1>   0.3430 
 12 C       -7.7550    -0.1180    -0.4950 C.3   1 <1>  -0.1600 
 13 C       -8.8200    -2.4020    -0.3580 C.3   1 <1>  -0.1600 
 14 C       -9.0270    -0.9010    -0.1830 C.3   1 <1>   0.2000 
 15 O      -10.0180    -0.4910    -1.0400 O.3   1 <1>  -0.6800 
 16 H       -1.6860     0.4160     1.0550 H     1 <1>   0.1500 
 17 H       -1.9740    -2.0830    -2.3830 H     1 <1>   0.1500 
 18 H       -3.6920    -0.6400     2.0140 H     1 <1>   0.1500 
 19 H       -3.9800    -3.1630    -1.4540 H     1 <1>   0.1500 
 20 H       -5.3280    -2.3770     1.9630 H     1 <1>   0.0800 
 21 H       -5.1670    -3.6790     0.8060 H     1 <1>   0.0800 
 22 H       -6.2130    -2.2360    -0.8280 H     1 <1>   0.4500 
 23 H       -5.6990    -0.1010     0.0930 H     1 <1>   0.0800 
 24 H       -6.8110    -0.4180     1.4040 H     1 <1>   0.0800 
 25 H       -7.9000    -2.7390     1.5450 H     1 <1>   0.0800 
 26 H       -7.4860    -3.9280     0.3310 H     1 <1>   0.0800 
 27 H       -7.4920    -0.2140    -1.5330 H     1 <1>   0.0800 
 28 H       -7.9180     0.9240    -0.2820 H     1 <1>   0.0800 
 29 H       -9.7130    -2.9200    -0.0530 H     1 <1>   0.0800 
 30 H       -8.6250    -2.6430    -1.3880 H     1 <1>   0.0800 
 31 H       -9.3630    -0.6840     0.8190 H     1 <1>   0.0800 
 32 H       -9.7830    -0.6400    -1.9760 H     1 <1>   0.4000 
@<TRIPOS>BOND
  1   1   2  1   
  2   2   3  ar  
  3   2   4  ar  
  4   3   5  ar  
  5   3  16  1   
  6   4   6  ar  
  7   4  17  1   
  8   5   7  ar  
  9   5  18  1   
 10   6   7  ar  
 11   6  19  1   
 12   7   8  1   
 13   8   9  1   
 14   8  20  1   
 15   8  21  1   
 16   9  10  1   
 17   9  11  1   
 18   9  22  1   
 19  10  12  1   
 20  10  23  1   
 21  10  24  1   
 22  11  13  1   
 23  11  25  1   
 24  11  26  1   
 25  12  14  1   
 26  12  27  1   
 27  12  28  1   
 28  13  14  1   
 29  13  29  1   
 30  13  30  1   
 31  14  15  1   
 32  14  31  1   
 33  15  32  1   
@<TRIPOS>SUBSTRUCTURE
  1 ****   9 GROUP 4 **** **** 0

# MOE 2024.06 (io_trps.svl 2023.06)
