@<TRIPOS>MOLECULE
Structure2405
30 31 1 0 0 
SMALL
USER_CHARGES


@<TRIPOS>ATOM
  1 CL       0.2930    -0.2570    -0.3860 Cl    1 <1>  -0.1770 
  2 C        2.0230    -0.1140    -0.1790 C.ar  1 <1>   0.1770 
  3 C        2.8650    -0.5910    -1.1670 C.ar  1 <1>  -0.1500 
  4 C        2.5220     0.4730     0.9690 C.ar  1 <1>  -0.1500 
  5 C        4.2340    -0.4770    -0.9990 C.ar  1 <1>  -0.1500 
  6 C        3.8930     0.5830     1.1270 C.ar  1 <1>  -0.1500 
  7 C        4.7600     0.1110     0.1490 C.ar  1 <1>   0.1000 
  8 N        6.1310     0.2340     0.3370 N.pl3 1 <1>  -0.8380 
  9 C        6.8720    -1.0430     0.5710 C.3   1 <1>   0.2090 
 10 C        6.8450     1.1390    -0.6180 C.3   1 <1>   0.2090 
 11 C        8.3180    -0.7790     1.0300 C.3   1 <1>   0.1400 
 12 C        8.2840     1.4120    -0.1520 C.3   1 <1>   0.1400 
 13 N        9.0240     0.1320     0.0760 N.am  1 <1>  -0.6600 
 14 C        9.9290    -0.3150    -0.8400 C.2   1 <1>   0.6900 
 15 O       10.0600     0.2110    -1.9250 O.2   1 <1>  -0.5700 
 16 N       10.7210    -1.3520    -0.5470 N.am  1 <1>  -0.8000 
 17 H        2.4520    -1.0440    -2.0490 H     1 <1>   0.1500 
 18 H        1.8480     0.8370     1.7230 H     1 <1>   0.1500 
 19 H        4.9020    -0.8420    -1.7560 H     1 <1>   0.1500 
 20 H        4.3090     1.0360     2.0080 H     1 <1>   0.1500 
 21 H        6.8900    -1.6200    -0.3370 H     1 <1>   0.0800 
 22 H        6.3570    -1.6170     1.3220 H     1 <1>   0.0800 
 23 H        6.3100     2.0690    -0.6940 H     1 <1>   0.0800 
 24 H        6.8740     0.6880    -1.5950 H     1 <1>   0.0800 
 25 H        8.8340    -1.7180     1.1140 H     1 <1>   0.0800 
 26 H        8.2980    -0.3210     2.0030 H     1 <1>   0.0800 
 27 H        8.2550     1.9710     0.7660 H     1 <1>   0.0800 
 28 H        8.7910     2.0130    -0.8870 H     1 <1>   0.0800 
 29 H       11.4590    -1.5580    -1.2180 H     1 <1>   0.3700 
 30 H       10.9260    -1.5620     0.4240 H     1 <1>   0.3700 
@<TRIPOS>BOND
  1   1   2  1   
  2   2   3  ar  
  3   2   4  ar  
  4   3   5  ar  
  5   3  17  1   
  6   4   6  ar  
  7   4  18  1   
  8   5   7  ar  
  9   5  19  1   
 10   6   7  ar  
 11   6  20  1   
 12   7   8  1   
 13   8   9  1   
 14   8  10  1   
 15   9  11  1   
 16   9  21  1   
 17   9  22  1   
 18  10  12  1   
 19  10  23  1   
 20  10  24  1   
 21  11  13  1   
 22  11  25  1   
 23  11  26  1   
 24  12  13  1   
 25  12  27  1   
 26  12  28  1   
 27  13  14  am  
 28  14  15  2   
 29  14  16  am  
 30  16  29  1   
 31  16  30  1   
@<TRIPOS>SUBSTRUCTURE
  1 ****   8 GROUP 4 **** **** 0

# MOE 2024.06 (io_trps.svl 2023.06)
