@<TRIPOS>MOLECULE
NONAME
40 42 1 0 0 
SMALL
USER_CHARGES


@<TRIPOS>ATOM
  1 O       -0.8450     0.7410    -0.3720 O.3   1 <1>  -0.3630 
  2 C        0.3600     1.3610    -0.2450 C.ar  1 <1>   0.0830 
  3 C       -1.9880     1.4130    -0.8410 C.3   1 <1>   0.1200 
  4 C        1.4270     0.6230     0.2730 C.ar  1 <1>  -0.1440 
  5 C        0.5510     2.6890    -0.6170 C.ar  1 <1>  -0.1500 
  6 C       -3.1510     0.4230    -0.8150 C.3   1 <1>  -0.1600 
  7 C        2.6790     1.2210     0.3970 C.ar  1 <1>  -0.1440 
  8 C        1.2220    -0.8350     0.6890 C.3   1 <1>  -0.0960 
  9 C        1.7920     3.2780    -0.4800 C.ar  1 <1>  -0.1500 
 10 C       -4.4580     1.1010    -1.2430 C.3   1 <1>   0.0960 
 11 C        2.8500     2.5450     0.0240 C.ar  1 <1>  -0.1500 
 12 C        3.8870     0.4640     0.9330 C.3   1 <1>  -0.0970 
 13 N       -5.5750     0.1400    -1.2390 N.pl3 1 <1>   0.3140 
 14 N       -6.0760    -0.3930    -2.3650 N.2   1 <1>  -0.4180 
 15 C       -6.2500    -0.3250    -0.1640 C.ar  1 <1>  -0.1520 
 16 N       -7.0390    -1.1790    -2.0560 N.2   1 <1>  -0.2270 
 17 C       -7.1820    -1.1690    -0.7090 C.ar  1 <1>   0.2270 
 18 C       -6.1720    -0.1220     1.2190 C.ar  1 <1>  -0.1500 
 19 C       -8.0790    -1.8490     0.1170 C.ar  1 <1>  -0.1500 
 20 C       -7.0580    -0.7940     2.0300 C.ar  1 <1>  -0.1500 
 21 C       -8.0140    -1.6590     1.4790 C.ar  1 <1>  -0.1500 
 22 H       -1.7940     1.7540    -1.8430 H     1 <1>   0.0800 
 23 H       -2.1770     2.2470    -0.1880 H     1 <1>   0.0800 
 24 H       -0.2470     3.2830    -1.0160 H     1 <1>   0.1500 
 25 H       -3.2560     0.0340     0.1830 H     1 <1>   0.0800 
 26 H       -2.9330    -0.3880    -1.4890 H     1 <1>   0.0800 
 27 H        0.1910    -1.0470     0.9040 H     1 <1>   0.0800 
 28 H        1.7810    -1.0630     1.5780 H     1 <1>   0.0800 
 29 H        1.5450    -1.4840    -0.1040 H     1 <1>   0.0800 
 30 H        1.9400     4.3040    -0.7660 H     1 <1>   0.1500 
 31 H       -4.3600     1.4970    -2.2390 H     1 <1>   0.0800 
 32 H       -4.7020     1.9070    -0.5750 H     1 <1>   0.0800 
 33 H        3.8110     3.0170     0.1210 H     1 <1>   0.1500 
 34 H        3.9990    -0.4710     0.4160 H     1 <1>   0.0800 
 35 H        3.7640     0.2750     1.9840 H     1 <1>   0.0800 
 36 H        4.7900     1.0300     0.7950 H     1 <1>   0.0800 
 37 H       -5.4340     0.5430     1.6340 H     1 <1>   0.1500 
 38 H       -8.8010    -2.5060    -0.3330 H     1 <1>   0.1500 
 39 H       -7.0270    -0.6630     3.0980 H     1 <1>   0.1500 
 40 H       -8.6960    -2.1740     2.1340 H     1 <1>   0.1500 
@<TRIPOS>BOND
  1   1   2  1   
  2   1   3  1   
  3   2   4  ar  
  4   2   5  ar  
  5   3   6  1   
  6   3  22  1   
  7   3  23  1   
  8   4   7  ar  
  9   4   8  1   
 10   5   9  ar  
 11   5  24  1   
 12   6  10  1   
 13   6  25  1   
 14   6  26  1   
 15   7  11  ar  
 16   7  12  1   
 17   8  27  1   
 18   8  28  1   
 19   8  29  1   
 20   9  11  ar  
 21   9  30  1   
 22  10  13  1   
 23  10  31  1   
 24  10  32  1   
 25  11  33  1   
 26  12  34  1   
 27  12  35  1   
 28  12  36  1   
 29  13  14  1   
 30  13  15  1   
 31  14  16  2   
 32  15  17  ar  
 33  15  18  ar  
 34  16  17  1   
 35  17  19  ar  
 36  18  20  ar  
 37  18  37  1   
 38  19  21  ar  
 39  19  38  1   
 40  20  21  ar  
 41  20  39  1   
 42  21  40  1   
@<TRIPOS>SUBSTRUCTURE
  1 ****   6 GROUP 4 **** **** 0

# MOE 2024.06 (io_trps.svl 2023.06)
