@<TRIPOS>MOLECULE
NONAME
32 33 1 0 0 
SMALL
USER_CHARGES


@<TRIPOS>ATOM
  1 CL       0.0800    -0.2930    -0.8920 Cl    1 <1>  -0.1770 
  2 C        0.2740     1.3920    -0.4840 C.ar  1 <1>   0.1770 
  3 C        1.5480     1.9140    -0.3680 C.ar  1 <1>  -0.1500 
  4 C       -0.8510     2.1710    -0.2850 C.ar  1 <1>  -0.1500 
  5 C        1.7000     3.2590    -0.0420 C.ar  1 <1>   0.0830 
  6 C       -0.6970     3.5090     0.0390 C.ar  1 <1>  -0.1500 
  7 O        2.9030     3.8680     0.0960 O.3   1 <1>  -0.3630 
  8 C        0.5750     4.0450     0.1590 C.ar  1 <1>  -0.1500 
  9 C        4.1080     3.1610    -0.0860 C.3   1 <1>   0.1200 
 10 C        5.2650     4.1340     0.1430 C.3   1 <1>  -0.1600 
 11 C        6.6210     3.4370    -0.0330 C.3   1 <1>  -0.1600 
 12 C        7.7810     4.4140     0.1990 C.3   1 <1>   0.0960 
 13 N        9.0720     3.7220     0.0300 N.pl3 1 <1>   0.0480 
 14 C        9.8210     3.1200     0.9810 C.2   1 <1>   0.0360 
 15 C        9.7620     3.5410    -1.1100 C.2   1 <1>  -0.3020 
 16 N       10.9090     2.5830     0.5340 N.2   1 <1>  -0.5650 
 17 C       10.8750     2.8480    -0.7850 C.2   1 <1>   0.0770 
 18 H        2.3850     1.2650    -0.5320 H     1 <1>   0.1500 
 19 H       -1.8290     1.7350    -0.3830 H     1 <1>   0.1500 
 20 H       -1.5620     4.1310     0.1970 H     1 <1>   0.1500 
 21 H        0.7020     5.0830     0.4100 H     1 <1>   0.1500 
 22 H        4.1260     2.7750    -1.0910 H     1 <1>   0.0800 
 23 H        4.1390     2.3550     0.6270 H     1 <1>   0.0800 
 24 H        5.1900     4.5320     1.1410 H     1 <1>   0.0800 
 25 H        5.1810     4.9450    -0.5600 H     1 <1>   0.0800 
 26 H        6.6900     3.0370    -1.0310 H     1 <1>   0.0800 
 27 H        6.6980     2.6230     0.6670 H     1 <1>   0.0800 
 28 H        7.7330     4.8190     1.1940 H     1 <1>   0.0800 
 29 H        7.7310     5.2260    -0.5050 H     1 <1>   0.0800 
 30 H        9.5210     3.0980     2.0140 H     1 <1>   0.1500 
 31 H        9.4360     3.9040    -2.0680 H     1 <1>   0.1500 
 32 H       11.6650     2.5200    -1.4400 H     1 <1>   0.1500 
@<TRIPOS>BOND
  1   1   2  1   
  2   2   3  ar  
  3   2   4  ar  
  4   3   5  ar  
  5   3  18  1   
  6   4   6  ar  
  7   4  19  1   
  8   5   7  1   
  9   5   8  ar  
 10   6   8  ar  
 11   6  20  1   
 12   7   9  1   
 13   8  21  1   
 14   9  10  1   
 15   9  22  1   
 16   9  23  1   
 17  10  11  1   
 18  10  24  1   
 19  10  25  1   
 20  11  12  1   
 21  11  26  1   
 22  11  27  1   
 23  12  13  1   
 24  12  28  1   
 25  12  29  1   
 26  13  14  1   
 27  13  15  1   
 28  14  16  2   
 29  14  30  1   
 30  15  17  2   
 31  15  31  1   
 32  16  17  1   
 33  17  32  1   
@<TRIPOS>SUBSTRUCTURE
  1 ****   9 GROUP 4 **** **** 0

# MOE 2024.06 (io_trps.svl 2023.06)
