@<TRIPOS>MOLECULE
NONAME
40 42 1 0 0 
SMALL
USER_CHARGES


@<TRIPOS>ATOM
  1 O      -10.1580     1.6450     0.2870 O.3   1 <1>  -0.3630 
  2 C       -9.0170     2.3900     0.2960 C.ar  1 <1>   0.0830 
  3 C      -11.0320     1.6530    -0.8200 C.3   1 <1>   0.0400 
  4 C       -8.8420     3.6310    -0.3430 C.ar  1 <1>   0.0830 
  5 C       -7.9720     1.8360     1.0130 C.ar  1 <1>  -0.1500 
  6 O       -9.8770     4.2020    -1.0200 O.3   1 <1>  -0.3630 
  7 C       -7.6040     4.2640    -0.2460 C.ar  1 <1>  -0.1500 
  8 C       -6.7360     2.4640     1.1060 C.ar  1 <1>   0.0860 
  9 C       -9.8010     5.4970    -1.5750 C.3   1 <1>   0.0400 
 10 C       -6.5700     3.6880     0.4700 C.ar  1 <1>  -0.1440 
 11 C       -5.6160     1.8980     1.8180 C.2   1 <1>   0.3040 
 12 C       -5.2180     4.3700     0.6320 C.3   1 <1>  -0.0160 
 13 N       -4.4070     2.2650     1.7050 N.2   1 <1>  -0.6960 
 14 C       -4.0480     3.3570     0.7870 C.3   1 <1>   0.2460 
 15 C       -2.8090     4.0500     1.3850 C.3   1 <1>  -0.1600 
 16 C       -3.6690     2.7040    -0.5590 C.3   1 <1>  -0.1600 
 17 C       -2.1430     5.0420     0.4160 C.3   1 <1>  -0.1600 
 18 C       -2.9790     3.6650    -1.5450 C.3   1 <1>  -0.1600 
 19 C       -1.7680     4.3510    -0.9010 C.3   1 <1>  -0.1600 
 20 H      -11.6380     0.7660    -0.7760 H     1 <1>   0.0800 
 21 H      -10.4530     1.6600    -1.7270 H     1 <1>   0.0800 
 22 H      -11.6600     2.5230    -0.7600 H     1 <1>   0.0800 
 23 H       -8.1250     0.8910     1.5000 H     1 <1>   0.1500 
 24 H       -7.4280     5.2110    -0.7170 H     1 <1>   0.1500 
 25 H      -10.7570     5.7300    -2.0090 H     1 <1>   0.0800 
 26 H       -9.0430     5.5070    -2.3380 H     1 <1>   0.0800 
 27 H       -9.5750     6.2000    -0.7930 H     1 <1>   0.0800 
 28 H       -5.8580     1.0890     2.4840 H     1 <1>   0.0600 
 29 H       -5.2640     4.9800     1.5160 H     1 <1>   0.0800 
 30 H       -5.0370     5.0300    -0.1940 H     1 <1>   0.0800 
 31 H       -2.0860     3.2950     1.6410 H     1 <1>   0.0800 
 32 H       -3.0800     4.5590     2.2930 H     1 <1>   0.0800 
 33 H       -2.9930     1.8900    -0.3630 H     1 <1>   0.0800 
 34 H       -4.5480     2.2920    -1.0230 H     1 <1>   0.0800 
 35 H       -2.8070     5.8650     0.2170 H     1 <1>   0.0800 
 36 H       -1.2550     5.4430     0.8730 H     1 <1>   0.0800 
 37 H       -3.6760     4.4100    -1.8840 H     1 <1>   0.0800 
 38 H       -2.6560     3.1120    -2.4100 H     1 <1>   0.0800 
 39 H       -1.0090     3.6120    -0.7050 H     1 <1>   0.0800 
 40 H       -1.3540     5.0720    -1.5840 H     1 <1>   0.0800 
@<TRIPOS>BOND
  1   1   2  1   
  2   1   3  1   
  3   2   4  ar  
  4   2   5  ar  
  5   3  20  1   
  6   3  21  1   
  7   3  22  1   
  8   4   6  1   
  9   4   7  ar  
 10   5   8  ar  
 11   5  23  1   
 12   6   9  1   
 13   7  10  ar  
 14   7  24  1   
 15   8  10  ar  
 16   8  11  1   
 17   9  25  1   
 18   9  26  1   
 19   9  27  1   
 20  10  12  1   
 21  11  13  2   
 22  11  28  1   
 23  12  14  1   
 24  12  29  1   
 25  12  30  1   
 26  13  14  1   
 27  14  15  1   
 28  14  16  1   
 29  15  17  1   
 30  15  31  1   
 31  15  32  1   
 32  16  18  1   
 33  16  33  1   
 34  16  34  1   
 35  17  19  1   
 36  17  35  1   
 37  17  36  1   
 38  18  19  1   
 39  18  37  1   
 40  18  38  1   
 41  19  39  1   
 42  19  40  1   
@<TRIPOS>SUBSTRUCTURE
  1 ****  10 GROUP 4 **** **** 0

# MOE 2024.06 (io_trps.svl 2023.06)
