@<TRIPOS>MOLECULE
NONAME
46 47 1 0 0 
SMALL
USER_CHARGES


@<TRIPOS>ATOM
  1 S        0.1340    -0.1520     1.0640 S.o2  1 <1>   1.4470 
  2 O        0.5300    -0.0280     2.4510 O.2   1 <1>  -0.6500 
  3 O       -0.7690     0.8270     0.4980 O.2   1 <1>  -0.6500 
  4 N        1.5610    -0.0940     0.1490 N.am  1 <1>  -0.8490 
  5 C       -0.5030    -1.8180     0.7350 C.ar  1 <1>  -0.0090 
  6 C        2.5880    -1.0070     0.6750 C.3   1 <1>   0.1960 
  7 C        2.0740     1.2750     0.0660 C.3   1 <1>   0.1960 
  8 C       -0.7740    -2.2310    -0.5630 C.ar  1 <1>  -0.1500 
  9 C       -0.7240    -2.7250     1.7640 C.ar  1 <1>  -0.1500 
 10 C        3.8000    -1.0530    -0.2650 C.3   1 <1>  -0.0190 
 11 C        3.2790     1.3340    -0.8810 C.3   1 <1>  -0.1600 
 12 C       -1.2450    -3.5040    -0.8410 C.ar  1 <1>  -0.1440 
 13 C       -1.1950    -4.0000     1.5080 C.ar  1 <1>  -0.1500 
 14 C        4.8470    -2.0280     0.2500 C.2   1 <1>   0.6590 
 15 C        4.3850     0.3590    -0.4550 C.3   1 <1>  -0.1600 
 16 C       -1.4590    -4.4000     0.2010 C.ar  1 <1>   0.0820 
 17 C       -1.5250    -3.9080    -2.2810 C.3   1 <1>  -0.0960 
 18 O        4.8490    -2.4330     1.3840 O.2   1 <1>  -0.5700 
 19 O        5.7620    -2.4040    -0.6330 O.3   1 <1>  -0.4300 
 20 O       -1.9200    -5.6390    -0.1130 O.3   1 <1>  -0.3630 
 21 C        6.7890    -3.3050    -0.2890 C.3   1 <1>   0.1200 
 22 C       -2.1710    -6.6120     0.8750 C.3   1 <1>   0.0400 
 23 C        7.6580    -3.5240    -1.5230 C.3   1 <1>  -0.2400 
 24 H        2.1830    -2.0020     0.7640 H     1 <1>   0.0800 
 25 H        2.8990    -0.6860     1.6580 H     1 <1>   0.0800 
 26 H        2.3550     1.6220     1.0480 H     1 <1>   0.0800 
 27 H        1.3060     1.9300    -0.3130 H     1 <1>   0.0800 
 28 H       -0.6080    -1.5330    -1.3670 H     1 <1>   0.1500 
 29 H       -0.5240    -2.4290     2.7810 H     1 <1>   0.1500 
 30 H        3.4620    -1.4240    -1.2160 H     1 <1>   0.0800 
 31 H        3.6670     2.3370    -0.8990 H     1 <1>   0.0800 
 32 H        2.9450     1.0950    -1.8760 H     1 <1>   0.0800 
 33 H       -1.3500    -4.6650     2.3360 H     1 <1>   0.1500 
 34 H        5.1620     0.3400    -1.2000 H     1 <1>   0.0800 
 35 H        4.8180     0.6940     0.4720 H     1 <1>   0.0800 
 36 H       -1.3150    -3.1040    -2.9620 H     1 <1>   0.0800 
 37 H       -2.5590    -4.1850    -2.3860 H     1 <1>   0.0800 
 38 H       -0.9150    -4.7530    -2.5470 H     1 <1>   0.0800 
 39 H        6.3380    -4.2280     0.0370 H     1 <1>   0.0800 
 40 H        7.3610    -2.8790     0.5180 H     1 <1>   0.0800 
 41 H       -2.5280    -7.5000     0.3850 H     1 <1>   0.0800 
 42 H       -2.9220    -6.2400     1.5490 H     1 <1>   0.0800 
 43 H       -1.2550    -6.8260     1.3960 H     1 <1>   0.0800 
 44 H        7.0710    -3.9410    -2.3220 H     1 <1>   0.0800 
 45 H        8.4510    -4.2110    -1.2890 H     1 <1>   0.0800 
 46 H        8.0930    -2.5940    -1.8410 H     1 <1>   0.0800 
@<TRIPOS>BOND
  1   1   2  2   
  2   1   3  2   
  3   1   4  am  
  4   1   5  1   
  5   4   6  1   
  6   4   7  1   
  7   5   8  ar  
  8   5   9  ar  
  9   6  10  1   
 10   6  24  1   
 11   6  25  1   
 12   7  11  1   
 13   7  26  1   
 14   7  27  1   
 15   8  12  ar  
 16   8  28  1   
 17   9  13  ar  
 18   9  29  1   
 19  10  14  1   
 20  10  15  1   
 21  10  30  1   
 22  11  15  1   
 23  11  31  1   
 24  11  32  1   
 25  12  16  ar  
 26  12  17  1   
 27  13  16  ar  
 28  13  33  1   
 29  14  18  2   
 30  14  19  1   
 31  15  34  1   
 32  15  35  1   
 33  16  20  1   
 34  17  36  1   
 35  17  37  1   
 36  17  38  1   
 37  19  21  1   
 38  20  22  1   
 39  21  23  1   
 40  21  39  1   
 41  21  40  1   
 42  22  41  1   
 43  22  42  1   
 44  22  43  1   
 45  23  44  1   
 46  23  45  1   
 47  23  46  1   
@<TRIPOS>SUBSTRUCTURE
  1 ****   6 GROUP 4 **** **** 0

# MOE 2024.06 (io_trps.svl 2023.06)
