@<TRIPOS>MOLECULE
NONAME
35 37 1 0 0 
SMALL
USER_CHARGES


@<TRIPOS>ATOM
  1 S       -0.6510     0.4460    -0.3310 S.3   1 <1>   0.4410 
  2 N        0.9620     0.7960     0.0520 N.2   1 <1>  -0.5100 
  3 N       -1.2340     2.0480    -0.4050 N.2   1 <1>  -0.5100 
  4 C        1.0080     2.0620     0.0740 C.2   1 <1>   0.3510 
  5 C       -0.2200     2.7800    -0.1660 C.2   1 <1>   0.3720 
  6 O        2.1520     2.7070     0.3740 O.3   1 <1>  -0.2120 
  7 N       -0.3290     4.1710    -0.1170 N.pl3 1 <1>  -0.8210 
  8 C        2.7880     3.4390    -0.5410 C.2   1 <1>   0.7800 
  9 C       -1.3310     4.7380     0.8370 C.3   1 <1>   0.2090 
 10 C       -0.3440     4.8670    -1.4420 C.3   1 <1>   0.2090 
 11 O        2.4550     3.4040    -1.7130 O.2   1 <1>  -0.5700 
 12 N        3.8270     4.2170    -0.1110 N.am  1 <1>  -0.6600 
 13 C       -2.7010     4.9760     0.1740 C.3   1 <1>   0.1200 
 14 C       -1.7750     5.0980    -1.9620 C.3   1 <1>   0.1200 
 15 C        4.2580     4.3510     1.2940 C.3   1 <1>   0.1400 
 16 C        4.6260     5.0700    -1.0110 C.3   1 <1>   0.1400 
 17 O       -2.5670     5.7310    -0.9960 O.3   1 <1>  -0.5600 
 18 C        5.2170     5.5360     1.2870 C.3   1 <1>  -0.1600 
 19 C        5.7660     5.5840    -0.1380 C.3   1 <1>  -0.1600 
 20 H       -0.9600     5.6730     1.2180 H     1 <1>   0.0800 
 21 H       -1.4530     4.0690     1.6710 H     1 <1>   0.0800 
 22 H        0.1920     4.2820    -2.1680 H     1 <1>   0.0800 
 23 H        0.1580     5.8130    -1.3480 H     1 <1>   0.0800 
 24 H       -3.3470     5.5160     0.8420 H     1 <1>   0.0800 
 25 H       -3.1670     4.0370    -0.0720 H     1 <1>   0.0800 
 26 H       -2.2320     4.1590    -2.2220 H     1 <1>   0.0800 
 27 H       -1.7540     5.7250    -2.8340 H     1 <1>   0.0800 
 28 H        4.7710     3.4510     1.5920 H     1 <1>   0.0800 
 29 H        3.4170     4.5240     1.9440 H     1 <1>   0.0800 
 30 H        4.0130     5.8850    -1.3570 H     1 <1>   0.0800 
 31 H        4.9890     4.5050    -1.8530 H     1 <1>   0.0800 
 32 H        5.9940     5.4270     2.0230 H     1 <1>   0.0800 
 33 H        4.6620     6.4350     1.4950 H     1 <1>   0.0800 
 34 H        6.0740     6.5740    -0.4270 H     1 <1>   0.0800 
 35 H        6.6040     4.9160    -0.2300 H     1 <1>   0.0800 
@<TRIPOS>BOND
  1   1   2  1   
  2   1   3  1   
  3   2   4  2   
  4   3   5  2   
  5   4   5  1   
  6   4   6  1   
  7   5   7  1   
  8   6   8  1   
  9   7   9  1   
 10   7  10  1   
 11   8  11  2   
 12   8  12  am  
 13   9  13  1   
 14   9  20  1   
 15   9  21  1   
 16  10  14  1   
 17  10  22  1   
 18  10  23  1   
 19  12  15  1   
 20  12  16  1   
 21  13  17  1   
 22  13  24  1   
 23  13  25  1   
 24  14  17  1   
 25  14  26  1   
 26  14  27  1   
 27  15  18  1   
 28  15  28  1   
 29  15  29  1   
 30  16  19  1   
 31  16  30  1   
 32  16  31  1   
 33  18  19  1   
 34  18  32  1   
 35  18  33  1   
 36  19  34  1   
 37  19  35  1   
@<TRIPOS>SUBSTRUCTURE
  1 ****   7 GROUP 4 **** **** 0

# MOE 2024.06 (io_trps.svl 2023.06)
