@<TRIPOS>MOLECULE
NONAME
42 44 1 0 0 
SMALL
USER_CHARGES


@<TRIPOS>ATOM
  1 O       -0.4330    -0.5490     2.3140 O.2   1 <1>  -0.5700 
  2 C       -0.2010    -1.4900     1.5830 C.2   1 <1>   0.6900 
  3 N       -0.9040    -2.6360     1.5230 N.am  1 <1>  -0.5390 
  4 N        0.8250    -1.5640     0.7090 N.am  1 <1>  -0.5390 
  5 C       -0.3010    -3.4890     0.5800 C.2   1 <1>   0.1230 
  6 C        0.7640    -2.7990     0.0900 C.2   1 <1>  -0.0290 
  7 C       -0.6940    -4.8420     0.2510 C.2   1 <1>   0.7060 
  8 C        1.7750    -3.2620    -0.9550 C.3   1 <1>   0.4810 
  9 O        0.1090    -5.6060    -0.2450 O.2   1 <1>  -0.5700 
 10 O       -1.9240    -5.3110     0.4640 O.3   1 <1>  -0.4300 
 11 N        3.0510    -3.6200    -0.2820 N.4   1 <1>  -0.9590 
 12 C       -3.0890    -4.5200     0.3950 C.3   1 <1>   0.1200 
 13 C        4.1710    -3.7450    -1.2520 C.3   1 <1>   0.4860 
 14 C        2.9390    -4.8870     0.5060 C.3   1 <1>   0.3430 
 15 C       -4.2690    -5.4540     0.1520 C.3   1 <1>  -0.2400 
 16 C        5.4630    -4.0180    -0.5040 C.ar  1 <1>  -0.1430 
 17 C        4.1590    -5.0540     1.4160 C.3   1 <1>  -0.0170 
 18 C        5.4600    -4.6430     0.7400 C.ar  1 <1>  -0.1430 
 19 C        6.6680    -3.6420    -1.0790 C.ar  1 <1>  -0.1500 
 20 C        6.6590    -4.8850     1.3900 C.ar  1 <1>  -0.1500 
 21 C        7.8610    -3.8860    -0.4230 C.ar  1 <1>  -0.1500 
 22 C        7.8560    -4.5070     0.8110 C.ar  1 <1>  -0.1500 
 23 H       -1.6630    -2.8280     2.1780 H     1 <1>   0.3700 
 24 H        1.4310    -0.7490     0.5860 H     1 <1>   0.3700 
 25 H        1.9350    -2.4650    -1.6620 H     1 <1>   0.0800 
 26 H        1.3920    -4.1170    -1.4900 H     1 <1>   0.0800 
 27 H        3.3080    -2.8720     0.3740 H     1 <1>   0.4500 
 28 H       -2.9920    -3.8170    -0.4150 H     1 <1>   0.0800 
 29 H       -3.2120    -4.0000     1.3290 H     1 <1>   0.0800 
 30 H        4.2750    -2.8330    -1.8170 H     1 <1>   0.0800 
 31 H        3.9800    -4.5550    -1.9380 H     1 <1>   0.0800 
 32 H        2.8750    -5.7270    -0.1670 H     1 <1>   0.0800 
 33 H        2.0480    -4.8810     1.1130 H     1 <1>   0.0800 
 34 H       -4.1410    -5.9850    -0.7740 H     1 <1>   0.0800 
 35 H       -5.1800    -4.8840     0.0950 H     1 <1>   0.0800 
 36 H       -4.3590    -6.1600     0.9590 H     1 <1>   0.0800 
 37 H        4.2200    -6.0820     1.7280 H     1 <1>   0.0800 
 38 H        4.0210    -4.4570     2.3000 H     1 <1>   0.0800 
 39 H        6.6980    -3.1590    -2.0410 H     1 <1>   0.1500 
 40 H        6.6730    -5.3670     2.3530 H     1 <1>   0.1500 
 41 H        8.7950    -3.5930    -0.8720 H     1 <1>   0.1500 
 42 H        8.7860    -4.6980     1.3210 H     1 <1>   0.1500 
@<TRIPOS>BOND
  1   1   2  2   
  2   2   3  am  
  3   2   4  am  
  4   3   5  1   
  5   3  23  1   
  6   4   6  1   
  7   4  24  1   
  8   5   6  2   
  9   5   7  1   
 10   6   8  1   
 11   7   9  2   
 12   7  10  1   
 13   8  11  1   
 14   8  25  1   
 15   8  26  1   
 16  10  12  1   
 17  11  13  1   
 18  11  14  1   
 19  11  27  1   
 20  12  15  1   
 21  12  28  1   
 22  12  29  1   
 23  13  16  1   
 24  13  30  1   
 25  13  31  1   
 26  14  17  1   
 27  14  32  1   
 28  14  33  1   
 29  15  34  1   
 30  15  35  1   
 31  15  36  1   
 32  16  18  ar  
 33  16  19  ar  
 34  17  18  1   
 35  17  37  1   
 36  17  38  1   
 37  18  20  ar  
 38  19  21  ar  
 39  19  39  1   
 40  20  22  ar  
 41  20  40  1   
 42  21  22  ar  
 43  21  41  1   
 44  22  42  1   
@<TRIPOS>SUBSTRUCTURE
  1 ****  11 GROUP 4 **** **** 0

# MOE 2024.06 (io_trps.svl 2023.06)
