@<TRIPOS>MOLECULE
NONAME
49 50 1 0 0 
SMALL
USER_CHARGES


@<TRIPOS>ATOM
  1 O        1.0740    -0.0920     0.7230 O.3   1 <1>  -0.3630 
  2 C        2.0840    -0.6330     0.0000 C.ar  1 <1>   0.0820 
  3 C       -0.1180     0.1990     0.0240 C.3   1 <1>   0.0400 
  4 C        2.0000    -1.8830    -0.6240 C.ar  1 <1>   0.0820 
  5 C        3.2470     0.1100    -0.1100 C.ar  1 <1>  -0.1500 
  6 O        0.9170    -2.6900    -0.5210 O.3   1 <1>  -0.3630 
  7 C        3.0620    -2.3370    -1.3850 C.ar  1 <1>  -0.1500 
  8 C        4.3190    -0.3580    -0.8550 C.ar  1 <1>  -0.1430 
  9 C        0.6380    -3.2120     0.7600 C.3   1 <1>   0.0400 
 10 C        4.2170    -1.5820    -1.5010 C.ar  1 <1>  -0.1500 
 11 C        5.5910     0.4610    -0.9470 C.3   1 <1>  -0.0170 
 12 C        6.4270     0.1930     0.3070 C.3   1 <1>   0.3430 
 13 N        7.7450     0.8980     0.2710 N.4   1 <1>  -0.9590 
 14 C        8.6440     0.3570     1.3170 C.3   1 <1>   0.4810 
 15 C        7.6060     2.3860     0.3790 C.3   1 <1>   0.2630 
 16 C       10.0540     0.6870     0.8930 C.2   1 <1>  -0.2880 
 17 C       10.9260    -0.2000     0.3830 C.2   1 <1>  -0.1780 
 18 C       12.2850     0.0440    -0.0500 C.ar  1 <1>   0.0280 
 19 C       12.9380    -0.8940    -0.8460 C.ar  1 <1>  -0.1500 
 20 C       12.9870     1.1960     0.2990 C.ar  1 <1>  -0.1500 
 21 C       14.2340    -0.6890    -1.2850 C.ar  1 <1>  -0.1500 
 22 C       14.2830     1.4070    -0.1380 C.ar  1 <1>  -0.1500 
 23 C       14.9090     0.4650    -0.9320 C.ar  1 <1>  -0.1500 
 24 H       -0.7700     0.7420     0.6830 H     1 <1>   0.0800 
 25 H       -0.5880    -0.7180    -0.2800 H     1 <1>   0.0800 
 26 H        0.1210     0.7990    -0.8370 H     1 <1>   0.0800 
 27 H        3.2870     1.0600     0.3910 H     1 <1>   0.1500 
 28 H        2.9790    -3.2880    -1.8820 H     1 <1>   0.1500 
 29 H       -0.1860    -3.8970     0.6720 H     1 <1>   0.0800 
 30 H        0.3750    -2.4080     1.4240 H     1 <1>   0.0800 
 31 H        1.5090    -3.7280     1.1220 H     1 <1>   0.0800 
 32 H        5.0270    -1.9620    -2.0990 H     1 <1>   0.1500 
 33 H        5.3300     1.5010    -1.0210 H     1 <1>   0.0800 
 34 H        6.1390     0.1770    -1.8280 H     1 <1>   0.0800 
 35 H        6.5880    -0.8710     0.3780 H     1 <1>   0.0800 
 36 H        5.8680     0.4980     1.1780 H     1 <1>   0.0800 
 37 H        8.2140     0.6770    -0.6210 H     1 <1>   0.4500 
 38 H        8.4200     0.7790     2.2840 H     1 <1>   0.0800 
 39 H        8.5380    -0.7140     1.3740 H     1 <1>   0.0800 
 40 H        7.1390     2.6540     1.3130 H     1 <1>   0.0800 
 41 H        7.0050     2.7690    -0.4300 H     1 <1>   0.0800 
 42 H        8.5740     2.8590     0.3290 H     1 <1>   0.0800 
 43 H       10.3040     1.7220     1.0400 H     1 <1>   0.1500 
 44 H       10.6290    -1.2280     0.2550 H     1 <1>   0.1500 
 45 H       12.4320    -1.7980    -1.1330 H     1 <1>   0.1500 
 46 H       12.5310     1.9400     0.9230 H     1 <1>   0.1500 
 47 H       14.7190    -1.4260    -1.9010 H     1 <1>   0.1500 
 48 H       14.8080     2.3040     0.1420 H     1 <1>   0.1500 
 49 H       15.9170     0.6270    -1.2730 H     1 <1>   0.1500 
@<TRIPOS>BOND
  1   1   2  1   
  2   1   3  1   
  3   2   4  ar  
  4   2   5  ar  
  5   3  24  1   
  6   3  25  1   
  7   3  26  1   
  8   4   6  1   
  9   4   7  ar  
 10   5   8  ar  
 11   5  27  1   
 12   6   9  1   
 13   7  10  ar  
 14   7  28  1   
 15   8  10  ar  
 16   8  11  1   
 17   9  29  1   
 18   9  30  1   
 19   9  31  1   
 20  10  32  1   
 21  11  12  1   
 22  11  33  1   
 23  11  34  1   
 24  12  13  1   
 25  12  35  1   
 26  12  36  1   
 27  13  14  1   
 28  13  15  1   
 29  13  37  1   
 30  14  16  1   
 31  14  38  1   
 32  14  39  1   
 33  15  40  1   
 34  15  41  1   
 35  15  42  1   
 36  16  17  2   
 37  16  43  1   
 38  17  18  1   
 39  17  44  1   
 40  18  19  ar  
 41  18  20  ar  
 42  19  21  ar  
 43  19  45  1   
 44  20  22  ar  
 45  20  46  1   
 46  21  23  ar  
 47  21  47  1   
 48  22  23  ar  
 49  22  48  1   
 50  23  49  1   
@<TRIPOS>SUBSTRUCTURE
  1 ****  12 GROUP 4 **** **** 0

# MOE 2024.06 (io_trps.svl 2023.06)
