@<TRIPOS>MOLECULE
NONAME
34 34 1 0 0 
SMALL
USER_CHARGES


@<TRIPOS>ATOM
  1 S        0.0480    -0.8170    -0.5190 S.3   1 <1>  -0.3710 
  2 C       -0.4630    -0.5730     1.1610 C.2   1 <1>   0.6500 
  3 C        1.1120    -2.3250    -0.4530 C.3   1 <1>   0.1500 
  4 O       -0.0680    -1.2910     2.0320 O.2   1 <1>  -0.5700 
  5 C       -1.4050     0.5840     1.3740 C.3   1 <1>  -0.1790 
  6 C        2.1020    -2.2300    -1.6160 C.3   1 <1>  -0.0990 
  7 C        0.1830    -3.5400    -0.5340 C.3   1 <1>  -0.2400 
  8 C        3.1200    -3.3440    -1.5610 C.2   1 <1>   0.5690 
  9 O        2.9700    -4.3180    -2.2560 O.2   1 <1>  -0.5700 
 10 N        4.1780    -3.2200    -0.7270 N.am  1 <1>  -0.7300 
 11 C        5.2470    -4.2210    -0.5990 C.3   1 <1>   0.2840 
 12 C        6.4320    -3.5560     0.0760 C.ar  1 <1>  -0.1440 
 13 C        6.5470    -3.5630     1.4580 C.ar  1 <1>  -0.1500 
 14 C        7.4090    -2.9300    -0.6840 C.ar  1 <1>  -0.1500 
 15 C        7.6280    -2.9550     2.0730 C.ar  1 <1>  -0.1500 
 16 C        8.4900    -2.3220    -0.0700 C.ar  1 <1>  -0.1500 
 17 C        8.6000    -2.3340     1.3090 C.ar  1 <1>  -0.1500 
 18 H        1.6350    -2.3060     0.4890 H     1 <1>   0.0800 
 19 H       -2.2990     0.4310     0.7990 H     1 <1>   0.0800 
 20 H       -0.9320     1.4970     1.0640 H     1 <1>   0.0800 
 21 H       -1.6620     0.6540     2.4150 H     1 <1>   0.0800 
 22 H        2.6180    -1.2890    -1.5770 H     1 <1>   0.0800 
 23 H        1.5740    -2.2840    -2.5510 H     1 <1>   0.0800 
 24 H       -0.3700    -3.5310    -1.4570 H     1 <1>   0.0800 
 25 H       -0.5090    -3.5320     0.2890 H     1 <1>   0.0800 
 26 H        0.7530    -4.4500    -0.4840 H     1 <1>   0.0800 
 27 H        4.3240    -2.3780    -0.1680 H     1 <1>   0.3700 
 28 H        5.5220    -4.5880    -1.5740 H     1 <1>   0.0800 
 29 H        4.8940    -5.0490    -0.0100 H     1 <1>   0.0800 
 30 H        5.7950    -4.0430     2.0620 H     1 <1>   0.1500 
 31 H        7.3290    -2.9130    -1.7580 H     1 <1>   0.1500 
 32 H        7.7120    -2.9650     3.1460 H     1 <1>   0.1500 
 33 H        9.2460    -1.8390    -0.6650 H     1 <1>   0.1500 
 34 H        9.4410    -1.8630     1.7870 H     1 <1>   0.1500 
@<TRIPOS>BOND
  1   1   2  1   
  2   1   3  1   
  3   2   4  2   
  4   2   5  1   
  5   3   6  1   
  6   3   7  1   
  7   3  18  1   
  8   5  19  1   
  9   5  20  1   
 10   5  21  1   
 11   6   8  1   
 12   6  22  1   
 13   6  23  1   
 14   7  24  1   
 15   7  25  1   
 16   7  26  1   
 17   8   9  2   
 18   8  10  am  
 19  10  11  1   
 20  10  27  1   
 21  11  12  1   
 22  11  28  1   
 23  11  29  1   
 24  12  13  ar  
 25  12  14  ar  
 26  13  15  ar  
 27  13  30  1   
 28  14  16  ar  
 29  14  31  1   
 30  15  17  ar  
 31  15  32  1   
 32  16  17  ar  
 33  16  33  1   
 34  17  34  1   
@<TRIPOS>SUBSTRUCTURE
  1 ****  10 GROUP 4 **** **** 0

# MOE 2024.06 (io_trps.svl 2023.06)
