@<TRIPOS>MOLECULE
NONAME
51 52 1 0 0 
SMALL
USER_CHARGES


@<TRIPOS>ATOM
  1 O        1.7700    -1.1010     1.6390 O.2   1 <1>  -0.5700 
  2 C        2.0810    -1.9880     0.8690 C.2   1 <1>   0.6900 
  3 N        1.1360    -2.8350     0.3590 N.am  1 <1>  -0.6600 
  4 N        3.3850    -2.1150     0.5530 N.am  1 <1>  -0.7300 
  5 C       -0.3070    -2.4840     0.5120 C.3   1 <1>   0.1400 
  6 C        1.4690    -4.2230    -0.0750 C.3   1 <1>   0.1400 
  7 C        3.9980    -1.5550    -0.6600 C.3   1 <1>   0.4440 
  8 C       -1.2060    -3.4230    -0.3010 C.3   1 <1>  -0.0190 
  9 C        0.4560    -5.2130     0.5100 C.3   1 <1>  -0.1600 
 10 C        5.5200    -1.7470    -0.5120 C.ar  1 <1>  -0.1440 
 11 C        3.5800    -0.0830    -0.7860 C.3   1 <1>  -0.2400 
 12 C        3.5180    -2.3190    -1.8950 C.3   1 <1>  -0.2400 
 13 C       -2.6640    -3.0020    -0.1860 C.2   1 <1>   0.5690 
 14 C       -0.9910    -4.9070     0.0790 C.3   1 <1>  -0.1600 
 15 C        6.0100    -3.0030    -0.1680 C.ar  1 <1>  -0.1500 
 16 C        6.4420    -0.7220    -0.7070 C.ar  1 <1>  -0.1500 
 17 O       -3.2830    -2.7190    -1.1780 O.2   1 <1>  -0.5700 
 18 N       -3.2680    -2.9440     1.0160 N.am  1 <1>  -0.8000 
 19 C        7.3690    -3.2660    -0.0170 C.ar  1 <1>   0.0280 
 20 C        7.7970    -0.9550    -0.5590 C.ar  1 <1>  -0.1500 
 21 C        7.8660    -4.5800     0.3390 C.2   1 <1>  -0.1670 
 22 C        8.2530    -2.2130    -0.2180 C.ar  1 <1>  -0.1500 
 23 C        8.8170    -4.7990     1.2620 C.2   1 <1>  -0.3000 
 24 C        7.2580    -5.7540    -0.4140 C.3   1 <1>  -0.1020 
 25 H        3.9660    -1.8270     1.3380 H     1 <1>   0.3700 
 26 H       -0.4560    -1.4680     0.1850 H     1 <1>   0.0800 
 27 H       -0.5630    -2.5380     1.5560 H     1 <1>   0.0800 
 28 H        2.4590    -4.4870     0.2570 H     1 <1>   0.0800 
 29 H        1.4470    -4.2720    -1.1500 H     1 <1>   0.0800 
 30 H       -0.9290    -3.2980    -1.3330 H     1 <1>   0.0800 
 31 H        0.5300    -5.1650     1.5830 H     1 <1>   0.0800 
 32 H        0.7180    -6.2130     0.2140 H     1 <1>   0.0800 
 33 H        4.0030     0.3520    -1.6720 H     1 <1>   0.0800 
 34 H        3.9120     0.4740     0.0720 H     1 <1>   0.0800 
 35 H        2.5120     0.0060    -0.8640 H     1 <1>   0.0800 
 36 H        4.0320    -1.9540    -2.7650 H     1 <1>   0.0800 
 37 H        2.4630    -2.1790    -2.0440 H     1 <1>   0.0800 
 38 H        3.7290    -3.3680    -1.7980 H     1 <1>   0.0800 
 39 H       -1.2500    -5.5120    -0.7730 H     1 <1>   0.0800 
 40 H       -1.6500    -5.1890     0.8820 H     1 <1>   0.0800 
 41 H        5.3170    -3.8070    -0.0020 H     1 <1>   0.1500 
 42 H        6.1340     0.2710    -0.9750 H     1 <1>   0.1500 
 43 H       -4.2470    -2.6570     1.0650 H     1 <1>   0.3700 
 44 H       -2.8150    -3.1740     1.9000 H     1 <1>   0.3700 
 45 H        8.4990    -0.1540    -0.7120 H     1 <1>   0.1500 
 46 H        9.3080    -2.3860    -0.1100 H     1 <1>   0.1500 
 47 H        9.1950    -5.7710     1.5250 H     1 <1>   0.1500 
 48 H        9.2870    -4.0170     1.8300 H     1 <1>   0.1500 
 49 H        7.2940    -5.5670    -1.4730 H     1 <1>   0.0800 
 50 H        6.2360    -5.9030    -0.1200 H     1 <1>   0.0800 
 51 H        7.8010    -6.6600    -0.2120 H     1 <1>   0.0800 
@<TRIPOS>BOND
  1   1   2  2   
  2   2   3  am  
  3   2   4  am  
  4   3   5  1   
  5   3   6  1   
  6   4   7  1   
  7   4  25  1   
  8   5   8  1   
  9   5  26  1   
 10   5  27  1   
 11   6   9  1   
 12   6  28  1   
 13   6  29  1   
 14   7  10  1   
 15   7  11  1   
 16   7  12  1   
 17   8  13  1   
 18   8  14  1   
 19   8  30  1   
 20   9  14  1   
 21   9  31  1   
 22   9  32  1   
 23  10  15  ar  
 24  10  16  ar  
 25  11  33  1   
 26  11  34  1   
 27  11  35  1   
 28  12  36  1   
 29  12  37  1   
 30  12  38  1   
 31  13  17  2   
 32  13  18  am  
 33  14  39  1   
 34  14  40  1   
 35  15  19  ar  
 36  15  41  1   
 37  16  20  ar  
 38  16  42  1   
 39  18  43  1   
 40  18  44  1   
 41  19  21  1   
 42  19  22  ar  
 43  20  22  ar  
 44  20  45  1   
 45  21  23  2   
 46  21  24  1   
 47  22  46  1   
 48  23  47  1   
 49  23  48  1   
 50  24  49  1   
 51  24  50  1   
 52  24  51  1   
@<TRIPOS>SUBSTRUCTURE
  1 ****   4 GROUP 4 **** **** 0

# MOE 2024.06 (io_trps.svl 2023.06)
