@<TRIPOS>MOLECULE
NONAME
41 41 1 0 0 
SMALL
USER_CHARGES


@<TRIPOS>ATOM
  1 O       -0.1770    -0.7720     0.3100 O.3   1 <1>  -0.2800 
  2 C       -1.3140    -1.3880     0.0570 C.2   1 <1>  -0.0400 
  3 C        0.2420    -0.2200    -0.8110 C.2   1 <1>  -0.0100 
  4 C       -1.6470    -1.2400    -1.2480 C.2   1 <1>  -0.1500 
  5 C       -1.9740    -2.1070     1.2150 C.3   1 <1>   0.5230 
  6 C       -0.6220    -0.4720    -1.8150 C.2   1 <1>  -0.1500 
  7 N       -3.1350    -2.8800     0.7210 N.4   1 <1>  -0.9060 
  8 C       -3.5990    -3.9190     1.6430 C.3   1 <1>   0.4810 
  9 C       -4.4210    -4.8340     0.7770 C.2   1 <1>  -0.2880 
 10 C       -4.0420    -5.8610    -0.0010 C.2   1 <1>  -0.2760 
 11 C       -2.6520    -6.4610    -0.2770 C.3   1 <1>  -0.0220 
 12 C       -5.0990    -6.6230    -0.7920 C.3   1 <1>  -0.1020 
 13 C       -1.4660    -5.9250     0.5290 C.3   1 <1>  -0.0220 
 14 C       -0.1750    -6.5880     0.0840 C.2   1 <1>  -0.2880 
 15 C        0.8800    -6.0400    -0.5330 C.2   1 <1>  -0.2760 
 16 C        2.1000    -6.8760    -0.8890 C.3   1 <1>  -0.1020 
 17 C        1.0490    -4.5880    -0.9690 C.3   1 <1>  -0.1020 
 18 H        1.1660     0.3350    -0.8070 H     1 <1>   0.1500 
 19 H       -2.4960    -1.6010    -1.8030 H     1 <1>   0.1500 
 20 H       -2.2810    -1.3920     1.9610 H     1 <1>   0.0800 
 21 H       -1.2490    -2.7720     1.6560 H     1 <1>   0.0800 
 22 H       -0.5630    -0.1610    -2.8440 H     1 <1>   0.1500 
 23 H       -3.9040    -2.2560     0.4630 H     1 <1>   0.4500 
 24 H       -2.8610    -3.3710    -0.1390 H     1 <1>   0.4500 
 25 H       -2.7640    -4.4560     2.0620 H     1 <1>   0.0800 
 26 H       -4.1890    -3.5060     2.4470 H     1 <1>   0.0800 
 27 H       -5.4610    -4.5560     0.8390 H     1 <1>   0.1500 
 28 H       -2.7030    -7.5230    -0.1010 H     1 <1>   0.0800 
 29 H       -2.4280    -6.3330    -1.3230 H     1 <1>   0.0800 
 30 H       -4.8880    -6.5740    -1.8470 H     1 <1>   0.0800 
 31 H       -6.0830    -6.2200    -0.6300 H     1 <1>   0.0800 
 32 H       -5.1140    -7.6580    -0.4950 H     1 <1>   0.0800 
 33 H       -1.6120    -6.1320     1.5740 H     1 <1>   0.0800 
 34 H       -1.3800    -4.8710     0.3910 H     1 <1>   0.0800 
 35 H       -0.1790    -7.6370     0.3340 H     1 <1>   0.1500 
 36 H        2.9750    -6.4820    -0.4050 H     1 <1>   0.0800 
 37 H        2.2590    -6.8700    -1.9520 H     1 <1>   0.0800 
 38 H        1.9730    -7.8970    -0.5740 H     1 <1>   0.0800 
 39 H        1.2520    -4.5470    -2.0240 H     1 <1>   0.0800 
 40 H        1.8790    -4.1450    -0.4470 H     1 <1>   0.0800 
 41 H        0.1790    -3.9930    -0.7810 H     1 <1>   0.0800 
@<TRIPOS>BOND
  1   1   2  1   
  2   1   3  1   
  3   2   4  2   
  4   2   5  1   
  5   3   6  2   
  6   3  18  1   
  7   4   6  1   
  8   4  19  1   
  9   5   7  1   
 10   5  20  1   
 11   5  21  1   
 12   6  22  1   
 13   7   8  1   
 14   7  23  1   
 15   7  24  1   
 16   8   9  1   
 17   8  25  1   
 18   8  26  1   
 19   9  10  2   
 20   9  27  1   
 21  10  11  1   
 22  10  12  1   
 23  11  13  1   
 24  11  28  1   
 25  11  29  1   
 26  12  30  1   
 27  12  31  1   
 28  12  32  1   
 29  13  14  1   
 30  13  33  1   
 31  13  34  1   
 32  14  15  2   
 33  14  35  1   
 34  15  16  1   
 35  15  17  1   
 36  16  36  1   
 37  16  37  1   
 38  16  38  1   
 39  17  39  1   
 40  17  40  1   
 41  17  41  1   
@<TRIPOS>SUBSTRUCTURE
  1 ****   7 GROUP 4 **** **** 0

# MOE 2024.06 (io_trps.svl 2023.06)
