@<TRIPOS>MOLECULE
NONAME
39 40 1 0 0 
SMALL
USER_CHARGES


@<TRIPOS>ATOM
  1 F       -1.0140     4.1260     0.6580 F     1 <1>  -0.1900 
  2 C       -1.0110     2.8220     0.7230 C.ar  1 <1>   0.1900 
  3 C       -1.0020     2.0750    -0.4480 C.ar  1 <1>  -0.1440 
  4 C       -1.0390     2.2420     1.9770 C.ar  1 <1>  -0.1500 
  5 C       -1.0090     0.6920    -0.3280 C.ar  1 <1>  -0.1500 
  6 C       -0.9890     2.7120    -1.8400 C.3   1 <1>   0.0450 
  7 C       -1.0560     0.8610     2.0730 C.ar  1 <1>  -0.1500 
  8 C       -1.0390     0.0910     0.9210 C.ar  1 <1>  -0.1500 
  9 C       -2.1680     2.2280    -2.6740 C.2   1 <1>   0.5690 
 10 O       -1.9380     1.4340    -3.5530 O.2   1 <1>  -0.5700 
 11 N       -3.4610     2.6090    -2.3960 N.am  1 <1>  -0.6600 
 12 C       -4.6060     1.9010    -3.0390 C.3   1 <1>   0.1400 
 13 C       -3.8830     3.3770    -1.1900 C.3   1 <1>   0.1400 
 14 C       -5.2070     0.9020    -2.0310 C.3   1 <1>   0.3430 
 15 C       -4.4690     2.4020    -0.1500 C.3   1 <1>   0.3430 
 16 N       -5.5870     1.5600    -0.7240 N.4   1 <1>  -0.9590 
 17 C       -6.0690     0.5570     0.2480 C.3   1 <1>   0.4810 
 18 C       -6.8430     1.3030     1.3100 C.2   1 <1>  -0.2880 
 19 C       -8.1760     1.3410     1.4080 C.2   1 <1>  -0.3000 
 20 H       -1.0390     2.8590     2.8590 H     1 <1>   0.1500 
 21 H       -0.9830     0.0720    -1.2110 H     1 <1>   0.1500 
 22 H       -0.0780     2.4330    -2.3380 H     1 <1>   0.0800 
 23 H       -1.0070     3.7850    -1.7960 H     1 <1>   0.0800 
 24 H       -1.0690     0.3870     3.0400 H     1 <1>   0.1500 
 25 H       -1.0360    -0.9830     0.9970 H     1 <1>   0.1500 
 26 H       -4.2840     1.3720    -3.9200 H     1 <1>   0.0800 
 27 H       -5.3490     2.6160    -3.3460 H     1 <1>   0.0800 
 28 H       -4.6270     4.1030    -1.4700 H     1 <1>   0.0800 
 29 H       -3.0600     3.9200    -0.7660 H     1 <1>   0.0800 
 30 H       -4.4720     0.1350    -1.8500 H     1 <1>   0.0800 
 31 H       -6.0710     0.4340    -2.4730 H     1 <1>   0.0800 
 32 H       -4.8300     2.9650     0.6950 H     1 <1>   0.0800 
 33 H       -3.6740     1.7610     0.1970 H     1 <1>   0.0800 
 34 H       -6.3860     2.1830    -0.8970 H     1 <1>   0.4500 
 35 H       -5.2500     0.0050     0.6810 H     1 <1>   0.0800 
 36 H       -6.7320    -0.1380    -0.2440 H     1 <1>   0.0800 
 37 H       -6.2080     1.8120     2.0160 H     1 <1>   0.1500 
 38 H       -8.7040     1.8770     2.1810 H     1 <1>   0.1500 
 39 H       -8.8630     0.8470     0.7400 H     1 <1>   0.1500 
@<TRIPOS>BOND
  1   1   2  1   
  2   2   3  ar  
  3   2   4  ar  
  4   3   5  ar  
  5   3   6  1   
  6   4   7  ar  
  7   4  20  1   
  8   5   8  ar  
  9   5  21  1   
 10   6   9  1   
 11   6  22  1   
 12   6  23  1   
 13   7   8  ar  
 14   7  24  1   
 15   8  25  1   
 16   9  10  2   
 17   9  11  am  
 18  11  12  1   
 19  11  13  1   
 20  12  14  1   
 21  12  26  1   
 22  12  27  1   
 23  13  15  1   
 24  13  28  1   
 25  13  29  1   
 26  14  16  1   
 27  14  30  1   
 28  14  31  1   
 29  15  16  1   
 30  15  32  1   
 31  15  33  1   
 32  16  17  1   
 33  16  34  1   
 34  17  18  1   
 35  17  35  1   
 36  17  36  1   
 37  18  19  2   
 38  18  37  1   
 39  19  38  1   
 40  19  39  1   
@<TRIPOS>SUBSTRUCTURE
  1 ****  15 GROUP 4 **** **** 0

# MOE 2024.06 (io_trps.svl 2023.06)
