@<TRIPOS>MOLECULE
NONAME
47 48 1 0 0 
SMALL
USER_CHARGES


@<TRIPOS>ATOM
  1 O        3.6330    -2.4990    -0.0840 O.3   1 <1>  -0.3630 
  2 C        2.3460    -2.9310    -0.0860 C.ar  1 <1>   0.0830 
  3 C        4.7120    -3.4050     0.0440 C.3   1 <1>   0.1200 
  4 C        1.3630    -1.9560    -0.1350 C.ar  1 <1>  -0.1500 
  5 C        1.9780    -4.2730    -0.0400 C.ar  1 <1>  -0.1500 
  6 C        6.0290    -2.6200     0.0520 C.3   1 <1>   0.2000 
  7 C        0.0230    -2.3030    -0.1370 C.ar  1 <1>  -0.1440 
  8 C        0.6400    -4.6290    -0.0430 C.ar  1 <1>  -0.1440 
  9 O        6.0620    -1.8080    -1.0760 O.3   1 <1>  -0.6800 
 10 C        7.2610    -3.5580     0.1000 C.3   1 <1>   0.1100 
 11 C       -0.3310    -3.6410    -0.0890 C.ar  1 <1>  -0.1500 
 12 C       -1.0540    -1.2350    -0.1880 C.3   1 <1>  -0.0970 
 13 C        0.2280    -6.0900     0.0090 C.3   1 <1>  -0.0970 
 14 N        8.5660    -2.9130    -0.1910 N.3   1 <1>  -0.8100 
 15 C        9.6700    -3.8840    -0.2650 C.3   1 <1>   0.1100 
 16 C        8.8850    -1.7660     0.6810 C.3   1 <1>   0.1100 
 17 C       10.9730    -3.2030    -0.7330 C.3   1 <1>   0.3430 
 18 C       10.1790    -1.0690     0.2180 C.3   1 <1>   0.3430 
 19 N       11.3370    -2.0290     0.1380 N.4   1 <1>  -0.9590 
 20 C       12.5670    -1.3480    -0.3620 C.3   1 <1>   0.2630 
 21 H        4.6870    -4.0860    -0.7880 H     1 <1>   0.0800 
 22 H        4.5920    -3.9460     0.9660 H     1 <1>   0.0800 
 23 H        1.6590    -0.9240    -0.1690 H     1 <1>   0.1500 
 24 H        2.7170    -5.0490    -0.0040 H     1 <1>   0.1500 
 25 H        6.0350    -1.9780     0.9150 H     1 <1>   0.0800 
 26 H        5.1620    -1.4450    -1.2170 H     1 <1>   0.4000 
 27 H        7.1030    -4.3380    -0.6260 H     1 <1>   0.0800 
 28 H        7.3010    -4.0250     1.0690 H     1 <1>   0.0800 
 29 H       -1.3720    -3.9160    -0.0870 H     1 <1>   0.1500 
 30 H       -0.6390    -0.2870    -0.4790 H     1 <1>   0.0800 
 31 H       -1.5090    -1.1310     0.7810 H     1 <1>   0.0800 
 32 H       -1.8120    -1.5080    -0.9000 H     1 <1>   0.0800 
 33 H        1.0330    -6.7250    -0.3130 H     1 <1>   0.0800 
 34 H       -0.6160    -6.2600    -0.6360 H     1 <1>   0.0800 
 35 H       -0.0450    -6.3550     1.0140 H     1 <1>   0.0800 
 36 H        9.4150    -4.6560    -0.9710 H     1 <1>   0.0800 
 37 H        9.8220    -4.3470     0.6960 H     1 <1>   0.0800 
 38 H        8.9820    -2.0910     1.7030 H     1 <1>   0.0800 
 39 H        8.0880    -1.0440     0.6320 H     1 <1>   0.0800 
 40 H       10.8300    -2.8690    -1.7470 H     1 <1>   0.0800 
 41 H       11.7720    -3.9260    -0.7290 H     1 <1>   0.0800 
 42 H       10.4120    -0.2660     0.8980 H     1 <1>   0.0800 
 43 H        9.9960    -0.6400    -0.7540 H     1 <1>   0.0800 
 44 H       11.5030    -2.3890     1.0860 H     1 <1>   0.4500 
 45 H       12.4030    -0.9650    -1.3570 H     1 <1>   0.0800 
 46 H       13.3940    -2.0390    -0.3900 H     1 <1>   0.0800 
 47 H       12.8290    -0.5260     0.2850 H     1 <1>   0.0800 
@<TRIPOS>BOND
  1   1   2  1   
  2   1   3  1   
  3   2   4  ar  
  4   2   5  ar  
  5   3   6  1   
  6   3  21  1   
  7   3  22  1   
  8   4   7  ar  
  9   4  23  1   
 10   5   8  ar  
 11   5  24  1   
 12   6   9  1   
 13   6  10  1   
 14   6  25  1   
 15   7  11  ar  
 16   7  12  1   
 17   8  11  ar  
 18   8  13  1   
 19   9  26  1   
 20  10  14  1   
 21  10  27  1   
 22  10  28  1   
 23  11  29  1   
 24  12  30  1   
 25  12  31  1   
 26  12  32  1   
 27  13  33  1   
 28  13  34  1   
 29  13  35  1   
 30  14  15  1   
 31  14  16  1   
 32  15  17  1   
 33  15  36  1   
 34  15  37  1   
 35  16  18  1   
 36  16  38  1   
 37  16  39  1   
 38  17  19  1   
 39  17  40  1   
 40  17  41  1   
 41  18  19  1   
 42  18  42  1   
 43  18  43  1   
 44  19  20  1   
 45  19  44  1   
 46  20  45  1   
 47  20  46  1   
 48  20  47  1   
@<TRIPOS>SUBSTRUCTURE
  1 ****   3 GROUP 4 **** **** 0

# MOE 2024.06 (io_trps.svl 2023.06)
