@<TRIPOS>MOLECULE
NONAME
46 48 1 0 0 
SMALL
USER_CHARGES


@<TRIPOS>ATOM
  1 CL      -1.3850     0.3180     0.7720 Cl    1 <1>  -0.1770 
  2 C       -3.1310     0.2660     0.8370 C.ar  1 <1>   0.1770 
  3 C       -3.8240    -0.4530    -0.1190 C.ar  1 <1>  -0.1500 
  4 C       -3.7930     0.9460     1.8420 C.ar  1 <1>  -0.1500 
  5 C       -5.2070    -0.4910    -0.0640 C.ar  1 <1>  -0.1500 
  6 C       -5.1750     0.9000     1.8870 C.ar  1 <1>  -0.1500 
  7 C       -5.9000     0.1840     0.9390 C.ar  1 <1>   0.1000 
  8 N       -7.2900     0.1650     1.0190 N.pl3 1 <1>  -0.8380 
  9 C       -8.0730    -1.0810     0.7530 C.3   1 <1>   0.2090 
 10 C       -8.0450     1.4200     0.7310 C.3   1 <1>   0.2090 
 11 C       -8.7720    -1.0460    -0.6220 C.3   1 <1>   0.1100 
 12 C       -8.7250     1.3700    -0.6510 C.3   1 <1>   0.1100 
 13 N       -9.5880     0.1740    -0.8130 N.3   1 <1>  -0.8100 
 14 C      -10.2430     0.1670    -2.1550 C.3   1 <1>   0.1710 
 15 C      -11.3260     1.2350    -2.3430 C.2   1 <1>   0.5690 
 16 O      -11.5330     1.6860    -3.4450 O.2   1 <1>  -0.5700 
 17 N      -12.0300     1.6440    -1.2610 N.am  1 <1>  -0.7300 
 18 C      -13.1290     2.6180    -1.2730 C.3   1 <1>   0.2840 
 19 C      -13.9910     2.3820    -0.0470 C.ar  1 <1>  -0.1430 
 20 C      -15.0090     1.4410    -0.0810 C.ar  1 <1>  -0.1500 
 21 C      -13.7700     3.1020     1.1180 C.ar  1 <1>  -0.1500 
 22 C      -15.8000     1.2240     1.0350 C.ar  1 <1>  -0.1500 
 23 C      -14.5600     2.8870     2.2340 C.ar  1 <1>  -0.1500 
 24 C      -15.5760     1.9480     2.1930 C.ar  1 <1>  -0.1500 
 25 H       -3.2850    -0.9720    -0.8900 H     1 <1>   0.1500 
 26 H       -3.2340     1.4970     2.5750 H     1 <1>   0.1500 
 27 H       -5.7520    -1.0400    -0.8060 H     1 <1>   0.1500 
 28 H       -5.7100     1.4130     2.6650 H     1 <1>   0.1500 
 29 H       -8.8190    -1.1880     1.5200 H     1 <1>   0.0800 
 30 H       -7.4230    -1.9360     0.8100 H     1 <1>   0.0800 
 31 H       -7.3770     2.2620     0.7660 H     1 <1>   0.0800 
 32 H       -8.7960     1.5590     1.4890 H     1 <1>   0.0800 
 33 H       -9.4040    -1.9120    -0.7040 H     1 <1>   0.0800 
 34 H       -8.0240    -1.1060    -1.3930 H     1 <1>   0.0800 
 35 H       -7.9590     1.3740    -1.4080 H     1 <1>   0.0800 
 36 H       -9.3150     2.2610    -0.7720 H     1 <1>   0.0800 
 37 H      -10.7160    -0.7860    -2.3090 H     1 <1>   0.0800 
 38 H       -9.5010     0.2930    -2.9230 H     1 <1>   0.0800 
 39 H      -11.7880     1.2410    -0.3510 H     1 <1>   0.3700 
 40 H      -13.7110     2.4980    -2.1720 H     1 <1>   0.0800 
 41 H      -12.7230     3.6140    -1.2620 H     1 <1>   0.0800 
 42 H      -15.1850     0.8710    -0.9770 H     1 <1>   0.1500 
 43 H      -12.9820     3.8340     1.1610 H     1 <1>   0.1500 
 44 H      -16.5890     0.4930     1.0010 H     1 <1>   0.1500 
 45 H      -14.3850     3.4480     3.1350 H     1 <1>   0.1500 
 46 H      -16.1910     1.7810     3.0590 H     1 <1>   0.1500 
@<TRIPOS>BOND
  1   1   2  1   
  2   2   3  ar  
  3   2   4  ar  
  4   3   5  ar  
  5   3  25  1   
  6   4   6  ar  
  7   4  26  1   
  8   5   7  ar  
  9   5  27  1   
 10   6   7  ar  
 11   6  28  1   
 12   7   8  1   
 13   8   9  1   
 14   8  10  1   
 15   9  11  1   
 16   9  29  1   
 17   9  30  1   
 18  10  12  1   
 19  10  31  1   
 20  10  32  1   
 21  11  13  1   
 22  11  33  1   
 23  11  34  1   
 24  12  13  1   
 25  12  35  1   
 26  12  36  1   
 27  13  14  1   
 28  14  15  1   
 29  14  37  1   
 30  14  38  1   
 31  15  16  2   
 32  15  17  am  
 33  17  18  1   
 34  17  39  1   
 35  18  19  1   
 36  18  40  1   
 37  18  41  1   
 38  19  20  ar  
 39  19  21  ar  
 40  20  22  ar  
 41  20  42  1   
 42  21  23  ar  
 43  21  43  1   
 44  22  24  ar  
 45  22  44  1   
 46  23  24  ar  
 47  23  45  1   
 48  24  46  1   
@<TRIPOS>SUBSTRUCTURE
  1 ****  12 GROUP 4 **** **** 0

# MOE 2024.06 (io_trps.svl 2023.06)
