@<TRIPOS>MOLECULE
NONAME
50 53 1 0 0 
SMALL
USER_CHARGES


@<TRIPOS>ATOM
  1 O       -4.7260     1.3700     0.8070 O.2   1 <1>  -0.5700 
  2 C       -4.9780     0.2020     0.6630 C.2   1 <1>   0.5690 
  3 N       -6.2700    -0.1850     0.6050 N.am  1 <1>  -0.7300 
  4 C       -3.8130    -0.7580     0.5540 C.3   1 <1>  -0.0990 
  5 C       -6.9770    -1.4720     0.4590 C.3   1 <1>   0.3000 
  6 C       -2.5490     0.0250     0.1970 C.3   1 <1>   0.3430 
  7 C       -6.8800    -1.9780    -0.9930 C.3   1 <1>  -0.1600 
  8 C       -8.4590    -1.2000     0.7850 C.3   1 <1>  -0.1600 
  9 C       -6.4510    -2.5460     1.4320 C.3   1 <1>  -0.1600 
 10 N       -1.3370    -0.8490     0.1670 N.4   1 <1>  -0.9590 
 11 C       -7.6930    -3.2790    -1.1530 C.3   1 <1>  -0.0800 
 12 C       -9.2920    -2.4870     0.6310 C.3   1 <1>  -0.0800 
 13 C       -7.2670    -3.8440     1.2760 C.3   1 <1>  -0.0800 
 14 C       -0.0960     0.0020     0.0980 C.3   1 <1>   0.3430 
 15 C       -1.3520    -1.8290    -0.9780 C.3   1 <1>   0.3430 
 16 C       -9.1690    -2.9960    -0.8170 C.3   1 <1>  -0.1600 
 17 C       -7.1510    -4.3430    -0.1780 C.3   1 <1>  -0.1600 
 18 C       -8.7460    -3.5560     1.5940 C.3   1 <1>  -0.1600 
 19 C        1.1750    -0.8570    -0.0470 C.3   1 <1>   0.1200 
 20 C       -0.0260    -2.6080    -1.0740 C.3   1 <1>   0.1200 
 21 O        1.0530    -1.7210    -1.1390 O.3   1 <1>  -0.5600 
 22 H       -6.9260     0.5950     0.6880 H     1 <1>   0.3700 
 23 H       -4.0240    -1.4840    -0.2040 H     1 <1>   0.0800 
 24 H       -3.6870    -1.2380     1.5060 H     1 <1>   0.0800 
 25 H       -2.4140     0.8020     0.9340 H     1 <1>   0.0800 
 26 H       -2.6840     0.5080    -0.7590 H     1 <1>   0.0800 
 27 H       -7.2670    -1.2320    -1.6650 H     1 <1>   0.0800 
 28 H       -5.8610    -2.1730    -1.2610 H     1 <1>   0.0800 
 29 H       -8.8510    -0.4490     0.1210 H     1 <1>   0.0800 
 30 H       -8.5510    -0.8390     1.7940 H     1 <1>   0.0800 
 31 H       -6.5290    -2.1920     2.4450 H     1 <1>   0.0800 
 32 H       -5.4260    -2.7800     1.2300 H     1 <1>   0.0800 
 33 H       -1.2920    -1.3810     1.0460 H     1 <1>   0.4500 
 34 H       -7.6150    -3.6370    -2.1650 H     1 <1>   0.0800 
 35 H      -10.3250    -2.2840     0.8600 H     1 <1>   0.0800 
 36 H       -6.8930    -4.5960     1.9510 H     1 <1>   0.0800 
 37 H       -0.0160     0.6100     0.9840 H     1 <1>   0.0800 
 38 H       -0.1540     0.6630    -0.7510 H     1 <1>   0.0800 
 39 H       -1.5010    -1.3020    -1.9060 H     1 <1>   0.0800 
 40 H       -2.1630    -2.5270    -0.8590 H     1 <1>   0.0800 
 41 H       -9.7480    -3.8960    -0.9360 H     1 <1>   0.0800 
 42 H       -9.5660    -2.2630    -1.4980 H     1 <1>   0.0800 
 43 H       -6.1240    -4.5650    -0.4100 H     1 <1>   0.0800 
 44 H       -7.7110    -5.2550    -0.2920 H     1 <1>   0.0800 
 45 H       -9.3220    -4.4610     1.4970 H     1 <1>   0.0800 
 46 H       -8.8430    -3.2170     2.6110 H     1 <1>   0.0800 
 47 H        1.3570    -1.4400     0.8400 H     1 <1>   0.0800 
 48 H        2.0290    -0.2270    -0.2230 H     1 <1>   0.0800 
 49 H       -0.0110    -3.2050    -1.9690 H     1 <1>   0.0800 
 50 H        0.1090    -3.2580    -0.2270 H     1 <1>   0.0800 
@<TRIPOS>BOND
  1   1   2  2   
  2   2   3  am  
  3   2   4  1   
  4   3   5  1   
  5   3  22  1   
  6   4   6  1   
  7   4  23  1   
  8   4  24  1   
  9   5   7  1   
 10   5   8  1   
 11   5   9  1   
 12   6  10  1   
 13   6  25  1   
 14   6  26  1   
 15   7  11  1   
 16   7  27  1   
 17   7  28  1   
 18   8  12  1   
 19   8  29  1   
 20   8  30  1   
 21   9  13  1   
 22   9  31  1   
 23   9  32  1   
 24  10  14  1   
 25  10  15  1   
 26  10  33  1   
 27  11  16  1   
 28  11  17  1   
 29  11  34  1   
 30  12  16  1   
 31  12  18  1   
 32  12  35  1   
 33  13  17  1   
 34  13  18  1   
 35  13  36  1   
 36  14  19  1   
 37  14  37  1   
 38  14  38  1   
 39  15  20  1   
 40  15  39  1   
 41  15  40  1   
 42  16  41  1   
 43  16  42  1   
 44  17  43  1   
 45  17  44  1   
 46  18  45  1   
 47  18  46  1   
 48  19  21  1   
 49  19  47  1   
 50  19  48  1   
 51  20  21  1   
 52  20  49  1   
 53  20  50  1   
@<TRIPOS>SUBSTRUCTURE
  1 ****   4 GROUP 4 **** **** 0

# MOE 2024.06 (io_trps.svl 2023.06)
