@<TRIPOS>MOLECULE
NONAME
45 48 1 0 0 
SMALL
USER_CHARGES


@<TRIPOS>ATOM
  1 S       -0.0680     0.2850     0.6320 S.3   1 <1>  -0.0800 
  2 C       -1.6190    -0.4100     0.1770 C.2   1 <1>  -0.0130 
  3 C        0.8610    -1.0010    -0.1410 C.2   1 <1>  -0.0450 
  4 C       -2.8150     0.2770     0.5910 C.ar  1 <1>   0.0530 
  5 C       -1.3930    -1.5530    -0.5220 C.2   1 <1>  -0.1810 
  6 C        2.3030    -1.0220    -0.0950 C.2   1 <1>   0.7150 
  7 C       -0.0200    -1.8800    -0.6830 C.2   1 <1>  -0.1500 
  8 C       -3.8600    -0.4090     1.2070 C.ar  1 <1>  -0.1500 
  9 C       -2.9690     1.6480     0.3940 C.ar  1 <1>  -0.1500 
 10 C       -2.4550    -2.4550    -1.1250 C.3   1 <1>  -0.0590 
 11 O        2.8700    -2.1020    -0.1140 O.2   1 <1>  -0.5700 
 12 N        3.0880     0.1170    -0.0660 N.am  1 <1>  -0.6600 
 13 C       -5.0150     0.2420     1.6020 C.ar  1 <1>  -0.1500 
 14 C       -4.1200     2.3060     0.7880 C.ar  1 <1>  -0.1500 
 15 C        2.6470     1.4170    -0.6170 C.3   1 <1>   0.1400 
 16 C        4.5420     0.0200     0.1790 C.3   1 <1>   0.1400 
 17 C       -5.1470     1.6030     1.3920 C.ar  1 <1>  -0.1500 
 18 C        3.8550     2.2120    -1.1220 C.3   1 <1>  -0.1600 
 19 C        5.0730     1.3730     0.6830 C.3   1 <1>  -0.1600 
 20 C        4.7510     2.7890     0.0440 C.3   1 <1>   0.5600 
 21 O        5.4880     3.3600     1.1010 O.3   1 <1>  -0.5600 
 22 O        4.5260     4.0750    -0.4800 O.3   1 <1>  -0.5600 
 23 C        6.4220     4.2540     0.6270 C.3   1 <1>   0.1200 
 24 C        5.7030     4.7840    -0.5670 C.3   1 <1>   0.1200 
 25 H        0.2850    -2.7730    -1.2010 H     1 <1>   0.1500 
 26 H       -3.7590    -1.4640     1.3830 H     1 <1>   0.1500 
 27 H       -2.1770     2.2010    -0.0770 H     1 <1>   0.1500 
 28 H       -3.4270    -2.0010    -1.0610 H     1 <1>   0.0800 
 29 H       -2.4740    -3.3960    -0.6060 H     1 <1>   0.0800 
 30 H       -2.2360    -2.6340    -2.1620 H     1 <1>   0.0800 
 31 H       -5.8100    -0.3070     2.0750 H     1 <1>   0.1500 
 32 H       -4.2170     3.3650     0.6240 H     1 <1>   0.1500 
 33 H        2.1430     1.9840     0.1480 H     1 <1>   0.0800 
 34 H        1.9600     1.2450    -1.4290 H     1 <1>   0.0800 
 35 H        5.0370    -0.2690    -0.7330 H     1 <1>   0.0800 
 36 H        4.7370    -0.7420     0.9160 H     1 <1>   0.0800 
 37 H       -6.0440     2.1140     1.6980 H     1 <1>   0.1500 
 38 H        3.4090     2.9360    -1.7920 H     1 <1>   0.0800 
 39 H        4.4520     1.6130    -1.7850 H     1 <1>   0.0800 
 40 H        6.1420     1.2490     0.7020 H     1 <1>   0.0800 
 41 H        4.7410     1.3930     1.7100 H     1 <1>   0.0800 
 42 H        7.3250     3.7320     0.3640 H     1 <1>   0.0800 
 43 H        6.6060     5.0070     1.3720 H     1 <1>   0.0800 
 44 H        5.4940     5.8360    -0.4980 H     1 <1>   0.0800 
 45 H        6.2050     4.5420    -1.4880 H     1 <1>   0.0800 
@<TRIPOS>BOND
  1   1   2  1   
  2   1   3  1   
  3   2   4  1   
  4   2   5  2   
  5   3   6  1   
  6   3   7  2   
  7   4   8  ar  
  8   4   9  ar  
  9   5   7  1   
 10   5  10  1   
 11   6  11  2   
 12   6  12  am  
 13   7  25  1   
 14   8  13  ar  
 15   8  26  1   
 16   9  14  ar  
 17   9  27  1   
 18  10  28  1   
 19  10  29  1   
 20  10  30  1   
 21  12  15  1   
 22  12  16  1   
 23  13  17  ar  
 24  13  31  1   
 25  14  17  ar  
 26  14  32  1   
 27  15  18  1   
 28  15  33  1   
 29  15  34  1   
 30  16  19  1   
 31  16  35  1   
 32  16  36  1   
 33  17  37  1   
 34  18  20  1   
 35  18  38  1   
 36  18  39  1   
 37  19  20  1   
 38  19  40  1   
 39  19  41  1   
 40  20  21  1   
 41  20  22  1   
 42  21  23  1   
 43  22  24  1   
 44  23  24  1   
 45  23  42  1   
 46  23  43  1   
 47  24  44  1   
 48  24  45  1   
@<TRIPOS>SUBSTRUCTURE
  1 ****   1 GROUP 4 **** **** 0

# MOE 2024.06 (io_trps.svl 2023.06)
