@<TRIPOS>MOLECULE
NONAME
31 33 1 0 0 
SMALL
USER_CHARGES


@<TRIPOS>ATOM
  1 N       -1.8430     3.0640    -0.4410 N.2   1 <1>  -0.4180 
  2 N       -2.6300     2.0450    -0.4030 N.2   1 <1>  -0.2270 
  3 N       -2.5570     4.1980    -0.2750 N.pl3 1 <1>   0.5930 
  4 C       -3.8620     2.5070    -0.2050 C.2   1 <1>   0.0460 
  5 C       -2.0070     5.5060    -0.2150 C.ar  1 <1>  -0.0230 
  6 C       -3.8450     3.8390    -0.1170 C.2   1 <1>  -0.3320 
  7 C       -5.1080     1.6490    -0.0860 C.3   1 <1>   0.5240 
  8 C       -1.0490     5.8220     0.7430 C.ar  1 <1>  -0.1500 
  9 C       -2.4210     6.4960    -1.1020 C.ar  1 <1>  -0.1500 
 10 C       -5.0740     4.6930     0.1360 C.3   1 <1>   0.0200 
 11 N       -6.3330     2.5230    -0.2450 N.4   1 <1>  -0.9590 
 12 C       -0.5300     7.1020     0.8240 C.ar  1 <1>  -0.1500 
 13 C       -1.9010     7.7750    -1.0210 C.ar  1 <1>  -0.1500 
 14 C       -6.2490     3.7900     0.5750 C.3   1 <1>   0.3430 
 15 C       -7.5810     1.7560     0.0470 C.3   1 <1>   0.2630 
 16 C       -0.9570     8.0800    -0.0560 C.ar  1 <1>  -0.1500 
 17 H       -5.1080     1.1690     0.8780 H     1 <1>   0.0800 
 18 H       -5.0900     0.8890    -0.8500 H     1 <1>   0.0800 
 19 H       -0.7050     5.0640     1.4270 H     1 <1>   0.1500 
 20 H       -3.1440     6.2710    -1.8660 H     1 <1>   0.1500 
 21 H       -5.3380     5.2300    -0.7580 H     1 <1>   0.0800 
 22 H       -4.8730     5.4160     0.9090 H     1 <1>   0.0800 
 23 H       -6.3390     2.8080    -1.2360 H     1 <1>   0.4500 
 24 H        0.2110     7.3370     1.5700 H     1 <1>   0.1500 
 25 H       -2.2250     8.5370    -1.7100 H     1 <1>   0.1500 
 26 H       -7.1690     4.3470     0.4940 H     1 <1>   0.0800 
 27 H       -6.1110     3.5280     1.6120 H     1 <1>   0.0800 
 28 H       -7.5940     1.4370     1.0770 H     1 <1>   0.0800 
 29 H       -7.6450     0.8840    -0.5850 H     1 <1>   0.0800 
 30 H       -8.4490     2.3700    -0.1330 H     1 <1>   0.0800 
 31 H       -0.5520     9.0750     0.0070 H     1 <1>   0.1500 
@<TRIPOS>BOND
  1   1   2  2   
  2   1   3  1   
  3   2   4  1   
  4   3   5  1   
  5   3   6  1   
  6   4   6  2   
  7   4   7  1   
  8   5   8  ar  
  9   5   9  ar  
 10   6  10  1   
 11   7  11  1   
 12   7  17  1   
 13   7  18  1   
 14   8  12  ar  
 15   8  19  1   
 16   9  13  ar  
 17   9  20  1   
 18  10  14  1   
 19  10  21  1   
 20  10  22  1   
 21  11  14  1   
 22  11  15  1   
 23  11  23  1   
 24  12  16  ar  
 25  12  24  1   
 26  13  16  ar  
 27  13  25  1   
 28  14  26  1   
 29  14  27  1   
 30  15  28  1   
 31  15  29  1   
 32  15  30  1   
 33  16  31  1   
@<TRIPOS>SUBSTRUCTURE
  1 ****   6 GROUP 4 **** **** 0

# MOE 2024.06 (io_trps.svl 2023.06)
