@<TRIPOS>MOLECULE
NONAME
47 48 1 0 0 
SMALL
USER_CHARGES


@<TRIPOS>ATOM
  1 O       -0.2300    -1.3530    -0.2510 O.3   1 <1>  -0.3630 
  2 C       -1.4740    -1.2470     0.2890 C.ar  1 <1>   0.0830 
  3 C        0.9280    -1.0350     0.4850 C.3   1 <1>   0.1200 
  4 C       -2.5580    -1.5840    -0.5180 C.ar  1 <1>  -0.1440 
  5 C       -1.6970    -0.8200     1.5970 C.ar  1 <1>  -0.1500 
  6 C        2.1410    -1.2650    -0.4180 C.3   1 <1>  -0.1600 
  7 C       -3.8450    -1.4920    -0.0130 C.ar  1 <1>  -0.1500 
  8 C       -2.3400    -2.0530    -1.9500 C.3   1 <1>  -0.0970 
  9 C       -2.9860    -0.7320     2.0910 C.ar  1 <1>  -0.1500 
 10 C        3.4530    -0.9410     0.3090 C.3   1 <1>  -0.1600 
 11 C       -4.0600    -1.0680     1.2870 C.ar  1 <1>  -0.1500 
 12 C        4.6610    -1.1740    -0.6080 C.3   1 <1>  -0.1600 
 13 C        5.9780    -0.8500     0.1120 C.3   1 <1>  -0.1600 
 14 C        7.1740    -1.0810    -0.8140 C.3   1 <1>   0.3430 
 15 N        8.4380    -0.6860    -0.1350 N.4   1 <1>  -0.9590 
 16 C        9.6000    -0.6620    -1.0560 C.3   1 <1>   0.3430 
 17 C        8.8320    -1.5760     0.9870 C.3   1 <1>   0.3430 
 18 C       10.8120    -0.7020    -0.1360 C.3   1 <1>  -0.1600 
 19 C       10.3170    -1.3050     1.1830 C.3   1 <1>  -0.1600 
 20 H        0.9660    -1.6760     1.3480 H     1 <1>   0.0800 
 21 H        0.8640    -0.0030     0.7850 H     1 <1>   0.0800 
 22 H       -0.8850    -0.5530     2.2440 H     1 <1>   0.1500 
 23 H        2.0460    -0.6400    -1.2890 H     1 <1>   0.0800 
 24 H        2.1460    -2.2950    -0.7330 H     1 <1>   0.0800 
 25 H       -4.6890    -1.7500    -0.6280 H     1 <1>   0.1500 
 26 H       -1.7330    -2.9400    -1.9520 H     1 <1>   0.0800 
 27 H       -1.8330    -1.2870    -2.5090 H     1 <1>   0.0800 
 28 H       -3.2740    -2.2730    -2.4350 H     1 <1>   0.0800 
 29 H       -3.1550    -0.4020     3.1010 H     1 <1>   0.1500 
 30 H        3.5370    -1.5640     1.1840 H     1 <1>   0.0800 
 31 H        3.4350     0.0870     0.6290 H     1 <1>   0.0800 
 32 H       -5.0630    -0.9990     1.6710 H     1 <1>   0.1500 
 33 H        4.5630    -0.5530    -1.4830 H     1 <1>   0.0800 
 34 H        4.6650    -2.2030    -0.9300 H     1 <1>   0.0800 
 35 H        6.0570    -1.4790     0.9810 H     1 <1>   0.0800 
 36 H        5.9580     0.1790     0.4250 H     1 <1>   0.0800 
 37 H        7.0440    -0.4880    -1.7050 H     1 <1>   0.0800 
 38 H        7.2180    -2.1190    -1.1040 H     1 <1>   0.0800 
 39 H        8.3290     0.2630     0.2460 H     1 <1>   0.4500 
 40 H        9.6000     0.2180    -1.6800 H     1 <1>   0.0800 
 41 H        9.5920    -1.5430    -1.6770 H     1 <1>   0.0800 
 42 H        8.6890    -2.6060     0.7030 H     1 <1>   0.0800 
 43 H        8.2660    -1.3680     1.8810 H     1 <1>   0.0800 
 44 H       11.1820     0.2970     0.0230 H     1 <1>   0.0800 
 45 H       11.5990    -1.2910    -0.5750 H     1 <1>   0.0800 
 46 H       10.8350    -2.2170     1.4250 H     1 <1>   0.0800 
 47 H       10.4580    -0.6080     1.9910 H     1 <1>   0.0800 
@<TRIPOS>BOND
  1   1   2  1   
  2   1   3  1   
  3   2   4  ar  
  4   2   5  ar  
  5   3   6  1   
  6   3  20  1   
  7   3  21  1   
  8   4   7  ar  
  9   4   8  1   
 10   5   9  ar  
 11   5  22  1   
 12   6  10  1   
 13   6  23  1   
 14   6  24  1   
 15   7  11  ar  
 16   7  25  1   
 17   8  26  1   
 18   8  27  1   
 19   8  28  1   
 20   9  11  ar  
 21   9  29  1   
 22  10  12  1   
 23  10  30  1   
 24  10  31  1   
 25  11  32  1   
 26  12  13  1   
 27  12  33  1   
 28  12  34  1   
 29  13  14  1   
 30  13  35  1   
 31  13  36  1   
 32  14  15  1   
 33  14  37  1   
 34  14  38  1   
 35  15  16  1   
 36  15  17  1   
 37  15  39  1   
 38  16  18  1   
 39  16  40  1   
 40  16  41  1   
 41  17  19  1   
 42  17  42  1   
 43  17  43  1   
 44  18  19  1   
 45  18  44  1   
 46  18  45  1   
 47  19  46  1   
 48  19  47  1   
@<TRIPOS>SUBSTRUCTURE
  1 ****  10 GROUP 4 **** **** 0

# MOE 2024.06 (io_trps.svl 2023.06)
