@<TRIPOS>MOLECULE
NONAME
48 49 1 0 0 
SMALL
USER_CHARGES


@<TRIPOS>ATOM
  1 BR       0.3740    -0.1150    -1.5100 Br    1 <1>  -0.1110 
  2 C        2.0390    -0.7980    -0.7980 C.ar  1 <1>   0.1110 
  3 C        2.5180    -0.2770     0.3970 C.ar  1 <1>  -0.1440 
  4 C        2.7060    -1.7920    -1.5030 C.ar  1 <1>  -0.1440 
  5 C        3.7120    -0.7730     0.8970 C.ar  1 <1>  -0.1500 
  6 C        1.7630     0.8090     1.1510 C.3   1 <1>  -0.0960 
  7 C        3.8960    -2.2690    -0.9810 C.ar  1 <1>  -0.1500 
  8 C        2.1620    -2.3530    -2.8080 C.3   1 <1>  -0.0960 
  9 C        4.4050    -1.7670     0.2070 C.ar  1 <1>   0.0830 
 10 O        5.5820    -2.2920     0.6280 O.3   1 <1>  -0.3630 
 11 C        6.2740    -1.7470     1.7420 C.3   1 <1>   0.1810 
 12 C        7.6430    -2.4000     1.9250 C.2   1 <1>   0.5690 
 13 O        7.8330    -2.9810     2.9690 O.2   1 <1>  -0.5700 
 14 N        8.6280    -2.3020     0.9660 N.am  1 <1>  -0.6600 
 15 C        8.4720    -1.6110    -0.3450 C.3   1 <1>   0.1400 
 16 C        9.9570    -2.9450     1.1600 C.3   1 <1>   0.1400 
 17 C        9.5610    -0.5460    -0.4940 C.3   1 <1>  -0.1600 
 18 C       11.0610    -1.8930     1.0270 C.3   1 <1>  -0.1600 
 19 C       10.9740    -1.1420    -0.3150 C.3   1 <1>  -0.0190 
 20 C       12.0790    -0.0920    -0.4290 C.2   1 <1>   0.6590 
 21 O       11.8610     1.0920    -0.3790 O.2   1 <1>  -0.5700 
 22 O       13.3050    -0.5740    -0.5890 O.3   1 <1>  -0.4300 
 23 C       14.4200     0.2790    -0.6990 C.3   1 <1>   0.1200 
 24 C       15.6650    -0.5880    -0.8570 C.3   1 <1>  -0.2400 
 25 H        4.0860    -0.3810     1.8220 H     1 <1>   0.1500 
 26 H        1.6630     1.6840     0.5340 H     1 <1>   0.0800 
 27 H        2.2800     1.0870     2.0510 H     1 <1>   0.0800 
 28 H        0.7830     0.4560     1.4180 H     1 <1>   0.0800 
 29 H        4.4470    -3.0400    -1.4900 H     1 <1>   0.1500 
 30 H        1.1930    -2.7910    -2.6450 H     1 <1>   0.0800 
 31 H        2.8140    -3.1110    -3.2020 H     1 <1>   0.0800 
 32 H        2.0720    -1.5690    -3.5380 H     1 <1>   0.0800 
 33 H        5.6790    -1.9180     2.6200 H     1 <1>   0.0800 
 34 H        6.4020    -0.6930     1.5870 H     1 <1>   0.0800 
 35 H        7.5090    -1.1420    -0.4330 H     1 <1>   0.0800 
 36 H        8.5570    -2.3380    -1.1340 H     1 <1>   0.0800 
 37 H       10.0850    -3.7130     0.4170 H     1 <1>   0.0800 
 38 H       10.0200    -3.4100     2.1300 H     1 <1>   0.0800 
 39 H        9.3950     0.2250     0.2390 H     1 <1>   0.0800 
 40 H        9.4820    -0.0920    -1.4660 H     1 <1>   0.0800 
 41 H       12.0170    -2.3780     1.1110 H     1 <1>   0.0800 
 42 H       10.9750    -1.1960     1.8430 H     1 <1>   0.0800 
 43 H       11.1360    -1.8500    -1.1070 H     1 <1>   0.0800 
 44 H       14.4780     0.8820     0.1920 H     1 <1>   0.0800 
 45 H       14.2790     0.9160    -1.5570 H     1 <1>   0.0800 
 46 H       15.7840    -1.2250     0.0010 H     1 <1>   0.0800 
 47 H       16.5340     0.0390    -0.9420 H     1 <1>   0.0800 
 48 H       15.5880    -1.1890    -1.7450 H     1 <1>   0.0800 
@<TRIPOS>BOND
  1   1   2  1   
  2   2   3  ar  
  3   2   4  ar  
  4   3   5  ar  
  5   3   6  1   
  6   4   7  ar  
  7   4   8  1   
  8   5   9  ar  
  9   5  25  1   
 10   6  26  1   
 11   6  27  1   
 12   6  28  1   
 13   7   9  ar  
 14   7  29  1   
 15   8  30  1   
 16   8  31  1   
 17   8  32  1   
 18   9  10  1   
 19  10  11  1   
 20  11  12  1   
 21  11  33  1   
 22  11  34  1   
 23  12  13  2   
 24  12  14  am  
 25  14  15  1   
 26  14  16  1   
 27  15  17  1   
 28  15  35  1   
 29  15  36  1   
 30  16  18  1   
 31  16  37  1   
 32  16  38  1   
 33  17  19  1   
 34  17  39  1   
 35  17  40  1   
 36  18  19  1   
 37  18  41  1   
 38  18  42  1   
 39  19  20  1   
 40  19  43  1   
 41  20  21  2   
 42  20  22  1   
 43  22  23  1   
 44  23  24  1   
 45  23  44  1   
 46  23  45  1   
 47  24  46  1   
 48  24  47  1   
 49  24  48  1   
@<TRIPOS>SUBSTRUCTURE
  1 ****  15 GROUP 4 **** **** 0

# MOE 2024.06 (io_trps.svl 2023.06)
