@<TRIPOS>MOLECULE
NONAME
39 41 1 0 0 
SMALL
USER_CHARGES


@<TRIPOS>ATOM
  1 S        0.8720    -0.6070     1.5590 S.3   1 <1>  -0.3710 
  2 C        1.3010     0.7570     0.5110 C.2   1 <1>   0.6410 
  3 C       -0.1000    -1.7880     0.4900 C.3   1 <1>   0.1310 
  4 N        0.8570     0.8130    -0.6880 N.2   1 <1>  -0.6610 
  5 N        2.0960     1.6800     1.1100 N.pl3 1 <1>  -0.5500 
  6 C       -1.4390    -2.1250     1.1330 C.2   1 <1>   0.5690 
  7 C        1.2290     1.9110    -1.4090 C.2   1 <1>   0.7670 
  8 C        2.5070     2.7900     0.4270 C.2   1 <1>  -0.0380 
  9 O       -1.5100    -3.1720     1.7330 O.2   1 <1>  -0.5700 
 10 N       -2.5240    -1.2920     1.0170 N.am  1 <1>  -0.6600 
 11 O        0.8080     2.0200    -2.5490 O.2   1 <1>  -0.5700 
 12 C        2.0710     2.9100    -0.8470 C.2   1 <1>  -0.1360 
 13 C        3.4040     3.7810     1.1420 C.3   1 <1>  -0.1020 
 14 C       -3.8580    -1.7130     1.5360 C.3   1 <1>   0.2840 
 15 C       -2.5210     0.0550     0.3880 C.3   1 <1>   0.1400 
 16 C       -5.0060    -1.3040     0.6100 C.ar  1 <1>  -0.1430 
 17 C       -3.4250     0.0390    -0.8430 C.3   1 <1>  -0.0170 
 18 C       -4.8120    -0.4820    -0.4970 C.ar  1 <1>  -0.1430 
 19 C       -6.2820    -1.7680     0.8950 C.ar  1 <1>  -0.1500 
 20 C       -5.8890    -0.1390    -1.2990 C.ar  1 <1>  -0.1500 
 21 C       -7.3540    -1.4210     0.0920 C.ar  1 <1>  -0.1500 
 22 C       -7.1580    -0.6050    -1.0060 C.ar  1 <1>  -0.1500 
 23 H        0.4950    -2.6780     0.4010 H     1 <1>   0.0800 
 24 H       -0.2430    -1.3670    -0.4850 H     1 <1>   0.0800 
 25 H        2.3720     1.4940     2.0770 H     1 <1>   0.4000 
 26 H        2.3250     3.7360    -1.4820 H     1 <1>   0.1500 
 27 H        2.9050     4.1700     2.0120 H     1 <1>   0.0800 
 28 H        3.6510     4.6020     0.4930 H     1 <1>   0.0800 
 29 H        4.3160     3.3000     1.4470 H     1 <1>   0.0800 
 30 H       -4.0080    -1.2620     2.5010 H     1 <1>   0.0800 
 31 H       -3.8830    -2.7810     1.6620 H     1 <1>   0.0800 
 32 H       -1.5330     0.3570     0.1050 H     1 <1>   0.0800 
 33 H       -2.8960     0.7720     1.0980 H     1 <1>   0.0800 
 34 H       -2.9870    -0.5880    -1.5980 H     1 <1>   0.0800 
 35 H       -3.4940     1.0360    -1.2380 H     1 <1>   0.0800 
 36 H       -6.4470    -2.4040     1.7460 H     1 <1>   0.1500 
 37 H       -5.7430     0.4930    -2.1580 H     1 <1>   0.1500 
 38 H       -8.3400    -1.7870     0.3220 H     1 <1>   0.1500 
 39 H       -7.9890    -0.3350    -1.6330 H     1 <1>   0.1500 
@<TRIPOS>BOND
  1   1   2  1   
  2   1   3  1   
  3   2   4  2   
  4   2   5  1   
  5   3   6  1   
  6   3  23  1   
  7   3  24  1   
  8   4   7  1   
  9   5   8  1   
 10   5  25  1   
 11   6   9  2   
 12   6  10  am  
 13   7  11  2   
 14   7  12  1   
 15   8  12  2   
 16   8  13  1   
 17  10  14  1   
 18  10  15  1   
 19  12  26  1   
 20  13  27  1   
 21  13  28  1   
 22  13  29  1   
 23  14  16  1   
 24  14  30  1   
 25  14  31  1   
 26  15  17  1   
 27  15  32  1   
 28  15  33  1   
 29  16  18  ar  
 30  16  19  ar  
 31  17  18  1   
 32  17  34  1   
 33  17  35  1   
 34  18  20  ar  
 35  19  21  ar  
 36  19  36  1   
 37  20  22  ar  
 38  20  37  1   
 39  21  22  ar  
 40  21  38  1   
 41  22  39  1   
@<TRIPOS>SUBSTRUCTURE
  1 ****  15 GROUP 4 **** **** 0

# MOE 2024.06 (io_trps.svl 2023.06)
