@<TRIPOS>MOLECULE
NONAME
34 35 1 0 0 
SMALL
USER_CHARGES


@<TRIPOS>ATOM
  1 BR      -1.8680     1.1170     3.2720 Br    1 <1>  -0.1110 
  2 C       -2.4520     1.4900     1.4780 C.ar  1 <1>   0.1110 
  3 C       -3.5290     0.7860     0.9740 C.ar  1 <1>  -0.1500 
  4 C       -1.7840     2.4500     0.7440 C.ar  1 <1>  -0.1500 
  5 C       -3.9610     1.0570    -0.3180 C.ar  1 <1>  -0.1440 
  6 C       -2.2130     2.7090    -0.5460 C.ar  1 <1>  -0.1500 
  7 C       -3.2930     2.0160    -1.0730 C.ar  1 <1>  -0.1500 
  8 C       -5.1520     0.3180    -0.8990 C.3   1 <1>   0.4870 
  9 N       -6.3870     0.7830    -0.2110 N.4   1 <1>  -0.9590 
 10 C       -7.5190    -0.1390    -0.4970 C.3   1 <1>   0.3430 
 11 C       -6.6710     2.2160    -0.5200 C.3   1 <1>   0.3430 
 12 C       -8.7290     0.1360     0.3980 C.3   1 <1>  -0.1600 
 13 C       -7.3860     2.8650     0.6640 C.3   1 <1>  -0.1600 
 14 C       -9.4750     1.4250     0.0290 C.3   1 <1>  -0.1600 
 15 C       -8.9150     2.6940     0.6870 C.3   1 <1>  -0.1600 
 16 H       -4.0000     0.0440     1.5940 H     1 <1>   0.1500 
 17 H       -0.9480     2.9770     1.1710 H     1 <1>   0.1500 
 18 H       -1.7010     3.4500    -1.1390 H     1 <1>   0.1500 
 19 H       -3.6000     2.2360    -2.0820 H     1 <1>   0.1500 
 20 H       -5.0160    -0.7400    -0.7420 H     1 <1>   0.0800 
 21 H       -5.2220     0.4990    -1.9590 H     1 <1>   0.0800 
 22 H       -6.1890     0.7420     0.7950 H     1 <1>   0.4500 
 23 H       -7.1990    -1.1550    -0.3270 H     1 <1>   0.0800 
 24 H       -7.8120    -0.0530    -1.5310 H     1 <1>   0.0800 
 25 H       -7.2590     2.3100    -1.4190 H     1 <1>   0.0800 
 26 H       -5.7420     2.7420    -0.6690 H     1 <1>   0.0800 
 27 H       -8.4530     0.1300     1.4380 H     1 <1>   0.0800 
 28 H       -9.4140    -0.6830     0.2540 H     1 <1>   0.0800 
 29 H       -7.1820     3.9220     0.6340 H     1 <1>   0.0800 
 30 H       -6.9620     2.5040     1.5850 H     1 <1>   0.0800 
 31 H      -10.5020     1.3280     0.3420 H     1 <1>   0.0800 
 32 H       -9.4930     1.5440    -1.0420 H     1 <1>   0.0800 
 33 H       -9.3650     3.5410     0.1960 H     1 <1>   0.0800 
 34 H       -9.2420     2.7290     1.7130 H     1 <1>   0.0800 
@<TRIPOS>BOND
  1   1   2  1   
  2   2   3  ar  
  3   2   4  ar  
  4   3   5  ar  
  5   3  16  1   
  6   4   6  ar  
  7   4  17  1   
  8   5   7  ar  
  9   5   8  1   
 10   6   7  ar  
 11   6  18  1   
 12   7  19  1   
 13   8   9  1   
 14   8  20  1   
 15   8  21  1   
 16   9  10  1   
 17   9  11  1   
 18   9  22  1   
 19  10  12  1   
 20  10  23  1   
 21  10  24  1   
 22  11  13  1   
 23  11  25  1   
 24  11  26  1   
 25  12  14  1   
 26  12  27  1   
 27  12  28  1   
 28  13  15  1   
 29  13  29  1   
 30  13  30  1   
 31  14  15  1   
 32  14  31  1   
 33  14  32  1   
 34  15  33  1   
 35  15  34  1   
@<TRIPOS>SUBSTRUCTURE
  1 ****   9 GROUP 4 **** **** 0

# MOE 2024.06 (io_trps.svl 2023.06)
