@<TRIPOS>MOLECULE
NONAME
44 46 1 0 0 
SMALL
USER_CHARGES


@<TRIPOS>ATOM
  1 O        0.2000     0.2630    -1.2450 O.2   1 <1>  -0.5700 
  2 C        0.7610     1.2430    -0.7230 C.2   1 <1>   0.6160 
  3 N        2.1180     1.4140    -0.6220 N.am  1 <1>  -0.1570 
  4 C        0.1180     2.3680    -0.1550 C.2   1 <1>   0.1230 
  5 N        2.3210     2.6920    -0.0070 N.pl3 1 <1>  -0.4890 
  6 C        3.0150     0.3470    -0.4080 C.ar  1 <1>   0.1170 
  7 N       -1.3040     2.4920    -0.0820 N.am  1 <1>  -0.5390 
  8 C        1.0940     3.2340     0.2420 C.2   1 <1>  -0.0380 
  9 C        3.5580     3.4550    -0.3030 C.3   1 <1>   0.1290 
 10 C        3.6870     0.1970     0.8020 C.ar  1 <1>  -0.1500 
 11 C        3.2490    -0.5830    -1.4150 C.ar  1 <1>  -0.1500 
 12 C       -2.0750     2.8450     0.9800 C.2   1 <1>   0.5690 
 13 C        0.9440     4.6240     0.8380 C.3   1 <1>  -0.1020 
 14 C        4.5780    -0.8440     0.9950 C.ar  1 <1>  -0.1500 
 15 C        4.1380    -1.6250    -1.2270 C.ar  1 <1>  -0.1500 
 16 O       -1.6220     3.2700     2.0170 O.2   1 <1>  -0.5700 
 17 C       -3.5840     2.7170     0.8360 C.3   1 <1>   0.0390 
 18 C        4.8060    -1.7560    -0.0210 C.ar  1 <1>  -0.1500 
 19 C       -4.0680     1.4620     0.1030 C.2   1 <1>  -0.2760 
 20 C       -3.4340     0.3310    -0.1880 C.2   1 <1>  -0.2880 
 21 C       -5.5010     1.4420    -0.3740 C.3   1 <1>  -0.0220 
 22 C       -4.2980    -0.6590    -0.9230 C.3   1 <1>  -0.0220 
 23 C       -5.6210     0.1010    -1.1240 C.3   1 <1>  -0.1600 
 24 H       -1.8060     1.9410    -0.7860 H     1 <1>   0.3700 
 25 H        3.7260     4.1880     0.4640 H     1 <1>   0.0800 
 26 H        4.4000     2.7860    -0.3360 H     1 <1>   0.0800 
 27 H        3.4590     3.9450    -1.2550 H     1 <1>   0.0800 
 28 H        3.5050     0.9010     1.5950 H     1 <1>   0.1500 
 29 H        2.7240    -0.4850    -2.3490 H     1 <1>   0.1500 
 30 H        1.2810     4.6160     1.8580 H     1 <1>   0.0800 
 31 H       -0.0820     4.9370     0.8180 H     1 <1>   0.0800 
 32 H        1.5200     5.3370     0.2790 H     1 <1>   0.0800 
 33 H        5.0910    -0.9470     1.9350 H     1 <1>   0.1500 
 34 H        4.3090    -2.3360    -2.0170 H     1 <1>   0.1500 
 35 H       -3.9230     3.5870     0.3050 H     1 <1>   0.0800 
 36 H       -4.0270     2.7410     1.8150 H     1 <1>   0.0800 
 37 H        5.4980    -2.5670     0.1270 H     1 <1>   0.1500 
 38 H       -2.4220     0.0290     0.0340 H     1 <1>   0.1500 
 39 H       -5.7040     2.2680    -1.0330 H     1 <1>   0.0800 
 40 H       -6.1740     1.4720     0.4660 H     1 <1>   0.0800 
 41 H       -4.4430    -1.5420    -0.3240 H     1 <1>   0.0800 
 42 H       -3.8540    -0.9280    -1.8660 H     1 <1>   0.0800 
 43 H       -5.7730     0.2870    -2.1730 H     1 <1>   0.0800 
 44 H       -6.4500    -0.4730    -0.7490 H     1 <1>   0.0800 
@<TRIPOS>BOND
  1   1   2  2   
  2   2   3  am  
  3   2   4  1   
  4   3   5  1   
  5   3   6  1   
  6   4   7  1   
  7   4   8  2   
  8   5   8  1   
  9   5   9  1   
 10   6  10  ar  
 11   6  11  ar  
 12   7  12  am  
 13   7  24  1   
 14   8  13  1   
 15   9  25  1   
 16   9  26  1   
 17   9  27  1   
 18  10  14  ar  
 19  10  28  1   
 20  11  15  ar  
 21  11  29  1   
 22  12  16  2   
 23  12  17  1   
 24  13  30  1   
 25  13  31  1   
 26  13  32  1   
 27  14  18  ar  
 28  14  33  1   
 29  15  18  ar  
 30  15  34  1   
 31  17  19  1   
 32  17  35  1   
 33  17  36  1   
 34  18  37  1   
 35  19  20  2   
 36  19  21  1   
 37  20  22  1   
 38  20  38  1   
 39  21  23  1   
 40  21  39  1   
 41  21  40  1   
 42  22  23  1   
 43  22  41  1   
 44  22  42  1   
 45  23  43  1   
 46  23  44  1   
@<TRIPOS>SUBSTRUCTURE
  1 ****   2 GROUP 4 **** **** 0

# MOE 2024.06 (io_trps.svl 2023.06)
