@<TRIPOS>MOLECULE
NONAME
51 53 1 0 0 
SMALL
USER_CHARGES


@<TRIPOS>ATOM
  1 CL      -4.8670    -3.6070     1.9830 Cl    1 <1>  -0.1770 
  2 C       -4.5570    -2.1920     1.0040 C.ar  1 <1>   0.1770 
  3 C       -3.2980    -1.9820     0.4600 C.ar  1 <1>  -0.1440 
  4 C       -5.5950    -1.3060     0.7940 C.ar  1 <1>  -0.1500 
  5 C       -3.0980    -0.8460    -0.3090 C.ar  1 <1>  -0.1500 
  6 C       -2.1600    -2.9650     0.6940 C.3   1 <1>  -0.0960 
  7 C       -5.3970    -0.1690     0.0230 C.ar  1 <1>   0.1170 
  8 C       -4.1340     0.0470    -0.5220 C.ar  1 <1>  -0.1500 
  9 N       -6.4720     0.7130    -0.1580 N.am  1 <1>  -0.5470 
 10 C       -6.7360     1.6430    -1.1330 C.2   1 <1>   0.5690 
 11 O       -6.0050     1.8050    -2.0810 O.2   1 <1>  -0.5700 
 12 C       -8.0280     2.4860    -0.9770 C.3   1 <1>   0.2040 
 13 C       -9.1250     1.5580    -0.3950 C.ar  1 <1>  -0.1430 
 14 C       -7.7200     3.6890    -0.0520 C.3   1 <1>  -0.1600 
 15 C       -8.5390     3.0630    -2.3230 C.3   1 <1>  -0.1600 
 16 C       -9.7050     1.7430     0.8590 C.ar  1 <1>  -0.1500 
 17 C       -9.5380     0.4610    -1.1470 C.ar  1 <1>  -0.1500 
 18 C       -6.8320     4.7230    -0.7460 C.3   1 <1>   0.1200 
 19 C       -7.6730     4.2100    -2.8670 C.3   1 <1>   0.1200 
 20 C      -10.6660     0.8730     1.3430 C.ar  1 <1>   0.0830 
 21 C      -10.4890    -0.4220    -0.6670 C.ar  1 <1>  -0.1500 
 22 O       -7.5010     5.1740    -1.8780 O.3   1 <1>  -0.5600 
 23 O      -11.1980     1.1500     2.5580 O.3   1 <1>  -0.3620 
 24 C      -11.0480    -0.2360     0.5830 C.ar  1 <1>   0.0830 
 25 C      -12.5660     1.4960     2.5770 C.3   1 <1>   0.0400 
 26 O      -11.9480    -1.1550     1.0110 O.3   1 <1>  -0.3630 
 27 C      -11.5730    -1.9340     2.1260 C.3   1 <1>   0.0400 
 28 H       -6.5530    -1.5090     1.2320 H     1 <1>   0.1500 
 29 H       -2.1350    -0.6490    -0.7480 H     1 <1>   0.1500 
 30 H       -1.9580    -3.0490     1.7470 H     1 <1>   0.0800 
 31 H       -1.2620    -2.6430     0.1990 H     1 <1>   0.0800 
 32 H       -2.4290    -3.9350     0.3150 H     1 <1>   0.0800 
 33 H       -3.9510     0.9230    -1.1180 H     1 <1>   0.1500 
 34 H       -7.2550     0.5690     0.4840 H     1 <1>   0.3700 
 35 H       -7.2370     3.3550     0.8490 H     1 <1>   0.0800 
 36 H       -8.6320     4.1910     0.2190 H     1 <1>   0.0800 
 37 H       -9.5380     3.4400    -2.1900 H     1 <1>   0.0800 
 38 H       -8.5820     2.2910    -3.0680 H     1 <1>   0.0800 
 39 H       -9.4380     2.5630     1.4990 H     1 <1>   0.1500 
 40 H       -9.1160     0.2730    -2.1200 H     1 <1>   0.1500 
 41 H       -5.8790     4.3140    -1.0400 H     1 <1>   0.0800 
 42 H       -6.6670     5.5720    -0.1050 H     1 <1>   0.0800 
 43 H       -8.1600     4.6820    -3.7020 H     1 <1>   0.0800 
 44 H       -6.7030     3.8690    -3.1870 H     1 <1>   0.0800 
 45 H      -10.7970    -1.2660    -1.2580 H     1 <1>   0.1500 
 46 H      -12.8260     1.7860     3.5790 H     1 <1>   0.0800 
 47 H      -13.1540     0.6470     2.2780 H     1 <1>   0.0800 
 48 H      -12.7260     2.3170     1.9010 H     1 <1>   0.0800 
 49 H      -12.3330    -2.6770     2.2870 H     1 <1>   0.0800 
 50 H      -11.4880    -1.3030     2.9910 H     1 <1>   0.0800 
 51 H      -10.6310    -2.4100     1.9160 H     1 <1>   0.0800 
@<TRIPOS>BOND
  1   1   2  1   
  2   2   3  ar  
  3   2   4  ar  
  4   3   5  ar  
  5   3   6  1   
  6   4   7  ar  
  7   4  28  1   
  8   5   8  ar  
  9   5  29  1   
 10   6  30  1   
 11   6  31  1   
 12   6  32  1   
 13   7   8  ar  
 14   7   9  1   
 15   8  33  1   
 16   9  10  am  
 17   9  34  1   
 18  10  11  2   
 19  10  12  1   
 20  12  13  1   
 21  12  14  1   
 22  12  15  1   
 23  13  16  ar  
 24  13  17  ar  
 25  14  18  1   
 26  14  35  1   
 27  14  36  1   
 28  15  19  1   
 29  15  37  1   
 30  15  38  1   
 31  16  20  ar  
 32  16  39  1   
 33  17  21  ar  
 34  17  40  1   
 35  18  22  1   
 36  18  41  1   
 37  18  42  1   
 38  19  22  1   
 39  19  43  1   
 40  19  44  1   
 41  20  23  1   
 42  20  24  ar  
 43  21  24  ar  
 44  21  45  1   
 45  23  25  1   
 46  24  26  1   
 47  25  46  1   
 48  25  47  1   
 49  25  48  1   
 50  26  27  1   
 51  27  49  1   
 52  27  50  1   
 53  27  51  1   
@<TRIPOS>SUBSTRUCTURE
  1 ****   9 GROUP 4 **** **** 0

# MOE 2024.06 (io_trps.svl 2023.06)
