@<TRIPOS>MOLECULE
NONAME
34 34 1 0 0 
SMALL
USER_CHARGES


@<TRIPOS>ATOM
  1 CL      -2.4110     1.2980     2.2380 Cl    1 <1>  -0.1770 
  2 C       -1.2530     2.2600     1.3510 C.ar  1 <1>   0.1770 
  3 C       -1.4790     2.5420     0.0100 C.ar  1 <1>  -0.1440 
  4 C       -0.1350     2.7270     2.0140 C.ar  1 <1>  -0.1500 
  5 C       -0.5510     3.3130    -0.6810 C.ar  1 <1>  -0.1500 
  6 C       -2.7180     2.0090    -0.6860 C.3   1 <1>   0.4870 
  7 C        0.7710     3.4940     1.3090 C.ar  1 <1>   0.1770 
  8 C        0.5750     3.7910    -0.0280 C.ar  1 <1>  -0.1500 
  9 N       -3.9260     2.6910    -0.1370 N.4   1 <1>  -0.9590 
 10 CL       2.1890     4.1020     2.1200 Cl    1 <1>  -0.1770 
 11 C       -5.1900     1.9950    -0.5510 C.3   1 <1>   0.3430 
 12 C       -3.9430     4.1370    -0.5000 C.3   1 <1>   0.3430 
 13 C       -5.3870     0.6490     0.1640 C.3   1 <1>   0.1200 
 14 C       -4.8580     4.9100     0.4510 C.3   1 <1>  -0.1600 
 15 O       -6.5310     0.0700    -0.3500 O.3   1 <1>  -0.6800 
 16 C       -4.7990     6.4140     0.1610 C.3   1 <1>  -0.2400 
 17 H        0.0320     2.5030     3.0520 H     1 <1>   0.1500 
 18 H       -0.6850     3.5470    -1.7250 H     1 <1>   0.1500 
 19 H       -2.7790     0.9470    -0.5140 H     1 <1>   0.0800 
 20 H       -2.6480     2.1750    -1.7490 H     1 <1>   0.0800 
 21 H        1.3050     4.3880    -0.5480 H     1 <1>   0.1500 
 22 H       -3.8480     2.6380     0.8900 H     1 <1>   0.4500 
 23 H       -5.1810     1.8290    -1.6160 H     1 <1>   0.0800 
 24 H       -6.0400     2.6150    -0.3180 H     1 <1>   0.0800 
 25 H       -4.2740     4.2640    -1.5180 H     1 <1>   0.0800 
 26 H       -2.9490     4.5460    -0.4170 H     1 <1>   0.0800 
 27 H       -5.5290     0.7910     1.2220 H     1 <1>   0.0800 
 28 H       -4.5690    -0.0260    -0.0180 H     1 <1>   0.0800 
 29 H       -4.5470     4.7480     1.4690 H     1 <1>   0.0800 
 30 H       -5.8780     4.5850     0.3440 H     1 <1>   0.0800 
 31 H       -6.7430    -0.7790     0.0950 H     1 <1>   0.4000 
 32 H       -3.7990     6.7910     0.2870 H     1 <1>   0.0800 
 33 H       -5.4450     6.9440     0.8400 H     1 <1>   0.0800 
 34 H       -5.1250     6.6250    -0.8440 H     1 <1>   0.0800 
@<TRIPOS>BOND
  1   1   2  1   
  2   2   3  ar  
  3   2   4  ar  
  4   3   5  ar  
  5   3   6  1   
  6   4   7  ar  
  7   4  17  1   
  8   5   8  ar  
  9   5  18  1   
 10   6   9  1   
 11   6  19  1   
 12   6  20  1   
 13   7   8  ar  
 14   7  10  1   
 15   8  21  1   
 16   9  11  1   
 17   9  12  1   
 18   9  22  1   
 19  11  13  1   
 20  11  23  1   
 21  11  24  1   
 22  12  14  1   
 23  12  25  1   
 24  12  26  1   
 25  13  15  1   
 26  13  27  1   
 27  13  28  1   
 28  14  16  1   
 29  14  29  1   
 30  14  30  1   
 31  15  31  1   
 32  16  32  1   
 33  16  33  1   
 34  16  34  1   
@<TRIPOS>SUBSTRUCTURE
  1 ****   3 GROUP 4 **** **** 0

# MOE 2024.06 (io_trps.svl 2023.06)
