@<TRIPOS>MOLECULE
NONAME
51 52 1 0 0 
SMALL
USER_CHARGES


@<TRIPOS>ATOM
  1 S       -0.0340     0.1190    -0.6170 S.o2  1 <1>   1.4470 
  2 O        0.1430    -0.9060     0.3910 O.2   1 <1>  -0.6500 
  3 O        0.2270    -0.2160    -2.0010 O.2   1 <1>  -0.6500 
  4 N       -1.6880     0.5010    -0.5300 N.am  1 <1>  -0.8490 
  5 C        0.7910     1.6830    -0.2040 C.ar  1 <1>  -0.0090 
  6 C       -2.4880    -0.4710    -1.3240 C.3   1 <1>   0.2570 
  7 C       -2.1620     0.6380     0.8570 C.3   1 <1>   0.1160 
  8 C        2.1000     1.6940     0.2700 C.ar  1 <1>   0.0830 
  9 C        0.1480     2.9050    -0.3820 C.ar  1 <1>  -0.1500 
 10 C       -4.0090    -0.2690    -1.3210 C.2   1 <1>   0.5690 
 11 O        2.7300     0.5000     0.3980 O.3   1 <1>  -0.3630 
 12 C        2.7230     2.8990     0.5890 C.ar  1 <1>  -0.1500 
 13 C        0.7620     4.1060    -0.0710 C.ar  1 <1>  -0.1440 
 14 O       -4.5230     0.3570    -2.2180 O.2   1 <1>  -0.5700 
 15 N       -4.7420    -0.8350    -0.3110 N.am  1 <1>  -0.5470 
 16 C        4.0660     0.3890     0.8380 C.3   1 <1>   0.0400 
 17 C        2.0540     4.0960     0.4210 C.ar  1 <1>  -0.1500 
 18 C        0.0260     5.4190    -0.2670 C.3   1 <1>  -0.0970 
 19 C       -6.0830    -0.5650     0.0000 C.ar  1 <1>   0.1170 
 20 C       -6.4990     0.6930     0.4520 C.ar  1 <1>   0.0830 
 21 C       -7.0290    -1.5720    -0.1270 C.ar  1 <1>  -0.1500 
 22 O       -5.5940     1.6910     0.6020 O.3   1 <1>  -0.3620 
 23 C       -7.8270     0.9230     0.7710 C.ar  1 <1>  -0.1500 
 24 C       -8.3580    -1.3400     0.1870 C.ar  1 <1>  -0.1500 
 25 C       -5.7030     2.7590    -0.3110 C.3   1 <1>   0.1200 
 26 C       -8.7580    -0.0930     0.6360 C.ar  1 <1>  -0.1500 
 27 C       -4.4010     3.5550    -0.2740 C.3   1 <1>  -0.2400 
 28 H       -2.2750    -1.4680    -0.9810 H     1 <1>   0.0800 
 29 H       -2.1760    -0.4140    -2.3530 H     1 <1>   0.0800 
 30 H       -1.5280     1.3180     1.4000 H     1 <1>   0.0800 
 31 H       -2.1500    -0.3150     1.3600 H     1 <1>   0.0800 
 32 H       -3.1610     1.0360     0.8770 H     1 <1>   0.0800 
 33 H       -0.8540     2.9190    -0.7740 H     1 <1>   0.1500 
 34 H        3.7280     2.9270     0.9650 H     1 <1>   0.1500 
 35 H       -4.2360    -1.3820     0.3820 H     1 <1>   0.3700 
 36 H        4.3300    -0.6530     0.8400 H     1 <1>   0.0800 
 37 H        4.1400     0.7860     1.8350 H     1 <1>   0.0800 
 38 H        4.7040     0.9260     0.1580 H     1 <1>   0.0800 
 39 H        2.5440     5.0210     0.6720 H     1 <1>   0.1500 
 40 H       -0.7320     5.3200    -1.0230 H     1 <1>   0.0800 
 41 H        0.7110     6.1890    -0.5760 H     1 <1>   0.0800 
 42 H       -0.4390     5.7180     0.6550 H     1 <1>   0.0800 
 43 H       -6.7260    -2.5410    -0.4800 H     1 <1>   0.1500 
 44 H       -8.1320     1.8900     1.1270 H     1 <1>   0.1500 
 45 H       -9.0820    -2.1300     0.0800 H     1 <1>   0.1500 
 46 H       -6.5390     3.3700    -0.0210 H     1 <1>   0.0800 
 47 H       -5.8710     2.3560    -1.2960 H     1 <1>   0.0800 
 48 H       -9.7910     0.0860     0.8810 H     1 <1>   0.1500 
 49 H       -4.2060     3.9060     0.7230 H     1 <1>   0.0800 
 50 H       -4.4780     4.4010    -0.9320 H     1 <1>   0.0800 
 51 H       -3.5880     2.9380    -0.6120 H     1 <1>   0.0800 
@<TRIPOS>BOND
  1   1   2  2   
  2   1   3  2   
  3   1   4  am  
  4   1   5  1   
  5   4   6  1   
  6   4   7  1   
  7   5   8  ar  
  8   5   9  ar  
  9   6  10  1   
 10   6  28  1   
 11   6  29  1   
 12   7  30  1   
 13   7  31  1   
 14   7  32  1   
 15   8  11  1   
 16   8  12  ar  
 17   9  13  ar  
 18   9  33  1   
 19  10  14  2   
 20  10  15  am  
 21  11  16  1   
 22  12  17  ar  
 23  12  34  1   
 24  13  17  ar  
 25  13  18  1   
 26  15  19  1   
 27  15  35  1   
 28  16  36  1   
 29  16  37  1   
 30  16  38  1   
 31  17  39  1   
 32  18  40  1   
 33  18  41  1   
 34  18  42  1   
 35  19  20  ar  
 36  19  21  ar  
 37  20  22  1   
 38  20  23  ar  
 39  21  24  ar  
 40  21  43  1   
 41  22  25  1   
 42  23  26  ar  
 43  23  44  1   
 44  24  26  ar  
 45  24  45  1   
 46  25  27  1   
 47  25  46  1   
 48  25  47  1   
 49  26  48  1   
 50  27  49  1   
 51  27  50  1   
 52  27  51  1   
@<TRIPOS>SUBSTRUCTURE
  1 ****   4 GROUP 4 **** **** 0

# MOE 2024.06 (io_trps.svl 2023.06)
