@<TRIPOS>MOLECULE
NONAME
28 29 1 0 0 
SMALL
USER_CHARGES


@<TRIPOS>ATOM
  1 BR       0.0590     0.0690     1.3800 Br    1 <1>  -0.1110 
  2 C        1.7390    -0.8130     1.0270 C.ar  1 <1>   0.1110 
  3 C        1.9430    -2.0980     1.4900 C.ar  1 <1>   0.1600 
  4 C        2.7110    -0.1530     0.3180 C.ar  1 <1>  -0.1500 
  5 N        3.0590    -2.7750     1.2940 N.ar  1 <1>  -0.6200 
  6 C        3.8940    -0.8440     0.0990 C.ar  1 <1>  -0.1790 
  7 C        4.0170    -2.1500     0.6070 C.ar  1 <1>   0.4100 
  8 C        4.9600    -0.2220    -0.6340 C.2   1 <1>   0.9790 
  9 N        5.1560    -2.9040     0.4340 N.pl3 1 <1>  -0.8380 
 10 O        5.8120     0.4700    -0.0470 O.co2 1 <1>  -0.9000 
 11 O        5.0140    -0.3160    -1.8740 O.co2 1 <1>  -0.9000 
 12 C        6.3690    -2.4910     1.1780 C.3   1 <1>   0.2090 
 13 C        5.4470    -3.3990    -0.9320 C.3   1 <1>   0.2090 
 14 C        7.2940    -3.7030     1.3260 C.3   1 <1>  -0.1600 
 15 C        6.3540    -4.6300    -0.8280 C.3   1 <1>  -0.1600 
 16 C        7.6370    -4.3180    -0.0410 C.3   1 <1>  -0.1600 
 17 H        1.1590    -2.5820     2.0410 H     1 <1>   0.1500 
 18 H        2.5760     0.8470    -0.0530 H     1 <1>   0.1500 
 19 H        6.0860    -2.1110     2.1450 H     1 <1>   0.0800 
 20 H        6.8760    -1.7070     0.6400 H     1 <1>   0.0800 
 21 H        5.9420    -2.6280    -1.4990 H     1 <1>   0.0800 
 22 H        4.5260    -3.6490    -1.4290 H     1 <1>   0.0800 
 23 H        6.7990    -4.4330     1.9410 H     1 <1>   0.0800 
 24 H        8.1950    -3.3990     1.8270 H     1 <1>   0.0800 
 25 H        6.6040    -4.9670    -1.8170 H     1 <1>   0.0800 
 26 H        5.8050    -5.4130    -0.3360 H     1 <1>   0.0800 
 27 H        8.2130    -5.2170     0.0940 H     1 <1>   0.0800 
 28 H        8.2310    -3.6170    -0.6020 H     1 <1>   0.0800 
@<TRIPOS>BOND
  1   1   2  1   
  2   2   3  ar  
  3   2   4  ar  
  4   3   5  ar  
  5   3  17  1   
  6   4   6  ar  
  7   4  18  1   
  8   5   7  ar  
  9   6   7  ar  
 10   6   8  1   
 11   7   9  1   
 12   8  10  ar  
 13   8  11  ar  
 14   9  12  1   
 15   9  13  1   
 16  12  14  1   
 17  12  19  1   
 18  12  20  1   
 19  13  15  1   
 20  13  21  1   
 21  13  22  1   
 22  14  16  1   
 23  14  23  1   
 24  14  24  1   
 25  15  16  1   
 26  15  25  1   
 27  15  26  1   
 28  16  27  1   
 29  16  28  1   
@<TRIPOS>SUBSTRUCTURE
  1 ****   7 GROUP 4 **** **** 0

# MOE 2024.06 (io_trps.svl 2023.06)
