@<TRIPOS>MOLECULE
NONAME
53 56 1 0 0 
SMALL
USER_CHARGES


@<TRIPOS>ATOM
  1 N        0.6780    -0.4030    -0.3090 N.4   1 <1>  -0.9590 
  2 C        1.7350    -0.8320     0.6700 C.3   1 <1>   0.4230 
  3 C        0.4950     1.0890    -0.3780 C.3   1 <1>   0.3430 
  4 C       -0.6590    -1.0470    -0.0590 C.3   1 <1>   0.3430 
  5 C        3.0750    -0.1410     0.3620 C.3   1 <1>  -0.1600 
  6 C        1.9210    -2.3600     0.6260 C.3   1 <1>  -0.1600 
  7 C       -0.4360     1.4560    -1.5340 C.3   1 <1>  -0.1600 
  8 C       -1.6200    -0.7360    -1.2080 C.3   1 <1>  -0.1600 
  9 C        4.2080    -0.6480     1.2540 C.3   1 <1>   0.3430 
 10 C        3.0750    -2.8350     1.5120 C.3   1 <1>   0.3430 
 11 C       -1.8000     0.7720    -1.4030 C.3   1 <1>  -0.1600 
 12 N        4.3220    -2.1260     1.1330 N.4   1 <1>  -0.9590 
 13 C        5.5050    -2.6400     1.8930 C.3   1 <1>   0.4860 
 14 C        6.7450    -2.0790     1.2310 C.ar  1 <1>  -0.1440 
 15 C        7.1200    -2.5290    -0.0620 C.ar  1 <1>   0.0000 
 16 C        7.4680    -1.1100     1.8780 C.ar  1 <1>  -0.1500 
 17 C        8.2050    -1.8860    -0.7010 C.ar  1 <1>   0.0000 
 18 C        6.4800    -3.5850    -0.7570 C.ar  1 <1>  -0.1500 
 19 C        8.5670    -0.5130     1.2560 C.ar  1 <1>  -0.1500 
 20 C        8.9180    -0.8880    -0.0090 C.ar  1 <1>  -0.1500 
 21 C        8.5530    -2.2620    -2.0130 C.ar  1 <1>  -0.1500 
 22 C        6.8460    -3.9350    -2.0260 C.ar  1 <1>  -0.1500 
 23 C        7.8880    -3.2590    -2.6670 C.ar  1 <1>  -0.1500 
 24 H        0.9620    -0.6950    -1.2530 H     1 <1>   0.4500 
 25 H        1.4250    -0.5510     1.6650 H     1 <1>   0.0800 
 26 H        1.4390     1.5820    -0.5400 H     1 <1>   0.0800 
 27 H        0.0770     1.4520     0.5480 H     1 <1>   0.0800 
 28 H       -1.0770    -0.6800     0.8660 H     1 <1>   0.0800 
 29 H       -0.5600    -2.1160     0.0140 H     1 <1>   0.0800 
 30 H        3.0000     0.9160     0.5370 H     1 <1>   0.0800 
 31 H        3.3510    -0.2950    -0.6670 H     1 <1>   0.0800 
 32 H        2.1040    -2.6860    -0.3830 H     1 <1>   0.0800 
 33 H        1.0370    -2.8540     0.9840 H     1 <1>   0.0800 
 34 H        0.0240     1.1850    -2.4690 H     1 <1>   0.0800 
 35 H       -0.5780     2.5240    -1.5460 H     1 <1>   0.0800 
 36 H       -2.5780    -1.1800    -0.9950 H     1 <1>   0.0800 
 37 H       -1.2550    -1.1840    -2.1160 H     1 <1>   0.0800 
 38 H        4.0180    -0.3780     2.2820 H     1 <1>   0.0800 
 39 H        5.1330    -0.1790     0.9520 H     1 <1>   0.0800 
 40 H        3.2050    -3.9000     1.3930 H     1 <1>   0.0800 
 41 H        2.8450    -2.6400     2.5480 H     1 <1>   0.0800 
 42 H       -2.3930     0.9610    -2.2840 H     1 <1>   0.0800 
 43 H       -2.3310     1.1840    -0.5600 H     1 <1>   0.0800 
 44 H        4.5610    -2.3310     0.1490 H     1 <1>   0.4500 
 45 H        5.5410    -3.7170     1.8630 H     1 <1>   0.0800 
 46 H        5.4590    -2.3260     2.9240 H     1 <1>   0.0800 
 47 H        7.2160    -0.7730     2.8710 H     1 <1>   0.1500 
 48 H        5.7000    -4.1510    -0.2870 H     1 <1>   0.1500 
 49 H        9.1280     0.2430     1.7800 H     1 <1>   0.1500 
 50 H        9.7580    -0.4250    -0.4970 H     1 <1>   0.1500 
 51 H        9.3660    -1.7490    -2.4970 H     1 <1>   0.1500 
 52 H        6.3560    -4.7380    -2.5520 H     1 <1>   0.1500 
 53 H        8.1610    -3.5420    -3.6700 H     1 <1>   0.1500 
@<TRIPOS>BOND
  1   1   2  1   
  2   1   3  1   
  3   1   4  1   
  4   1  24  1   
  5   2   5  1   
  6   2   6  1   
  7   2  25  1   
  8   3   7  1   
  9   3  26  1   
 10   3  27  1   
 11   4   8  1   
 12   4  28  1   
 13   4  29  1   
 14   5   9  1   
 15   5  30  1   
 16   5  31  1   
 17   6  10  1   
 18   6  32  1   
 19   6  33  1   
 20   7  11  1   
 21   7  34  1   
 22   7  35  1   
 23   8  11  1   
 24   8  36  1   
 25   8  37  1   
 26   9  12  1   
 27   9  38  1   
 28   9  39  1   
 29  10  12  1   
 30  10  40  1   
 31  10  41  1   
 32  11  42  1   
 33  11  43  1   
 34  12  13  1   
 35  12  44  1   
 36  13  14  1   
 37  13  45  1   
 38  13  46  1   
 39  14  15  ar  
 40  14  16  ar  
 41  15  17  ar  
 42  15  18  ar  
 43  16  19  ar  
 44  16  47  1   
 45  17  20  ar  
 46  17  21  ar  
 47  18  22  ar  
 48  18  48  1   
 49  19  20  ar  
 50  19  49  1   
 51  20  50  1   
 52  21  23  ar  
 53  21  51  1   
 54  22  23  ar  
 55  22  52  1   
 56  23  53  1   
@<TRIPOS>SUBSTRUCTURE
  1 ****  12 GROUP 4 **** **** 0

# MOE 2024.06 (io_trps.svl 2023.06)
