@<TRIPOS>MOLECULE
NONAME
40 43 1 0 0 
SMALL
USER_CHARGES


@<TRIPOS>ATOM
  1 O        0.9380     1.4340     1.5380 O.2   1 <1>  -0.5700 
  2 C        0.8820     2.2530     0.6580 C.2   1 <1>   0.5690 
  3 N        1.6180     2.3060    -0.5110 N.am  1 <1>  -0.2370 
  4 C       -0.0330     3.4460     0.6600 C.3   1 <1>  -0.0190 
  5 C        2.7700     1.5430    -0.7780 C.ar  1 <1>   0.1170 
  6 C        1.0240     3.2030    -1.3810 C.2   1 <1>   0.5690 
  7 C       -1.3050     3.8410     1.4520 C.3   1 <1>   0.0580 
  8 C       -0.3430     3.5170    -0.8360 C.3   1 <1>  -0.0190 
  9 C        4.0560     2.0870    -0.7060 C.ar  1 <1>  -0.1440 
 10 C        2.6190     0.2030    -1.1160 C.ar  1 <1>  -0.1500 
 11 O        1.4650     3.6460    -2.4100 O.2   1 <1>  -0.5700 
 12 C       -1.2910     5.3590     1.2460 C.2   1 <1>  -0.2880 
 13 C       -2.6010     3.3590     0.7380 C.3   1 <1>  -0.1600 
 14 C       -1.3690     4.6560    -1.0880 C.3   1 <1>   0.0580 
 15 C        5.1520     1.2820    -0.9790 C.ar  1 <1>  -0.1500 
 16 C        4.3060     3.5440    -0.3270 C.3   1 <1>  -0.0170 
 17 C        3.7180    -0.5900    -1.3870 C.ar  1 <1>  -0.1500 
 18 C       -1.2590     5.7630    -0.0330 C.2   1 <1>  -0.2880 
 19 C       -2.7230     3.9980    -0.6910 C.3   1 <1>  -0.1600 
 20 C        4.9880    -0.0490    -1.3190 C.ar  1 <1>  -0.1500 
 21 C        4.3370     3.7130     1.1940 C.3   1 <1>  -0.2400 
 22 H        0.6790     4.2240     0.8950 H     1 <1>   0.0800 
 23 H       -1.2480     3.5610     2.4910 H     1 <1>   0.0800 
 24 H       -0.8610     2.6140    -1.1170 H     1 <1>   0.0800 
 25 H        1.6340    -0.2240    -1.1630 H     1 <1>   0.1500 
 26 H       -1.2770     5.9780     2.1270 H     1 <1>   0.1500 
 27 H       -3.4580     3.6380     1.3250 H     1 <1>   0.0800 
 28 H       -2.5890     2.2850     0.6670 H     1 <1>   0.0800 
 29 H       -1.3690     5.0180    -2.1020 H     1 <1>   0.0800 
 30 H        6.1470     1.6880    -0.9250 H     1 <1>   0.1500 
 31 H        3.5530     4.1820    -0.7520 H     1 <1>   0.0800 
 32 H        5.2490     3.8660    -0.7360 H     1 <1>   0.0800 
 33 H        3.5860    -1.6260    -1.6480 H     1 <1>   0.1500 
 34 H       -1.2070     6.7770    -0.3930 H     1 <1>   0.1500 
 35 H       -3.4910     4.7530    -0.6830 H     1 <1>   0.0800 
 36 H       -3.0170     3.2540    -1.4110 H     1 <1>   0.0800 
 37 H        5.8470    -0.6620    -1.5290 H     1 <1>   0.1500 
 38 H        3.4020     3.4090     1.6280 H     1 <1>   0.0800 
 39 H        4.5200     4.7420     1.4490 H     1 <1>   0.0800 
 40 H        5.1210     3.1080     1.6150 H     1 <1>   0.0800 
@<TRIPOS>BOND
  1   1   2  2   
  2   2   3  am  
  3   2   4  1   
  4   3   5  1   
  5   3   6  am  
  6   4   7  1   
  7   4   8  1   
  8   4  22  1   
  9   5   9  ar  
 10   5  10  ar  
 11   6   8  1   
 12   6  11  2   
 13   7  12  1   
 14   7  13  1   
 15   7  23  1   
 16   8  14  1   
 17   8  24  1   
 18   9  15  ar  
 19   9  16  1   
 20  10  17  ar  
 21  10  25  1   
 22  12  18  2   
 23  12  26  1   
 24  13  19  1   
 25  13  27  1   
 26  13  28  1   
 27  14  18  1   
 28  14  19  1   
 29  14  29  1   
 30  15  20  ar  
 31  15  30  1   
 32  16  21  1   
 33  16  31  1   
 34  16  32  1   
 35  17  20  ar  
 36  17  33  1   
 37  18  34  1   
 38  19  35  1   
 39  19  36  1   
 40  20  37  1   
 41  21  38  1   
 42  21  39  1   
 43  21  40  1   
@<TRIPOS>SUBSTRUCTURE
  1 ****   3 GROUP 4 **** **** 0

# MOE 2024.06 (io_trps.svl 2023.06)
