@<TRIPOS>MOLECULE
NONAME
38 39 1 0 0 
SMALL
USER_CHARGES


@<TRIPOS>ATOM
  1 S       -0.0430     0.1560    -1.3000 S.o2  1 <1>   1.4470 
  2 O       -1.1010     0.3520    -2.2720 O.2   1 <1>  -0.6500 
  3 O        1.1670    -0.4790    -1.7830 O.2   1 <1>  -0.6500 
  4 N       -0.6930    -0.8130    -0.0610 N.am  1 <1>  -0.8490 
  5 C        0.2940     1.7950    -0.5880 C.ar  1 <1>  -0.0090 
  6 C       -1.5220    -1.9200    -0.5520 C.3   1 <1>   0.2760 
  7 C        0.3260    -1.1990     0.9830 C.3   1 <1>   0.0900 
  8 C       -0.5540     2.3560     0.3650 C.ar  1 <1>  -0.1500 
  9 C        1.3930     2.5400    -1.0130 C.ar  1 <1>  -0.1500 
 10 C       -2.5380    -2.3430     0.5200 C.3   1 <1>  -0.1600 
 11 C       -0.7090    -3.1290    -1.0470 C.3   1 <1>  -0.1600 
 12 C        0.9460    -0.0830     1.8350 C.2   1 <1>   0.9060 
 13 C       -0.3240     3.6200     0.8810 C.ar  1 <1>  -0.1500 
 14 C        1.6400     3.8080    -0.5130 C.ar  1 <1>  -0.1500 
 15 C       -3.4710    -3.4430    -0.0100 C.3   1 <1>  -0.1600 
 16 C       -1.6370    -4.2330    -1.5770 C.3   1 <1>  -0.1600 
 17 O        0.3350     0.3210     2.8330 O.co2 1 <1>  -0.9000 
 18 O        2.0490     0.3700     1.5100 O.co2 1 <1>  -0.9000 
 19 C        0.7710     4.3270     0.4260 C.ar  1 <1>   0.1900 
 20 C       -2.6680    -4.6500    -0.5180 C.3   1 <1>  -0.1600 
 21 F        0.9900     5.5270     0.8950 F     1 <1>  -0.1900 
 22 H       -2.1090    -1.5660    -1.3820 H     1 <1>   0.0800 
 23 H        1.1440    -1.7100     0.5080 H     1 <1>   0.0800 
 24 H       -0.1120    -1.8770     1.6860 H     1 <1>   0.0800 
 25 H       -1.3940     1.7820     0.7210 H     1 <1>   0.1500 
 26 H        2.0650     2.1110    -1.7350 H     1 <1>   0.1500 
 27 H       -3.1210    -1.4860     0.8070 H     1 <1>   0.0800 
 28 H       -2.0340    -2.7150     1.3910 H     1 <1>   0.0800 
 29 H       -0.1220    -3.5360    -0.2440 H     1 <1>   0.0800 
 30 H       -0.0450    -2.8240    -1.8360 H     1 <1>   0.0800 
 31 H       -0.9720     4.0390     1.6270 H     1 <1>   0.1500 
 32 H        2.4910     4.3780    -0.8360 H     1 <1>   0.1500 
 33 H       -4.0680    -3.0480    -0.8140 H     1 <1>   0.0800 
 34 H       -4.1380    -3.7570     0.7740 H     1 <1>   0.0800 
 35 H       -1.0510    -5.0870    -1.8670 H     1 <1>   0.0800 
 36 H       -2.1510    -3.8730    -2.4530 H     1 <1>   0.0800 
 37 H       -3.3400    -5.3790    -0.9360 H     1 <1>   0.0800 
 38 H       -2.1570    -5.1100     0.3110 H     1 <1>   0.0800 
@<TRIPOS>BOND
  1   1   2  2   
  2   1   3  2   
  3   1   4  am  
  4   1   5  1   
  5   4   6  1   
  6   4   7  1   
  7   5   8  ar  
  8   5   9  ar  
  9   6  10  1   
 10   6  11  1   
 11   6  22  1   
 12   7  12  1   
 13   7  23  1   
 14   7  24  1   
 15   8  13  ar  
 16   8  25  1   
 17   9  14  ar  
 18   9  26  1   
 19  10  15  1   
 20  10  27  1   
 21  10  28  1   
 22  11  16  1   
 23  11  29  1   
 24  11  30  1   
 25  12  17  ar  
 26  12  18  ar  
 27  13  19  ar  
 28  13  31  1   
 29  14  19  ar  
 30  14  32  1   
 31  15  20  1   
 32  15  33  1   
 33  15  34  1   
 34  16  20  1   
 35  16  35  1   
 36  16  36  1   
 37  19  21  1   
 38  20  37  1   
 39  20  38  1   
@<TRIPOS>SUBSTRUCTURE
  1 ****   4 GROUP 4 **** **** 0

# MOE 2024.06 (io_trps.svl 2023.06)
