@<TRIPOS>MOLECULE
NONAME
28 28 1 0 0 
SMALL
USER_CHARGES


@<TRIPOS>ATOM
  1 I        0.2670    -0.4920     0.2030 I     1 <1>  -0.0810 
  2 C       -1.8320    -0.1550     0.0700 C.ar  1 <1>   0.0810 
  3 C       -2.6390    -1.1770    -0.3920 C.ar  1 <1>  -0.1500 
  4 C       -2.3310     1.0770     0.4500 C.ar  1 <1>  -0.1500 
  5 C       -4.0020    -0.9480    -0.4750 C.ar  1 <1>  -0.1500 
  6 C       -3.6960     1.2940     0.3620 C.ar  1 <1>  -0.1500 
  7 C       -4.5360     0.2790    -0.1020 C.ar  1 <1>   0.0830 
  8 O       -5.8820     0.4100    -0.2180 O.3   1 <1>  -0.3630 
  9 C       -6.5330     1.6140     0.1030 C.3   1 <1>   0.1200 
 10 C       -8.0290     1.4000    -0.1510 C.3   1 <1>   0.3430 
 11 N       -8.8640     2.6060     0.1840 N.4   1 <1>  -0.9590 
 12 C      -10.3160     2.2460     0.1440 C.3   1 <1>   0.2630 
 13 C       -8.5950     3.7570    -0.7380 C.3   1 <1>   0.2630 
 14 H       -2.2180    -2.1250    -0.6790 H     1 <1>   0.1500 
 15 H       -1.6680     1.8470     0.8050 H     1 <1>   0.1500 
 16 H       -4.6570    -1.7240    -0.8300 H     1 <1>   0.1500 
 17 H       -4.0760     2.2520     0.6600 H     1 <1>   0.1500 
 18 H       -6.1340     2.3850    -0.5320 H     1 <1>   0.0800 
 19 H       -6.3460     1.8280     1.1400 H     1 <1>   0.0800 
 20 H       -8.3520     0.5670     0.4520 H     1 <1>   0.0800 
 21 H       -8.1710     1.1390    -1.1870 H     1 <1>   0.0800 
 22 H       -8.6400     2.8960     1.1490 H     1 <1>   0.4500 
 23 H      -10.5980     1.9300    -0.8480 H     1 <1>   0.0800 
 24 H      -10.9200     3.0960     0.4200 H     1 <1>   0.0800 
 25 H      -10.5230     1.4420     0.8330 H     1 <1>   0.0800 
 26 H       -8.8080     3.4780    -1.7580 H     1 <1>   0.0800 
 27 H       -7.5630     4.0620    -0.6720 H     1 <1>   0.0800 
 28 H       -9.2150     4.5990    -0.4750 H     1 <1>   0.0800 
@<TRIPOS>BOND
  1   1   2  1   
  2   2   3  ar  
  3   2   4  ar  
  4   3   5  ar  
  5   3  14  1   
  6   4   6  ar  
  7   4  15  1   
  8   5   7  ar  
  9   5  16  1   
 10   6   7  ar  
 11   6  17  1   
 12   7   8  1   
 13   8   9  1   
 14   9  10  1   
 15   9  18  1   
 16   9  19  1   
 17  10  11  1   
 18  10  20  1   
 19  10  21  1   
 20  11  12  1   
 21  11  13  1   
 22  11  22  1   
 23  12  23  1   
 24  12  24  1   
 25  12  25  1   
 26  13  26  1   
 27  13  27  1   
 28  13  28  1   
@<TRIPOS>SUBSTRUCTURE
  1 ****   7 GROUP 4 **** **** 0

# MOE 2024.06 (io_trps.svl 2023.06)
