@<TRIPOS>MOLECULE
NONAME
34 36 1 0 0 
SMALL
USER_CHARGES


@<TRIPOS>ATOM
  1 CL       0.4490    -0.5050    -1.3370 Cl    1 <1>  -0.1770 
  2 C        2.0140    -0.1910    -0.6280 C.ar  1 <1>   0.1770 
  3 C        2.9140     0.6060    -1.2950 C.ar  1 <1>  -0.1500 
  4 C        2.3090    -0.7680     0.6120 C.ar  1 <1>  -0.1500 
  5 C        4.1530     0.8370    -0.7030 C.ar  1 <1>   0.2270 
  6 C        3.5350    -0.5430     1.2020 C.ar  1 <1>  -0.1500 
  7 N        5.1970     1.5830    -1.1580 N.2   1 <1>  -0.5650 
  8 C        4.4520     0.2670     0.5260 C.ar  1 <1>  -0.1520 
  9 C        6.0760     1.4540    -0.2320 C.2   1 <1>   0.2420 
 10 N        5.7120     0.6820     0.8180 N.pl3 1 <1>   0.0330 
 11 S        7.6790     2.2500    -0.3220 S.3   1 <1>  -0.2860 
 12 C        8.7590     1.3430     0.8840 C.3   1 <1>   0.1310 
 13 C       10.1360     1.9850     0.9860 C.2   1 <1>   0.5690 
 14 O       10.4400     2.4350     2.0660 O.2   1 <1>  -0.5700 
 15 N       11.0040     2.0210    -0.0780 N.am  1 <1>  -0.6600 
 16 C       12.3280     2.7080     0.0230 C.3   1 <1>   0.1400 
 17 C       10.7330     1.4850    -1.4480 C.3   1 <1>   0.1400 
 18 C       13.4420     1.8420    -0.5860 C.3   1 <1>   0.1200 
 19 C       11.9420     0.6950    -1.9780 C.3   1 <1>   0.1200 
 20 O       13.1120     1.4550    -1.8900 O.3   1 <1>  -0.5600 
 21 H        2.6870     1.0490    -2.2450 H     1 <1>   0.1500 
 22 H        1.5670    -1.3830     1.0880 H     1 <1>   0.1500 
 23 H        3.7820    -0.9760     2.1560 H     1 <1>   0.1500 
 24 H        6.2390     0.5030     1.6740 H     1 <1>   0.2700 
 25 H        8.8380     0.3260     0.5520 H     1 <1>   0.0800 
 26 H        8.2720     1.3850     1.8400 H     1 <1>   0.0800 
 27 H       12.5690     2.9210     1.0500 H     1 <1>   0.0800 
 28 H       12.2800     3.6440    -0.5050 H     1 <1>   0.0800 
 29 H       10.5310     2.3070    -2.1140 H     1 <1>   0.0800 
 30 H        9.8730     0.8410    -1.4500 H     1 <1>   0.0800 
 31 H       13.6010     0.9580     0.0080 H     1 <1>   0.0800 
 32 H       14.3610     2.3980    -0.6300 H     1 <1>   0.0800 
 33 H       11.7940     0.4410    -3.0130 H     1 <1>   0.0800 
 34 H       12.0780    -0.2130    -1.4160 H     1 <1>   0.0800 
@<TRIPOS>BOND
  1   1   2  1   
  2   2   3  ar  
  3   2   4  ar  
  4   3   5  ar  
  5   3  21  1   
  6   4   6  ar  
  7   4  22  1   
  8   5   7  1   
  9   5   8  ar  
 10   6   8  ar  
 11   6  23  1   
 12   7   9  2   
 13   8  10  1   
 14   9  10  1   
 15   9  11  1   
 16  10  24  1   
 17  11  12  1   
 18  12  13  1   
 19  12  25  1   
 20  12  26  1   
 21  13  14  2   
 22  13  15  am  
 23  15  16  1   
 24  15  17  1   
 25  16  18  1   
 26  16  27  1   
 27  16  28  1   
 28  17  19  1   
 29  17  29  1   
 30  17  30  1   
 31  18  20  1   
 32  18  31  1   
 33  18  32  1   
 34  19  20  1   
 35  19  33  1   
 36  19  34  1   
@<TRIPOS>SUBSTRUCTURE
  1 ****  11 GROUP 4 **** **** 0

# MOE 2024.06 (io_trps.svl 2023.06)
