@<TRIPOS>MOLECULE
NONAME
41 41 1 0 0 
SMALL
USER_CHARGES


@<TRIPOS>ATOM
  1 O        0.3730     0.0570     0.2970 O.2   1 <1>  -0.5700 
  2 C        0.8310    -1.0440     0.0580 C.2   1 <1>   0.6900 
  3 N        2.1870    -1.2350     0.0390 N.am  1 <1>  -0.6600 
  4 N        0.0130    -2.1020    -0.2280 N.am  1 <1>  -0.5470 
  5 C        3.1140    -0.0790     0.0310 C.3   1 <1>   0.2780 
  6 C        2.8350    -2.5600     0.1750 C.3   1 <1>   0.2780 
  7 C       -1.3790    -2.2490    -0.1650 C.ar  1 <1>   0.1170 
  8 C        3.6870     0.1080     1.4240 C.2   1 <1>  -0.2880 
  9 C        3.3480    -2.9920    -1.1860 C.2   1 <1>  -0.2880 
 10 C       -1.9840    -3.2410    -0.9270 C.ar  1 <1>  -0.1500 
 11 C       -2.1900    -1.4600     0.6440 C.ar  1 <1>  -0.1500 
 12 C        4.9800     0.0220     1.7540 C.2   1 <1>  -0.3000 
 13 C        4.6180    -3.2970    -1.4690 C.2   1 <1>  -0.3000 
 14 C       -3.3520    -3.4380    -0.8870 C.ar  1 <1>  -0.1500 
 15 C       -3.5590    -1.6550     0.6850 C.ar  1 <1>  -0.1500 
 16 C       -4.1570    -2.6470    -0.0800 C.ar  1 <1>  -0.1430 
 17 C       -5.6670    -2.8750    -0.0470 C.3   1 <1>   0.0630 
 18 C       -6.4180    -1.6330    -0.5380 C.3   1 <1>  -0.2400 
 19 C       -6.1300    -3.2710     1.3580 C.3   1 <1>  -0.2400 
 20 H        0.5090    -2.8690    -0.6640 H     1 <1>   0.3700 
 21 H        2.5980     0.8170    -0.2720 H     1 <1>   0.0800 
 22 H        3.9040    -0.2600    -0.6770 H     1 <1>   0.0800 
 23 H        2.1390    -3.2850     0.5580 H     1 <1>   0.0800 
 24 H        3.6510    -2.4960     0.8750 H     1 <1>   0.0800 
 25 H        2.9130     0.3260     2.1420 H     1 <1>   0.1500 
 26 H        2.5690    -3.0270    -1.9280 H     1 <1>   0.1500 
 27 H       -1.3820    -3.8640    -1.5610 H     1 <1>   0.1500 
 28 H       -1.7530    -0.6880     1.2500 H     1 <1>   0.1500 
 29 H        5.3520     0.1620     2.7540 H     1 <1>   0.1500 
 30 H        5.7720    -0.1920     1.0570 H     1 <1>   0.1500 
 31 H        4.9600    -3.5990    -2.4450 H     1 <1>   0.1500 
 32 H        5.4240    -3.2710    -0.7550 H     1 <1>   0.1500 
 33 H       -3.7900    -4.2130    -1.4910 H     1 <1>   0.1500 
 34 H       -4.1570    -1.0260     1.3190 H     1 <1>   0.1500 
 35 H       -5.9080    -3.6870    -0.7120 H     1 <1>   0.0800 
 36 H       -6.2500    -0.7990     0.1200 H     1 <1>   0.0800 
 37 H       -7.4740    -1.8290    -0.5840 H     1 <1>   0.0800 
 38 H       -6.0760    -1.3650    -1.5220 H     1 <1>   0.0800 
 39 H       -5.9560    -2.4730     2.0570 H     1 <1>   0.0800 
 40 H       -5.5880    -4.1390     1.6890 H     1 <1>   0.0800 
 41 H       -7.1800    -3.5020     1.3540 H     1 <1>   0.0800 
@<TRIPOS>BOND
  1   1   2  2   
  2   2   3  am  
  3   2   4  am  
  4   3   5  1   
  5   3   6  1   
  6   4   7  1   
  7   4  20  1   
  8   5   8  1   
  9   5  21  1   
 10   5  22  1   
 11   6   9  1   
 12   6  23  1   
 13   6  24  1   
 14   7  10  ar  
 15   7  11  ar  
 16   8  12  2   
 17   8  25  1   
 18   9  13  2   
 19   9  26  1   
 20  10  14  ar  
 21  10  27  1   
 22  11  15  ar  
 23  11  28  1   
 24  12  29  1   
 25  12  30  1   
 26  13  31  1   
 27  13  32  1   
 28  14  16  ar  
 29  14  33  1   
 30  15  16  ar  
 31  15  34  1   
 32  16  17  1   
 33  17  18  1   
 34  17  19  1   
 35  17  35  1   
 36  18  36  1   
 37  18  37  1   
 38  18  38  1   
 39  19  39  1   
 40  19  40  1   
 41  19  41  1   
@<TRIPOS>SUBSTRUCTURE
  1 ****   4 GROUP 4 **** **** 0

# MOE 2024.06 (io_trps.svl 2023.06)
