@<TRIPOS>MOLECULE
NONAME
46 47 1 0 0 
SMALL
USER_CHARGES


@<TRIPOS>ATOM
  1 S       -0.7130    -0.6760    -1.9280 S.3   1 <1>  -0.3320 
  2 C        0.6200    -1.1460    -0.8110 C.ar  1 <1>   0.1020 
  3 C       -2.2570    -0.6320    -0.9130 C.3   1 <1>   0.0700 
  4 C        0.4150    -1.3280     0.5490 C.ar  1 <1>  -0.1500 
  5 C        1.8740    -1.3200    -1.3680 C.ar  1 <1>  -0.1500 
  6 C       -3.4220    -0.2790    -1.8330 C.3   1 <1>   0.1400 
  7 C        1.4830    -1.6930     1.3520 C.ar  1 <1>  -0.1500 
  8 C        2.9370    -1.6850    -0.5600 C.ar  1 <1>  -0.1500 
  9 N       -4.6980    -0.3900    -1.0900 N.am  1 <1>  -0.7300 
 10 C        2.7400    -1.8720     0.7980 C.ar  1 <1>  -0.1500 
 11 C       -5.2500     0.5860    -0.3220 C.2   1 <1>   0.5690 
 12 O       -4.7080     1.6530    -0.1660 O.2   1 <1>  -0.5700 
 13 C       -6.5840     0.3300     0.3660 C.3   1 <1>   0.1310 
 14 S       -6.9330    -1.4650     0.5370 S.3   1 <1>  -0.4600 
 15 C       -8.4530    -1.5060     1.5340 C.3   1 <1>   0.2130 
 16 C       -9.4330    -0.4900     0.9730 C.ar  1 <1>  -0.1430 
 17 C       -9.9970    -0.6830    -0.2780 C.ar  1 <1>  -0.1500 
 18 C       -9.7650     0.6410     1.7020 C.ar  1 <1>  -0.1500 
 19 C      -10.8800     0.2440    -0.8040 C.ar  1 <1>  -0.1430 
 20 C      -10.6460     1.5760     1.1860 C.ar  1 <1>  -0.1430 
 21 C      -11.2020     1.3710    -0.0660 C.ar  1 <1>  -0.1500 
 22 C      -11.4920     0.0260    -2.1750 C.3   1 <1>  -0.0970 
 23 C      -11.0060     2.8150     1.9870 C.3   1 <1>  -0.0970 
 24 H       -2.1260     0.1180    -0.1530 H     1 <1>   0.0800 
 25 H       -2.3810    -1.6080    -0.4810 H     1 <1>   0.0800 
 26 H       -0.5510    -1.1910     0.9930 H     1 <1>   0.1500 
 27 H        2.0120    -1.1710    -2.4240 H     1 <1>   0.1500 
 28 H       -3.4430    -0.9470    -2.6770 H     1 <1>   0.0800 
 29 H       -3.3010     0.7290    -2.1930 H     1 <1>   0.0800 
 30 H        1.3360    -1.8380     2.4080 H     1 <1>   0.1500 
 31 H        3.9150    -1.8230    -0.9880 H     1 <1>   0.1500 
 32 H       -5.1750    -1.2980    -1.1100 H     1 <1>   0.3700 
 33 H        3.5680    -2.1550     1.4260 H     1 <1>   0.1500 
 34 H       -7.3800     0.7640    -0.2100 H     1 <1>   0.0800 
 35 H       -6.5770     0.7530     1.3540 H     1 <1>   0.0800 
 36 H       -8.1770    -1.2790     2.5480 H     1 <1>   0.0800 
 37 H       -8.8470    -2.5050     1.4770 H     1 <1>   0.0800 
 38 H       -9.7410    -1.5610    -0.8470 H     1 <1>   0.1500 
 39 H       -9.3370     0.7990     2.6760 H     1 <1>   0.1500 
 40 H      -11.8900     2.0930    -0.4680 H     1 <1>   0.1500 
 41 H      -10.8200    -0.5300    -2.8030 H     1 <1>   0.0800 
 42 H      -11.6980     0.9690    -2.6490 H     1 <1>   0.0800 
 43 H      -12.4120    -0.5220    -2.0780 H     1 <1>   0.0800 
 44 H      -10.1940     3.0960     2.6320 H     1 <1>   0.0800 
 45 H      -11.8760     2.6180     2.5880 H     1 <1>   0.0800 
 46 H      -11.2170     3.6380     1.3290 H     1 <1>   0.0800 
@<TRIPOS>BOND
  1   1   2  1   
  2   1   3  1   
  3   2   4  ar  
  4   2   5  ar  
  5   3   6  1   
  6   3  24  1   
  7   3  25  1   
  8   4   7  ar  
  9   4  26  1   
 10   5   8  ar  
 11   5  27  1   
 12   6   9  1   
 13   6  28  1   
 14   6  29  1   
 15   7  10  ar  
 16   7  30  1   
 17   8  10  ar  
 18   8  31  1   
 19   9  11  am  
 20   9  32  1   
 21  10  33  1   
 22  11  12  2   
 23  11  13  1   
 24  13  14  1   
 25  13  34  1   
 26  13  35  1   
 27  14  15  1   
 28  15  16  1   
 29  15  36  1   
 30  15  37  1   
 31  16  17  ar  
 32  16  18  ar  
 33  17  19  ar  
 34  17  38  1   
 35  18  20  ar  
 36  18  39  1   
 37  19  21  ar  
 38  19  22  1   
 39  20  21  ar  
 40  20  23  1   
 41  21  40  1   
 42  22  41  1   
 43  22  42  1   
 44  22  43  1   
 45  23  44  1   
 46  23  45  1   
 47  23  46  1   
@<TRIPOS>SUBSTRUCTURE
  1 ****  11 GROUP 4 **** **** 0

# MOE 2024.06 (io_trps.svl 2023.06)
