@<TRIPOS>MOLECULE
NONAME
47 49 1 0 0 
SMALL
USER_CHARGES


@<TRIPOS>ATOM
  1 CL      -1.9220     1.2130    -0.6550 Cl    1 <1>  -0.1770 
  2 C       -3.1130    -0.0330    -0.3640 C.ar  1 <1>   0.1770 
  3 C       -2.9460    -0.8950     0.7050 C.ar  1 <1>  -0.1500 
  4 C       -4.2040    -0.1380    -1.2070 C.ar  1 <1>  -0.1500 
  5 C       -3.8930    -1.8780     0.9300 C.ar  1 <1>  -0.1500 
  6 C       -5.1450    -1.1260    -0.9730 C.ar  1 <1>  -0.1500 
  7 C       -4.9980    -2.0040     0.0970 C.ar  1 <1>   0.1000 
  8 N       -5.9300    -3.0020     0.3510 N.pl3 1 <1>  -0.8380 
  9 C       -6.0330    -4.0840    -0.6730 C.3   1 <1>   0.2090 
 10 C       -7.2750    -2.5400     0.8080 C.3   1 <1>   0.2090 
 11 C       -6.9340    -5.2350    -0.1820 C.3   1 <1>   0.1100 
 12 C       -8.1430    -3.7270     1.2670 C.3   1 <1>   0.1100 
 13 N       -8.2790    -4.7570     0.2050 N.3   1 <1>  -0.8100 
 14 C       -9.1470    -5.8880     0.6520 C.3   1 <1>   0.1710 
 15 C      -10.6360    -5.5380     0.7220 C.2   1 <1>   0.5690 
 16 O      -11.3710    -6.2210     1.3960 O.2   1 <1>  -0.5700 
 17 N      -11.0360    -4.4460     0.0100 N.am  1 <1>  -0.5470 
 18 C      -12.2490    -3.7480    -0.1130 C.ar  1 <1>   0.1170 
 19 C      -12.2220    -2.4490    -0.6350 C.ar  1 <1>   0.0830 
 20 C      -13.4690    -4.3000     0.2570 C.ar  1 <1>  -0.1500 
 21 O      -11.0010    -1.9400    -0.9850 O.3   1 <1>  -0.3630 
 22 C      -13.4070    -1.7330    -0.7760 C.ar  1 <1>  -0.1500 
 23 C      -14.6440    -3.5830     0.1150 C.ar  1 <1>  -0.1500 
 24 C      -10.8820    -0.6620    -1.5720 C.3   1 <1>   0.0400 
 25 C      -14.6130    -2.3010    -0.4010 C.ar  1 <1>  -0.1500 
 26 H       -2.0900    -0.7940     1.3470 H     1 <1>   0.1500 
 27 H       -4.3100     0.5440    -2.0310 H     1 <1>   0.1500 
 28 H       -3.7890    -2.5620     1.7530 H     1 <1>   0.1500 
 29 H       -5.9990    -1.2220    -1.6170 H     1 <1>   0.1500 
 30 H       -5.0490    -4.4640    -0.8850 H     1 <1>   0.0800 
 31 H       -6.4420    -3.6820    -1.5830 H     1 <1>   0.0800 
 32 H       -7.7760    -2.0280     0.0050 H     1 <1>   0.0800 
 33 H       -7.1530    -1.8490     1.6240 H     1 <1>   0.0800 
 34 H       -6.4570    -5.7110     0.6570 H     1 <1>   0.0800 
 35 H       -7.0250    -5.9590    -0.9730 H     1 <1>   0.0800 
 36 H       -9.1120    -3.3510     1.5440 H     1 <1>   0.0800 
 37 H       -7.6920    -4.1610     2.1440 H     1 <1>   0.0800 
 38 H       -8.8270    -6.2380     1.6180 H     1 <1>   0.0800 
 39 H       -9.0520    -6.7030    -0.0420 H     1 <1>   0.0800 
 40 H      -10.2420    -3.9670    -0.4310 H     1 <1>   0.3700 
 41 H      -13.5080    -5.2970     0.6550 H     1 <1>   0.1500 
 42 H      -13.4170    -0.7360    -1.1720 H     1 <1>   0.1500 
 43 H      -15.5800    -4.0270     0.4070 H     1 <1>   0.1500 
 44 H       -9.8430    -0.4870    -1.7820 H     1 <1>   0.0800 
 45 H      -11.2440     0.0760    -0.8780 H     1 <1>   0.0800 
 46 H      -11.4480    -0.6440    -2.4860 H     1 <1>   0.0800 
 47 H      -15.5290    -1.7450    -0.5110 H     1 <1>   0.1500 
@<TRIPOS>BOND
  1   1   2  1   
  2   2   3  ar  
  3   2   4  ar  
  4   3   5  ar  
  5   3  26  1   
  6   4   6  ar  
  7   4  27  1   
  8   5   7  ar  
  9   5  28  1   
 10   6   7  ar  
 11   6  29  1   
 12   7   8  1   
 13   8   9  1   
 14   8  10  1   
 15   9  11  1   
 16   9  30  1   
 17   9  31  1   
 18  10  12  1   
 19  10  32  1   
 20  10  33  1   
 21  11  13  1   
 22  11  34  1   
 23  11  35  1   
 24  12  13  1   
 25  12  36  1   
 26  12  37  1   
 27  13  14  1   
 28  14  15  1   
 29  14  38  1   
 30  14  39  1   
 31  15  16  2   
 32  15  17  am  
 33  17  18  1   
 34  17  40  1   
 35  18  19  ar  
 36  18  20  ar  
 37  19  21  1   
 38  19  22  ar  
 39  20  23  ar  
 40  20  41  1   
 41  21  24  1   
 42  22  25  ar  
 43  22  42  1   
 44  23  25  ar  
 45  23  43  1   
 46  24  44  1   
 47  24  45  1   
 48  24  46  1   
 49  25  47  1   
@<TRIPOS>SUBSTRUCTURE
  1 ****  10 GROUP 4 **** **** 0

# MOE 2024.06 (io_trps.svl 2023.06)
