@<TRIPOS>MOLECULE
NONAME
53 54 1 0 0 
SMALL
USER_CHARGES


@<TRIPOS>ATOM
  1 O        2.3860    -5.9040    -1.6700 O.2   1 <1>  -0.5700 
  2 C        2.3660    -6.1040    -0.4810 C.2   1 <1>   0.5690 
  3 N        3.4930    -6.3250     0.2410 N.am  1 <1>  -0.7300 
  4 C        1.0140    -6.1040     0.2280 C.3   1 <1>  -0.0190 
  5 C        4.8590    -6.3470    -0.3130 C.3   1 <1>   0.2200 
  6 C        0.1050    -7.2140    -0.3360 C.3   1 <1>  -0.1600 
  7 C        0.3280    -4.7320     0.0880 C.3   1 <1>  -0.1600 
  8 C        5.4070    -7.7680    -0.1390 C.3   1 <1>  -0.1600 
  9 C        5.6710    -5.2500     0.3900 C.3   1 <1>  -0.1600 
 10 C       -1.3110    -7.1530     0.2310 C.3   1 <1>   0.3430 
 11 C       -1.0910    -4.7350     0.6520 C.3   1 <1>   0.3430 
 12 C        6.8660    -7.9630    -0.5870 C.3   1 <1>  -0.1600 
 13 C        7.0010    -4.9580    -0.3220 C.3   1 <1>  -0.1600 
 14 N       -1.8920    -5.8010    -0.0120 N.4   1 <1>  -0.9590 
 15 C        7.8690    -7.3240     0.3840 C.3   1 <1>  -0.1600 
 16 C        8.1780    -5.8430     0.1150 C.3   1 <1>  -0.1600 
 17 C       -3.3270    -5.6940     0.3950 C.3   1 <1>   0.3430 
 18 C       -4.2500    -6.5800    -0.4650 C.3   1 <1>  -0.0800 
 19 C       -5.5450    -5.8210    -0.7850 C.3   1 <1>  -0.2400 
 20 C       -4.6090    -7.8960     0.2450 C.3   1 <1>  -0.2400 
 21 H        3.4510    -6.4940     1.2450 H     1 <1>   0.3700 
 22 H        1.1780    -6.2980     1.2740 H     1 <1>   0.0800 
 23 H        4.8160    -6.1210    -1.3670 H     1 <1>   0.0800 
 24 H        0.5350    -8.1740    -0.1100 H     1 <1>   0.0800 
 25 H        0.0540    -7.1350    -1.4090 H     1 <1>   0.0800 
 26 H        0.2920    -4.4430    -0.9490 H     1 <1>   0.0800 
 27 H        0.9120    -3.9890     0.6030 H     1 <1>   0.0800 
 28 H        4.7930    -8.4260    -0.7290 H     1 <1>   0.0800 
 29 H        5.3150    -8.0690     0.8890 H     1 <1>   0.0800 
 30 H        5.8450    -5.5000     1.4220 H     1 <1>   0.0800 
 31 H        5.0900    -4.3450     0.3600 H     1 <1>   0.0800 
 32 H       -1.2930    -7.3610     1.2890 H     1 <1>   0.0800 
 33 H       -1.9100    -7.9060    -0.2550 H     1 <1>   0.0800 
 34 H       -1.5430    -3.7710     0.4800 H     1 <1>   0.0800 
 35 H       -1.0590    -4.9100     1.7160 H     1 <1>   0.0800 
 36 H        7.0130    -7.5920    -1.5880 H     1 <1>   0.0800 
 37 H        7.0580    -9.0220    -0.6100 H     1 <1>   0.0800 
 38 H        7.2750    -3.9340    -0.1350 H     1 <1>   0.0800 
 39 H        6.8620    -5.0480    -1.3870 H     1 <1>   0.0800 
 40 H       -1.8410    -5.6290    -1.0260 H     1 <1>   0.4500 
 41 H        8.7970    -7.8670     0.3240 H     1 <1>   0.0800 
 42 H        7.5130    -7.4380     1.3940 H     1 <1>   0.0800 
 43 H        8.6080    -5.4280     1.0110 H     1 <1>   0.0800 
 44 H        8.9350    -5.7830    -0.6480 H     1 <1>   0.0800 
 45 H       -3.6410    -4.6700     0.2750 H     1 <1>   0.0800 
 46 H       -3.4440    -5.9510     1.4350 H     1 <1>   0.0800 
 47 H       -3.7710    -6.8030    -1.4040 H     1 <1>   0.0800 
 48 H       -6.0830    -5.5750     0.1150 H     1 <1>   0.0800 
 49 H       -6.1870    -6.4230    -1.4060 H     1 <1>   0.0800 
 50 H       -5.3320    -4.9100    -1.3170 H     1 <1>   0.0800 
 51 H       -5.1270    -7.7020     1.1690 H     1 <1>   0.0800 
 52 H       -3.7390    -8.4870     0.4630 H     1 <1>   0.0800 
 53 H       -5.2560    -8.4870    -0.3800 H     1 <1>   0.0800 
@<TRIPOS>BOND
  1   1   2  2   
  2   2   3  am  
  3   2   4  1   
  4   3   5  1   
  5   3  21  1   
  6   4   6  1   
  7   4   7  1   
  8   4  22  1   
  9   5   8  1   
 10   5   9  1   
 11   5  23  1   
 12   6  10  1   
 13   6  24  1   
 14   6  25  1   
 15   7  11  1   
 16   7  26  1   
 17   7  27  1   
 18   8  12  1   
 19   8  28  1   
 20   8  29  1   
 21   9  13  1   
 22   9  30  1   
 23   9  31  1   
 24  10  14  1   
 25  10  32  1   
 26  10  33  1   
 27  11  14  1   
 28  11  34  1   
 29  11  35  1   
 30  12  15  1   
 31  12  36  1   
 32  12  37  1   
 33  13  16  1   
 34  13  38  1   
 35  13  39  1   
 36  14  17  1   
 37  14  40  1   
 38  15  16  1   
 39  15  41  1   
 40  15  42  1   
 41  16  43  1   
 42  16  44  1   
 43  17  18  1   
 44  17  45  1   
 45  17  46  1   
 46  18  19  1   
 47  18  20  1   
 48  18  47  1   
 49  19  48  1   
 50  19  49  1   
 51  19  50  1   
 52  20  51  1   
 53  20  52  1   
 54  20  53  1   
@<TRIPOS>SUBSTRUCTURE
  1 ****   4 GROUP 4 **** **** 0

# MOE 2024.06 (io_trps.svl 2023.06)
