@<TRIPOS>MOLECULE
NONAME
33 34 1 0 0 
SMALL
USER_CHARGES


@<TRIPOS>ATOM
  1 F       -1.7210    -2.3410    -2.9510 F     1 <1>  -0.3400 
  2 C       -0.5600    -1.8820    -2.4860 C.3   1 <1>   1.0200 
  3 F        0.3820    -2.5240    -3.1690 F     1 <1>  -0.3400 
  4 F       -0.4930    -0.6160    -2.8960 F     1 <1>  -0.3400 
  5 C       -0.4450    -2.0120    -0.9090 C.3   1 <1>   0.5800 
  6 O        0.8110    -1.6680    -0.3940 O.3   1 <1>  -0.6800 
  7 N       -0.7640    -3.3750    -0.3780 N.am  1 <1>  -0.2980 
  8 C       -1.4780    -1.1270    -0.1890 C.3   1 <1>  -0.0990 
  9 N       -1.8480    -3.3270     0.4810 N.2   1 <1>  -0.5120 
 10 C        0.0450    -4.4790    -0.6430 C.2   1 <1>   0.7150 
 11 C       -2.2470    -2.1430     0.6120 C.2   1 <1>   0.3280 
 12 O        1.1560    -4.2620    -1.1030 O.2   1 <1>  -0.5700 
 13 C       -0.3930    -5.8360    -0.3790 C.2   1 <1>   0.0550 
 14 C       -3.4030    -1.6960     1.4900 C.3   1 <1>  -0.0990 
 15 O        0.4610    -6.8510    -0.5010 O.3   1 <1>  -0.2800 
 16 C       -1.6000    -6.3540    -0.0070 C.2   1 <1>  -0.1500 
 17 C       -4.5930    -1.1660     0.6780 C.3   1 <1>  -0.2400 
 18 C       -0.1530    -7.9760    -0.2220 C.2   1 <1>  -0.0400 
 19 C       -1.4420    -7.7360     0.0950 C.2   1 <1>  -0.1500 
 20 C        0.6270    -9.2690    -0.2940 C.3   1 <1>  -0.0600 
 21 H        1.4210    -2.4170    -0.5980 H     1 <1>   0.4000 
 22 H       -2.1360    -0.6320    -0.8790 H     1 <1>   0.0800 
 23 H       -1.0140    -0.4000     0.4520 H     1 <1>   0.0800 
 24 H       -3.0570    -0.9380     2.1700 H     1 <1>   0.0800 
 25 H       -3.7290    -2.5370     2.0780 H     1 <1>   0.0800 
 26 H       -2.5180    -5.8270     0.1790 H     1 <1>   0.1500 
 27 H       -4.3240    -0.2780     0.1350 H     1 <1>   0.0800 
 28 H       -5.4080    -0.9250     1.3380 H     1 <1>   0.0800 
 29 H       -4.9300    -1.9140    -0.0190 H     1 <1>   0.0800 
 30 H       -2.2090    -8.4380     0.3700 H     1 <1>   0.1500 
 31 H        1.0080    -9.4060    -1.2900 H     1 <1>   0.0800 
 32 H       -0.0050   -10.1000    -0.0410 H     1 <1>   0.0800 
 33 H        1.4520    -9.2320     0.3930 H     1 <1>   0.0800 
@<TRIPOS>BOND
  1   1   2  1   
  2   2   3  1   
  3   2   4  1   
  4   2   5  1   
  5   5   6  1   
  6   5   7  1   
  7   5   8  1   
  8   6  21  1   
  9   7   9  1   
 10   7  10  am  
 11   8  11  1   
 12   8  22  1   
 13   8  23  1   
 14   9  11  2   
 15  10  12  2   
 16  10  13  1   
 17  11  14  1   
 18  13  15  1   
 19  13  16  2   
 20  14  17  1   
 21  14  24  1   
 22  14  25  1   
 23  15  18  1   
 24  16  19  1   
 25  16  26  1   
 26  17  27  1   
 27  17  28  1   
 28  17  29  1   
 29  18  19  2   
 30  18  20  1   
 31  19  30  1   
 32  20  31  1   
 33  20  32  1   
 34  20  33  1   
@<TRIPOS>SUBSTRUCTURE
  1 ****   7 GROUP 4 **** **** 0

# MOE 2024.06 (io_trps.svl 2023.06)
