@<TRIPOS>MOLECULE
NONAME
47 48 1 0 0 
SMALL
USER_CHARGES


@<TRIPOS>ATOM
  1 O       -1.3570    -0.6840    -1.5550 O.2   1 <1>  -0.5700 
  2 C       -2.3700    -0.9850    -0.9680 C.2   1 <1>   0.7800 
  3 O       -3.1020    -0.0160    -0.4270 O.3   1 <1>  -0.4300 
  4 N       -2.7380    -2.2820    -0.8590 N.am  1 <1>  -0.7300 
  5 C       -4.4720     0.1150    -0.7390 C.3   1 <1>   0.1200 
  6 C       -3.5690    -2.8980     0.1900 C.3   1 <1>   0.2200 
  7 C       -5.1840     0.7260     0.4670 C.3   1 <1>   0.1400 
  8 C       -2.6510    -3.6490     1.1610 C.3   1 <1>  -0.1600 
  9 C       -4.5760    -3.8480    -0.4690 C.3   1 <1>  -0.1600 
 10 N       -6.6540     0.7120     0.2570 N.am  1 <1>  -0.7300 
 11 C       -3.4630    -4.4120     2.2170 C.3   1 <1>  -0.1600 
 12 C       -5.3850    -4.6210     0.5830 C.3   1 <1>  -0.1600 
 13 C       -7.4340    -0.3960     0.4090 C.2   1 <1>   0.6160 
 14 C       -4.4650    -5.3680     1.5570 C.3   1 <1>  -0.1600 
 15 O       -6.9000    -1.4510     0.6860 O.2   1 <1>  -0.5700 
 16 C       -8.8550    -0.3070     0.2290 C.2   1 <1>  -0.1360 
 17 C       -9.7460    -1.3220     0.3190 C.2   1 <1>  -0.1780 
 18 C      -11.1780    -1.2930     0.1470 C.ar  1 <1>   0.0280 
 19 C      -11.8990    -0.1110    -0.0270 C.ar  1 <1>  -0.1500 
 20 C      -11.8980    -2.4870     0.1530 C.ar  1 <1>  -0.1500 
 21 C      -13.2720    -0.1220    -0.1910 C.ar  1 <1>  -0.1500 
 22 C      -13.2700    -2.5050    -0.0100 C.ar  1 <1>  -0.1500 
 23 C      -13.9620    -1.3200    -0.1840 C.ar  1 <1>  -0.1500 
 24 H       -2.1120    -2.9280    -1.3340 H     1 <1>   0.3700 
 25 H       -4.5540     0.7560    -1.5990 H     1 <1>   0.0800 
 26 H       -4.8860    -0.8500    -0.9700 H     1 <1>   0.0800 
 27 H       -4.1060    -2.1410     0.7370 H     1 <1>   0.0800 
 28 H       -4.8490     1.7370     0.6190 H     1 <1>   0.0800 
 29 H       -4.9530     0.1450     1.3450 H     1 <1>   0.0800 
 30 H       -2.0440    -4.3500     0.6150 H     1 <1>   0.0800 
 31 H       -2.0020    -2.9450     1.6530 H     1 <1>   0.0800 
 32 H       -5.2530    -3.2800    -1.0820 H     1 <1>   0.0800 
 33 H       -4.0540    -4.5500    -1.0940 H     1 <1>   0.0800 
 34 H       -7.0840     1.6040     0.0130 H     1 <1>   0.3700 
 35 H       -2.7970    -4.9680     2.8530 H     1 <1>   0.0800 
 36 H       -3.9980    -3.7080     2.8330 H     1 <1>   0.0800 
 37 H       -6.0010    -3.9310     1.1350 H     1 <1>   0.0800 
 38 H       -6.0400    -5.3210     0.0920 H     1 <1>   0.0800 
 39 H       -5.0600    -5.8470     2.3170 H     1 <1>   0.0800 
 40 H       -3.9300    -6.1370     1.0250 H     1 <1>   0.0800 
 41 H       -9.1910     0.6820    -0.0010 H     1 <1>   0.1500 
 42 H       -9.3600    -2.3020     0.5480 H     1 <1>   0.1500 
 43 H      -11.3900     0.8340    -0.0330 H     1 <1>   0.1500 
 44 H      -11.3750    -3.4170     0.2860 H     1 <1>   0.1500 
 45 H      -13.8070     0.8020    -0.3250 H     1 <1>   0.1500 
 46 H      -13.8020    -3.4410    -0.0030 H     1 <1>   0.1500 
 47 H      -15.0310    -1.3310    -0.3110 H     1 <1>   0.1500 
@<TRIPOS>BOND
  1   1   2  2   
  2   2   3  1   
  3   2   4  am  
  4   3   5  1   
  5   4   6  1   
  6   4  24  1   
  7   5   7  1   
  8   5  25  1   
  9   5  26  1   
 10   6   8  1   
 11   6   9  1   
 12   6  27  1   
 13   7  10  1   
 14   7  28  1   
 15   7  29  1   
 16   8  11  1   
 17   8  30  1   
 18   8  31  1   
 19   9  12  1   
 20   9  32  1   
 21   9  33  1   
 22  10  13  am  
 23  10  34  1   
 24  11  14  1   
 25  11  35  1   
 26  11  36  1   
 27  12  14  1   
 28  12  37  1   
 29  12  38  1   
 30  13  15  2   
 31  13  16  1   
 32  14  39  1   
 33  14  40  1   
 34  16  17  2   
 35  16  41  1   
 36  17  18  1   
 37  17  42  1   
 38  18  19  ar  
 39  18  20  ar  
 40  19  21  ar  
 41  19  43  1   
 42  20  22  ar  
 43  20  44  1   
 44  21  23  ar  
 45  21  45  1   
 46  22  23  ar  
 47  22  46  1   
 48  23  47  1   
@<TRIPOS>SUBSTRUCTURE
  1 ****  15 GROUP 4 **** **** 0

# MOE 2024.06 (io_trps.svl 2023.06)
