@<TRIPOS>MOLECULE
NONAME
18 20 1 0 0 
SMALL
USER_CHARGES


@<TRIPOS>ATOM
  1 O        0.3920     1.6120     0.2020 O.2   1 <1>  -0.5700 
  2 C       -0.7320     1.9340    -0.0510 C.2   1 <1>   0.5090 
  3 C       -2.0390     1.6210     0.6620 C.3   1 <1>  -0.0190 
  4 C       -1.2630     2.7940    -1.1580 C.3   1 <1>  -0.1000 
  5 C       -2.8890     1.0830    -0.5210 C.3   1 <1>  -0.0910 
  6 C       -2.6040     3.0510     0.8620 C.3   1 <1>  -0.0650 
  7 C       -2.6380     2.2870    -1.4430 C.3   1 <1>  -0.1950 
  8 C       -2.4540     3.4920    -0.5930 C.3   1 <1>  -0.1950 
  9 C       -4.3480     0.7900    -0.1810 C.2   1 <1>   0.9060 
 10 O       -4.6570     0.5850     0.9990 O.co2 1 <1>  -0.9000 
 11 O       -5.1750     0.7320    -1.0970 O.co2 1 <1>  -0.9000 
 12 H       -1.9730     0.9940     1.5320 H     1 <1>   0.0800 
 13 H       -0.6150     3.2050    -1.9090 H     1 <1>   0.1000 
 14 H       -2.4620     0.1890    -0.9320 H     1 <1>   0.0800 
 15 H       -3.6310     3.0480     1.1860 H     1 <1>   0.0800 
 16 H       -1.9980     3.6380     1.5300 H     1 <1>   0.0800 
 17 H       -3.1220     2.3410    -2.4040 H     1 <1>   0.1000 
 18 H       -2.7870     4.4640    -0.9150 H     1 <1>   0.1000 
@<TRIPOS>BOND
  1   1   2  2   
  2   2   3  1   
  3   2   4  1   
  4   3   5  1   
  5   3   6  1   
  6   3  12  1   
  7   4   7  1   
  8   4   8  1   
  9   4  13  1   
 10   5   7  1   
 11   5   9  1   
 12   5  14  1   
 13   6   8  1   
 14   6  15  1   
 15   6  16  1   
 16   7   8  1   
 17   7  17  1   
 18   8  18  1   
 19   9  10  ar  
 20   9  11  ar  
@<TRIPOS>SUBSTRUCTURE
  1 ****   5 GROUP 4 **** **** 0

# MOE 2024.06 (io_trps.svl 2023.06)
