@<TRIPOS>MOLECULE
NONAME
35 36 1 0 0 
SMALL
USER_CHARGES


@<TRIPOS>ATOM
  1 CL       0.1410    -0.8950     0.9610 Cl    1 <1>  -0.1770 
  2 C       -1.0540     0.2960     0.4780 C.ar  1 <1>   0.1770 
  3 C       -0.7370     1.5620    -0.0460 C.ar  1 <1>   0.0830 
  4 C       -2.3710    -0.0950     0.6420 C.ar  1 <1>  -0.1500 
  5 O        0.5030     2.0880    -0.2630 O.3   1 <1>  -0.3630 
  6 C       -1.7820     2.4090    -0.3980 C.ar  1 <1>  -0.1500 
  7 C       -3.3820     0.7740     0.2840 C.ar  1 <1>   0.1770 
  8 C        1.7040     1.4550     0.0970 C.3   1 <1>   0.1200 
  9 C       -3.1010     2.0230    -0.2360 C.ar  1 <1>  -0.1500 
 10 CL      -5.0440     0.2850     0.4900 Cl    1 <1>  -0.1770 
 11 C        2.8550     2.4060    -0.2420 C.3   1 <1>   0.3430 
 12 N        4.1920     1.8730     0.1840 N.4   1 <1>  -0.9590 
 13 C        5.2320     2.9360     0.0550 C.3   1 <1>   0.3430 
 14 C        4.5820     0.6400    -0.5680 C.3   1 <1>   0.3430 
 15 C        6.5580     2.4350     0.6290 C.3   1 <1>  -0.1600 
 16 C        5.8950     0.0880    -0.0080 C.3   1 <1>  -0.1600 
 17 C        7.0150     1.1350    -0.0460 C.3   1 <1>  -0.1600 
 18 H       -2.6100    -1.0630     1.0430 H     1 <1>   0.1500 
 19 H       -1.5590     3.3810    -0.8030 H     1 <1>   0.1500 
 20 H        1.7810     0.5460    -0.4710 H     1 <1>   0.0800 
 21 H        1.6750     1.2610     1.1550 H     1 <1>   0.0800 
 22 H       -3.9080     2.6810    -0.5090 H     1 <1>   0.1500 
 23 H        2.6720     3.3430     0.2590 H     1 <1>   0.0800 
 24 H        2.8590     2.5860    -1.3050 H     1 <1>   0.0800 
 25 H        4.1480     1.6230     1.1810 H     1 <1>   0.4500 
 26 H        4.9260     3.8230     0.5870 H     1 <1>   0.0800 
 27 H        5.3660     3.1930    -0.9840 H     1 <1>   0.0800 
 28 H        4.7080     0.8740    -1.6130 H     1 <1>   0.0800 
 29 H        3.8160    -0.1130    -0.4790 H     1 <1>   0.0800 
 30 H        6.4550     2.2810     1.6900 H     1 <1>   0.0800 
 31 H        7.3110     3.1910     0.4880 H     1 <1>   0.0800 
 32 H        6.1910    -0.7690    -0.5880 H     1 <1>   0.0800 
 33 H        5.7400    -0.2480     1.0030 H     1 <1>   0.0800 
 34 H        7.8920     0.7520     0.4500 H     1 <1>   0.0800 
 35 H        7.2830     1.3380    -1.0700 H     1 <1>   0.0800 
@<TRIPOS>BOND
  1   1   2  1   
  2   2   3  ar  
  3   2   4  ar  
  4   3   5  1   
  5   3   6  ar  
  6   4   7  ar  
  7   4  18  1   
  8   5   8  1   
  9   6   9  ar  
 10   6  19  1   
 11   7   9  ar  
 12   7  10  1   
 13   8  11  1   
 14   8  20  1   
 15   8  21  1   
 16   9  22  1   
 17  11  12  1   
 18  11  23  1   
 19  11  24  1   
 20  12  13  1   
 21  12  14  1   
 22  12  25  1   
 23  13  15  1   
 24  13  26  1   
 25  13  27  1   
 26  14  16  1   
 27  14  28  1   
 28  14  29  1   
 29  15  17  1   
 30  15  30  1   
 31  15  31  1   
 32  16  17  1   
 33  16  32  1   
 34  16  33  1   
 35  17  34  1   
 36  17  35  1   
@<TRIPOS>SUBSTRUCTURE
  1 ****   8 GROUP 4 **** **** 0

# MOE 2024.06 (io_trps.svl 2023.06)
