@<TRIPOS>MOLECULE
NONAME
29 29 1 0 0 
SMALL
USER_CHARGES


@<TRIPOS>ATOM
  1 F       -2.8360     1.4200     0.1720 F     1 <1>  -0.3400 
  2 C       -1.6180     1.9350     0.0470 C.3   1 <1>   0.8800 
  3 F       -0.7770     0.9610     0.3620 F     1 <1>  -0.3400 
  4 O       -1.4820     2.9540     1.0080 O.3   1 <1>  -0.3630 
  5 C       -1.3390     4.2010     0.4990 C.ar  1 <1>   0.0820 
  6 C       -2.4080     4.8530    -0.1250 C.ar  1 <1>   0.1170 
  7 C       -0.1010     4.8090     0.6140 C.ar  1 <1>  -0.1500 
  8 N       -3.6750     4.2430    -0.1760 N.am  1 <1>  -0.5470 
  9 C       -2.1820     6.1170    -0.6580 C.ar  1 <1>  -0.1500 
 10 C        0.1010     6.0700     0.0820 C.ar  1 <1>  -0.1500 
 11 C       -4.6640     4.3320    -1.1120 C.2   1 <1>   0.5690 
 12 C       -0.9390     6.7210    -0.5580 C.ar  1 <1>  -0.1500 
 13 O       -4.5650     4.9780    -2.1250 O.2   1 <1>  -0.5700 
 14 C       -5.9400     3.5500    -0.8630 C.3   1 <1>  -0.0990 
 15 C       -6.7970     4.1720     0.2520 C.3   1 <1>  -0.1600 
 16 C       -8.0790     3.3670     0.4820 C.3   1 <1>  -0.2400 
 17 H       -1.4490     2.2650    -0.9640 H     1 <1>   0.0800 
 18 H        0.7020     4.2980     1.1160 H     1 <1>   0.1500 
 19 H       -3.8560     3.5870     0.5860 H     1 <1>   0.3700 
 20 H       -2.9830     6.6410    -1.1500 H     1 <1>   0.1500 
 21 H        1.0640     6.5450     0.1650 H     1 <1>   0.1500 
 22 H       -0.7860     7.7000    -0.9770 H     1 <1>   0.1500 
 23 H       -5.6830     2.5380    -0.6100 H     1 <1>   0.0800 
 24 H       -6.5060     3.5260    -1.7770 H     1 <1>   0.0800 
 25 H       -7.0550     5.1820    -0.0220 H     1 <1>   0.0800 
 26 H       -6.2340     4.2120     1.1690 H     1 <1>   0.0800 
 27 H       -8.6720     3.3370    -0.4150 H     1 <1>   0.0800 
 28 H       -8.6640     3.8220     1.2620 H     1 <1>   0.0800 
 29 H       -7.8450     2.3580     0.7770 H     1 <1>   0.0800 
@<TRIPOS>BOND
  1   1   2  1   
  2   2   3  1   
  3   2   4  1   
  4   2  17  1   
  5   4   5  1   
  6   5   6  ar  
  7   5   7  ar  
  8   6   8  1   
  9   6   9  ar  
 10   7  10  ar  
 11   7  18  1   
 12   8  11  am  
 13   8  19  1   
 14   9  12  ar  
 15   9  20  1   
 16  10  12  ar  
 17  10  21  1   
 18  11  13  2   
 19  11  14  1   
 20  12  22  1   
 21  14  15  1   
 22  14  23  1   
 23  14  24  1   
 24  15  16  1   
 25  15  25  1   
 26  15  26  1   
 27  16  27  1   
 28  16  28  1   
 29  16  29  1   
@<TRIPOS>SUBSTRUCTURE
  1 ****   8 GROUP 4 **** **** 0

# MOE 2024.06 (io_trps.svl 2023.06)
