@<TRIPOS>MOLECULE
NONAME
39 40 1 0 0 
SMALL
USER_CHARGES


@<TRIPOS>ATOM
  1 S       -0.2830    -1.2140     2.2800 S.3   1 <1>  -0.0800 
  2 C        0.4780    -1.6870     0.7730 C.2   1 <1>  -0.1400 
  3 C       -1.8710    -1.5390     1.6270 C.2   1 <1>  -0.1100 
  4 C       -0.4540    -2.0580    -0.1220 C.2   1 <1>  -0.1500 
  5 C        1.9910    -1.6260     0.6920 C.3   1 <1>   0.0200 
  6 C       -1.8160    -1.9800     0.3450 C.2   1 <1>  -0.0860 
  7 C        2.4860    -0.1780     0.6920 C.3   1 <1>  -0.2400 
  8 C       -2.9360    -2.3410    -0.5010 C.2   1 <1>   0.7160 
  9 O       -2.7670    -2.7600    -1.6300 O.2   1 <1>  -0.5700 
 10 N       -4.2060    -2.2090    -0.0340 N.am  1 <1>  -0.7300 
 11 C       -5.4160    -2.3800    -0.8390 C.3   1 <1>   0.3640 
 12 C       -6.4910    -1.4660    -0.2620 C.ar  1 <1>  -0.1440 
 13 C       -5.8350    -3.8480    -0.8090 C.3   1 <1>  -0.2400 
 14 C       -6.9920    -0.4260    -1.0310 C.ar  1 <1>  -0.1500 
 15 C       -6.9800    -1.6420     1.0270 C.ar  1 <1>  -0.1500 
 16 C       -7.9650     0.4260    -0.5350 C.ar  1 <1>   0.0820 
 17 C       -7.9520    -0.7950     1.5320 C.ar  1 <1>  -0.1500 
 18 O       -8.3920     1.4120    -1.3640 O.3   1 <1>  -0.3620 
 19 C       -8.4460     0.2380     0.7570 C.ar  1 <1>  -0.1500 
 20 C       -9.3870     2.3270    -0.9640 C.3   1 <1>   0.0400 
 21 H       -2.7050    -1.3650     2.2820 H     1 <1>   0.1500 
 22 H       -0.2490    -2.3950    -1.1250 H     1 <1>   0.1500 
 23 H        2.3130    -2.1100    -0.2140 H     1 <1>   0.0800 
 24 H        2.4160    -2.1600     1.5240 H     1 <1>   0.0800 
 25 H        2.0510     0.3610    -0.1310 H     1 <1>   0.0800 
 26 H        3.5570    -0.1530     0.5960 H     1 <1>   0.0800 
 27 H        2.2110     0.3120     1.6090 H     1 <1>   0.0800 
 28 H       -4.3620    -1.7100     0.8370 H     1 <1>   0.3700 
 29 H       -5.2080    -2.0960    -1.8580 H     1 <1>   0.0800 
 30 H       -5.9780    -4.1910     0.1980 H     1 <1>   0.0800 
 31 H       -5.0820    -4.4490    -1.2850 H     1 <1>   0.0800 
 32 H       -6.7570    -3.9680    -1.3490 H     1 <1>   0.0800 
 33 H       -6.6320    -0.2610    -2.0310 H     1 <1>   0.1500 
 34 H       -6.6090    -2.4400     1.6460 H     1 <1>   0.1500 
 35 H       -8.3240    -0.9420     2.5310 H     1 <1>   0.1500 
 36 H       -9.2000     0.8800     1.1710 H     1 <1>   0.1500 
 37 H       -9.5630     3.0060    -1.7790 H     1 <1>   0.0800 
 38 H       -9.0360     2.8710    -0.1050 H     1 <1>   0.0800 
 39 H      -10.2880     1.7860    -0.7380 H     1 <1>   0.0800 
@<TRIPOS>BOND
  1   1   2  1   
  2   1   3  1   
  3   2   4  2   
  4   2   5  1   
  5   3   6  2   
  6   3  21  1   
  7   4   6  1   
  8   4  22  1   
  9   5   7  1   
 10   5  23  1   
 11   5  24  1   
 12   6   8  1   
 13   7  25  1   
 14   7  26  1   
 15   7  27  1   
 16   8   9  2   
 17   8  10  am  
 18  10  11  1   
 19  10  28  1   
 20  11  12  1   
 21  11  13  1   
 22  11  29  1   
 23  12  14  ar  
 24  12  15  ar  
 25  13  30  1   
 26  13  31  1   
 27  13  32  1   
 28  14  16  ar  
 29  14  33  1   
 30  15  17  ar  
 31  15  34  1   
 32  16  18  1   
 33  16  19  ar  
 34  17  19  ar  
 35  17  35  1   
 36  18  20  1   
 37  19  36  1   
 38  20  37  1   
 39  20  38  1   
 40  20  39  1   
@<TRIPOS>SUBSTRUCTURE
  1 ****  10 GROUP 4 **** **** 0

# MOE 2024.06 (io_trps.svl 2023.06)
