@<TRIPOS>MOLECULE
NONAME
36 37 1 0 0 
SMALL
USER_CHARGES


@<TRIPOS>ATOM
  1 O       -1.3800     0.2360     0.1280 O.2   1 <1>  -0.5700 
  2 C       -1.4440     1.4190    -0.1590 C.2   1 <1>   0.6900 
  3 N       -2.5070     1.8780    -0.8920 N.am  1 <1>  -0.6600 
  4 N       -0.4580     2.2820     0.2630 N.am  1 <1>  -0.6600 
  5 C       -3.3190     0.9260    -1.7110 C.3   1 <1>   0.1400 
  6 C       -3.2960     3.0580    -0.4240 C.3   1 <1>   0.1400 
  7 C        0.5050     1.8750     1.3210 C.3   1 <1>   0.0600 
  8 C       -0.0500     3.4760    -0.5240 C.3   1 <1>   0.0600 
  9 C       -4.5900     0.4930    -0.9630 C.3   1 <1>   0.2090 
 10 C       -4.5800     2.6190     0.3040 C.3   1 <1>   0.2090 
 11 N       -5.3880     1.6820    -0.5310 N.pl3 1 <1>  -0.8380 
 12 C       -6.6740     1.4190    -0.0720 C.ar  1 <1>   0.1000 
 13 C       -6.8990     0.6770     1.0820 C.ar  1 <1>  -0.1500 
 14 C       -7.7660     1.9060    -0.7760 C.ar  1 <1>  -0.1500 
 15 C       -8.1870     0.4280     1.5220 C.ar  1 <1>  -0.1500 
 16 C       -9.0560     1.6610    -0.3410 C.ar  1 <1>  -0.1500 
 17 C       -9.2680     0.9210     0.8110 C.ar  1 <1>  -0.1500 
 18 H       -2.7320     0.0560    -1.9520 H     1 <1>   0.0800 
 19 H       -3.5980     1.4030    -2.6330 H     1 <1>   0.0800 
 20 H       -3.5620     3.6620    -1.2730 H     1 <1>   0.0800 
 21 H       -2.7070     3.6580     0.2450 H     1 <1>   0.0800 
 22 H        0.0740     1.1080     1.9420 H     1 <1>   0.0800 
 23 H        0.7520     2.7200     1.9380 H     1 <1>   0.0800 
 24 H        1.4000     1.4880     0.8660 H     1 <1>   0.0800 
 25 H       -0.6160     3.5410    -1.4370 H     1 <1>   0.0800 
 26 H        0.9940     3.4050    -0.7780 H     1 <1>   0.0800 
 27 H       -0.2140     4.3660     0.0570 H     1 <1>   0.0800 
 28 H       -4.3090    -0.0900    -0.1030 H     1 <1>   0.0800 
 29 H       -5.1930    -0.1250    -1.6060 H     1 <1>   0.0800 
 30 H       -5.1740     3.4860     0.5380 H     1 <1>   0.0800 
 31 H       -4.3130     2.1370     1.2280 H     1 <1>   0.0800 
 32 H       -6.0590     0.2960     1.6320 H     1 <1>   0.1500 
 33 H       -7.5890     2.4790    -1.6670 H     1 <1>   0.1500 
 34 H       -8.3480    -0.1470     2.4160 H     1 <1>   0.1500 
 35 H       -9.8930     2.0450    -0.8960 H     1 <1>   0.1500 
 36 H      -10.2710     0.7290     1.1510 H     1 <1>   0.1500 
@<TRIPOS>BOND
  1   1   2  2   
  2   2   3  am  
  3   2   4  am  
  4   3   5  1   
  5   3   6  1   
  6   4   7  1   
  7   4   8  1   
  8   5   9  1   
  9   5  18  1   
 10   5  19  1   
 11   6  10  1   
 12   6  20  1   
 13   6  21  1   
 14   7  22  1   
 15   7  23  1   
 16   7  24  1   
 17   8  25  1   
 18   8  26  1   
 19   8  27  1   
 20   9  11  1   
 21   9  28  1   
 22   9  29  1   
 23  10  11  1   
 24  10  30  1   
 25  10  31  1   
 26  11  12  1   
 27  12  13  ar  
 28  12  14  ar  
 29  13  15  ar  
 30  13  32  1   
 31  14  16  ar  
 32  14  33  1   
 33  15  17  ar  
 34  15  34  1   
 35  16  17  ar  
 36  16  35  1   
 37  17  36  1   
@<TRIPOS>SUBSTRUCTURE
  1 ****  10 GROUP 4 **** **** 0

# MOE 2024.06 (io_trps.svl 2023.06)
