@<TRIPOS>MOLECULE
NONAME
45 47 1 0 0 
SMALL
USER_CHARGES


@<TRIPOS>ATOM
  1 O       -1.0600     0.6270    -0.7430 O.3   1 <1>  -0.3630 
  2 C       -0.8010     1.9070    -0.3720 C.ar  1 <1>   0.0830 
  3 C       -0.1290    -0.1290    -1.4920 C.3   1 <1>   0.0400 
  4 C       -1.6120     2.4830     0.5760 C.ar  1 <1>  -0.1440 
  5 C        0.2480     2.6510    -0.9410 C.ar  1 <1>  -0.1500 
  6 C       -1.4070     3.8160     1.0110 C.ar  1 <1>   0.0000 
  7 C       -2.7560     1.6700     1.1420 C.3   1 <1>   0.4870 
  8 C        0.4510     3.9440    -0.5550 C.ar  1 <1>  -0.1500 
  9 C       -0.3640     4.5600     0.4140 C.ar  1 <1>   0.0000 
 10 C       -2.1820     4.4550     2.0100 C.ar  1 <1>  -0.1500 
 11 N       -4.0160     2.1400     0.5050 N.4   1 <1>  -0.9590 
 12 C       -0.1630     5.8990     0.8010 C.ar  1 <1>  -0.1500 
 13 C       -1.9600     5.7560     2.3690 C.ar  1 <1>  -0.1500 
 14 C       -5.2320     1.7020     1.2580 C.3   1 <1>   0.3430 
 15 C       -4.0730     1.7490    -0.9300 C.3   1 <1>   0.3430 
 16 C       -0.9420     6.4890     1.7550 C.ar  1 <1>  -0.1500 
 17 C       -6.5280     1.8650     0.4400 C.3   1 <1>  -0.0800 
 18 C       -5.1980     2.5290    -1.6210 C.3   1 <1>  -0.1600 
 19 C       -6.3720     2.8990    -0.6940 C.3   1 <1>  -0.1600 
 20 C       -7.6890     2.2020     1.3860 C.3   1 <1>   0.1200 
 21 O       -8.8800     2.1200     0.6940 O.3   1 <1>  -0.6800 
 22 H       -0.4900    -1.1390    -1.5610 H     1 <1>   0.0800 
 23 H        0.8220    -0.1170    -0.9880 H     1 <1>   0.0800 
 24 H       -0.0440     0.2930    -2.4780 H     1 <1>   0.0800 
 25 H        0.8930     2.2190    -1.6830 H     1 <1>   0.1500 
 26 H       -2.7960     1.8090     2.2090 H     1 <1>   0.0800 
 27 H       -2.6070     0.6210     0.9430 H     1 <1>   0.0800 
 28 H        1.2490     4.5210    -0.9910 H     1 <1>   0.1500 
 29 H       -2.9600     3.9200     2.5180 H     1 <1>   0.1500 
 30 H       -3.9710     3.1680     0.5070 H     1 <1>   0.4500 
 31 H        0.6270     6.4580     0.3300 H     1 <1>   0.1500 
 32 H       -2.5540     6.2360     3.1290 H     1 <1>   0.1500 
 33 H       -5.3080     2.2840     2.1620 H     1 <1>   0.0800 
 34 H       -5.1350     0.6660     1.5420 H     1 <1>   0.0800 
 35 H       -4.2640     0.6900    -1.0060 H     1 <1>   0.0800 
 36 H       -3.1370     1.9570    -1.4240 H     1 <1>   0.0800 
 37 H       -0.7810     7.5130     2.0470 H     1 <1>   0.1500 
 38 H       -6.7460     0.9050     0.0010 H     1 <1>   0.0800 
 39 H       -5.5620     1.9260    -2.4360 H     1 <1>   0.0800 
 40 H       -4.7930     3.4260    -2.0570 H     1 <1>   0.0800 
 41 H       -6.1950     3.8720    -0.2660 H     1 <1>   0.0800 
 42 H       -7.2750     2.9620    -1.2790 H     1 <1>   0.0800 
 43 H       -7.6010     3.1950     1.7960 H     1 <1>   0.0800 
 44 H       -7.7430     1.4900     2.1930 H     1 <1>   0.0800 
 45 H       -8.9840     2.8580     0.0610 H     1 <1>   0.4000 
@<TRIPOS>BOND
  1   1   2  1   
  2   1   3  1   
  3   2   4  ar  
  4   2   5  ar  
  5   3  22  1   
  6   3  23  1   
  7   3  24  1   
  8   4   6  ar  
  9   4   7  1   
 10   5   8  ar  
 11   5  25  1   
 12   6   9  ar  
 13   6  10  ar  
 14   7  11  1   
 15   7  26  1   
 16   7  27  1   
 17   8   9  ar  
 18   8  28  1   
 19   9  12  ar  
 20  10  13  ar  
 21  10  29  1   
 22  11  14  1   
 23  11  15  1   
 24  11  30  1   
 25  12  16  ar  
 26  12  31  1   
 27  13  16  ar  
 28  13  32  1   
 29  14  17  1   
 30  14  33  1   
 31  14  34  1   
 32  15  18  1   
 33  15  35  1   
 34  15  36  1   
 35  16  37  1   
 36  17  19  1   
 37  17  20  1   
 38  17  38  1   
 39  18  19  1   
 40  18  39  1   
 41  18  40  1   
 42  19  41  1   
 43  19  42  1   
 44  20  21  1   
 45  20  43  1   
 46  20  44  1   
 47  21  45  1   
@<TRIPOS>SUBSTRUCTURE
  1 ****   4 GROUP 4 **** **** 0

# MOE 2024.06 (io_trps.svl 2023.06)
