@<TRIPOS>MOLECULE
NONAME
38 39 1 0 0 
SMALL
USER_CHARGES


@<TRIPOS>ATOM
  1 F       -1.9190     0.1750    -2.3910 F     1 <1>  -0.3400 
  2 C       -2.7600     1.1190    -1.9890 C.3   1 <1>   1.1640 
  3 F       -3.6090     1.3130    -2.9920 F     1 <1>  -0.3400 
  4 F       -2.0480     2.2350    -1.8880 F     1 <1>  -0.3400 
  5 C       -3.4620     0.7410    -0.6760 C.ar  1 <1>  -0.1440 
  6 C       -4.7220     0.1500    -0.6760 C.ar  1 <1>  -0.1500 
  7 C       -2.8410     0.9770     0.5460 C.ar  1 <1>  -0.1500 
  8 C       -5.3680    -0.2020     0.5030 C.ar  1 <1>   0.1170 
  9 C       -3.4690     0.6360     1.7300 C.ar  1 <1>  -0.1500 
 10 N       -6.6420    -0.7860     0.4150 N.am  1 <1>  -0.5470 
 11 C       -4.7220     0.0540     1.7080 C.ar  1 <1>  -0.1500 
 12 C       -7.4110    -1.4420     1.3370 C.2   1 <1>   0.5690 
 13 O       -7.0760    -1.6560     2.4740 O.2   1 <1>  -0.5700 
 14 C       -8.7700    -1.9420     0.8830 C.3   1 <1>  -0.0990 
 15 C       -9.7380    -0.7900     0.5650 C.3   1 <1>  -0.1600 
 16 C      -11.0860    -1.3170     0.0640 C.3   1 <1>   0.1400 
 17 N      -11.9310    -0.1900    -0.3850 N.am  1 <1>  -0.4200 
 18 C      -12.9660     0.3270     0.3270 C.2   1 <1>   0.5690 
 19 C      -11.7720     0.4520    -1.5720 C.2   1 <1>   0.5690 
 20 O      -13.3350    -0.0460     1.4090 O.2   1 <1>  -0.5700 
 21 C      -13.6200     1.4620    -0.4280 C.3   1 <1>  -0.0990 
 22 O      -10.9280     0.2090    -2.3960 O.2   1 <1>  -0.5700 
 23 C      -12.8050     1.5430    -1.7340 C.3   1 <1>  -0.0990 
 24 H       -5.2170    -0.0470    -1.6110 H     1 <1>   0.1500 
 25 H       -1.8620     1.4280     0.5860 H     1 <1>   0.1500 
 26 H       -2.9830     0.8230     2.6730 H     1 <1>   0.1500 
 27 H       -7.0690    -0.7170    -0.5060 H     1 <1>   0.3700 
 28 H       -5.1920    -0.1960     2.6410 H     1 <1>   0.1500 
 29 H       -9.1860    -2.5550     1.6630 H     1 <1>   0.0800 
 30 H       -8.6320    -2.5620     0.0160 H     1 <1>   0.0800 
 31 H       -9.3020    -0.1590    -0.1900 H     1 <1>   0.0800 
 32 H       -9.8940    -0.2020     1.4540 H     1 <1>   0.0800 
 33 H      -11.5890    -1.8570     0.8490 H     1 <1>   0.0800 
 34 H      -10.9360    -1.9850    -0.7670 H     1 <1>   0.0800 
 35 H      -13.5480     2.3700     0.1430 H     1 <1>   0.0800 
 36 H      -14.6520     1.2270    -0.6190 H     1 <1>   0.0800 
 37 H      -13.4160     1.3440    -2.5950 H     1 <1>   0.0800 
 38 H      -12.3180     2.4960    -1.8380 H     1 <1>   0.0800 
@<TRIPOS>BOND
  1   1   2  1   
  2   2   3  1   
  3   2   4  1   
  4   2   5  1   
  5   5   6  ar  
  6   5   7  ar  
  7   6   8  ar  
  8   6  24  1   
  9   7   9  ar  
 10   7  25  1   
 11   8  10  1   
 12   8  11  ar  
 13   9  11  ar  
 14   9  26  1   
 15  10  12  am  
 16  10  27  1   
 17  11  28  1   
 18  12  13  2   
 19  12  14  1   
 20  14  15  1   
 21  14  29  1   
 22  14  30  1   
 23  15  16  1   
 24  15  31  1   
 25  15  32  1   
 26  16  17  1   
 27  16  33  1   
 28  16  34  1   
 29  17  18  am  
 30  17  19  am  
 31  18  20  2   
 32  18  21  1   
 33  19  22  2   
 34  19  23  1   
 35  21  23  1   
 36  21  35  1   
 37  21  36  1   
 38  23  37  1   
 39  23  38  1   
@<TRIPOS>SUBSTRUCTURE
  1 ****  10 GROUP 4 **** **** 0

# MOE 2024.06 (io_trps.svl 2023.06)
