@<TRIPOS>MOLECULE
NONAME
49 50 1 0 0 
SMALL
USER_CHARGES


@<TRIPOS>ATOM
  1 S        0.6270    -0.1140    -1.3870 S.o2  1 <1>   1.4470 
  2 O        0.0700    -1.1350    -2.2400 O.2   1 <1>  -0.6500 
  3 O        1.8560     0.5270    -1.8000 O.2   1 <1>  -0.6500 
  4 N        0.9700    -0.9360     0.0360 N.am  1 <1>  -0.9140 
  5 C       -0.6500     1.0900    -0.9280 C.ar  1 <1>  -0.0090 
  6 C        1.7730    -0.3060     1.1120 C.3   1 <1>   0.3370 
  7 C       -0.5380     2.4310    -1.2750 C.ar  1 <1>  -0.1500 
  8 C       -1.7760     0.6990    -0.2130 C.ar  1 <1>  -0.1500 
  9 C        1.7350     1.2370     1.3030 C.2   1 <1>   0.5690 
 10 C        3.2040    -0.9120     1.1680 C.3   1 <1>  -0.0800 
 11 C       -1.5050     3.3510    -0.9110 C.ar  1 <1>  -0.1500 
 12 C       -2.7490     1.6140     0.1510 C.ar  1 <1>  -0.1500 
 13 O        1.1720     1.6560     2.2850 O.2   1 <1>  -0.5700 
 14 N        2.3410     2.0620     0.3910 N.am  1 <1>  -0.5470 
 15 C        4.0610    -0.7380    -0.0990 C.3   1 <1>  -0.2400 
 16 C        3.1620    -2.4100     1.5260 C.3   1 <1>  -0.2400 
 17 C       -2.6180     2.9470    -0.1960 C.ar  1 <1>  -0.1430 
 18 C        2.4460     3.4570     0.2890 C.ar  1 <1>   0.1170 
 19 C       -3.6750     3.9560     0.2110 C.3   1 <1>  -0.0970 
 20 C        2.8920     3.9890    -0.9150 C.ar  1 <1>  -0.1500 
 21 C        2.1300     4.3380     1.3190 C.ar  1 <1>  -0.1500 
 22 C        3.0140     5.3550    -1.0910 C.ar  1 <1>  -0.1500 
 23 C        2.2510     5.7050     1.1450 C.ar  1 <1>  -0.1500 
 24 C        2.6920     6.2240    -0.0620 C.ar  1 <1>  -0.1430 
 25 C        2.8260     7.7240    -0.2500 C.3   1 <1>  -0.0970 
 26 H        1.4640    -1.7700    -0.2670 H     1 <1>   0.4200 
 27 H        1.3100    -0.6590     2.0180 H     1 <1>   0.0800 
 28 H        0.3200     2.7690    -1.8310 H     1 <1>   0.1500 
 29 H       -1.8910    -0.3340     0.0650 H     1 <1>   0.1500 
 30 H        3.7180    -0.4130     1.9730 H     1 <1>   0.0800 
 31 H       -1.3820     4.3860    -1.1830 H     1 <1>   0.1500 
 32 H       -3.6070     1.2820     0.7100 H     1 <1>   0.1500 
 33 H        2.6520     1.5720    -0.4580 H     1 <1>   0.3700 
 34 H        3.6210    -1.2400    -0.9430 H     1 <1>   0.0800 
 35 H        5.0400    -1.1570     0.0600 H     1 <1>   0.0800 
 36 H        4.1950     0.2990    -0.3440 H     1 <1>   0.0800 
 37 H        2.7090    -2.9900     0.7430 H     1 <1>   0.0800 
 38 H        2.6060    -2.5660     2.4340 H     1 <1>   0.0800 
 39 H        4.1600    -2.7810     1.6840 H     1 <1>   0.0800 
 40 H       -3.7510     4.7370    -0.5240 H     1 <1>   0.0800 
 41 H       -3.4130     4.3930     1.1580 H     1 <1>   0.0800 
 42 H       -4.6360     3.4810     0.3020 H     1 <1>   0.0800 
 43 H        3.1450     3.3290    -1.7250 H     1 <1>   0.1500 
 44 H        1.7880     3.9660     2.2650 H     1 <1>   0.1500 
 45 H        3.3620     5.7410    -2.0330 H     1 <1>   0.1500 
 46 H        2.0000     6.3640     1.9570 H     1 <1>   0.1500 
 47 H        3.8170     8.0370     0.0280 H     1 <1>   0.0800 
 48 H        2.1130     8.2460     0.3630 H     1 <1>   0.0800 
 49 H        2.6520     7.9920    -1.2760 H     1 <1>   0.0800 
@<TRIPOS>BOND
  1   1   2  2   
  2   1   3  2   
  3   1   4  am  
  4   1   5  1   
  5   4   6  1   
  6   4  26  1   
  7   5   7  ar  
  8   5   8  ar  
  9   6   9  1   
 10   6  10  1   
 11   6  27  1   
 12   7  11  ar  
 13   7  28  1   
 14   8  12  ar  
 15   8  29  1   
 16   9  13  2   
 17   9  14  am  
 18  10  15  1   
 19  10  16  1   
 20  10  30  1   
 21  11  17  ar  
 22  11  31  1   
 23  12  17  ar  
 24  12  32  1   
 25  14  18  1   
 26  14  33  1   
 27  15  34  1   
 28  15  35  1   
 29  15  36  1   
 30  16  37  1   
 31  16  38  1   
 32  16  39  1   
 33  17  19  1   
 34  18  20  ar  
 35  18  21  ar  
 36  19  40  1   
 37  19  41  1   
 38  19  42  1   
 39  20  22  ar  
 40  20  43  1   
 41  21  23  ar  
 42  21  44  1   
 43  22  24  ar  
 44  22  45  1   
 45  23  24  ar  
 46  23  46  1   
 47  24  25  1   
 48  25  47  1   
 49  25  48  1   
 50  25  49  1   
@<TRIPOS>SUBSTRUCTURE
  1 ****  14 GROUP 4 **** **** 0

# MOE 2024.06 (io_trps.svl 2023.06)
