@<TRIPOS>MOLECULE
NONAME
47 50 1 0 0 
SMALL
USER_CHARGES


@<TRIPOS>ATOM
  1 N       -3.4170     1.8060    -0.0450 N.pl3 1 <1>  -0.7040 
  2 C       -3.4410     3.1120     0.1830 C.cat 1 <1>   1.0690 
  3 C       -4.7340     1.4010    -0.2450 C.ar  1 <1>   0.3020 
  4 N       -4.6680     3.5810     0.1390 N.pl3 1 <1>  -0.7670 
  5 N       -2.5250     4.0460     0.4600 N.pl3 1 <1>  -0.5960 
  6 C       -5.5310     2.5310    -0.1260 C.ar  1 <1>   0.3020 
  7 C       -5.2980     0.1610    -0.5150 C.ar  1 <1>  -0.1170 
  8 C       -4.7300     5.0170     0.4560 C.3   1 <1>   0.3480 
  9 C       -3.2340     5.3490     0.6910 C.3   1 <1>   0.1600 
 10 C       -1.0630     3.8900     0.7260 C.3   1 <1>   0.1600 
 11 C       -6.9100     2.4530    -0.2710 C.ar  1 <1>  -0.1170 
 12 C       -6.6710     0.0800    -0.6600 C.ar  1 <1>  -0.1580 
 13 C       -0.1990     4.6800    -0.2840 C.3   1 <1>   0.3370 
 14 C       -7.4710     1.2190    -0.5390 C.ar  1 <1>  -0.1580 
 15 N        1.2580     4.6880     0.0620 N.4   1 <1>  -0.9610 
 16 C        1.9880     5.6720    -0.7930 C.3   1 <1>   0.3370 
 17 C        1.9040     3.3430    -0.0390 C.3   1 <1>   0.3370 
 18 C        3.4250     5.8160    -0.2970 C.3   1 <1>  -0.1680 
 19 C        3.3380     3.4250     0.4790 C.3   1 <1>  -0.1680 
 20 C        4.1570     4.4670    -0.2930 C.3   1 <1>  -0.0880 
 21 C        5.5550     4.6130     0.3140 C.3   1 <1>  -0.2470 
 22 H       -2.6130     1.1850    -0.0470 H     1 <1>   0.4440 
 23 H       -4.6810    -0.7160    -0.6070 H     1 <1>   0.1420 
 24 H       -5.3180     5.1910     1.3420 H     1 <1>   0.0720 
 25 H       -5.1350     5.5750    -0.3720 H     1 <1>   0.0720 
 26 H       -2.9020     6.1000    -0.0050 H     1 <1>   0.0720 
 27 H       -3.0810     5.6960     1.6990 H     1 <1>   0.0720 
 28 H       -0.8050     2.8470     0.6790 H     1 <1>   0.0720 
 29 H       -0.8600     4.2460     1.7220 H     1 <1>   0.0720 
 30 H       -7.5190     3.3340    -0.1770 H     1 <1>   0.1420 
 31 H       -7.1370    -0.8700    -0.8700 H     1 <1>   0.1420 
 32 H       -0.5490     5.6990    -0.3050 H     1 <1>   0.0720 
 33 H       -0.3270     4.2610    -1.2690 H     1 <1>   0.0720 
 34 H       -8.5390     1.1250    -0.6570 H     1 <1>   0.1420 
 35 H        1.3970     5.0130     1.0300 H     1 <1>   0.4440 
 36 H        1.5020     6.6340    -0.7520 H     1 <1>   0.0720 
 37 H        1.9930     5.3360    -1.8180 H     1 <1>   0.0720 
 38 H        1.9130     3.0170    -1.0670 H     1 <1>   0.0720 
 39 H        1.3610     2.6200     0.5470 H     1 <1>   0.0720 
 40 H        3.4210     6.2420     0.6920 H     1 <1>   0.0720 
 41 H        3.9490     6.5020    -0.9400 H     1 <1>   0.0720 
 42 H        3.8030     2.4600     0.3720 H     1 <1>   0.0720 
 43 H        3.3280     3.6610     1.5290 H     1 <1>   0.0720 
 44 H        4.2680     4.1330    -1.3130 H     1 <1>   0.0720 
 45 H        5.5000     4.9470     1.3360 H     1 <1>   0.0720 
 46 H        6.1340     5.3260    -0.2470 H     1 <1>   0.0720 
 47 H        6.0740     3.6700     0.2910 H     1 <1>   0.0720 
@<TRIPOS>BOND
  1   1   2  ar  
  2   1   3  1   
  3   1  22  1   
  4   2   4  ar  
  5   2   5  ar  
  6   3   6  ar  
  7   3   7  ar  
  8   4   6  1   
  9   4   8  1   
 10   5   9  1   
 11   5  10  1   
 12   6  11  ar  
 13   7  12  ar  
 14   7  23  1   
 15   8   9  1   
 16   8  24  1   
 17   8  25  1   
 18   9  26  1   
 19   9  27  1   
 20  10  13  1   
 21  10  28  1   
 22  10  29  1   
 23  11  14  ar  
 24  11  30  1   
 25  12  14  ar  
 26  12  31  1   
 27  13  15  1   
 28  13  32  1   
 29  13  33  1   
 30  14  34  1   
 31  15  16  1   
 32  15  17  1   
 33  15  35  1   
 34  16  18  1   
 35  16  36  1   
 36  16  37  1   
 37  17  19  1   
 38  17  38  1   
 39  17  39  1   
 40  18  20  1   
 41  18  40  1   
 42  18  41  1   
 43  19  20  1   
 44  19  42  1   
 45  19  43  1   
 46  20  21  1   
 47  20  44  1   
 48  21  45  1   
 49  21  46  1   
 50  21  47  1   
@<TRIPOS>SUBSTRUCTURE
  1 ****   5 GROUP 4 **** **** 0

# MOE 2024.06 (io_trps.svl 2023.06)
