@<TRIPOS>MOLECULE
NONAME
31 31 1 0 0 
SMALL
USER_CHARGES


@<TRIPOS>ATOM
  1 CL       0.1420     0.2470     0.0030 Cl    1 <1>  -0.1770 
  2 C       -1.4520     0.9610     0.0030 C.ar  1 <1>   0.1770 
  3 C       -1.5780     2.3370     0.0040 C.ar  1 <1>  -0.1500 
  4 C       -2.5610     0.1390     0.0020 C.ar  1 <1>  -0.1500 
  5 C       -2.8390     2.9120     0.0040 C.ar  1 <1>  -0.1440 
  6 C       -3.8240     0.7060     0.0020 C.ar  1 <1>  -0.1500 
  7 C       -3.9690     2.0950     0.0030 C.ar  1 <1>   0.0830 
  8 C       -2.9680     4.4290     0.0050 C.3   1 <1>  -0.0960 
  9 O       -5.1830     2.7080     0.0020 O.3   1 <1>  -0.3630 
 10 C       -6.3850     1.9780     0.0000 C.3   1 <1>   0.1200 
 11 C       -7.5270     2.9970     0.0000 C.3   1 <1>   0.3430 
 12 N       -8.8680     2.3360    -0.0030 N.4   1 <1>  -0.9060 
 13 C       -9.9710     3.3210    -0.0040 C.3   1 <1>   0.3430 
 14 C      -11.2860     2.5580    -0.0060 C.3   1 <1>  -0.2400 
 15 H       -0.6890     2.9420     0.0050 H     1 <1>   0.1500 
 16 H       -2.4300    -0.9280     0.0010 H     1 <1>   0.1500 
 17 H       -4.6700     0.0460     0.0000 H     1 <1>   0.1500 
 18 H       -2.0010     4.9010     0.0060 H     1 <1>   0.0800 
 19 H       -3.5030     4.7510     0.8800 H     1 <1>   0.0800 
 20 H       -3.5020     4.7520    -0.8700 H     1 <1>   0.0800 
 21 H       -6.4070     1.3700     0.8870 H     1 <1>   0.0800 
 22 H       -6.4040     1.3720    -0.8890 H     1 <1>   0.0800 
 23 H       -7.4300     3.6210    -0.8740 H     1 <1>   0.0800 
 24 H       -7.4320     3.6190     0.8750 H     1 <1>   0.0800 
 25 H       -8.9680     1.7320     0.8230 H     1 <1>   0.4500 
 26 H       -8.9650     1.7340    -0.8310 H     1 <1>   0.4500 
 27 H       -9.9110     3.9500    -0.8790 H     1 <1>   0.0800 
 28 H       -9.9130     3.9480     0.8730 H     1 <1>   0.0800 
 29 H      -11.3780     1.9470    -0.8870 H     1 <1>   0.0800 
 30 H      -12.1020     3.2600    -0.0070 H     1 <1>   0.0800 
 31 H      -11.3810     1.9460     0.8730 H     1 <1>   0.0800 
@<TRIPOS>BOND
  1   1   2  1   
  2   2   3  ar  
  3   2   4  ar  
  4   3   5  ar  
  5   3  15  1   
  6   4   6  ar  
  7   4  16  1   
  8   5   7  ar  
  9   5   8  1   
 10   6   7  ar  
 11   6  17  1   
 12   7   9  1   
 13   8  18  1   
 14   8  19  1   
 15   8  20  1   
 16   9  10  1   
 17  10  11  1   
 18  10  21  1   
 19  10  22  1   
 20  11  12  1   
 21  11  23  1   
 22  11  24  1   
 23  12  13  1   
 24  12  25  1   
 25  12  26  1   
 26  13  14  1   
 27  13  27  1   
 28  13  28  1   
 29  14  29  1   
 30  14  30  1   
 31  14  31  1   
@<TRIPOS>SUBSTRUCTURE
  1 ****   9 GROUP 4 **** **** 0

# MOE 2024.06 (io_trps.svl 2023.06)
