@<TRIPOS>MOLECULE
NONAME
37 40 1 0 0 
SMALL
USER_CHARGES


@<TRIPOS>ATOM
  1 BR      -0.4690     0.7670     1.6710 Br    1 <1>  -0.1110 
  2 C        1.0860     1.2420     0.6290 C.ar  1 <1>   0.1110 
  3 C        1.0420     2.3640    -0.1910 C.ar  1 <1>   0.1170 
  4 C        2.2050     0.4400     0.7370 C.ar  1 <1>  -0.1500 
  5 N       -0.1090     3.1660    -0.2870 N.am  1 <1>  -0.2370 
  6 C        2.1840     2.6710    -0.9180 C.ar  1 <1>  -0.1500 
  7 C        3.3350     0.7600     0.0010 C.ar  1 <1>  -0.1440 
  8 C       -1.1660     2.9420    -1.1490 C.2   1 <1>   0.5690 
  9 C       -0.4450     4.1750     0.5940 C.2   1 <1>   0.5690 
 10 C        3.3170     1.8780    -0.8220 C.ar  1 <1>  -0.1500 
 11 C        4.5840    -0.0970     0.0950 C.3   1 <1>  -0.0970 
 12 O       -1.3240     2.0150    -1.9010 O.2   1 <1>  -0.5700 
 13 C       -2.1090     4.1040    -1.0090 C.3   1 <1>  -0.0190 
 14 O        0.2810     4.7630     1.3530 O.2   1 <1>  -0.5700 
 15 C       -1.9310     4.3880     0.4840 C.3   1 <1>  -0.0190 
 16 C       -3.5920     4.3540    -1.3880 C.3   1 <1>   0.0580 
 17 C       -2.8950     5.5310     0.9040 C.3   1 <1>   0.0580 
 18 C       -3.6130     5.8860    -1.4000 C.2   1 <1>  -0.2880 
 19 C       -4.5560     3.9560    -0.2340 C.3   1 <1>  -0.1600 
 20 C       -3.2010     6.4730    -0.2660 C.2   1 <1>  -0.2880 
 21 C       -4.2580     4.7960     1.0590 C.3   1 <1>  -0.1600 
 22 H        2.1880    -0.4170     1.3860 H     1 <1>   0.1500 
 23 H        2.1890     3.5340    -1.5610 H     1 <1>   0.1500 
 24 H        4.1920     2.1360    -1.3950 H     1 <1>   0.1500 
 25 H        4.3410    -1.0880     0.4350 H     1 <1>   0.0800 
 26 H        5.2780     0.3450     0.7870 H     1 <1>   0.0800 
 27 H        5.0560    -0.1760    -0.8680 H     1 <1>   0.0800 
 28 H       -1.5630     4.8540    -1.5630 H     1 <1>   0.0800 
 29 H       -2.2740     3.5260     1.0340 H     1 <1>   0.0800 
 30 H       -3.8510     3.9270    -2.3420 H     1 <1>   0.0800 
 31 H       -2.5950     6.0370     1.8060 H     1 <1>   0.0800 
 32 H       -3.9220     6.3700    -2.3110 H     1 <1>   0.1500 
 33 H       -4.4500     2.9040    -0.0290 H     1 <1>   0.0800 
 34 H       -5.5730     4.1280    -0.5420 H     1 <1>   0.0800 
 35 H       -3.1040     7.5300    -0.0800 H     1 <1>   0.1500 
 36 H       -5.0380     5.5260     1.2020 H     1 <1>   0.0800 
 37 H       -4.2580     4.1590     1.9270 H     1 <1>   0.0800 
@<TRIPOS>BOND
  1   1   2  1   
  2   2   3  ar  
  3   2   4  ar  
  4   3   5  1   
  5   3   6  ar  
  6   4   7  ar  
  7   4  22  1   
  8   5   8  am  
  9   5   9  am  
 10   6  10  ar  
 11   6  23  1   
 12   7  10  ar  
 13   7  11  1   
 14   8  12  2   
 15   8  13  1   
 16   9  14  2   
 17   9  15  1   
 18  10  24  1   
 19  11  25  1   
 20  11  26  1   
 21  11  27  1   
 22  13  15  1   
 23  13  16  1   
 24  13  28  1   
 25  15  17  1   
 26  15  29  1   
 27  16  18  1   
 28  16  19  1   
 29  16  30  1   
 30  17  20  1   
 31  17  21  1   
 32  17  31  1   
 33  18  20  2   
 34  18  32  1   
 35  19  21  1   
 36  19  33  1   
 37  19  34  1   
 38  20  35  1   
 39  21  36  1   
 40  21  37  1   
@<TRIPOS>SUBSTRUCTURE
  1 ****   5 GROUP 4 **** **** 0

# MOE 2024.06 (io_trps.svl 2023.06)
