@<TRIPOS>MOLECULE
NONAME
46 50 1 0 0 
SMALL
USER_CHARGES


@<TRIPOS>ATOM
  1 O       -1.0460     0.0430     1.3380 O.3   1 <1>  -0.3630 
  2 C       -2.0660    -0.3550     0.5560 C.ar  1 <1>   0.0820 
  3 C       -1.1080    -0.7250     2.5370 C.3   1 <1>   0.4000 
  4 C       -2.4510     0.0640    -0.7180 C.ar  1 <1>   0.0820 
  5 C       -2.7770    -1.3220     1.2070 C.ar  1 <1>   0.0820 
  6 O       -2.2450    -1.5730     2.4060 O.3   1 <1>  -0.3630 
  7 O       -1.8360     1.0160    -1.4690 O.3   1 <1>  -0.3630 
  8 C       -3.5690    -0.5350    -1.2860 C.ar  1 <1>  -0.1500 
  9 C       -3.8900    -1.9240     0.6540 C.ar  1 <1>  -0.1500 
 10 C       -0.6430     1.6290    -1.0300 C.3   1 <1>   0.0400 
 11 C       -4.2950    -1.5160    -0.6120 C.ar  1 <1>  -0.1430 
 12 C       -5.5250    -2.1230    -1.2540 C.3   1 <1>   0.4870 
 13 N       -6.7280    -1.5650    -0.5870 N.4   1 <1>  -0.9590 
 14 C       -7.9720    -2.2800    -0.9840 C.3   1 <1>   0.5230 
 15 C       -6.8480    -0.0700    -0.7480 C.3   1 <1>   0.3430 
 16 C       -9.1130    -1.6250    -0.2420 C.2   1 <1>  -0.3320 
 17 C       -7.8680     0.5160     0.2430 C.3   1 <1>   0.0210 
 18 N      -10.3480    -2.1790    -0.0250 N.pl3 1 <1>   0.0330 
 19 C       -9.0760    -0.3910     0.3060 C.2   1 <1>  -0.1810 
 20 C      -11.0950    -1.2730     0.6850 C.ar  1 <1>  -0.1520 
 21 C      -10.3230    -0.1380     0.9120 C.ar  1 <1>   0.0000 
 22 C      -12.4070    -1.3530     1.1590 C.ar  1 <1>  -0.1500 
 23 C      -10.8640     0.9380     1.6240 C.ar  1 <1>  -0.1500 
 24 C      -12.9270    -0.2890     1.8580 C.ar  1 <1>  -0.1500 
 25 C      -12.1560     0.8570     2.0910 C.ar  1 <1>  -0.1500 
 26 H       -1.2380    -0.0700     3.3800 H     1 <1>   0.0800 
 27 H       -0.2190    -1.3230     2.6290 H     1 <1>   0.0800 
 28 H       -3.8550    -0.2120    -2.2730 H     1 <1>   0.1500 
 29 H       -4.4040    -2.6840     1.2170 H     1 <1>   0.1500 
 30 H       -0.3150     2.3120    -1.7930 H     1 <1>   0.0800 
 31 H        0.1040     0.8710    -0.8730 H     1 <1>   0.0800 
 32 H       -0.8400     2.1660    -0.1190 H     1 <1>   0.0800 
 33 H       -5.4940    -3.1940    -1.1350 H     1 <1>   0.0800 
 34 H       -5.5420    -1.8940    -2.3080 H     1 <1>   0.0800 
 35 H       -6.6280    -1.7240     0.4230 H     1 <1>   0.4500 
 36 H       -7.9050    -3.3210    -0.7100 H     1 <1>   0.0800 
 37 H       -8.1340    -2.2030    -2.0470 H     1 <1>   0.0800 
 38 H       -7.1680     0.1550    -1.7520 H     1 <1>   0.0800 
 39 H       -5.8950     0.4070    -0.5830 H     1 <1>   0.0800 
 40 H       -8.1600     1.4990    -0.0800 H     1 <1>   0.0800 
 41 H       -7.4280     0.6000     1.2200 H     1 <1>   0.0800 
 42 H      -10.7010    -3.0970    -0.3190 H     1 <1>   0.2700 
 43 H      -12.9970    -2.2340     0.9790 H     1 <1>   0.1500 
 44 H      -10.2660     1.8130     1.8000 H     1 <1>   0.1500 
 45 H      -13.9350    -0.3250     2.2340 H     1 <1>   0.1500 
 46 H      -12.5880     1.6740     2.6400 H     1 <1>   0.1500 
@<TRIPOS>BOND
  1   1   2  1   
  2   1   3  1   
  3   2   4  ar  
  4   2   5  ar  
  5   3   6  1   
  6   3  26  1   
  7   3  27  1   
  8   4   7  1   
  9   4   8  ar  
 10   5   6  1   
 11   5   9  ar  
 12   7  10  1   
 13   8  11  ar  
 14   8  28  1   
 15   9  11  ar  
 16   9  29  1   
 17  10  30  1   
 18  10  31  1   
 19  10  32  1   
 20  11  12  1   
 21  12  13  1   
 22  12  33  1   
 23  12  34  1   
 24  13  14  1   
 25  13  15  1   
 26  13  35  1   
 27  14  16  1   
 28  14  36  1   
 29  14  37  1   
 30  15  17  1   
 31  15  38  1   
 32  15  39  1   
 33  16  18  1   
 34  16  19  2   
 35  17  19  1   
 36  17  40  1   
 37  17  41  1   
 38  18  20  1   
 39  18  42  1   
 40  19  21  1   
 41  20  21  ar  
 42  20  22  ar  
 43  21  23  ar  
 44  22  24  ar  
 45  22  43  1   
 46  23  25  ar  
 47  23  44  1   
 48  24  25  ar  
 49  24  45  1   
 50  25  46  1   
@<TRIPOS>SUBSTRUCTURE
  1 ****  15 GROUP 4 **** **** 0

# MOE 2024.06 (io_trps.svl 2023.06)
