@<TRIPOS>MOLECULE
NONAME
43 44 1 0 0 
SMALL
USER_CHARGES


@<TRIPOS>ATOM
  1 N        0.0210    -0.2850    -0.2330 N.4   1 <1>  -0.9590 
  2 C       -0.9230     0.6990    -0.8360 C.3   1 <1>   0.3430 
  3 C       -0.5100    -0.9120     1.0160 C.3   1 <1>   0.3430 
  4 C        1.3420     0.3740     0.0100 C.3   1 <1>   0.3430 
  5 C       -2.2670     0.0300    -1.1350 C.3   1 <1>  -0.1600 
  6 C       -1.8470    -1.5970     0.7310 C.3   1 <1>  -0.1600 
  7 C        2.4350    -0.6740     0.2240 C.3   1 <1>  -0.1600 
  8 C       -2.8510    -0.6170     0.1250 C.3   1 <1>   0.4230 
  9 C        3.8090    -0.0070     0.3510 C.3   1 <1>  -0.2400 
 10 N       -4.0990    -1.3490    -0.1950 N.4   1 <1>  -0.9060 
 11 C       -5.2760    -0.5170    -0.5330 C.3   1 <1>   0.4230 
 12 C       -5.8240     0.1300     0.7360 C.3   1 <1>  -0.1600 
 13 C       -6.4020    -1.4570    -0.9410 C.3   1 <1>  -0.1600 
 14 C       -6.6250    -0.9660     1.4500 C.3   1 <1>  -0.1600 
 15 C       -7.0010    -1.9870     0.3680 C.3   1 <1>  -0.1600 
 16 H        0.2070    -1.0280    -0.9240 H     1 <1>   0.4500 
 17 H       -0.5060     1.0940    -1.7500 H     1 <1>   0.0800 
 18 H       -1.0700     1.5240    -0.1550 H     1 <1>   0.0800 
 19 H       -0.6390    -0.1560     1.7750 H     1 <1>   0.0800 
 20 H        0.1920    -1.6410     1.3910 H     1 <1>   0.0800 
 21 H        1.2860     1.0260     0.8680 H     1 <1>   0.0800 
 22 H        1.6100     0.9730    -0.8470 H     1 <1>   0.0800 
 23 H       -2.1250    -0.7020    -1.9100 H     1 <1>   0.0800 
 24 H       -2.9350     0.7870    -1.5050 H     1 <1>   0.0800 
 25 H       -2.2310    -1.9800     1.6610 H     1 <1>   0.0800 
 26 H       -1.6760    -2.4290     0.0700 H     1 <1>   0.0800 
 27 H        2.4650    -1.3520    -0.6120 H     1 <1>   0.0800 
 28 H        2.2540    -1.2370     1.1220 H     1 <1>   0.0800 
 29 H       -3.0620     0.1530     0.8520 H     1 <1>   0.0800 
 30 H        4.0540     0.5450    -0.5410 H     1 <1>   0.0800 
 31 H        4.5690    -0.7560     0.4980 H     1 <1>   0.0800 
 32 H        3.8350     0.6650     1.1920 H     1 <1>   0.0800 
 33 H       -4.4000    -1.9120     0.6120 H     1 <1>   0.4500 
 34 H       -3.9500    -2.0140    -0.9620 H     1 <1>   0.4500 
 35 H       -5.0500     0.2010    -1.3060 H     1 <1>   0.0800 
 36 H       -6.5090     0.9080     0.4420 H     1 <1>   0.0800 
 37 H       -5.0770     0.5730     1.3680 H     1 <1>   0.0800 
 38 H       -6.0880    -2.2440    -1.6050 H     1 <1>   0.0800 
 39 H       -7.1560    -0.8780    -1.4490 H     1 <1>   0.0800 
 40 H       -7.5070    -0.5520     1.9130 H     1 <1>   0.0800 
 41 H       -6.0340    -1.4390     2.2160 H     1 <1>   0.0800 
 42 H       -6.5950    -2.9540     0.6120 H     1 <1>   0.0800 
 43 H       -8.0720    -2.0850     0.2830 H     1 <1>   0.0800 
@<TRIPOS>BOND
  1   1   2  1   
  2   1   3  1   
  3   1   4  1   
  4   1  16  1   
  5   2   5  1   
  6   2  17  1   
  7   2  18  1   
  8   3   6  1   
  9   3  19  1   
 10   3  20  1   
 11   4   7  1   
 12   4  21  1   
 13   4  22  1   
 14   5   8  1   
 15   5  23  1   
 16   5  24  1   
 17   6   8  1   
 18   6  25  1   
 19   6  26  1   
 20   7   9  1   
 21   7  27  1   
 22   7  28  1   
 23   8  10  1   
 24   8  29  1   
 25   9  30  1   
 26   9  31  1   
 27   9  32  1   
 28  10  11  1   
 29  10  33  1   
 30  10  34  1   
 31  11  12  1   
 32  11  13  1   
 33  11  35  1   
 34  12  14  1   
 35  12  36  1   
 36  12  37  1   
 37  13  15  1   
 38  13  38  1   
 39  13  39  1   
 40  14  15  1   
 41  14  40  1   
 42  14  41  1   
 43  15  42  1   
 44  15  43  1   
@<TRIPOS>SUBSTRUCTURE
  1 ****   8 GROUP 4 **** **** 0

# MOE 2024.06 (io_trps.svl 2023.06)
