@<TRIPOS>MOLECULE
NONAME
54 55 1 0 0 
SMALL
USER_CHARGES


@<TRIPOS>ATOM
  1 O        7.8230    -6.7900     0.3140 O.3   1 <1>  -0.5600 
  2 C        7.2810    -6.7040    -0.9760 C.3   1 <1>   0.1200 
  3 C        7.9290    -8.0990     0.8060 C.3   1 <1>   0.1200 
  4 C        5.8560    -7.3040    -1.0220 C.3   1 <1>   0.3430 
  5 C        6.5600    -8.8220     0.7870 C.3   1 <1>   0.3430 
  6 N        5.4680    -7.9140     0.2980 N.4   1 <1>  -0.9590 
  7 C        4.1360    -8.5760     0.3010 C.3   1 <1>   0.3430 
  8 C        3.0180    -7.5410     0.1580 C.3   1 <1>  -0.1600 
  9 C        1.6450    -8.2210     0.2670 C.3   1 <1>  -0.1600 
 10 C        0.4970    -7.2160     0.1420 C.3   1 <1>   0.1200 
 11 O       -0.7060    -7.9380     0.2430 O.3   1 <1>  -0.3630 
 12 C       -1.9090    -7.3170     0.1690 C.ar  1 <1>   0.0830 
 13 C       -3.0330    -8.1150     0.2730 C.ar  1 <1>  -0.1500 
 14 C       -2.0720    -5.9480    -0.0030 C.ar  1 <1>  -0.1500 
 15 C       -4.2970    -7.5600     0.2060 C.ar  1 <1>  -0.1500 
 16 C       -3.3410    -5.4000    -0.0690 C.ar  1 <1>  -0.1500 
 17 C       -4.4860    -6.1910     0.0340 C.ar  1 <1>  -0.1430 
 18 C       -5.9260    -5.6200    -0.0330 C.3   1 <1>   0.1430 
 19 C       -5.9350    -4.0770    -0.2280 C.3   1 <1>  -0.1600 
 20 C       -6.6550    -5.9690     1.2780 C.3   1 <1>  -0.2400 
 21 C       -6.6630    -6.2830    -1.2120 C.3   1 <1>  -0.2400 
 22 C       -7.3050    -3.3760    -0.3120 C.3   1 <1>  -0.2400 
 23 H        7.9350    -7.2190    -1.6600 H     1 <1>   0.0800 
 24 H        7.2560    -5.6650    -1.2540 H     1 <1>   0.0800 
 25 H        8.3020    -8.0390     1.8140 H     1 <1>   0.0800 
 26 H        8.6510    -8.6340     0.2130 H     1 <1>   0.0800 
 27 H        5.8160    -8.0480    -1.8000 H     1 <1>   0.0800 
 28 H        5.1620    -6.5230    -1.2860 H     1 <1>   0.0800 
 29 H        6.3360    -9.1710     1.7810 H     1 <1>   0.0800 
 30 H        6.6330    -9.6870     0.1480 H     1 <1>   0.0800 
 31 H        5.4620    -7.1280     0.9660 H     1 <1>   0.4500 
 32 H        3.9990    -9.1040     1.2320 H     1 <1>   0.0800 
 33 H        4.0760    -9.2940    -0.5020 H     1 <1>   0.0800 
 34 H        3.0830    -7.0500    -0.7960 H     1 <1>   0.0800 
 35 H        3.1050    -6.8050     0.9400 H     1 <1>   0.0800 
 36 H        1.5580    -8.7180     1.2180 H     1 <1>   0.0800 
 37 H        1.5400    -8.9550    -0.5140 H     1 <1>   0.0800 
 38 H        0.5140    -6.7220    -0.8140 H     1 <1>   0.0800 
 39 H        0.5250    -6.4940     0.9400 H     1 <1>   0.0800 
 40 H       -2.9110    -9.1750     0.4060 H     1 <1>   0.1500 
 41 H       -1.2280    -5.2920    -0.0880 H     1 <1>   0.1500 
 42 H       -5.1400    -8.2210     0.2920 H     1 <1>   0.1500 
 43 H       -3.4040    -4.3370    -0.2020 H     1 <1>   0.1500 
 44 H       -5.4030    -3.8460    -1.1340 H     1 <1>   0.0800 
 45 H       -5.3980    -3.6280     0.5890 H     1 <1>   0.0800 
 46 H       -6.1650    -5.4930     2.1080 H     1 <1>   0.0800 
 47 H       -6.6570    -7.0280     1.4530 H     1 <1>   0.0800 
 48 H       -7.6800    -5.6490     1.2520 H     1 <1>   0.0800 
 49 H       -6.1770    -6.0290    -2.1370 H     1 <1>   0.0800 
 50 H       -7.6870    -5.9660    -1.2610 H     1 <1>   0.0800 
 51 H       -6.6650    -7.3520    -1.1190 H     1 <1>   0.0800 
 52 H       -7.8770    -3.7330    -1.1480 H     1 <1>   0.0800 
 53 H       -7.1550    -2.3190    -0.4460 H     1 <1>   0.0800 
 54 H       -7.8720    -3.5140     0.5890 H     1 <1>   0.0800 
@<TRIPOS>BOND
  1   1   2  1   
  2   1   3  1   
  3   2   4  1   
  4   2  23  1   
  5   2  24  1   
  6   3   5  1   
  7   3  25  1   
  8   3  26  1   
  9   4   6  1   
 10   4  27  1   
 11   4  28  1   
 12   5   6  1   
 13   5  29  1   
 14   5  30  1   
 15   6   7  1   
 16   6  31  1   
 17   7   8  1   
 18   7  32  1   
 19   7  33  1   
 20   8   9  1   
 21   8  34  1   
 22   8  35  1   
 23   9  10  1   
 24   9  36  1   
 25   9  37  1   
 26  10  11  1   
 27  10  38  1   
 28  10  39  1   
 29  11  12  1   
 30  12  13  ar  
 31  12  14  ar  
 32  13  15  ar  
 33  13  40  1   
 34  14  16  ar  
 35  14  41  1   
 36  15  17  ar  
 37  15  42  1   
 38  16  17  ar  
 39  16  43  1   
 40  17  18  1   
 41  18  19  1   
 42  18  20  1   
 43  18  21  1   
 44  19  22  1   
 45  19  44  1   
 46  19  45  1   
 47  20  46  1   
 48  20  47  1   
 49  20  48  1   
 50  21  49  1   
 51  21  50  1   
 52  21  51  1   
 53  22  52  1   
 54  22  53  1   
 55  22  54  1   
@<TRIPOS>SUBSTRUCTURE
  1 ****  10 GROUP 4 **** **** 0

# MOE 2024.06 (io_trps.svl 2023.06)
