@<TRIPOS>MOLECULE
NONAME
48 51 1 0 0 
SMALL
USER_CHARGES


@<TRIPOS>ATOM
  1 S        0.0750     0.2440     0.8170 S.3   1 <1>  -0.3320 
  2 C        1.0630     1.7370     0.8090 C.ar  1 <1>   0.7220 
  3 C       -1.6800     0.7920     1.0220 C.3   1 <1>   0.0700 
  4 N        0.4230     2.8830     1.0200 N.ar  1 <1>  -0.3100 
  5 N        2.3390     1.5550     0.6020 N.ar  1 <1>  -0.6200 
  6 C       -2.2200     1.2200    -0.3450 C.3   1 <1>  -0.1600 
  7 N        1.1060     3.9920     1.0230 N.ar  1 <1>  -0.3100 
  8 C        3.0270     2.6810     0.5950 C.ar  1 <1>   0.3930 
  9 C       -3.6820     1.6730    -0.2440 C.3   1 <1>  -0.1600 
 10 C        2.4300     3.9450     0.8150 C.ar  1 <1>   0.3100 
 11 O        4.3260     2.4310     0.3670 O.3   1 <1>  -0.3620 
 12 C       -4.2200     2.1010    -1.6120 C.3   1 <1>  -0.2400 
 13 C        3.1010     5.2410     0.8410 C.ar  1 <1>   0.0000 
 14 C        5.3470     3.3770     0.4440 C.3   1 <1>   0.7130 
 15 C        4.3010     5.4840     0.1550 C.ar  1 <1>   0.1000 
 16 C        2.5490     6.3240     1.5370 C.ar  1 <1>  -0.1500 
 17 N        4.9720     4.4590    -0.4650 N.pl3 1 <1>  -0.8690 
 18 C        6.7140     2.7840     0.0430 C.ar  1 <1>   0.1670 
 19 C        4.8660     6.7530     0.1270 C.ar  1 <1>  -0.1500 
 20 C        3.1220     7.5810     1.5240 C.ar  1 <1>  -0.1500 
 21 N        7.7070     3.6580    -0.1350 N.ar  1 <1>  -0.6200 
 22 C        6.8790     1.4120    -0.1170 C.ar  1 <1>  -0.1500 
 23 C        4.2840     7.8010     0.8070 C.ar  1 <1>  -0.1500 
 24 C        8.8820     3.1590    -0.4770 C.ar  1 <1>   0.1670 
 25 C        8.1080     0.9020    -0.4740 C.ar  1 <1>  -0.1500 
 26 C        9.1290     1.8080    -0.6560 C.ar  1 <1>  -0.1500 
 27 C        9.9950     4.1670    -0.6740 C.3   1 <1>  -0.0970 
 28 H       -1.7010     1.5940     1.7390 H     1 <1>   0.0800 
 29 H       -2.2250    -0.0520     1.4070 H     1 <1>   0.0800 
 30 H       -2.1450     0.3920    -1.0280 H     1 <1>   0.0800 
 31 H       -1.6230     2.0300    -0.7280 H     1 <1>   0.0800 
 32 H       -3.7560     2.5020     0.4400 H     1 <1>   0.0800 
 33 H       -4.2860     0.8670     0.1390 H     1 <1>   0.0800 
 34 H       -3.6420     2.9200    -2.0030 H     1 <1>   0.0800 
 35 H       -5.2450     2.4170    -1.5220 H     1 <1>   0.0800 
 36 H       -4.1750     1.2810    -2.3070 H     1 <1>   0.0800 
 37 H        5.4000     3.7320     1.4600 H     1 <1>   0.0800 
 38 H        1.6410     6.1930     2.1010 H     1 <1>   0.1500 
 39 H        5.8500     4.7320    -0.9270 H     1 <1>   0.4000 
 40 H        5.7740     6.9160    -0.4250 H     1 <1>   0.1500 
 41 H        2.6640     8.3910     2.0650 H     1 <1>   0.1500 
 42 H        6.0560     0.7340     0.0310 H     1 <1>   0.1500 
 43 H        4.7290     8.7800     0.7840 H     1 <1>   0.1500 
 44 H        8.2610    -0.1550    -0.6050 H     1 <1>   0.1500 
 45 H       10.1080     1.4630    -0.9350 H     1 <1>   0.1500 
 46 H        9.7230     4.8530    -1.4560 H     1 <1>   0.0800 
 47 H       10.9150     3.6820    -0.9420 H     1 <1>   0.0800 
 48 H       10.1440     4.7190     0.2350 H     1 <1>   0.0800 
@<TRIPOS>BOND
  1   1   2  1   
  2   1   3  1   
  3   2   4  ar  
  4   2   5  ar  
  5   3   6  1   
  6   3  28  1   
  7   3  29  1   
  8   4   7  ar  
  9   5   8  ar  
 10   6   9  1   
 11   6  30  1   
 12   6  31  1   
 13   7  10  ar  
 14   8  10  ar  
 15   8  11  1   
 16   9  12  1   
 17   9  32  1   
 18   9  33  1   
 19  10  13  1   
 20  11  14  1   
 21  12  34  1   
 22  12  35  1   
 23  12  36  1   
 24  13  15  ar  
 25  13  16  ar  
 26  14  17  1   
 27  14  18  1   
 28  14  37  1   
 29  15  17  1   
 30  15  19  ar  
 31  16  20  ar  
 32  16  38  1   
 33  17  39  1   
 34  18  21  ar  
 35  18  22  ar  
 36  19  23  ar  
 37  19  40  1   
 38  20  23  ar  
 39  20  41  1   
 40  21  24  ar  
 41  22  25  ar  
 42  22  42  1   
 43  23  43  1   
 44  24  26  ar  
 45  24  27  1   
 46  25  26  ar  
 47  25  44  1   
 48  26  45  1   
 49  27  46  1   
 50  27  47  1   
 51  27  48  1   
@<TRIPOS>SUBSTRUCTURE
  1 ****   8 GROUP 4 **** **** 0

# MOE 2024.06 (io_trps.svl 2023.06)
