@<TRIPOS>MOLECULE
NONAME
35 36 1 0 0 
SMALL
USER_CHARGES


@<TRIPOS>ATOM
  1 O        0.2760    -0.6540     0.1560 O.3   1 <1>  -0.3370 
  2 N       -0.3250    -1.8390     0.1500 N.2   1 <1>  -0.5130 
  3 C        0.2910    -2.8980    -0.2260 C.2   1 <1>   0.4750 
  4 C       -0.3320    -4.2100    -0.2320 C.2   1 <1>  -0.0860 
  5 C        1.7480    -2.8260    -0.7110 C.3   1 <1>  -0.0990 
  6 C       -1.7040    -4.4870     0.0540 C.ar  1 <1>   0.0000 
  7 C        0.2320    -5.4310    -0.4980 C.2   1 <1>  -0.3020 
  8 C        2.7820    -2.7440     0.4330 C.3   1 <1>  -0.0800 
  9 C       -1.8820    -5.8640    -0.0580 C.ar  1 <1>  -0.1520 
 10 C       -2.8110    -3.6970     0.3940 C.ar  1 <1>  -0.1500 
 11 N       -0.6830    -6.4290    -0.3980 N.pl3 1 <1>   0.0480 
 12 C        4.1860    -2.5190    -0.1400 C.3   1 <1>  -0.2400 
 13 C        2.7800    -4.0060     1.3050 C.3   1 <1>  -0.2400 
 14 C       -3.1280    -6.4590     0.1620 C.ar  1 <1>  -0.1500 
 15 C       -4.0380    -4.2800     0.6120 C.ar  1 <1>  -0.1500 
 16 C       -0.4350    -7.8640    -0.6080 C.3   1 <1>   0.0160 
 17 C       -4.1990    -5.6640     0.4960 C.ar  1 <1>  -0.1500 
 18 H        1.2400    -0.6570    -0.0020 H     1 <1>   0.4000 
 19 H        1.9720    -3.6680    -1.3370 H     1 <1>   0.0800 
 20 H        1.8520    -1.9670    -1.3480 H     1 <1>   0.0800 
 21 H        1.2520    -5.6510    -0.7530 H     1 <1>   0.1500 
 22 H        2.5400    -1.9060     1.0660 H     1 <1>   0.0800 
 23 H       -2.6960    -2.6330     0.4850 H     1 <1>   0.1500 
 24 H        4.4750    -3.3410    -0.7710 H     1 <1>   0.0800 
 25 H        4.9040    -2.4320     0.6560 H     1 <1>   0.0800 
 26 H        4.2180    -1.6140    -0.7200 H     1 <1>   0.0800 
 27 H        3.0240    -4.8750     0.7220 H     1 <1>   0.0800 
 28 H        1.8150    -4.1530     1.7600 H     1 <1>   0.0800 
 29 H        3.5040    -3.9120     2.0950 H     1 <1>   0.0800 
 30 H       -3.2430    -7.5230     0.0710 H     1 <1>   0.1500 
 31 H       -4.8860    -3.6720     0.8730 H     1 <1>   0.1500 
 32 H        0.5970    -8.0200    -0.8620 H     1 <1>   0.0800 
 33 H       -1.0590    -8.2170    -1.4080 H     1 <1>   0.0800 
 34 H       -0.6680    -8.3980     0.2950 H     1 <1>   0.0800 
 35 H       -5.1680    -6.0970     0.6710 H     1 <1>   0.1500 
@<TRIPOS>BOND
  1   1   2  1   
  2   1  18  1   
  3   2   3  2   
  4   3   4  1   
  5   3   5  1   
  6   4   6  1   
  7   4   7  2   
  8   5   8  1   
  9   5  19  1   
 10   5  20  1   
 11   6   9  ar  
 12   6  10  ar  
 13   7  11  1   
 14   7  21  1   
 15   8  12  1   
 16   8  13  1   
 17   8  22  1   
 18   9  11  1   
 19   9  14  ar  
 20  10  15  ar  
 21  10  23  1   
 22  11  16  1   
 23  12  24  1   
 24  12  25  1   
 25  12  26  1   
 26  13  27  1   
 27  13  28  1   
 28  13  29  1   
 29  14  17  ar  
 30  14  30  1   
 31  15  17  ar  
 32  15  31  1   
 33  16  32  1   
 34  16  33  1   
 35  16  34  1   
 36  17  35  1   
@<TRIPOS>SUBSTRUCTURE
  1 ****   4 GROUP 4 **** **** 0

# MOE 2024.06 (io_trps.svl 2023.06)
