@<TRIPOS>MOLECULE
NONAME
33 33 1 0 0 
SMALL
USER_CHARGES


@<TRIPOS>ATOM
  1 BR       0.5880     0.5280    -0.8380 Br    1 <1>  -0.1110 
  2 C       -1.2330     1.1520    -0.6850 C.ar  1 <1>   0.1110 
  3 C       -2.1850     0.3660    -0.0520 C.ar  1 <1>  -0.1440 
  4 C       -1.5320     2.3890    -1.2250 C.ar  1 <1>  -0.1500 
  5 C       -3.4770     0.8600     0.0330 C.ar  1 <1>  -0.1500 
  6 C       -1.8430    -0.9950     0.5320 C.3   1 <1>  -0.0960 
  7 C       -2.8290     2.8610    -1.1280 C.ar  1 <1>  -0.1500 
  8 C       -3.8100     2.1040    -0.4960 C.ar  1 <1>   0.1990 
  9 N       -5.1060     2.5950    -0.4090 N.am  1 <1>  -0.6930 
 10 S       -5.7510     3.1240     1.1070 S.o2  1 <1>   1.3330 
 11 C       -6.0950     2.0740    -1.4060 C.3   1 <1>   0.2570 
 12 O       -7.1230     3.4990     0.8550 O.2   1 <1>  -0.6500 
 13 O       -5.4460     2.1250     2.0990 O.2   1 <1>  -0.6500 
 14 C       -4.8080     4.5990     1.4210 C.3   1 <1>  -0.1350 
 15 C       -6.8250     0.7960    -0.9740 C.2   1 <1>   0.5690 
 16 O       -6.5020    -0.2560    -1.4750 O.2   1 <1>  -0.5700 
 17 N       -7.8280     0.8750    -0.0560 N.am  1 <1>  -0.7300 
 18 C       -8.5770    -0.2730     0.5090 C.3   1 <1>   0.0600 
 19 H       -0.7650     2.9650    -1.7100 H     1 <1>   0.1500 
 20 H       -4.2470     0.2820     0.5140 H     1 <1>   0.1500 
 21 H       -1.4770    -1.6460    -0.2410 H     1 <1>   0.0800 
 22 H       -2.7100    -1.4510     0.9770 H     1 <1>   0.0800 
 23 H       -1.0870    -0.8920     1.2900 H     1 <1>   0.0800 
 24 H       -3.0880     3.8170    -1.5440 H     1 <1>   0.1500 
 25 H       -5.5810     1.8650    -2.3270 H     1 <1>   0.0800 
 26 H       -6.8260     2.8340    -1.6100 H     1 <1>   0.0800 
 27 H       -4.9410     5.3020     0.6220 H     1 <1>   0.0800 
 28 H       -3.7660     4.3610     1.5060 H     1 <1>   0.0800 
 29 H       -5.1310     5.0530     2.3370 H     1 <1>   0.0800 
 30 H       -8.0010     1.7870     0.3960 H     1 <1>   0.3700 
 31 H       -8.3060    -1.1840     0.0010 H     1 <1>   0.0800 
 32 H       -9.6340    -0.1100     0.3930 H     1 <1>   0.0800 
 33 H       -8.3450    -0.3750     1.5550 H     1 <1>   0.0800 
@<TRIPOS>BOND
  1   1   2  1   
  2   2   3  ar  
  3   2   4  ar  
  4   3   5  ar  
  5   3   6  1   
  6   4   7  ar  
  7   4  19  1   
  8   5   8  ar  
  9   5  20  1   
 10   6  21  1   
 11   6  22  1   
 12   6  23  1   
 13   7   8  ar  
 14   7  24  1   
 15   8   9  1   
 16   9  10  am  
 17   9  11  1   
 18  10  12  2   
 19  10  13  2   
 20  10  14  1   
 21  11  15  1   
 22  11  25  1   
 23  11  26  1   
 24  14  27  1   
 25  14  28  1   
 26  14  29  1   
 27  15  16  2   
 28  15  17  am  
 29  17  18  1   
 30  17  30  1   
 31  18  31  1   
 32  18  32  1   
 33  18  33  1   
@<TRIPOS>SUBSTRUCTURE
  1 ****   8 GROUP 4 **** **** 0

# MOE 2024.06 (io_trps.svl 2023.06)
