@<TRIPOS>MOLECULE
NONAME
48 50 1 0 0 
SMALL
USER_CHARGES


@<TRIPOS>ATOM
  1 S        0.3810    -0.2230    -0.3530 S.o2  1 <1>   1.4470 
  2 O        1.5340    -0.2710    -1.2280 O.2   1 <1>  -0.6500 
  3 O        0.3050    -1.1270     0.7710 O.2   1 <1>  -0.6500 
  4 N        0.3570     1.3800     0.3010 N.am  1 <1>  -0.6930 
  5 C       -1.1430    -0.2960    -1.3330 C.ar  1 <1>  -0.0090 
  6 C       -0.6760     1.7570     1.1610 C.ar  1 <1>   0.1990 
  7 C        1.1050     2.4520    -0.4290 C.3   1 <1>   0.2570 
  8 C       -2.3430    -0.7010    -0.7580 C.ar  1 <1>  -0.1500 
  9 C       -1.1620     0.0730    -2.6730 C.ar  1 <1>  -0.1500 
 10 C       -1.8100     2.4500     0.7100 C.ar  1 <1>   0.0830 
 11 C       -0.5880     1.4190     2.5040 C.ar  1 <1>  -0.1500 
 12 C        2.5760     2.5790    -0.0170 C.2   1 <1>   0.5690 
 13 C       -3.5150    -0.7410    -1.4920 C.ar  1 <1>  -0.1500 
 14 C       -2.3310     0.0360    -3.4130 C.ar  1 <1>  -0.1500 
 15 O       -1.8940     2.7590    -0.6180 O.3   1 <1>  -0.3620 
 16 C       -2.8140     2.7950     1.6080 C.ar  1 <1>  -0.1500 
 17 C       -1.5920     1.7600     3.3920 C.ar  1 <1>  -0.1500 
 18 O        2.9610     3.6320     0.4380 O.2   1 <1>  -0.5700 
 19 N        3.4120     1.5210    -0.1970 N.am  1 <1>  -0.5790 
 20 C       -3.5160    -0.3700    -2.8250 C.ar  1 <1>  -0.1430 
 21 C       -3.1550     2.8980    -1.2350 C.3   1 <1>   0.0400 
 22 C       -2.7040     2.4500     2.9450 C.ar  1 <1>  -0.1500 
 23 C        4.8330     1.4610     0.1640 C.3   1 <1>   0.0490 
 24 C       -4.8000    -0.4170    -3.6340 C.3   1 <1>  -0.0970 
 25 C        5.7320     0.6200    -0.6800 C.3   1 <1>  -0.2000 
 26 C        5.3580     0.1730     0.7020 C.3   1 <1>  -0.2000 
 27 H        0.6350     3.4010    -0.2410 H     1 <1>   0.0800 
 28 H        1.0540     2.2740    -1.4870 H     1 <1>   0.0800 
 29 H       -2.3580    -0.9880     0.2800 H     1 <1>   0.1500 
 30 H       -0.2490     0.3910    -3.1480 H     1 <1>   0.1500 
 31 H        0.2770     0.8800     2.8490 H     1 <1>   0.1500 
 32 H       -4.4260    -1.0660    -1.0190 H     1 <1>   0.1500 
 33 H       -2.3130     0.3230    -4.4510 H     1 <1>   0.1500 
 34 H       -3.6830     3.3380     1.2870 H     1 <1>   0.1500 
 35 H       -1.5050     1.4880     4.4300 H     1 <1>   0.1500 
 36 H        3.0250     0.6540    -0.5960 H     1 <1>   0.3700 
 37 H       -3.0080     2.8980    -2.3000 H     1 <1>   0.0800 
 38 H       -3.5960     3.8290    -0.9270 H     1 <1>   0.0800 
 39 H       -3.7770     2.0660    -0.9550 H     1 <1>   0.0800 
 40 H       -3.4830     2.7190     3.6370 H     1 <1>   0.1500 
 41 H        5.2110     2.3860     0.5700 H     1 <1>   0.1000 
 42 H       -4.9130    -1.3900    -4.0780 H     1 <1>   0.0800 
 43 H       -4.7820     0.3200    -4.4160 H     1 <1>   0.0800 
 44 H       -5.6500    -0.2240    -3.0040 H     1 <1>   0.0800 
 45 H        6.7390     0.9550    -0.8520 H     1 <1>   0.1000 
 46 H        5.3150     0.1040    -1.5260 H     1 <1>   0.1000 
 47 H        4.6760    -0.6510     0.8220 H     1 <1>   0.1000 
 48 H        6.1110     0.2050     1.4700 H     1 <1>   0.1000 
@<TRIPOS>BOND
  1   1   2  2   
  2   1   3  2   
  3   1   4  am  
  4   1   5  1   
  5   4   6  1   
  6   4   7  1   
  7   5   8  ar  
  8   5   9  ar  
  9   6  10  ar  
 10   6  11  ar  
 11   7  12  1   
 12   7  27  1   
 13   7  28  1   
 14   8  13  ar  
 15   8  29  1   
 16   9  14  ar  
 17   9  30  1   
 18  10  15  1   
 19  10  16  ar  
 20  11  17  ar  
 21  11  31  1   
 22  12  18  2   
 23  12  19  am  
 24  13  20  ar  
 25  13  32  1   
 26  14  20  ar  
 27  14  33  1   
 28  15  21  1   
 29  16  22  ar  
 30  16  34  1   
 31  17  22  ar  
 32  17  35  1   
 33  19  23  1   
 34  19  36  1   
 35  20  24  1   
 36  21  37  1   
 37  21  38  1   
 38  21  39  1   
 39  22  40  1   
 40  23  25  1   
 41  23  26  1   
 42  23  41  1   
 43  24  42  1   
 44  24  43  1   
 45  24  44  1   
 46  25  26  1   
 47  25  45  1   
 48  25  46  1   
 49  26  47  1   
 50  26  48  1   
@<TRIPOS>SUBSTRUCTURE
  1 ****   4 GROUP 4 **** **** 0

# MOE 2024.06 (io_trps.svl 2023.06)
