@<TRIPOS>MOLECULE
NONAME
43 44 1 0 0 
SMALL
USER_CHARGES


@<TRIPOS>ATOM
  1 BR       1.3730    -0.4140    -3.1120 Br    1 <1>  -0.1110 
  2 C        2.2530    -1.0550    -1.5270 C.ar  1 <1>   0.1110 
  3 C        3.2720    -0.2960    -0.9840 C.ar  1 <1>  -0.1500 
  4 C        1.8470    -2.2540    -0.9750 C.ar  1 <1>  -0.1500 
  5 C        3.9150    -0.7580     0.1570 C.ar  1 <1>  -0.1440 
  6 C        2.4860    -2.7050     0.1660 C.ar  1 <1>  -0.1500 
  7 C        3.5130    -1.9610     0.7290 C.ar  1 <1>  -0.1500 
  8 C        5.0490     0.0340     0.7620 C.3   1 <1>   0.4870 
  9 N        6.2820    -0.4360     0.0850 N.4   1 <1>  -0.9060 
 10 C        7.5470     0.2010     0.5210 C.3   1 <1>   0.4230 
 11 C        7.6100     1.6560     0.0440 C.3   1 <1>  -0.1600 
 12 C        8.7190    -0.5950    -0.0550 C.3   1 <1>  -0.1600 
 13 C        8.9620     2.2910     0.3820 C.3   1 <1>   0.3430 
 14 C       10.0580     0.0600     0.2880 C.3   1 <1>   0.3430 
 15 N       10.0710     1.4760    -0.1890 N.4   1 <1>  -0.9590 
 16 C       11.3810     2.1370     0.1090 C.3   1 <1>   0.3430 
 17 C       12.4830     1.5800    -0.7960 C.3   1 <1>  -0.1600 
 18 C       13.7970     2.3380    -0.5790 C.3   1 <1>  -0.2400 
 19 H        3.5310     0.6330    -1.4600 H     1 <1>   0.1500 
 20 H        1.0480    -2.8170    -1.4260 H     1 <1>   0.1500 
 21 H        2.1790    -3.6350     0.6160 H     1 <1>   0.1500 
 22 H        3.9830    -2.3390     1.6220 H     1 <1>   0.1500 
 23 H        5.1000    -0.1470     1.8240 H     1 <1>   0.0800 
 24 H        4.8910     1.0870     0.5900 H     1 <1>   0.0800 
 25 H        6.1310    -0.3310    -0.9260 H     1 <1>   0.4500 
 26 H        6.3160    -1.4530     0.2380 H     1 <1>   0.4500 
 27 H        7.6080     0.1760     1.5990 H     1 <1>   0.0800 
 28 H        6.8450     2.2380     0.5270 H     1 <1>   0.0800 
 29 H        7.4570     1.7170    -1.0190 H     1 <1>   0.0800 
 30 H        8.6380    -0.6760    -1.1250 H     1 <1>   0.0800 
 31 H        8.7200    -1.5900     0.3570 H     1 <1>   0.0800 
 32 H        9.0760     2.3600     1.4530 H     1 <1>   0.0800 
 33 H        8.9990     3.2930    -0.0190 H     1 <1>   0.0800 
 34 H       10.8570    -0.4960    -0.1810 H     1 <1>   0.0800 
 35 H       10.2180     0.0340     1.3550 H     1 <1>   0.0800 
 36 H        9.9900     1.4810    -1.2180 H     1 <1>   0.4500 
 37 H       11.6500     1.9930     1.1440 H     1 <1>   0.0800 
 38 H       11.3010     3.1980    -0.0700 H     1 <1>   0.0800 
 39 H       12.1990     1.6840    -1.8290 H     1 <1>   0.0800 
 40 H       12.6600     0.5400    -0.5860 H     1 <1>   0.0800 
 41 H       13.6810     3.3840    -0.8090 H     1 <1>   0.0800 
 42 H       14.5620     1.9380    -1.2230 H     1 <1>   0.0800 
 43 H       14.1340     2.2420     0.4390 H     1 <1>   0.0800 
@<TRIPOS>BOND
  1   1   2  1   
  2   2   3  ar  
  3   2   4  ar  
  4   3   5  ar  
  5   3  19  1   
  6   4   6  ar  
  7   4  20  1   
  8   5   7  ar  
  9   5   8  1   
 10   6   7  ar  
 11   6  21  1   
 12   7  22  1   
 13   8   9  1   
 14   8  23  1   
 15   8  24  1   
 16   9  10  1   
 17   9  25  1   
 18   9  26  1   
 19  10  11  1   
 20  10  12  1   
 21  10  27  1   
 22  11  13  1   
 23  11  28  1   
 24  11  29  1   
 25  12  14  1   
 26  12  30  1   
 27  12  31  1   
 28  13  15  1   
 29  13  32  1   
 30  13  33  1   
 31  14  15  1   
 32  14  34  1   
 33  14  35  1   
 34  15  16  1   
 35  15  36  1   
 36  16  17  1   
 37  16  37  1   
 38  16  38  1   
 39  17  18  1   
 40  17  39  1   
 41  17  40  1   
 42  18  41  1   
 43  18  42  1   
 44  18  43  1   
@<TRIPOS>SUBSTRUCTURE
  1 ****   9 GROUP 4 **** **** 0

# MOE 2024.06 (io_trps.svl 2023.06)
