@<TRIPOS>MOLECULE
NONAME
39 40 1 0 0 
SMALL
USER_CHARGES


@<TRIPOS>ATOM
  1 N        0.7920     0.1330     1.0940 N.ar  1 <1>  -0.6200 
  2 C        1.1140     1.3660     1.4400 C.ar  1 <1>   0.1600 
  3 C        1.4600    -0.3720     0.0730 C.ar  1 <1>   0.1600 
  4 C        2.0920     2.1240     0.8170 C.ar  1 <1>  -0.1500 
  5 C        2.4550     0.2990    -0.6190 C.ar  1 <1>  -0.1500 
  6 C        2.7970     1.5850    -0.2430 C.ar  1 <1>  -0.1430 
  7 C        3.8870     2.3580    -0.9490 C.3   1 <1>   0.4870 
  8 N        5.1470     2.0600    -0.2350 N.4   1 <1>  -0.9060 
  9 C        6.3490     2.6970    -0.7950 C.3   1 <1>   0.4230 
 10 C        7.5650     1.9870    -0.1920 C.3   1 <1>  -0.1600 
 11 C        6.3160     4.1880    -0.4560 C.3   1 <1>  -0.2400 
 12 C        8.9040     2.4370    -0.7990 C.3   1 <1>  -0.0170 
 13 C       10.0190     1.5680    -0.2470 C.ar  1 <1>  -0.1430 
 14 C       10.4450     0.4470    -0.9430 C.ar  1 <1>  -0.1500 
 15 C       10.6160     1.8840     0.9630 C.ar  1 <1>  -0.1500 
 16 C       11.4540    -0.3510    -0.4320 C.ar  1 <1>  -0.1500 
 17 C       11.6240     1.0860     1.4750 C.ar  1 <1>  -0.1500 
 18 C       12.0430    -0.0330     0.7780 C.ar  1 <1>  -0.1500 
 19 H        0.5680     1.7940     2.2660 H     1 <1>   0.1500 
 20 H        1.1980    -1.3740    -0.2270 H     1 <1>   0.1500 
 21 H        2.2770     3.1220     1.1730 H     1 <1>   0.1500 
 22 H        2.9380    -0.2000    -1.4410 H     1 <1>   0.1500 
 23 H        3.6700     3.4130    -0.9150 H     1 <1>   0.0800 
 24 H        3.9530     2.0470    -1.9790 H     1 <1>   0.0800 
 25 H        5.2680     1.0420    -0.2270 H     1 <1>   0.4500 
 26 H        5.0380     2.3320     0.7480 H     1 <1>   0.4500 
 27 H        6.3650     2.5670    -1.8670 H     1 <1>   0.0800 
 28 H        7.4760     0.9290    -0.3660 H     1 <1>   0.0800 
 29 H        7.6010     2.1490     0.8720 H     1 <1>   0.0800 
 30 H        6.3390     4.3450     0.6080 H     1 <1>   0.0800 
 31 H        5.4480     4.6670    -0.8700 H     1 <1>   0.0800 
 32 H        7.1730     4.6810    -0.8800 H     1 <1>   0.0800 
 33 H        9.1130     3.4640    -0.5550 H     1 <1>   0.0800 
 34 H        8.8810     2.3490    -1.8710 H     1 <1>   0.0800 
 35 H       10.0010     0.1850    -1.8870 H     1 <1>   0.1500 
 36 H       10.3050     2.7530     1.5170 H     1 <1>   0.1500 
 37 H       11.7830    -1.2200    -0.9760 H     1 <1>   0.1500 
 38 H       12.0850     1.3360     2.4150 H     1 <1>   0.1500 
 39 H       12.8270    -0.6530     1.1760 H     1 <1>   0.1500 
@<TRIPOS>BOND
  1   1   2  ar  
  2   1   3  ar  
  3   2   4  ar  
  4   2  19  1   
  5   3   5  ar  
  6   3  20  1   
  7   4   6  ar  
  8   4  21  1   
  9   5   6  ar  
 10   5  22  1   
 11   6   7  1   
 12   7   8  1   
 13   7  23  1   
 14   7  24  1   
 15   8   9  1   
 16   8  25  1   
 17   8  26  1   
 18   9  10  1   
 19   9  11  1   
 20   9  27  1   
 21  10  12  1   
 22  10  28  1   
 23  10  29  1   
 24  11  30  1   
 25  11  31  1   
 26  11  32  1   
 27  12  13  1   
 28  12  33  1   
 29  12  34  1   
 30  13  14  ar  
 31  13  15  ar  
 32  14  16  ar  
 33  14  35  1   
 34  15  17  ar  
 35  15  36  1   
 36  16  18  ar  
 37  16  37  1   
 38  17  18  ar  
 39  17  38  1   
 40  18  39  1   
@<TRIPOS>SUBSTRUCTURE
  1 ****  10 GROUP 4 **** **** 0

# MOE 2024.06 (io_trps.svl 2023.06)
