@<TRIPOS>MOLECULE
NONAME
38 38 1 0 0 
SMALL
USER_CHARGES


@<TRIPOS>ATOM
  1 O       -4.8310     7.4950    -0.0290 O.3   1 <1>  -0.3630 
  2 C       -6.0710     6.9360    -0.0350 C.ar  1 <1>   0.0830 
  3 C       -3.6680     6.7110    -0.0170 C.3   1 <1>   0.1200 
  4 C       -7.1630     7.7980    -0.0390 C.ar  1 <1>  -0.1440 
  5 C       -6.2790     5.5570    -0.0370 C.ar  1 <1>  -0.1500 
  6 C       -2.4820     7.6760    -0.0080 C.3   1 <1>   0.3430 
  7 C       -8.4450     7.2730    -0.0440 C.ar  1 <1>  -0.1500 
  8 C       -6.9720     9.3080    -0.0380 C.3   1 <1>  -0.0960 
  9 C       -7.5630     5.0400    -0.0430 C.ar  1 <1>  -0.1440 
 10 N       -1.1730     6.9530     0.0060 N.4   1 <1>  -0.9060 
 11 C       -8.6440     5.9040    -0.0450 C.ar  1 <1>  -0.1500 
 12 C       -7.7930     3.5390    -0.0430 C.3   1 <1>  -0.0970 
 13 C       -0.0300     7.9150     0.0150 C.3   1 <1>   0.3430 
 14 C        1.3230     7.1980     0.0300 C.3   1 <1>   0.1200 
 15 O        2.2970     8.1830     0.0380 O.3   1 <1>  -0.5600 
 16 C        3.6060     7.7040     0.0520 C.3   1 <1>   0.0400 
 17 H       -3.6690     6.1030    -0.9050 H     1 <1>   0.0800 
 18 H       -3.6850     6.1050     0.8720 H     1 <1>   0.0800 
 19 H       -5.4600     4.8670    -0.0320 H     1 <1>   0.1500 
 20 H       -2.5590     8.3050     0.8640 H     1 <1>   0.0800 
 21 H       -2.5420     8.3010    -0.8850 H     1 <1>   0.0800 
 22 H       -9.3000     7.9260    -0.0460 H     1 <1>   0.1500 
 23 H       -6.4200     9.6070    -0.9100 H     1 <1>   0.0800 
 24 H       -6.4290     9.6070     0.8400 H     1 <1>   0.0800 
 25 H       -7.9180     9.8180    -0.0430 H     1 <1>   0.0800 
 26 H       -1.1030     6.3490    -0.8230 H     1 <1>   0.4500 
 27 H       -1.1190     6.3520     0.8390 H     1 <1>   0.4500 
 28 H       -9.6480     5.5160    -0.0470 H     1 <1>   0.1500 
 29 H       -6.9780     3.0290    -0.5250 H     1 <1>   0.0800 
 30 H       -8.6990     3.2990    -0.5700 H     1 <1>   0.0800 
 31 H       -7.8760     3.1840     0.9680 H     1 <1>   0.0800 
 32 H       -0.0910     8.5460     0.8880 H     1 <1>   0.0800 
 33 H       -0.0740     8.5420    -0.8610 H     1 <1>   0.0800 
 34 H        1.4560     6.5980    -0.8550 H     1 <1>   0.0800 
 35 H        1.4380     6.6010     0.9190 H     1 <1>   0.0800 
 36 H        4.2730     8.5490     0.0570 H     1 <1>   0.0800 
 37 H        3.7830     7.1140    -0.8310 H     1 <1>   0.0800 
 38 H        3.7660     7.1170     0.9400 H     1 <1>   0.0800 
@<TRIPOS>BOND
  1   1   2  1   
  2   1   3  1   
  3   2   4  ar  
  4   2   5  ar  
  5   3   6  1   
  6   3  17  1   
  7   3  18  1   
  8   4   7  ar  
  9   4   8  1   
 10   5   9  ar  
 11   5  19  1   
 12   6  10  1   
 13   6  20  1   
 14   6  21  1   
 15   7  11  ar  
 16   7  22  1   
 17   8  23  1   
 18   8  24  1   
 19   8  25  1   
 20   9  11  ar  
 21   9  12  1   
 22  10  13  1   
 23  10  26  1   
 24  10  27  1   
 25  11  28  1   
 26  12  29  1   
 27  12  30  1   
 28  12  31  1   
 29  13  14  1   
 30  13  32  1   
 31  13  33  1   
 32  14  15  1   
 33  14  34  1   
 34  14  35  1   
 35  15  16  1   
 36  16  36  1   
 37  16  37  1   
 38  16  38  1   
@<TRIPOS>SUBSTRUCTURE
  1 ****   3 GROUP 4 **** **** 0

# MOE 2024.06 (io_trps.svl 2023.06)
