@<TRIPOS>MOLECULE
NONAME
39 40 1 0 0 
SMALL
USER_CHARGES


@<TRIPOS>ATOM
  1 O        0.0270     1.2510    -1.7130 O.2   1 <1>  -0.5700 
  2 C       -0.3090     1.9020    -0.7530 C.2   1 <1>   0.5690 
  3 N       -1.5900     1.9040    -0.3120 N.am  1 <1>  -0.7300 
  4 C        0.7180     2.7520    -0.0060 C.3   1 <1>  -0.0190 
  5 C       -2.7000     1.2250    -0.9840 C.3   1 <1>   0.3640 
  6 C        1.3750     3.8340    -0.8650 C.3   1 <1>  -0.1600 
  7 C        1.9100     1.9620     0.5370 C.3   1 <1>  -0.1600 
  8 C       -3.9710     2.0270    -0.7230 C.ar  1 <1>  -0.1440 
  9 C       -2.8000    -0.2060    -0.4610 C.3   1 <1>  -0.2400 
 10 C        2.6630     4.2020    -0.1240 C.3   1 <1>  -0.1600 
 11 C        3.0040     3.0050     0.7740 C.3   1 <1>  -0.1600 
 12 C       -4.6110     2.6570    -1.7810 C.ar  1 <1>  -0.1500 
 13 C       -4.5030     2.1530     0.5550 C.ar  1 <1>  -0.1500 
 14 C       -5.7620     3.3940    -1.5660 C.ar  1 <1>  -0.1500 
 15 C       -5.6550     2.8890     0.7730 C.ar  1 <1>  -0.1500 
 16 C       -6.2930     3.5160    -0.2930 C.ar  1 <1>   0.0820 
 17 O       -7.4240     4.2540    -0.1700 O.3   1 <1>  -0.3620 
 18 C       -8.0600     4.4210     1.0770 C.3   1 <1>   0.0400 
 19 H       -1.8820     2.5220     0.4420 H     1 <1>   0.3700 
 20 H        0.2350     3.2350     0.8250 H     1 <1>   0.0800 
 21 H       -2.5030     1.1930    -2.0440 H     1 <1>   0.0800 
 22 H        0.7300     4.6830    -1.0070 H     1 <1>   0.0800 
 23 H        1.6280     3.4200    -1.8270 H     1 <1>   0.0800 
 24 H        2.2450     1.2630    -0.2110 H     1 <1>   0.0800 
 25 H        1.6610     1.4210     1.4330 H     1 <1>   0.0800 
 26 H       -2.9100    -0.2240     0.6070 H     1 <1>   0.0800 
 27 H       -1.9140    -0.7510    -0.7340 H     1 <1>   0.0800 
 28 H       -3.6480    -0.6930    -0.9060 H     1 <1>   0.0800 
 29 H        2.4990     5.0750     0.4850 H     1 <1>   0.0800 
 30 H        3.4580     4.4090    -0.8200 H     1 <1>   0.0800 
 31 H        3.9740     2.6020     0.5390 H     1 <1>   0.0800 
 32 H        2.9970     3.3150     1.8060 H     1 <1>   0.0800 
 33 H       -4.2160     2.5790    -2.7790 H     1 <1>   0.1500 
 34 H       -4.0240     1.6760     1.3910 H     1 <1>   0.1500 
 35 H       -6.2570     3.8810    -2.3870 H     1 <1>   0.1500 
 36 H       -6.0390     2.9630     1.7720 H     1 <1>   0.1500 
 37 H       -8.9320     5.0320     0.9280 H     1 <1>   0.0800 
 38 H       -7.3810     4.9120     1.7520 H     1 <1>   0.0800 
 39 H       -8.3500     3.4560     1.4530 H     1 <1>   0.0800 
@<TRIPOS>BOND
  1   1   2  2   
  2   2   3  am  
  3   2   4  1   
  4   3   5  1   
  5   3  19  1   
  6   4   6  1   
  7   4   7  1   
  8   4  20  1   
  9   5   8  1   
 10   5   9  1   
 11   5  21  1   
 12   6  10  1   
 13   6  22  1   
 14   6  23  1   
 15   7  11  1   
 16   7  24  1   
 17   7  25  1   
 18   8  12  ar  
 19   8  13  ar  
 20   9  26  1   
 21   9  27  1   
 22   9  28  1   
 23  10  11  1   
 24  10  29  1   
 25  10  30  1   
 26  11  31  1   
 27  11  32  1   
 28  12  14  ar  
 29  12  33  1   
 30  13  15  ar  
 31  13  34  1   
 32  14  16  ar  
 33  14  35  1   
 34  15  16  ar  
 35  15  36  1   
 36  16  17  1   
 37  17  18  1   
 38  18  37  1   
 39  18  38  1   
 40  18  39  1   
@<TRIPOS>SUBSTRUCTURE
  1 ****   3 GROUP 4 **** **** 0

# MOE 2024.06 (io_trps.svl 2023.06)
