@<TRIPOS>MOLECULE
NONAME
46 48 1 0 0 
SMALL
USER_CHARGES


@<TRIPOS>ATOM
  1 S       -0.0020     0.1460    -0.8750 S.o2  1 <1>   1.4470 
  2 O       -0.3850     0.3670    -2.2540 O.2   1 <1>  -0.6500 
  3 O       -0.1040    -1.1850    -0.3150 O.2   1 <1>  -0.6500 
  4 N       -0.9670     1.1670     0.0730 N.am  1 <1>  -0.8490 
  5 C        1.6730     0.7760    -0.5780 C.ar  1 <1>  -0.0090 
  6 C       -1.0460     2.5220    -0.4850 C.3   1 <1>   0.1960 
  7 C       -2.3070     0.6020     0.2650 C.3   1 <1>   0.1960 
  8 C        2.1860     0.8600     0.7110 C.ar  1 <1>  -0.1500 
  9 C        2.4900     1.1940    -1.6230 C.ar  1 <1>  -0.1500 
 10 C       -1.7950     3.4490     0.4770 C.3   1 <1>  -0.1600 
 11 C       -3.1130     1.4610     1.2450 C.3   1 <1>  -0.1600 
 12 C        3.4590     1.3440     0.9500 C.ar  1 <1>  -0.1500 
 13 C        3.7650     1.6780    -1.3890 C.ar  1 <1>  -0.1500 
 14 C       -3.2010     2.9180     0.7780 C.3   1 <1>  -0.1600 
 15 C        4.2700     1.7640    -0.0970 C.ar  1 <1>   0.1170 
 16 N        5.5590     2.2310     0.1880 N.am  1 <1>  -0.5470 
 17 C        6.3870     3.0760    -0.5080 C.2   1 <1>   0.7160 
 18 O        5.9720     3.6930    -1.4670 O.2   1 <1>  -0.5700 
 19 C        7.7400     3.2470    -0.0530 C.2   1 <1>  -0.0860 
 20 C        8.4970     4.3590     0.0640 C.2   1 <1>  -0.0400 
 21 C        8.6270     2.2750     0.3910 C.2   1 <1>   0.1080 
 22 O        9.6890     4.1020     0.5450 O.3   1 <1>  -0.0190 
 23 C        8.1630     5.8020    -0.2660 C.3   1 <1>  -0.0600 
 24 N        9.7370     2.8040     0.7370 N.2   1 <1>  -0.4100 
 25 C        8.3780     0.7800     0.4520 C.3   1 <1>  -0.0590 
 26 H       -1.5520     2.5000    -1.4370 H     1 <1>   0.0800 
 27 H       -0.0530     2.9110    -0.6410 H     1 <1>   0.0800 
 28 H       -2.2290    -0.3950     0.6680 H     1 <1>   0.0800 
 29 H       -2.8170     0.5410    -0.6830 H     1 <1>   0.0800 
 30 H        1.5700     0.5410     1.5360 H     1 <1>   0.1500 
 31 H        2.1240     1.1390    -2.6350 H     1 <1>   0.1500 
 32 H       -1.8630     4.4320     0.0450 H     1 <1>   0.0800 
 33 H       -1.2310     3.5290     1.3910 H     1 <1>   0.0800 
 34 H       -2.6400     1.4160     2.2100 H     1 <1>   0.0800 
 35 H       -4.1030     1.0520     1.3460 H     1 <1>   0.0800 
 36 H        3.8200     1.3970     1.9610 H     1 <1>   0.1500 
 37 H        4.3670     1.9880    -2.2250 H     1 <1>   0.1500 
 38 H       -3.8020     2.9720    -0.1140 H     1 <1>   0.0800 
 39 H       -3.6700     3.5220     1.5360 H     1 <1>   0.0800 
 40 H        5.9240     1.9680     1.1000 H     1 <1>   0.3700 
 41 H        7.1560     5.8910    -0.6320 H     1 <1>   0.0800 
 42 H        8.8360     6.1650    -1.0210 H     1 <1>   0.0800 
 43 H        8.2670     6.4100     0.6140 H     1 <1>   0.0800 
 44 H        7.8460     0.4530    -0.4230 H     1 <1>   0.0800 
 45 H        7.8120     0.5340     1.3300 H     1 <1>   0.0800 
 46 H        9.3180     0.2580     0.4930 H     1 <1>   0.0800 
@<TRIPOS>BOND
  1   1   2  2   
  2   1   3  2   
  3   1   4  am  
  4   1   5  1   
  5   4   6  1   
  6   4   7  1   
  7   5   8  ar  
  8   5   9  ar  
  9   6  10  1   
 10   6  26  1   
 11   6  27  1   
 12   7  11  1   
 13   7  28  1   
 14   7  29  1   
 15   8  12  ar  
 16   8  30  1   
 17   9  13  ar  
 18   9  31  1   
 19  10  14  1   
 20  10  32  1   
 21  10  33  1   
 22  11  14  1   
 23  11  34  1   
 24  11  35  1   
 25  12  15  ar  
 26  12  36  1   
 27  13  15  ar  
 28  13  37  1   
 29  14  38  1   
 30  14  39  1   
 31  15  16  1   
 32  16  17  am  
 33  16  40  1   
 34  17  18  2   
 35  17  19  1   
 36  19  20  2   
 37  19  21  1   
 38  20  22  1   
 39  20  23  1   
 40  21  24  2   
 41  21  25  1   
 42  22  24  1   
 43  23  41  1   
 44  23  42  1   
 45  23  43  1   
 46  25  44  1   
 47  25  45  1   
 48  25  46  1   
@<TRIPOS>SUBSTRUCTURE
  1 ****  15 GROUP 4 **** **** 0

# MOE 2024.06 (io_trps.svl 2023.06)
