@<TRIPOS>MOLECULE
NONAME
35 36 1 0 0 
SMALL
USER_CHARGES


@<TRIPOS>ATOM
  1 CL      -1.8050     0.1080     2.9370 Cl    1 <1>  -0.1770 
  2 C       -2.3230     0.8460     1.4450 C.ar  1 <1>   0.1770 
  3 C       -3.5180     0.4460     0.8770 C.ar  1 <1>  -0.1500 
  4 C       -1.5360     1.8160     0.8560 C.ar  1 <1>  -0.1500 
  5 C       -3.9440     1.0330    -0.3070 C.ar  1 <1>  -0.1440 
  6 C       -1.9540     2.3960    -0.3280 C.ar  1 <1>  -0.1500 
  7 C       -3.1520     2.0050    -0.9070 C.ar  1 <1>  -0.1500 
  8 C       -5.2610     0.6210    -0.9380 C.3   1 <1>   0.4870 
  9 N       -6.3730     1.1750    -0.1220 N.4   1 <1>  -0.9590 
 10 C       -7.7320     0.7290    -0.5650 C.3   1 <1>   0.3430 
 11 C       -6.3350     2.6760     0.0040 C.3   1 <1>   0.3430 
 12 C       -8.8160     1.1730     0.4530 C.3   1 <1>   0.2000 
 13 C       -7.6270     3.2560     0.6400 C.3   1 <1>   0.2000 
 14 O       -8.3750     2.2390     1.2540 O.3   1 <1>  -0.5600 
 15 C       -9.1780     0.0460     1.4180 C.3   1 <1>  -0.2400 
 16 C       -8.5120     4.0160    -0.3550 C.3   1 <1>  -0.2400 
 17 H       -4.0890    -0.3190     1.3720 H     1 <1>   0.1500 
 18 H       -0.6090     2.1080     1.3190 H     1 <1>   0.1500 
 19 H       -1.3440     3.1500    -0.7990 H     1 <1>   0.1500 
 20 H       -3.4500     2.4690    -1.8330 H     1 <1>   0.1500 
 21 H       -5.3220    -0.4550    -0.9670 H     1 <1>   0.0800 
 22 H       -5.3170     0.9940    -1.9470 H     1 <1>   0.0800 
 23 H       -6.2660     0.8310     0.8430 H     1 <1>   0.4500 
 24 H       -7.7660    -0.3430    -0.6710 H     1 <1>   0.0800 
 25 H       -7.9610     1.1600    -1.5250 H     1 <1>   0.0800 
 26 H       -6.1980     3.1270    -0.9640 H     1 <1>   0.0800 
 27 H       -5.4920     2.9640     0.6110 H     1 <1>   0.0800 
 28 H       -9.7050     1.4860    -0.0690 H     1 <1>   0.0800 
 29 H       -7.3430     3.9420     1.4210 H     1 <1>   0.0800 
 30 H       -8.3180    -0.2680     1.9830 H     1 <1>   0.0800 
 31 H       -9.5670    -0.8000     0.8810 H     1 <1>   0.0800 
 32 H       -9.9390     0.3840     2.1010 H     1 <1>   0.0800 
 33 H       -8.7750     3.4150    -1.2060 H     1 <1>   0.0800 
 34 H       -7.9930     4.8880    -0.7110 H     1 <1>   0.0800 
 35 H       -9.4100     4.3470     0.1370 H     1 <1>   0.0800 
@<TRIPOS>BOND
  1   1   2  1   
  2   2   3  ar  
  3   2   4  ar  
  4   3   5  ar  
  5   3  17  1   
  6   4   6  ar  
  7   4  18  1   
  8   5   7  ar  
  9   5   8  1   
 10   6   7  ar  
 11   6  19  1   
 12   7  20  1   
 13   8   9  1   
 14   8  21  1   
 15   8  22  1   
 16   9  10  1   
 17   9  11  1   
 18   9  23  1   
 19  10  12  1   
 20  10  24  1   
 21  10  25  1   
 22  11  13  1   
 23  11  26  1   
 24  11  27  1   
 25  12  14  1   
 26  12  15  1   
 27  12  28  1   
 28  13  14  1   
 29  13  16  1   
 30  13  29  1   
 31  15  30  1   
 32  15  31  1   
 33  15  32  1   
 34  16  33  1   
 35  16  34  1   
 36  16  35  1   
@<TRIPOS>SUBSTRUCTURE
  1 ****   9 GROUP 4 **** **** 0

# MOE 2024.06 (io_trps.svl 2023.06)
