@<TRIPOS>MOLECULE
NONAME
43 46 1 0 0 
SMALL
USER_CHARGES


@<TRIPOS>ATOM
  1 S        0.3080    -0.4660     1.5690 S.3   1 <1>  -0.0800 
  2 C       -0.9090    -0.6880     0.3050 C.2   1 <1>   0.4420 
  3 C        1.5040    -0.1160     0.3430 C.ar  1 <1>   0.0400 
  4 N       -0.4680    -0.5220    -0.8830 N.2   1 <1>  -0.5650 
  5 N       -2.2030    -1.0120     0.6220 N.am  1 <1>  -0.4940 
  6 C        0.8820    -0.2000    -0.8880 C.ar  1 <1>   0.2270 
  7 C        2.8400     0.1940     0.5090 C.ar  1 <1>  -0.1500 
  8 C       -2.8710    -1.1740     1.8000 C.2   1 <1>   0.5690 
  9 C        1.6470     0.0410    -2.0210 C.ar  1 <1>  -0.1500 
 10 C        3.5870     0.4320    -0.6330 C.ar  1 <1>  -0.1500 
 11 O       -2.3720    -1.0480     2.8900 O.2   1 <1>  -0.5700 
 12 C       -4.3520    -1.5420     1.6910 C.3   1 <1>   0.1710 
 13 C        2.9920     0.3550    -1.8910 C.ar  1 <1>  -0.1500 
 14 N       -4.9570    -1.1890     0.3730 N.3   1 <1>  -0.8100 
 15 C       -6.2250    -1.9300     0.1620 C.3   1 <1>   0.1100 
 16 C       -5.2190     0.2740     0.2820 C.3   1 <1>   0.1100 
 17 C       -6.8960    -1.5810    -1.1820 C.3   1 <1>   0.2090 
 18 C       -5.8540     0.6680    -1.0640 C.3   1 <1>   0.2090 
 19 N       -7.1120    -0.1070    -1.2880 N.pl3 1 <1>  -0.8380 
 20 C       -8.3670     0.4600    -1.2270 C.ar  1 <1>   0.7200 
 21 N       -9.3950    -0.3040    -1.5980 N.ar  1 <1>  -0.6200 
 22 N       -8.4490     1.7200    -0.7980 N.ar  1 <1>  -0.6200 
 23 C      -10.5820     0.2470    -1.5430 C.ar  1 <1>   0.1600 
 24 C       -9.6490     2.2440    -0.7520 C.ar  1 <1>   0.1600 
 25 C      -10.7680     1.5400    -1.1200 C.ar  1 <1>  -0.1500 
 26 H       -2.8210    -1.1170    -0.1860 H     1 <1>   0.3700 
 27 H        3.2740     0.2460     1.4910 H     1 <1>   0.1500 
 28 H        1.1810    -0.0200    -2.9870 H     1 <1>   0.1500 
 29 H        4.6330     0.6770    -0.5510 H     1 <1>   0.1500 
 30 H       -4.8930    -1.0620     2.4880 H     1 <1>   0.0800 
 31 H       -4.4200    -2.6050     1.8410 H     1 <1>   0.0800 
 32 H        3.5840     0.5420    -2.7700 H     1 <1>   0.1500 
 33 H       -6.9180    -1.7060     0.9550 H     1 <1>   0.0800 
 34 H       -6.0280    -2.9880     0.1790 H     1 <1>   0.0800 
 35 H       -4.2980     0.8190     0.3970 H     1 <1>   0.0800 
 36 H       -5.8860     0.5790     1.0710 H     1 <1>   0.0800 
 37 H       -7.8220    -2.1210    -1.2600 H     1 <1>   0.0800 
 38 H       -6.2630    -1.9030    -1.9900 H     1 <1>   0.0800 
 39 H       -5.1630     0.4500    -1.8580 H     1 <1>   0.0800 
 40 H       -6.0370     1.7270    -1.0800 H     1 <1>   0.0800 
 41 H      -11.4280    -0.3480    -1.8430 H     1 <1>   0.1500 
 42 H       -9.7430     3.2620    -0.4130 H     1 <1>   0.1500 
 43 H      -11.7460     1.9800    -1.0800 H     1 <1>   0.1500 
@<TRIPOS>BOND
  1   1   2  1   
  2   1   3  1   
  3   2   4  2   
  4   2   5  1   
  5   3   6  ar  
  6   3   7  ar  
  7   4   6  1   
  8   5   8  am  
  9   5  26  1   
 10   6   9  ar  
 11   7  10  ar  
 12   7  27  1   
 13   8  11  2   
 14   8  12  1   
 15   9  13  ar  
 16   9  28  1   
 17  10  13  ar  
 18  10  29  1   
 19  12  14  1   
 20  12  30  1   
 21  12  31  1   
 22  13  32  1   
 23  14  15  1   
 24  14  16  1   
 25  15  17  1   
 26  15  33  1   
 27  15  34  1   
 28  16  18  1   
 29  16  35  1   
 30  16  36  1   
 31  17  19  1   
 32  17  37  1   
 33  17  38  1   
 34  18  19  1   
 35  18  39  1   
 36  18  40  1   
 37  19  20  1   
 38  20  21  ar  
 39  20  22  ar  
 40  21  23  ar  
 41  22  24  ar  
 42  23  25  ar  
 43  23  41  1   
 44  24  25  ar  
 45  24  42  1   
 46  25  43  1   
@<TRIPOS>SUBSTRUCTURE
  1 ****  16 GROUP 4 **** **** 0

# MOE 2024.06 (io_trps.svl 2023.06)
