@<TRIPOS>MOLECULE
NONAME
43 44 1 0 0 
SMALL
USER_CHARGES


@<TRIPOS>ATOM
  1 CL       0.1480     0.5440    -0.4590 Cl    1 <1>  -0.1770 
  2 C       -1.4920     1.1070    -0.2070 C.ar  1 <1>   0.1770 
  3 C       -2.4780     0.2300     0.2290 C.ar  1 <1>   0.0830 
  4 C       -1.7650     2.4370    -0.4540 C.ar  1 <1>  -0.1500 
  5 O       -2.1280    -1.0690     0.4520 O.3   1 <1>  -0.3630 
  6 C       -3.7680     0.7160     0.4170 C.ar  1 <1>  -0.1500 
  7 C       -3.0560     2.9150    -0.2640 C.ar  1 <1>   0.0830 
  8 C       -3.0690    -2.0230     0.8950 C.3   1 <1>   0.0400 
  9 C       -4.0700     2.0520     0.1700 C.ar  1 <1>   0.1170 
 10 O       -3.4050     4.2220    -0.4840 O.3   1 <1>  -0.3630 
 11 N       -5.3550     2.6080     0.3370 N.am  1 <1>  -0.5470 
 12 C       -2.4410     5.1650    -0.9090 C.3   1 <1>   0.0400 
 13 C       -6.5800     2.0580     0.6040 C.2   1 <1>   0.5690 
 14 O       -6.7670     0.8760     0.7670 O.2   1 <1>  -0.5700 
 15 C       -7.8140     2.9740     0.6840 C.3   1 <1>   0.4040 
 16 N       -9.1150     2.2550     0.4010 N.4   1 <1>  -0.9590 
 17 C       -9.2030     1.8100    -1.0220 C.3   1 <1>   0.3430 
 18 C      -10.3100     3.0320     0.8380 C.3   1 <1>   0.3430 
 19 C      -10.4440     0.9370    -1.2100 C.3   1 <1>  -0.1600 
 20 C      -11.5670     2.1750     0.6760 C.3   1 <1>  -0.1600 
 21 C      -11.7220     1.6550    -0.7590 C.3   1 <1>  -0.1600 
 22 H       -0.9600     3.0630    -0.7870 H     1 <1>   0.1500 
 23 H       -4.5390     0.0570     0.7590 H     1 <1>   0.1500 
 24 H       -2.5640    -2.9670     0.9950 H     1 <1>   0.0800 
 25 H       -3.8550    -2.1050     0.1660 H     1 <1>   0.0800 
 26 H       -3.4570    -1.7150     1.8500 H     1 <1>   0.0800 
 27 H       -5.3050     3.6200     0.1830 H     1 <1>   0.3700 
 28 H       -2.9250     6.1190    -1.0120 H     1 <1>   0.0800 
 29 H       -2.0410     4.8560    -1.8590 H     1 <1>   0.0800 
 30 H       -1.6630     5.2310    -0.1680 H     1 <1>   0.0800 
 31 H       -7.6920     3.7870    -0.0100 H     1 <1>   0.0800 
 32 H       -7.8460     3.3840     1.6790 H     1 <1>   0.0800 
 33 H       -9.0710     1.3830     0.9550 H     1 <1>   0.4500 
 34 H       -8.3260     1.2400    -1.2870 H     1 <1>   0.0800 
 35 H       -9.2640     2.6670    -1.6730 H     1 <1>   0.0800 
 36 H      -10.4050     3.9230     0.2390 H     1 <1>   0.0800 
 37 H      -10.2070     3.3230     1.8710 H     1 <1>   0.0800 
 38 H      -10.3210     0.0220    -0.6570 H     1 <1>   0.0800 
 39 H      -10.5320     0.6720    -2.2500 H     1 <1>   0.0800 
 40 H      -12.4300     2.7640     0.9370 H     1 <1>   0.0800 
 41 H      -11.5250     1.3470     1.3630 H     1 <1>   0.0800 
 42 H      -12.5600     0.9790    -0.8140 H     1 <1>   0.0800 
 43 H      -11.9250     2.4800    -1.4210 H     1 <1>   0.0800 
@<TRIPOS>BOND
  1   1   2  1   
  2   2   3  ar  
  3   2   4  ar  
  4   3   5  1   
  5   3   6  ar  
  6   4   7  ar  
  7   4  22  1   
  8   5   8  1   
  9   6   9  ar  
 10   6  23  1   
 11   7   9  ar  
 12   7  10  1   
 13   8  24  1   
 14   8  25  1   
 15   8  26  1   
 16   9  11  1   
 17  10  12  1   
 18  11  13  am  
 19  11  27  1   
 20  12  28  1   
 21  12  29  1   
 22  12  30  1   
 23  13  14  2   
 24  13  15  1   
 25  15  16  1   
 26  15  31  1   
 27  15  32  1   
 28  16  17  1   
 29  16  18  1   
 30  16  33  1   
 31  17  19  1   
 32  17  34  1   
 33  17  35  1   
 34  18  20  1   
 35  18  36  1   
 36  18  37  1   
 37  19  21  1   
 38  19  38  1   
 39  19  39  1   
 40  20  21  1   
 41  20  40  1   
 42  20  41  1   
 43  21  42  1   
 44  21  43  1   
@<TRIPOS>SUBSTRUCTURE
  1 ****  11 GROUP 4 **** **** 0

# MOE 2024.06 (io_trps.svl 2023.06)
