@<TRIPOS>MOLECULE
NONAME
35 35 1 0 0 
SMALL
USER_CHARGES


@<TRIPOS>ATOM
  1 CL      -0.0590     0.5230     0.1520 Cl    1 <1>  -0.1770 
  2 C       -1.7830     0.2500     0.1110 C.ar  1 <1>   0.1770 
  3 C       -2.6390     1.3330     0.0540 C.ar  1 <1>  -0.1500 
  4 C       -2.2640    -1.0440     0.1380 C.ar  1 <1>  -0.1500 
  5 C       -4.0100     1.1240     0.0210 C.ar  1 <1>  -0.1440 
  6 C       -3.6300    -1.2600     0.1050 C.ar  1 <1>  -0.1500 
  7 C       -4.5100    -0.1780     0.0470 C.ar  1 <1>   0.0820 
  8 C       -4.9490     2.3200    -0.0420 C.3   1 <1>  -0.0960 
  9 O       -5.8610    -0.3290     0.0130 O.3   1 <1>  -0.3630 
 10 C       -6.4690    -1.5950     0.0350 C.3   1 <1>   0.1200 
 11 C       -7.9800    -1.3670    -0.0150 C.3   1 <1>  -0.1600 
 12 C       -8.7350    -2.6900     0.0040 C.3   1 <1>   0.3430 
 13 N      -10.1910    -2.4130    -0.0460 N.4   1 <1>  -0.9060 
 14 C      -11.0000    -3.6700    -0.0300 C.3   1 <1>   0.3430 
 15 C      -12.5070    -3.3840    -0.0820 C.3   1 <1>   0.1200 
 16 O      -13.1590    -4.6020    -0.0630 O.3   1 <1>  -0.6800 
 17 H       -2.2270     2.3250     0.0350 H     1 <1>   0.1500 
 18 H       -1.5730    -1.8670     0.1830 H     1 <1>   0.1500 
 19 H       -3.9810    -2.2730     0.1270 H     1 <1>   0.1500 
 20 H       -4.4020     3.2450    -0.0550 H     1 <1>   0.0800 
 21 H       -5.5990     2.3190     0.8140 H     1 <1>   0.0800 
 22 H       -5.5490     2.2660    -0.9330 H     1 <1>   0.0800 
 23 H       -6.1760    -2.0920     0.9450 H     1 <1>   0.0800 
 24 H       -6.1260    -2.1460    -0.8240 H     1 <1>   0.0800 
 25 H       -8.2100    -0.8280    -0.9180 H     1 <1>   0.0800 
 26 H       -8.2600    -0.7740     0.8390 H     1 <1>   0.0800 
 27 H       -8.4930    -3.2340     0.9040 H     1 <1>   0.0800 
 28 H       -8.4430    -3.2880    -0.8460 H     1 <1>   0.0800 
 29 H      -10.4020    -1.8740    -0.8960 H     1 <1>   0.4500 
 30 H      -10.4490    -1.8230     0.7560 H     1 <1>   0.4500 
 31 H      -10.7890    -4.2270     0.8680 H     1 <1>   0.0800 
 32 H      -10.7390    -4.2810    -0.8790 H     1 <1>   0.0800 
 33 H      -12.7790    -2.8760    -0.9910 H     1 <1>   0.0800 
 34 H      -12.8300    -2.8210     0.7780 H     1 <1>   0.0800 
 35 H      -14.1350    -4.4980    -0.0940 H     1 <1>   0.4000 
@<TRIPOS>BOND
  1   1   2  1   
  2   2   3  ar  
  3   2   4  ar  
  4   3   5  ar  
  5   3  17  1   
  6   4   6  ar  
  7   4  18  1   
  8   5   7  ar  
  9   5   8  1   
 10   6   7  ar  
 11   6  19  1   
 12   7   9  1   
 13   8  20  1   
 14   8  21  1   
 15   8  22  1   
 16   9  10  1   
 17  10  11  1   
 18  10  23  1   
 19  10  24  1   
 20  11  12  1   
 21  11  25  1   
 22  11  26  1   
 23  12  13  1   
 24  12  27  1   
 25  12  28  1   
 26  13  14  1   
 27  13  29  1   
 28  13  30  1   
 29  14  15  1   
 30  14  31  1   
 31  14  32  1   
 32  15  16  1   
 33  15  33  1   
 34  15  34  1   
 35  16  35  1   
@<TRIPOS>SUBSTRUCTURE
  1 ****  10 GROUP 4 **** **** 0

# MOE 2024.06 (io_trps.svl 2023.06)
