@<TRIPOS>MOLECULE
NONAME
35 35 1 0 0 
SMALL
USER_CHARGES


@<TRIPOS>ATOM
  1 O       -0.3160    -0.3230    -0.9690 O.2   1 <1>  -0.5700 
  2 C       -0.4730    -1.4260    -0.4900 C.2   1 <1>   0.7060 
  3 O        0.6050    -2.1440    -0.1640 O.3   1 <1>  -0.4300 
  4 C       -1.7710    -2.0140    -0.2550 C.2   1 <1>   0.0790 
  5 C        1.9140    -1.6630    -0.3730 C.3   1 <1>   0.1200 
  6 C       -1.8090    -3.3660    -0.7270 C.1   1 <1>   0.4920 
  7 C       -2.8500    -1.4030     0.3080 C.2   1 <1>  -0.2760 
  8 C        2.8900    -2.7370     0.0950 C.3   1 <1>  -0.2400 
  9 N       -1.8760    -4.4390    -1.1080 N.1   1 <1>  -0.5570 
 10 C       -4.2100    -2.0850     0.5020 C.3   1 <1>  -0.0220 
 11 C       -2.8550     0.0360     0.8290 C.3   1 <1>  -0.1020 
 12 C       -5.1900    -1.7030    -0.6130 C.3   1 <1>  -0.0160 
 13 C       -6.5130    -2.4230    -0.4210 C.ar  1 <1>  -0.1440 
 14 C       -7.5550    -1.8100     0.2590 C.ar  1 <1>  -0.1500 
 15 C       -6.6880    -3.7050    -0.9210 C.ar  1 <1>  -0.1500 
 16 C       -8.7580    -2.4710     0.4360 C.ar  1 <1>  -0.1500 
 17 C       -7.8920    -4.3660    -0.7440 C.ar  1 <1>  -0.1500 
 18 C       -8.9270    -3.7490    -0.0650 C.ar  1 <1>  -0.1500 
 19 H        2.0390    -1.4590    -1.4240 H     1 <1>   0.0800 
 20 H        2.0390    -0.7530     0.1900 H     1 <1>   0.0800 
 21 H        2.7440    -3.6420    -0.4680 H     1 <1>   0.0800 
 22 H        2.7480    -2.9370     1.1420 H     1 <1>   0.0800 
 23 H        3.9000    -2.4000    -0.0550 H     1 <1>   0.0800 
 24 H       -4.1100    -3.1560     0.5130 H     1 <1>   0.0800 
 25 H       -4.6290    -1.8120     1.4560 H     1 <1>   0.0800 
 26 H       -3.2000     0.0620     1.8480 H     1 <1>   0.0800 
 27 H       -3.5070     0.6480     0.2320 H     1 <1>   0.0800 
 28 H       -1.8780     0.4820     0.8110 H     1 <1>   0.0800 
 29 H       -4.7720    -1.9700    -1.5680 H     1 <1>   0.0800 
 30 H       -5.3540    -0.6400    -0.6140 H     1 <1>   0.0800 
 31 H       -7.4340    -0.8170     0.6530 H     1 <1>   0.1500 
 32 H       -5.8880    -4.1950    -1.4490 H     1 <1>   0.1500 
 33 H       -9.5630    -1.9900     0.9640 H     1 <1>   0.1500 
 34 H       -8.0210    -5.3600    -1.1350 H     1 <1>   0.1500 
 35 H       -9.8620    -4.2630     0.0730 H     1 <1>   0.1500 
@<TRIPOS>BOND
  1   1   2  2   
  2   2   3  1   
  3   2   4  1   
  4   3   5  1   
  5   4   6  1   
  6   4   7  2   
  7   5   8  1   
  8   5  19  1   
  9   5  20  1   
 10   6   9  3   
 11   7  10  1   
 12   7  11  1   
 13   8  21  1   
 14   8  22  1   
 15   8  23  1   
 16  10  12  1   
 17  10  24  1   
 18  10  25  1   
 19  11  26  1   
 20  11  27  1   
 21  11  28  1   
 22  12  13  1   
 23  12  29  1   
 24  12  30  1   
 25  13  14  ar  
 26  13  15  ar  
 27  14  16  ar  
 28  14  31  1   
 29  15  17  ar  
 30  15  32  1   
 31  16  18  ar  
 32  16  33  1   
 33  17  18  ar  
 34  17  34  1   
 35  18  35  1   
@<TRIPOS>SUBSTRUCTURE
  1 ****  10 GROUP 4 **** **** 0

# MOE 2024.06 (io_trps.svl 2023.06)
