@<TRIPOS>MOLECULE
NONAME
38 39 1 0 0 
SMALL
USER_CHARGES


@<TRIPOS>ATOM
  1 S       -0.1290     1.2950     0.8540 S.3   1 <1>  -0.2860 
  2 C       -1.7420     0.8430     0.2230 C.2   1 <1>   0.2420 
  3 C        0.8860    -0.2110     0.4740 C.3   1 <1>   0.1310 
  4 N       -2.0170    -0.2770    -0.3400 N.2   1 <1>  -0.3380 
  5 N       -2.7780     1.6560     0.2970 N.pl3 1 <1>   0.0330 
  6 C        2.3320     0.0120     0.8670 C.2   1 <1>   0.6590 
  7 N       -3.3120    -0.2070    -0.6600 N.2   1 <1>  -0.3380 
  8 C       -3.7700     0.9590    -0.2760 C.2   1 <1>   0.1330 
  9 O        2.8380    -0.5820     1.7850 O.2   1 <1>  -0.5700 
 10 O        3.0120     0.8840     0.1310 O.3   1 <1>  -0.4300 
 11 C       -5.1300     1.4440    -0.4330 C.ar  1 <1>   0.0530 
 12 C        4.3620     1.1800     0.4020 C.3   1 <1>   0.1200 
 13 C       -5.5700     2.7150    -0.0100 C.ar  1 <1>   0.0820 
 14 C       -6.0730     0.6120    -1.0410 C.ar  1 <1>  -0.1500 
 15 C        4.8280     2.2240    -0.6080 C.3   1 <1>  -0.2400 
 16 O       -4.6760     3.5510     0.5870 O.3   1 <1>  -0.3630 
 17 C       -6.8970     3.0990    -0.2010 C.ar  1 <1>  -0.1500 
 18 C       -7.3850     1.0000    -1.2280 C.ar  1 <1>  -0.1500 
 19 C       -5.0160     4.8440     1.0360 C.3   1 <1>   0.1200 
 20 C       -7.8000     2.2480    -0.8060 C.ar  1 <1>  -0.1500 
 21 C       -3.7650     5.4740     1.6390 C.3   1 <1>  -0.2400 
 22 H        0.8040    -0.3960    -0.5810 H     1 <1>   0.0800 
 23 H        0.4630    -1.0280     1.0270 H     1 <1>   0.0800 
 24 H       -2.8480     2.5970     0.6870 H     1 <1>   0.2700 
 25 H        4.9350     0.2730     0.3160 H     1 <1>   0.0800 
 26 H        4.4320     1.5580     1.4090 H     1 <1>   0.0800 
 27 H       -5.7730    -0.3650    -1.3780 H     1 <1>   0.1500 
 28 H        4.7440     1.8360    -1.6070 H     1 <1>   0.0800 
 29 H        5.8570     2.4730    -0.4230 H     1 <1>   0.0800 
 30 H        4.2370     3.1170    -0.5170 H     1 <1>   0.0800 
 31 H       -7.2550     4.0610     0.1130 H     1 <1>   0.1500 
 32 H       -8.0830     0.3300    -1.7000 H     1 <1>   0.1500 
 33 H       -5.7920     4.7560     1.7770 H     1 <1>   0.0800 
 34 H       -5.3650     5.4180     0.1950 H     1 <1>   0.0800 
 35 H       -8.8220     2.5520    -0.9510 H     1 <1>   0.1500 
 36 H       -3.4160     4.8890     2.4710 H     1 <1>   0.0800 
 37 H       -3.9920     6.4640     1.9900 H     1 <1>   0.0800 
 38 H       -2.9900     5.5470     0.8960 H     1 <1>   0.0800 
@<TRIPOS>BOND
  1   1   2  1   
  2   1   3  1   
  3   2   4  2   
  4   2   5  1   
  5   3   6  1   
  6   3  22  1   
  7   3  23  1   
  8   4   7  1   
  9   5   8  1   
 10   5  24  1   
 11   6   9  2   
 12   6  10  1   
 13   7   8  2   
 14   8  11  1   
 15  10  12  1   
 16  11  13  ar  
 17  11  14  ar  
 18  12  15  1   
 19  12  25  1   
 20  12  26  1   
 21  13  16  1   
 22  13  17  ar  
 23  14  18  ar  
 24  14  27  1   
 25  15  28  1   
 26  15  29  1   
 27  15  30  1   
 28  16  19  1   
 29  17  20  ar  
 30  17  31  1   
 31  18  20  ar  
 32  18  32  1   
 33  19  21  1   
 34  19  33  1   
 35  19  34  1   
 36  20  35  1   
 37  21  36  1   
 38  21  37  1   
 39  21  38  1   
@<TRIPOS>SUBSTRUCTURE
  1 ****   5 GROUP 4 **** **** 0

# MOE 2024.06 (io_trps.svl 2023.06)
