@<TRIPOS>MOLECULE
NONAME
43 46 1 0 0 
SMALL
USER_CHARGES


@<TRIPOS>ATOM
  1 BR       0.0080     0.0940     0.8420 Br    1 <1>  -0.1110 
  2 C        0.2820    -1.7850     0.5130 C.ar  1 <1>   0.1110 
  3 C       -0.8040    -2.6290     0.5240 C.ar  1 <1>  -0.1500 
  4 C        1.5830    -2.2250     0.2720 C.ar  1 <1>  -0.1500 
  5 C       -0.5780    -3.9840     0.2830 C.ar  1 <1>   0.0000 
  6 C        1.8060    -3.5650     0.0340 C.ar  1 <1>  -0.1500 
  7 C       -1.4320    -5.1170     0.2190 C.ar  1 <1>   0.2560 
  8 C        0.7180    -4.4430     0.0400 C.ar  1 <1>  -0.1520 
  9 N       -2.7570    -5.2270     0.3770 N.ar  1 <1>  -0.2560 
 10 C       -0.6360    -6.2150    -0.0570 C.ar  1 <1>   0.1050 
 11 N        0.6700    -5.8110    -0.1670 N.pl3 1 <1>   0.0480 
 12 N       -3.2470    -6.4260     0.2550 N.ar  1 <1>  -0.3100 
 13 N       -1.1250    -7.4520    -0.1860 N.ar  1 <1>  -0.5670 
 14 C        1.8270    -6.6810    -0.4550 C.3   1 <1>   0.0160 
 15 C       -2.4190    -7.4640    -0.0160 C.ar  1 <1>   0.7220 
 16 S       -3.2160    -9.0610    -0.1610 S.3   1 <1>  -0.3320 
 17 C       -5.0030    -8.7120     0.1350 C.3   1 <1>   0.0700 
 18 C       -5.7570   -10.0340    -0.0200 C.3   1 <1>   0.3430 
 19 N       -7.2240    -9.8850     0.2470 N.4   1 <1>  -0.9590 
 20 C       -7.8900   -11.2360     0.2840 C.3   1 <1>   0.3430 
 21 C       -7.9110    -9.0000    -0.7640 C.3   1 <1>   0.3430 
 22 C       -9.4170   -11.1130     0.4450 C.3   1 <1>   0.1200 
 23 C       -9.4370    -8.9780    -0.5550 C.3   1 <1>   0.1200 
 24 O       -9.9420   -10.2810    -0.5480 O.3   1 <1>  -0.5600 
 25 H       -1.7980    -2.2650     0.7120 H     1 <1>   0.1500 
 26 H        2.3910    -1.5150     0.2760 H     1 <1>   0.1500 
 27 H        2.8000    -3.9300    -0.1550 H     1 <1>   0.1500 
 28 H        2.3000    -6.3540    -1.3630 H     1 <1>   0.0800 
 29 H        1.4990    -7.6980    -0.5710 H     1 <1>   0.0800 
 30 H        2.5260    -6.6230     0.3590 H     1 <1>   0.0800 
 31 H       -5.3020    -7.9830    -0.5970 H     1 <1>   0.0800 
 32 H       -5.0830    -8.3150     1.1320 H     1 <1>   0.0800 
 33 H       -5.3360   -10.7470     0.6710 H     1 <1>   0.0800 
 34 H       -5.6050   -10.4100    -1.0190 H     1 <1>   0.0800 
 35 H       -7.3530    -9.4600     1.1760 H     1 <1>   0.4500 
 36 H       -7.4930   -11.8230     1.0960 H     1 <1>   0.0800 
 37 H       -7.6910   -11.7650    -0.6340 H     1 <1>   0.0800 
 38 H       -7.7130    -9.3620    -1.7600 H     1 <1>   0.0800 
 39 H       -7.5330    -7.9930    -0.6960 H     1 <1>   0.0800 
 40 H       -9.6790   -10.7130     1.4100 H     1 <1>   0.0800 
 41 H       -9.8810   -12.0790     0.3400 H     1 <1>   0.0800 
 42 H       -9.9140    -8.4480    -1.3620 H     1 <1>   0.0800 
 43 H       -9.7000    -8.4970     0.3720 H     1 <1>   0.0800 
@<TRIPOS>BOND
  1   1   2  1   
  2   2   3  ar  
  3   2   4  ar  
  4   3   5  ar  
  5   3  25  1   
  6   4   6  ar  
  7   4  26  1   
  8   5   7  1   
  9   5   8  ar  
 10   6   8  ar  
 11   6  27  1   
 12   7   9  ar  
 13   7  10  ar  
 14   8  11  1   
 15   9  12  ar  
 16  10  11  1   
 17  10  13  ar  
 18  11  14  1   
 19  12  15  ar  
 20  13  15  ar  
 21  14  28  1   
 22  14  29  1   
 23  14  30  1   
 24  15  16  1   
 25  16  17  1   
 26  17  18  1   
 27  17  31  1   
 28  17  32  1   
 29  18  19  1   
 30  18  33  1   
 31  18  34  1   
 32  19  20  1   
 33  19  21  1   
 34  19  35  1   
 35  20  22  1   
 36  20  36  1   
 37  20  37  1   
 38  21  23  1   
 39  21  38  1   
 40  21  39  1   
 41  22  24  1   
 42  22  40  1   
 43  22  41  1   
 44  23  24  1   
 45  23  42  1   
 46  23  43  1   
@<TRIPOS>SUBSTRUCTURE
  1 ****  12 GROUP 4 **** **** 0

# MOE 2024.06 (io_trps.svl 2023.06)
