@<TRIPOS>MOLECULE
NONAME
50 52 1 0 0 
SMALL
USER_CHARGES


@<TRIPOS>ATOM
  1 BR       1.5230     3.1910    -3.3960 Br    1 <1>  -0.1110 
  2 C        1.7650     2.6700    -1.5540 C.ar  1 <1>   0.1110 
  3 C        0.6940     2.7290    -0.6720 C.ar  1 <1>   0.0830 
  4 C        3.0230     2.2520    -1.1670 C.ar  1 <1>  -0.1500 
  5 O       -0.5100     3.1550    -1.1380 O.3   1 <1>  -0.3630 
  6 C        0.9190     2.3470     0.6490 C.ar  1 <1>  -0.1500 
  7 C        3.2380     1.8790     0.1520 C.ar  1 <1>  -0.1430 
  8 C       -1.6510     3.1890    -0.3100 C.3   1 <1>   0.0400 
  9 C        2.1790     1.9270     1.0500 C.ar  1 <1>  -0.1500 
 10 C        4.6210     1.4300     0.6000 C.3   1 <1>   0.2540 
 11 N        5.6140     2.4950     0.3510 N.3   1 <1>  -0.8100 
 12 C        5.3100     3.7370     1.1100 C.3   1 <1>   0.1100 
 13 C        6.9940     2.0380     0.6340 C.3   1 <1>   0.1100 
 14 C        6.3600     4.8490     0.8680 C.3   1 <1>   0.3430 
 15 C        8.0460     3.1340     0.3260 C.3   1 <1>   0.3430 
 16 N        7.3920     4.4050    -0.1290 N.4   1 <1>  -0.9590 
 17 C        8.3530     5.4360    -0.5980 C.3   1 <1>   0.4230 
 18 C        9.1320     6.0700     0.5660 C.3   1 <1>  -0.1600 
 19 C        7.6210     6.5050    -1.4190 C.3   1 <1>  -0.1600 
 20 C       10.1220     7.1230     0.0460 C.3   1 <1>  -0.1600 
 21 C        8.6070     7.5570    -1.9450 C.3   1 <1>  -0.1600 
 22 C        9.4090     8.1880    -0.7980 C.3   1 <1>  -0.1600 
 23 H        3.8220     2.2220    -1.8850 H     1 <1>   0.1500 
 24 H        0.1280     2.3680     1.3750 H     1 <1>   0.1500 
 25 H       -2.4790     3.5390    -0.9000 H     1 <1>   0.0800 
 26 H       -1.4720     3.8660     0.5060 H     1 <1>   0.0800 
 27 H       -1.8530     2.1950     0.0480 H     1 <1>   0.0800 
 28 H        2.3270     1.6360     2.0760 H     1 <1>   0.1500 
 29 H        4.8910     0.5500     0.0410 H     1 <1>   0.0800 
 30 H        4.6100     1.1730     1.6460 H     1 <1>   0.0800 
 31 H        5.2590     3.5230     2.1640 H     1 <1>   0.0800 
 32 H        4.3470     4.1160     0.8120 H     1 <1>   0.0800 
 33 H        7.2140     1.1710     0.0340 H     1 <1>   0.0800 
 34 H        7.0790     1.7470     1.6670 H     1 <1>   0.0800 
 35 H        6.8330     5.0990     1.8020 H     1 <1>   0.0800 
 36 H        5.8520     5.7300     0.5110 H     1 <1>   0.0800 
 37 H        8.7120     2.7710    -0.4400 H     1 <1>   0.0800 
 38 H        8.6340     3.3170     1.2100 H     1 <1>   0.0800 
 39 H        6.8200     4.1000    -0.9320 H     1 <1>   0.4500 
 40 H        9.0680     4.9640    -1.2530 H     1 <1>   0.0800 
 41 H        9.6840     5.3180     1.1000 H     1 <1>   0.0800 
 42 H        8.4580     6.5540     1.2490 H     1 <1>   0.0800 
 43 H        6.8860     7.0070    -0.8150 H     1 <1>   0.0800 
 44 H        7.1240     6.0460    -2.2560 H     1 <1>   0.0800 
 45 H       10.8810     6.6460    -0.5520 H     1 <1>   0.0800 
 46 H       10.6160     7.5990     0.8770 H     1 <1>   0.0800 
 47 H        8.0690     8.3290    -2.4710 H     1 <1>   0.0800 
 48 H        9.2870     7.1010    -2.6460 H     1 <1>   0.0800 
 49 H       10.1370     8.8710    -1.2030 H     1 <1>   0.0800 
 50 H        8.7460     8.7590    -0.1700 H     1 <1>   0.0800 
@<TRIPOS>BOND
  1   1   2  1   
  2   2   3  ar  
  3   2   4  ar  
  4   3   5  1   
  5   3   6  ar  
  6   4   7  ar  
  7   4  23  1   
  8   5   8  1   
  9   6   9  ar  
 10   6  24  1   
 11   7   9  ar  
 12   7  10  1   
 13   8  25  1   
 14   8  26  1   
 15   8  27  1   
 16   9  28  1   
 17  10  11  1   
 18  10  29  1   
 19  10  30  1   
 20  11  12  1   
 21  11  13  1   
 22  12  14  1   
 23  12  31  1   
 24  12  32  1   
 25  13  15  1   
 26  13  33  1   
 27  13  34  1   
 28  14  16  1   
 29  14  35  1   
 30  14  36  1   
 31  15  16  1   
 32  15  37  1   
 33  15  38  1   
 34  16  17  1   
 35  16  39  1   
 36  17  18  1   
 37  17  19  1   
 38  17  40  1   
 39  18  20  1   
 40  18  41  1   
 41  18  42  1   
 42  19  21  1   
 43  19  43  1   
 44  19  44  1   
 45  20  22  1   
 46  20  45  1   
 47  20  46  1   
 48  21  22  1   
 49  21  47  1   
 50  21  48  1   
 51  22  49  1   
 52  22  50  1   
@<TRIPOS>SUBSTRUCTURE
  1 ****  12 GROUP 4 **** **** 0

# MOE 2024.06 (io_trps.svl 2023.06)
