@<TRIPOS>MOLECULE
NONAME
25 25 1 0 0 
SMALL
USER_CHARGES


@<TRIPOS>ATOM
  1 CL       1.3680    -0.1220     2.0530 Cl    1 <1>  -0.1400 
  2 C        1.9500     0.0800     0.4210 C.2   1 <1>   0.0020 
  3 C        1.7140     1.2020    -0.2640 C.2   1 <1>  -0.2880 
  4 C        2.7090    -1.1380    -0.0640 C.3   1 <1>  -0.1020 
  5 C        0.9650     2.3930     0.2850 C.3   1 <1>   0.4810 
  6 N       -0.3760     2.4180    -0.3430 N.4   1 <1>  -0.9590 
  7 C       -1.1680     3.6180     0.0110 C.3   1 <1>   0.3430 
  8 C       -1.2090     1.2500     0.0390 C.3   1 <1>   0.3430 
  9 C       -2.6050     3.2210    -0.3000 C.3   1 <1>  -0.1600 
 10 C       -2.6370     1.6910    -0.2530 C.3   1 <1>  -0.1600 
 11 H        2.0550     1.3460    -1.2740 H     1 <1>   0.1500 
 12 H        2.0710    -2.0040    -0.0380 H     1 <1>   0.0800 
 13 H        3.5570    -1.3180     0.5730 H     1 <1>   0.0800 
 14 H        3.0580    -0.9950    -1.0700 H     1 <1>   0.0800 
 15 H        1.5060     3.2990     0.0660 H     1 <1>   0.0800 
 16 H        0.8650     2.3040     1.3550 H     1 <1>   0.0800 
 17 H       -0.2610     2.3940    -1.3630 H     1 <1>   0.4500 
 18 H       -1.0740     3.8210     1.0660 H     1 <1>   0.0800 
 19 H       -0.8610     4.4850    -0.5530 H     1 <1>   0.0800 
 20 H       -0.9370     0.3660    -0.5160 H     1 <1>   0.0800 
 21 H       -1.1000     1.0530     1.0940 H     1 <1>   0.0800 
 22 H       -3.2800     3.6590     0.4150 H     1 <1>   0.0800 
 23 H       -2.8740     3.5720    -1.2820 H     1 <1>   0.0800 
 24 H       -2.9580     1.2900    -1.1990 H     1 <1>   0.0800 
 25 H       -3.3020     1.3280     0.5130 H     1 <1>   0.0800 
@<TRIPOS>BOND
  1   1   2  1   
  2   2   3  2   
  3   2   4  1   
  4   3   5  1   
  5   3  11  1   
  6   4  12  1   
  7   4  13  1   
  8   4  14  1   
  9   5   6  1   
 10   5  15  1   
 11   5  16  1   
 12   6   7  1   
 13   6   8  1   
 14   6  17  1   
 15   7   9  1   
 16   7  18  1   
 17   7  19  1   
 18   8  10  1   
 19   8  20  1   
 20   8  21  1   
 21   9  10  1   
 22   9  22  1   
 23   9  23  1   
 24  10  24  1   
 25  10  25  1   
@<TRIPOS>SUBSTRUCTURE
  1 ****   6 GROUP 4 **** **** 0

# MOE 2024.06 (io_trps.svl 2023.06)
