@<TRIPOS>MOLECULE
NONAME
40 41 1 0 0 
SMALL
USER_CHARGES


@<TRIPOS>ATOM
  1 S        1.3170    -0.6760     1.4460 S.3   1 <1>  -0.3320 
  2 C        1.0940    -1.9520     0.1870 C.ar  1 <1>   0.1020 
  3 C        1.6140     0.9310     0.5810 C.3   1 <1>   0.0700 
  4 C        1.7450    -1.9630    -1.0540 C.ar  1 <1>   0.0860 
  5 C        0.2200    -2.9610     0.5500 C.ar  1 <1>  -0.1500 
  6 C        1.1810     2.0500     1.5240 C.3   1 <1>  -0.2400 
  7 C        2.7190    -0.9850    -1.4840 C.2   1 <1>   0.5440 
  8 C        1.4360    -3.0120    -1.9210 C.ar  1 <1>  -0.1500 
  9 C       -0.0540    -3.9960    -0.3260 C.ar  1 <1>  -0.1500 
 10 O        2.4210    -0.2080    -2.3710 O.2   1 <1>  -0.5700 
 11 N        3.9890    -0.9190    -0.9520 N.am  1 <1>  -0.6600 
 12 C        0.5540    -4.0160    -1.5680 C.ar  1 <1>  -0.1500 
 13 C        4.4810    -1.7650     0.1780 C.3   1 <1>   0.1400 
 14 C        4.9320     0.1650    -1.3680 C.3   1 <1>   0.1400 
 15 C        5.0400    -0.9020     1.3390 C.3   1 <1>   0.2000 
 16 C        6.1260     0.3170    -0.4010 C.3   1 <1>   0.2000 
 17 O        5.6750     0.2790     0.9190 O.3   1 <1>  -0.5600 
 18 C        6.0410    -1.6750     2.1960 C.3   1 <1>  -0.2400 
 19 C        6.8540     1.6450    -0.5880 C.3   1 <1>  -0.2400 
 20 H        1.0350     0.9300    -0.3260 H     1 <1>   0.0800 
 21 H        2.6650     0.9970     0.3610 H     1 <1>   0.0800 
 22 H       -0.2520    -2.9330     1.5160 H     1 <1>   0.1500 
 23 H        0.1370     1.9490     1.7630 H     1 <1>   0.0800 
 24 H        1.3380     3.0040     1.0530 H     1 <1>   0.0800 
 25 H        1.7570     2.0120     2.4310 H     1 <1>   0.0800 
 26 H        1.9050    -3.0330    -2.8900 H     1 <1>   0.1500 
 27 H       -0.7390    -4.7780    -0.0440 H     1 <1>   0.1500 
 28 H        0.3380    -4.8140    -2.2590 H     1 <1>   0.1500 
 29 H        5.2610    -2.4050    -0.1950 H     1 <1>   0.0800 
 30 H        3.7050    -2.4030     0.5590 H     1 <1>   0.0800 
 31 H        4.3940     1.0970    -1.4070 H     1 <1>   0.0800 
 32 H        5.2940    -0.0420    -2.3590 H     1 <1>   0.0800 
 33 H        4.2180    -0.5960     1.9620 H     1 <1>   0.0800 
 34 H        6.8200    -0.4940    -0.5430 H     1 <1>   0.0800 
 35 H        6.8930    -1.9700     1.6110 H     1 <1>   0.0800 
 36 H        5.5760    -2.5550     2.6020 H     1 <1>   0.0800 
 37 H        6.3690    -1.0570     3.0140 H     1 <1>   0.0800 
 38 H        6.1840     2.4660    -0.4070 H     1 <1>   0.0800 
 39 H        7.2340     1.7210    -1.5900 H     1 <1>   0.0800 
 40 H        7.6810     1.7050     0.0970 H     1 <1>   0.0800 
@<TRIPOS>BOND
  1   1   2  1   
  2   1   3  1   
  3   2   4  ar  
  4   2   5  ar  
  5   3   6  1   
  6   3  20  1   
  7   3  21  1   
  8   4   7  1   
  9   4   8  ar  
 10   5   9  ar  
 11   5  22  1   
 12   6  23  1   
 13   6  24  1   
 14   6  25  1   
 15   7  10  2   
 16   7  11  am  
 17   8  12  ar  
 18   8  26  1   
 19   9  12  ar  
 20   9  27  1   
 21  11  13  1   
 22  11  14  1   
 23  12  28  1   
 24  13  15  1   
 25  13  29  1   
 26  13  30  1   
 27  14  16  1   
 28  14  31  1   
 29  14  32  1   
 30  15  17  1   
 31  15  18  1   
 32  15  33  1   
 33  16  17  1   
 34  16  19  1   
 35  16  34  1   
 36  18  35  1   
 37  18  36  1   
 38  18  37  1   
 39  19  38  1   
 40  19  39  1   
 41  19  40  1   
@<TRIPOS>SUBSTRUCTURE
  1 ****  11 GROUP 4 **** **** 0

# MOE 2024.06 (io_trps.svl 2023.06)
