@<TRIPOS>MOLECULE
NONAME
59 62 1 0 0 
SMALL
USER_CHARGES


@<TRIPOS>ATOM
  1 O       -1.5030    -0.3320    -1.7750 O.2   1 <1>  -0.5700 
  2 C       -1.9400    -1.3790    -1.3450 C.2   1 <1>   0.6900 
  3 N       -1.1070    -2.2480    -0.6500 N.am  1 <1>  -0.4200 
  4 N       -3.2760    -1.7000    -1.5400 N.am  1 <1>  -0.4360 
  5 C       -1.5990    -3.4130    -0.0760 C.2   1 <1>   0.7030 
  6 C        0.3360    -1.8880    -0.4830 C.3   1 <1>   0.0600 
  7 C       -3.7570    -2.8580    -0.9590 C.2   1 <1>   0.4260 
  8 C       -4.1560    -0.8060    -2.3510 C.3   1 <1>   0.0600 
  9 O       -0.8650    -4.1470     0.5620 O.2   1 <1>  -0.5700 
 10 C       -2.9930    -3.7190    -0.2470 C.2   1 <1>   0.2770 
 11 N       -5.0290    -3.3320    -0.9760 N.pl3 1 <1>  -0.7000 
 12 N       -3.8420    -4.7540     0.1710 N.pl3 1 <1>  -0.7640 
 13 C       -5.0570    -4.4740    -0.2950 C.cat 1 <1>   0.6560 
 14 C       -3.3630    -5.9220     0.9600 C.3   1 <1>   0.3540 
 15 C       -6.3470    -5.3000    -0.1110 C.3   1 <1>   0.2540 
 16 C       -2.8070    -6.9700     0.0040 C.3   1 <1>  -0.2400 
 17 N       -7.5480    -4.4810     0.2480 N.3   1 <1>  -0.8100 
 18 C       -8.7970    -5.2750     0.0630 C.3   1 <1>   0.1100 
 19 C       -7.4810    -3.9610     1.6410 C.3   1 <1>   0.1100 
 20 C      -10.0790    -4.5540     0.5550 C.3   1 <1>   0.3430 
 21 C       -8.7160    -3.1060     2.0360 C.3   1 <1>   0.3430 
 22 N       -9.7900    -3.1470     0.9910 N.4   1 <1>  -0.9590 
 23 C      -11.0160    -2.3960     1.3820 C.3   1 <1>   0.4860 
 24 C      -11.9770    -2.3820     0.2100 C.ar  1 <1>  -0.1430 
 25 C      -13.0960    -3.2040     0.2160 C.ar  1 <1>  -0.1500 
 26 C      -11.7440    -1.5550    -0.8810 C.ar  1 <1>  -0.1500 
 27 C      -13.9620    -3.2100    -0.8620 C.ar  1 <1>  -0.1500 
 28 C      -12.6130    -1.5630    -1.9580 C.ar  1 <1>  -0.1500 
 29 C      -13.7200    -2.3910    -1.9500 C.ar  1 <1>  -0.1500 
 30 H        0.7040    -1.4000    -1.3710 H     1 <1>   0.0800 
 31 H        0.9370    -2.7640    -0.3100 H     1 <1>   0.0800 
 32 H        0.4460    -1.2170     0.3510 H     1 <1>   0.0800 
 33 H       -3.5710    -0.2520    -3.0670 H     1 <1>   0.0800 
 34 H       -4.6560    -0.1050    -1.7040 H     1 <1>   0.0800 
 35 H       -4.8840    -1.3820    -2.8930 H     1 <1>   0.0800 
 36 H       -5.8360    -2.9000    -1.4270 H     1 <1>   0.4500 
 37 H       -4.1700    -6.3440     1.5340 H     1 <1>   0.0800 
 38 H       -2.5970    -5.6130     1.6530 H     1 <1>   0.0800 
 39 H       -6.1910    -6.0570     0.6370 H     1 <1>   0.0800 
 40 H       -6.5320    -5.8020    -1.0440 H     1 <1>   0.0800 
 41 H       -3.5590    -7.2980    -0.6890 H     1 <1>   0.0800 
 42 H       -2.4670    -7.8230     0.5650 H     1 <1>   0.0800 
 43 H       -1.9650    -6.5760    -0.5380 H     1 <1>   0.0800 
 44 H       -8.7190    -6.2150     0.5850 H     1 <1>   0.0800 
 45 H       -8.9200    -5.5040    -0.9830 H     1 <1>   0.0800 
 46 H       -6.5980    -3.3570     1.7660 H     1 <1>   0.0800 
 47 H       -7.4040    -4.7840     2.3320 H     1 <1>   0.0800 
 48 H      -10.5040    -5.1100     1.3740 H     1 <1>   0.0800 
 49 H      -10.8040    -4.5530    -0.2440 H     1 <1>   0.0800 
 50 H       -8.4000    -2.0870     2.1890 H     1 <1>   0.0800 
 51 H       -9.1020    -3.4680     2.9750 H     1 <1>   0.0800 
 52 H       -9.4040    -2.6960     0.1520 H     1 <1>   0.4500 
 53 H      -10.7640    -1.3810     1.6460 H     1 <1>   0.0800 
 54 H      -11.4860    -2.8630     2.2320 H     1 <1>   0.0800 
 55 H      -13.3110    -3.8450     1.0550 H     1 <1>   0.1500 
 56 H      -10.8950    -0.8940    -0.9080 H     1 <1>   0.1500 
 57 H      -14.8310    -3.8470    -0.8570 H     1 <1>   0.1500 
 58 H      -12.4350    -0.9200    -2.8050 H     1 <1>   0.1500 
 59 H      -14.3960    -2.3950    -2.7880 H     1 <1>   0.1500 
@<TRIPOS>BOND
  1   1   2  2   
  2   2   3  am  
  3   2   4  am  
  4   3   5  am  
  5   3   6  1   
  6   4   7  1   
  7   4   8  1   
  8   5   9  2   
  9   5  10  1   
 10   6  30  1   
 11   6  31  1   
 12   6  32  1   
 13   7  10  2   
 14   7  11  1   
 15   8  33  1   
 16   8  34  1   
 17   8  35  1   
 18  10  12  1   
 19  11  13  ar  
 20  11  36  1   
 21  12  13  ar  
 22  12  14  1   
 23  13  15  1   
 24  14  16  1   
 25  14  37  1   
 26  14  38  1   
 27  15  17  1   
 28  15  39  1   
 29  15  40  1   
 30  16  41  1   
 31  16  42  1   
 32  16  43  1   
 33  17  18  1   
 34  17  19  1   
 35  18  20  1   
 36  18  44  1   
 37  18  45  1   
 38  19  21  1   
 39  19  46  1   
 40  19  47  1   
 41  20  22  1   
 42  20  48  1   
 43  20  49  1   
 44  21  22  1   
 45  21  50  1   
 46  21  51  1   
 47  22  23  1   
 48  22  52  1   
 49  23  24  1   
 50  23  53  1   
 51  23  54  1   
 52  24  25  ar  
 53  24  26  ar  
 54  25  27  ar  
 55  25  55  1   
 56  26  28  ar  
 57  26  56  1   
 58  27  29  ar  
 59  27  57  1   
 60  28  29  ar  
 61  28  58  1   
 62  29  59  1   
@<TRIPOS>SUBSTRUCTURE
  1 ****  11 GROUP 4 **** **** 0

# MOE 2024.06 (io_trps.svl 2023.06)
