@<TRIPOS>MOLECULE
NONAME
46 49 1 0 0 
SMALL
USER_CHARGES


@<TRIPOS>ATOM
  1 O       -0.2890    -1.3800    -1.7420 O.2   1 <1>  -0.5700 
  2 C       -0.7850    -2.0480    -0.8700 C.2   1 <1>   0.5690 
  3 N       -0.1430    -2.8080     0.0490 N.am  1 <1>  -0.6600 
  4 C       -2.2720    -2.1290    -0.6820 C.3   1 <1>  -0.0990 
  5 C        1.3110    -3.0710     0.1650 C.3   1 <1>   0.2200 
  6 C       -1.0810    -3.4850     0.9620 C.3   1 <1>   0.1400 
  7 C       -2.4180    -2.7680     0.7140 C.3   1 <1>  -0.0190 
  8 C        2.0740    -1.7720     0.4560 C.3   1 <1>  -0.1600 
  9 C        1.8390    -3.7630    -1.0980 C.3   1 <1>  -0.1600 
 10 C       -3.6280    -3.6770     0.8820 C.2   1 <1>   0.5690 
 11 C        3.5840    -2.0350     0.5650 C.3   1 <1>  -0.1600 
 12 C        3.3480    -4.0270    -0.9910 C.3   1 <1>  -0.1600 
 13 O       -3.5130    -4.6700     1.5580 O.2   1 <1>  -0.5700 
 14 N       -4.8000    -3.3020     0.2840 N.am  1 <1>  -0.5470 
 15 C        4.1170    -2.7310    -0.6950 C.3   1 <1>  -0.1600 
 16 C       -6.0610    -3.9220     0.2380 C.ar  1 <1>   0.1170 
 17 C       -7.1610    -3.1360    -0.1000 C.ar  1 <1>  -0.1500 
 18 C       -6.2530    -5.2850     0.4970 C.ar  1 <1>  -0.1500 
 19 C       -8.4040    -3.7290    -0.1630 C.ar  1 <1>   0.0820 
 20 C       -7.5130    -5.8650     0.4300 C.ar  1 <1>  -0.1500 
 21 O       -9.5760    -3.1600    -0.4650 O.3   1 <1>  -0.3630 
 22 C       -8.5780    -5.0560     0.0950 C.ar  1 <1>   0.0820 
 23 C      -10.5600    -4.1900    -0.3900 C.3   1 <1>   0.4000 
 24 O       -9.8700    -5.3860    -0.0320 O.3   1 <1>  -0.3630 
 25 H       -2.6690    -2.7610    -1.4550 H     1 <1>   0.0800 
 26 H       -2.7140    -1.1510    -0.7310 H     1 <1>   0.0800 
 27 H        1.4690    -3.7380     0.9960 H     1 <1>   0.0800 
 28 H       -0.7690    -3.3860     1.9880 H     1 <1>   0.0800 
 29 H       -1.1380    -4.5280     0.6960 H     1 <1>   0.0800 
 30 H       -2.4960    -1.9830     1.4440 H     1 <1>   0.0800 
 31 H        1.7170    -1.3420     1.3740 H     1 <1>   0.0800 
 32 H        1.9030    -1.0680    -0.3400 H     1 <1>   0.0800 
 33 H        1.6590    -3.1360    -1.9540 H     1 <1>   0.0800 
 34 H        1.3200    -4.6930    -1.2420 H     1 <1>   0.0800 
 35 H        3.7790    -2.6530     1.4250 H     1 <1>   0.0800 
 36 H        4.1010    -1.1010     0.7060 H     1 <1>   0.0800 
 37 H        3.7040    -4.4550    -1.9120 H     1 <1>   0.0800 
 38 H        3.5320    -4.7390    -0.2040 H     1 <1>   0.0800 
 39 H       -4.7710    -2.4000    -0.1860 H     1 <1>   0.3700 
 40 H        5.1630    -2.9520    -0.5710 H     1 <1>   0.0800 
 41 H        4.0190    -2.0640    -1.5350 H     1 <1>   0.0800 
 42 H       -7.0640    -2.0870    -0.3070 H     1 <1>   0.1500 
 43 H       -5.4150    -5.9080     0.7500 H     1 <1>   0.1500 
 44 H       -7.6650    -6.9100     0.6310 H     1 <1>   0.1500 
 45 H      -11.0250    -4.3170    -1.3520 H     1 <1>   0.0800 
 46 H      -11.2790    -3.9470     0.3720 H     1 <1>   0.0800 
@<TRIPOS>BOND
  1   1   2  2   
  2   2   3  am  
  3   2   4  1   
  4   3   5  1   
  5   3   6  1   
  6   4   7  1   
  7   4  25  1   
  8   4  26  1   
  9   5   8  1   
 10   5   9  1   
 11   5  27  1   
 12   6   7  1   
 13   6  28  1   
 14   6  29  1   
 15   7  10  1   
 16   7  30  1   
 17   8  11  1   
 18   8  31  1   
 19   8  32  1   
 20   9  12  1   
 21   9  33  1   
 22   9  34  1   
 23  10  13  2   
 24  10  14  am  
 25  11  15  1   
 26  11  35  1   
 27  11  36  1   
 28  12  15  1   
 29  12  37  1   
 30  12  38  1   
 31  14  16  1   
 32  14  39  1   
 33  15  40  1   
 34  15  41  1   
 35  16  17  ar  
 36  16  18  ar  
 37  17  19  ar  
 38  17  42  1   
 39  18  20  ar  
 40  18  43  1   
 41  19  21  1   
 42  19  22  ar  
 43  20  22  ar  
 44  20  44  1   
 45  21  23  1   
 46  22  24  1   
 47  23  24  1   
 48  23  45  1   
 49  23  46  1   
@<TRIPOS>SUBSTRUCTURE
  1 ****  10 GROUP 4 **** **** 0

# MOE 2024.06 (io_trps.svl 2023.06)
