@<TRIPOS>MOLECULE
NONAME
37 40 1 0 0 
SMALL
USER_CHARGES


@<TRIPOS>ATOM
  1 CL       0.1470     0.2860    -1.2220 Cl    1 <1>  -0.1770 
  2 C       -1.3370    -0.5920    -0.9450 C.ar  1 <1>   0.1770 
  3 C       -2.5410     0.0780    -0.9870 C.ar  1 <1>  -0.1500 
  4 C       -1.2760    -1.9460    -0.6850 C.ar  1 <1>  -0.1500 
  5 C       -3.7310    -0.6100    -0.7680 C.ar  1 <1>   0.1170 
  6 C       -2.4520    -2.6390    -0.4620 C.ar  1 <1>  -0.1500 
  7 N       -4.9780     0.0350    -0.7900 N.am  1 <1>  -0.5470 
  8 C       -3.6740    -1.9830    -0.5010 C.ar  1 <1>  -0.1430 
  9 C       -5.3870     1.2350    -1.2990 C.2   1 <1>   0.6300 
 10 C       -4.9430    -2.7910    -0.2520 C.3   1 <1>  -0.0960 
 11 O       -4.6710     2.0040    -1.8890 O.2   1 <1>  -0.5700 
 12 C       -6.8550     1.5860    -1.1180 C.3   1 <1>  -0.1000 
 13 C       -7.2570     2.7200    -0.2230 C.3   1 <1>  -0.1950 
 14 C       -7.5670     1.2970     0.1760 C.3   1 <1>  -0.1950 
 15 C       -8.6170     3.4360    -0.1160 C.3   1 <1>   0.0150 
 16 C       -9.0800     1.3260     0.4700 C.3   1 <1>   0.0150 
 17 C       -9.2180     2.7120     1.0780 C.3   1 <1>  -0.1600 
 18 C       -9.5500     2.9590    -1.2440 C.3   1 <1>  -0.1600 
 19 C       -9.8670     1.5030    -0.8410 C.3   1 <1>  -0.1600 
 20 H       -2.5380     1.1320    -1.1870 H     1 <1>   0.1500 
 21 H       -0.3240    -2.4440    -0.6580 H     1 <1>   0.1500 
 22 H       -2.4040    -3.6950    -0.2580 H     1 <1>   0.1500 
 23 H       -5.7350    -0.5000    -0.3750 H     1 <1>   0.3700 
 24 H       -5.6120    -2.6960    -1.0890 H     1 <1>   0.0800 
 25 H       -5.4350    -2.4430     0.6390 H     1 <1>   0.0800 
 26 H       -4.7170    -3.8350    -0.1240 H     1 <1>   0.0800 
 27 H       -7.3760     1.4690    -2.0490 H     1 <1>   0.1000 
 28 H       -6.4770     3.2230     0.3250 H     1 <1>   0.1000 
 29 H       -7.0000     0.9250     1.0120 H     1 <1>   0.1000 
 30 H       -8.5460     4.5050    -0.0160 H     1 <1>   0.0800 
 31 H       -9.4260     0.5200     1.0940 H     1 <1>   0.0800 
 32 H      -10.2420     2.9890     1.2630 H     1 <1>   0.0800 
 33 H       -8.6320     2.8340     1.9740 H     1 <1>   0.0800 
 34 H       -9.0790     3.0310    -2.2090 H     1 <1>   0.0800 
 35 H      -10.4510     3.5470    -1.2520 H     1 <1>   0.0800 
 36 H      -10.9220     1.3910    -0.6580 H     1 <1>   0.0800 
 37 H       -9.5660     0.7920    -1.5900 H     1 <1>   0.0800 
@<TRIPOS>BOND
  1   1   2  1   
  2   2   3  ar  
  3   2   4  ar  
  4   3   5  ar  
  5   3  20  1   
  6   4   6  ar  
  7   4  21  1   
  8   5   7  1   
  9   5   8  ar  
 10   6   8  ar  
 11   6  22  1   
 12   7   9  am  
 13   7  23  1   
 14   8  10  1   
 15   9  11  2   
 16   9  12  1   
 17  10  24  1   
 18  10  25  1   
 19  10  26  1   
 20  12  13  1   
 21  12  14  1   
 22  12  27  1   
 23  13  14  1   
 24  13  15  1   
 25  13  28  1   
 26  14  16  1   
 27  14  29  1   
 28  15  17  1   
 29  15  18  1   
 30  15  30  1   
 31  16  17  1   
 32  16  19  1   
 33  16  31  1   
 34  17  32  1   
 35  17  33  1   
 36  18  19  1   
 37  18  34  1   
 38  18  35  1   
 39  19  36  1   
 40  19  37  1   
@<TRIPOS>SUBSTRUCTURE
  1 ****   7 GROUP 4 **** **** 0

# MOE 2024.06 (io_trps.svl 2023.06)
