@<TRIPOS>MOLECULE
NONAME
42 44 1 0 0 
SMALL
USER_CHARGES


@<TRIPOS>ATOM
  1 S       -0.5140     0.1550    -1.0350 S.3   1 <1>  -0.0800 
  2 C       -1.1200     1.2920     0.1780 C.2   1 <1>  -0.0450 
  3 C        1.1440     0.6510    -0.7790 C.2   1 <1>  -0.1100 
  4 C       -2.5330     1.3620     0.4480 C.2   1 <1>   0.7150 
  5 C       -0.0640     1.9680     0.6980 C.2   1 <1>  -0.1500 
  6 C        1.2070     1.6100     0.1630 C.2   1 <1>  -0.1500 
  7 O       -2.9620     2.1500     1.2680 O.2   1 <1>  -0.5700 
  8 N       -3.3980     0.5450    -0.2400 N.am  1 <1>  -0.5470 
  9 C       -4.7870     0.3970    -0.1440 C.ar  1 <1>   0.1170 
 10 C       -5.5100     0.0360    -1.2740 C.ar  1 <1>  -0.1500 
 11 C       -5.4790     0.5810     1.0480 C.ar  1 <1>  -0.1500 
 12 C       -6.8840    -0.1170    -1.2230 C.ar  1 <1>  -0.1500 
 13 C       -6.8510     0.4280     1.1070 C.ar  1 <1>  -0.1500 
 14 C       -7.5660     0.0870    -0.0320 C.ar  1 <1>  -0.1430 
 15 C       -9.0760    -0.0510     0.0240 C.3   1 <1>   0.4860 
 16 N       -9.6760     1.3020     0.1740 N.4   1 <1>  -0.9590 
 17 C      -11.1360     1.2250     0.4620 C.3   1 <1>   0.3430 
 18 C       -9.3760     2.1730    -1.0020 C.3   1 <1>   0.3430 
 19 C      -11.6800     2.6250     0.7520 C.3   1 <1>  -0.1600 
 20 C       -9.8920     3.5890    -0.7400 C.3   1 <1>  -0.1600 
 21 C      -11.3880     3.5980    -0.3980 C.3   1 <1>  -0.1600 
 22 H        1.9080     0.1690    -1.3640 H     1 <1>   0.1500 
 23 H       -0.1520     2.7250     1.4600 H     1 <1>   0.1500 
 24 H        2.1090     2.0870     0.5070 H     1 <1>   0.1500 
 25 H       -2.9410     0.0010    -0.9700 H     1 <1>   0.3700 
 26 H       -4.9920    -0.1210    -2.2040 H     1 <1>   0.1500 
 27 H       -4.9380     0.8430     1.9410 H     1 <1>   0.1500 
 28 H       -7.4090    -0.3970    -2.1210 H     1 <1>   0.1500 
 29 H       -7.3440     0.5770     2.0530 H     1 <1>   0.1500 
 30 H       -9.3420    -0.6700     0.8660 H     1 <1>   0.0800 
 31 H       -9.4380    -0.5230    -0.8750 H     1 <1>   0.0800 
 32 H       -9.2120     1.7410     0.9790 H     1 <1>   0.4500 
 33 H      -11.3140     0.5890     1.3150 H     1 <1>   0.0800 
 34 H      -11.6540     0.8080    -0.3870 H     1 <1>   0.0800 
 35 H       -9.8510     1.7750    -1.8840 H     1 <1>   0.0800 
 36 H       -8.3110     2.2110    -1.1760 H     1 <1>   0.0800 
 37 H      -11.2470     2.9950     1.6650 H     1 <1>   0.0800 
 38 H      -12.7440     2.5650     0.9040 H     1 <1>   0.0800 
 39 H       -9.7230     4.1920    -1.6160 H     1 <1>   0.0800 
 40 H       -9.3280     4.0300     0.0640 H     1 <1>   0.0800 
 41 H      -11.6940     4.5940    -0.1210 H     1 <1>   0.0800 
 42 H      -11.9570     3.3110    -1.2670 H     1 <1>   0.0800 
@<TRIPOS>BOND
  1   1   2  1   
  2   1   3  1   
  3   2   4  1   
  4   2   5  2   
  5   3   6  2   
  6   3  22  1   
  7   4   7  2   
  8   4   8  am  
  9   5   6  1   
 10   5  23  1   
 11   6  24  1   
 12   8   9  1   
 13   8  25  1   
 14   9  10  ar  
 15   9  11  ar  
 16  10  12  ar  
 17  10  26  1   
 18  11  13  ar  
 19  11  27  1   
 20  12  14  ar  
 21  12  28  1   
 22  13  14  ar  
 23  13  29  1   
 24  14  15  1   
 25  15  16  1   
 26  15  30  1   
 27  15  31  1   
 28  16  17  1   
 29  16  18  1   
 30  16  32  1   
 31  17  19  1   
 32  17  33  1   
 33  17  34  1   
 34  18  20  1   
 35  18  35  1   
 36  18  36  1   
 37  19  21  1   
 38  19  37  1   
 39  19  38  1   
 40  20  21  1   
 41  20  39  1   
 42  20  40  1   
 43  21  41  1   
 44  21  42  1   
@<TRIPOS>SUBSTRUCTURE
  1 ****   9 GROUP 4 **** **** 0

# MOE 2024.06 (io_trps.svl 2023.06)
