@<TRIPOS>MOLECULE
NONAME
50 52 1 0 0 
SMALL
USER_CHARGES


@<TRIPOS>ATOM
  1 O       -0.4000     2.1100     2.0120 O.2   1 <1>  -0.5700 
  2 C       -0.4510     2.1170     0.8030 C.2   1 <1>   0.5690 
  3 N        0.5520     1.5490     0.0720 N.am  1 <1>  -0.7300 
  4 C       -1.6580     2.7820     0.0840 C.3   1 <1>   0.2040 
  5 C        1.7240     0.8540     0.6260 C.3   1 <1>   0.2200 
  6 C       -2.7110     1.6880    -0.2300 C.ar  1 <1>  -0.1440 
  7 C       -2.2320     3.9260     0.9620 C.3   1 <1>  -0.1600 
  8 C       -1.2280     3.4650    -1.2410 C.3   1 <1>  -0.1600 
  9 C        2.9920     1.5560     0.1320 C.3   1 <1>  -0.1600 
 10 C        1.6840    -0.6100     0.1770 C.3   1 <1>  -0.1600 
 11 C       -3.9700     1.6550     0.3670 C.ar  1 <1>  -0.1500 
 12 C       -2.4020     0.6750    -1.1340 C.ar  1 <1>  -0.1500 
 13 C       -1.2310     5.0760     1.1140 C.3   1 <1>   0.1200 
 14 C       -0.2800     4.6450    -0.9890 C.3   1 <1>   0.1200 
 15 C        4.2530     0.8060     0.5870 C.3   1 <1>  -0.1600 
 16 C        2.9420    -1.3630     0.6320 C.3   1 <1>  -0.1600 
 17 C       -4.8860     0.6620     0.0630 C.ar  1 <1>  -0.1500 
 18 C       -3.3130    -0.3180    -1.4420 C.ar  1 <1>  -0.1500 
 19 O       -0.9060     5.5610    -0.1510 O.3   1 <1>  -0.5600 
 20 C        4.2160    -0.6630     0.1420 C.3   1 <1>  -0.1600 
 21 C       -4.5620    -0.3340    -0.8500 C.ar  1 <1>   0.0820 
 22 O       -5.3980    -1.3410    -1.2050 O.3   1 <1>  -0.3620 
 23 C       -6.6850    -1.4570    -0.6400 C.3   1 <1>   0.0400 
 24 H        0.4910     1.5300    -0.9430 H     1 <1>   0.3700 
 25 H        1.6970     0.8920     1.7040 H     1 <1>   0.0800 
 26 H       -2.4850     3.5560     1.9390 H     1 <1>   0.0800 
 27 H       -3.1260     4.3230     0.5150 H     1 <1>   0.0800 
 28 H       -2.1020     3.8360    -1.7500 H     1 <1>   0.0800 
 29 H       -0.7500     2.7740    -1.9060 H     1 <1>   0.0800 
 30 H        3.0170     2.5590     0.5220 H     1 <1>   0.0800 
 31 H        2.9840     1.6050    -0.9420 H     1 <1>   0.0800 
 32 H        1.6170    -0.6590    -0.8950 H     1 <1>   0.0800 
 33 H        0.8140    -1.0850     0.5970 H     1 <1>   0.0800 
 34 H       -4.2720     2.3940     1.0850 H     1 <1>   0.1500 
 35 H       -1.4430     0.6370    -1.6150 H     1 <1>   0.1500 
 36 H       -0.3280     4.7600     1.6100 H     1 <1>   0.0800 
 37 H       -1.6690     5.8840     1.6730 H     1 <1>   0.0800 
 38 H       -0.0550     5.1510    -1.9120 H     1 <1>   0.0800 
 39 H        0.6410     4.3310    -0.5280 H     1 <1>   0.0800 
 40 H        4.3250     0.8500     1.6610 H     1 <1>   0.0800 
 41 H        5.1260     1.2850     0.1800 H     1 <1>   0.0800 
 42 H        2.9150    -2.3720     0.2560 H     1 <1>   0.0800 
 43 H        2.9550    -1.4140     1.7080 H     1 <1>   0.0800 
 44 H       -5.8430     0.6810     0.5470 H     1 <1>   0.1500 
 45 H       -3.0610    -1.0920    -2.1430 H     1 <1>   0.1500 
 46 H        5.0800    -1.1770     0.5270 H     1 <1>   0.0800 
 47 H        4.2580    -0.7110    -0.9330 H     1 <1>   0.0800 
 48 H       -7.1580    -2.3240    -1.0620 H     1 <1>   0.0800 
 49 H       -7.2520    -0.5760    -0.8810 H     1 <1>   0.0800 
 50 H       -6.5880    -1.5750     0.4250 H     1 <1>   0.0800 
@<TRIPOS>BOND
  1   1   2  2   
  2   2   3  am  
  3   2   4  1   
  4   3   5  1   
  5   3  24  1   
  6   4   6  1   
  7   4   7  1   
  8   4   8  1   
  9   5   9  1   
 10   5  10  1   
 11   5  25  1   
 12   6  11  ar  
 13   6  12  ar  
 14   7  13  1   
 15   7  26  1   
 16   7  27  1   
 17   8  14  1   
 18   8  28  1   
 19   8  29  1   
 20   9  15  1   
 21   9  30  1   
 22   9  31  1   
 23  10  16  1   
 24  10  32  1   
 25  10  33  1   
 26  11  17  ar  
 27  11  34  1   
 28  12  18  ar  
 29  12  35  1   
 30  13  19  1   
 31  13  36  1   
 32  13  37  1   
 33  14  19  1   
 34  14  38  1   
 35  14  39  1   
 36  15  20  1   
 37  15  40  1   
 38  15  41  1   
 39  16  20  1   
 40  16  42  1   
 41  16  43  1   
 42  17  21  ar  
 43  17  44  1   
 44  18  21  ar  
 45  18  45  1   
 46  20  46  1   
 47  20  47  1   
 48  21  22  1   
 49  22  23  1   
 50  23  48  1   
 51  23  49  1   
 52  23  50  1   
@<TRIPOS>SUBSTRUCTURE
  1 ****   2 GROUP 4 **** **** 0

# MOE 2024.06 (io_trps.svl 2023.06)
