@<TRIPOS>MOLECULE
NONAME
50 51 1 0 0 
SMALL
USER_CHARGES


@<TRIPOS>ATOM
  1 O       -1.1630     8.3190    -0.0640 O.3   1 <1>  -0.3630 
  2 C        0.0620     7.7360    -0.0670 C.ar  1 <1>   0.0830 
  3 C       -2.3370     7.5480    -0.0910 C.3   1 <1>   0.1200 
  4 C        1.1530     8.5850     0.0170 C.ar  1 <1>  -0.1500 
  5 C        0.2670     6.3610    -0.1480 C.ar  1 <1>  -0.1500 
  6 C       -3.5150     8.5250    -0.0520 C.3   1 <1>   0.3430 
  7 C        2.4460     8.0870     0.0250 C.ar  1 <1>  -0.1440 
  8 C        1.5540     5.8500    -0.1430 C.ar  1 <1>  -0.1440 
  9 N       -4.8460     7.8350    -0.0980 N.4   1 <1>  -0.9590 
 10 C        2.6330     6.7140    -0.0550 C.ar  1 <1>  -0.1500 
 11 C        3.6310     9.0460     0.1200 C.3   1 <1>   0.0630 
 12 C        1.7950     4.3540    -0.2290 C.3   1 <1>  -0.0970 
 13 C       -5.9370     8.8290    -0.3610 C.3   1 <1>   0.3430 
 14 C       -5.1380     7.0420     1.1300 C.3   1 <1>   0.3430 
 15 C        4.5200     8.9420    -1.1230 C.3   1 <1>  -0.2400 
 16 C        4.4420     8.7880     1.3940 C.3   1 <1>  -0.2400 
 17 C       -7.3460     8.2260    -0.1740 C.3   1 <1>  -0.0800 
 18 C       -6.3550     6.1420     0.8790 C.3   1 <1>  -0.1600 
 19 C       -7.3340     6.6880    -0.1770 C.3   1 <1>  -0.1600 
 20 C       -8.3050     8.7520    -1.2500 C.3   1 <1>  -0.2400 
 21 H       -2.3280     6.9060     0.7720 H     1 <1>   0.0800 
 22 H       -2.3390     6.9770    -1.0020 H     1 <1>   0.0800 
 23 H        0.9790     9.6440     0.0770 H     1 <1>   0.1500 
 24 H       -0.5530     5.6750    -0.2160 H     1 <1>   0.1500 
 25 H       -3.4270     9.1830    -0.9010 H     1 <1>   0.0800 
 26 H       -3.4470     9.1180     0.8450 H     1 <1>   0.0800 
 27 H       -4.8580     7.1760    -0.8890 H     1 <1>   0.4500 
 28 H        3.6300     6.3130    -0.0480 H     1 <1>   0.1500 
 29 H        3.2560    10.0540     0.1710 H     1 <1>   0.0800 
 30 H        0.9460     3.8520    -0.6560 H     1 <1>   0.0800 
 31 H        1.9750     3.9570     0.7540 H     1 <1>   0.0800 
 32 H        2.6520     4.1510    -0.8460 H     1 <1>   0.0800 
 33 H       -5.8430     9.1920    -1.3720 H     1 <1>   0.0800 
 34 H       -5.8330     9.6740     0.3000 H     1 <1>   0.0800 
 35 H       -5.3520     7.7150     1.9460 H     1 <1>   0.0800 
 36 H       -4.2940     6.4320     1.4080 H     1 <1>   0.0800 
 37 H        4.9640     7.9660    -1.1960 H     1 <1>   0.0800 
 38 H        5.3050     9.6760    -1.0820 H     1 <1>   0.0800 
 39 H        3.9320     9.1180    -2.0070 H     1 <1>   0.0800 
 40 H        4.8850     7.8080     1.3740 H     1 <1>   0.0800 
 41 H        3.8010     8.8570     2.2540 H     1 <1>   0.0800 
 42 H        5.2260     9.5180     1.4910 H     1 <1>   0.0800 
 43 H       -7.7190     8.5560     0.7820 H     1 <1>   0.0800 
 44 H       -6.8730     6.0200     1.8160 H     1 <1>   0.0800 
 45 H       -6.0220     5.1630     0.5810 H     1 <1>   0.0800 
 46 H       -7.0400     6.3370    -1.1530 H     1 <1>   0.0800 
 47 H       -8.3230     6.3050     0.0150 H     1 <1>   0.0800 
 48 H       -7.9880     8.4500    -2.2330 H     1 <1>   0.0800 
 49 H       -8.3560     9.8270    -1.2210 H     1 <1>   0.0800 
 50 H       -9.2980     8.3700    -1.0830 H     1 <1>   0.0800 
@<TRIPOS>BOND
  1   1   2  1   
  2   1   3  1   
  3   2   4  ar  
  4   2   5  ar  
  5   3   6  1   
  6   3  21  1   
  7   3  22  1   
  8   4   7  ar  
  9   4  23  1   
 10   5   8  ar  
 11   5  24  1   
 12   6   9  1   
 13   6  25  1   
 14   6  26  1   
 15   7  10  ar  
 16   7  11  1   
 17   8  10  ar  
 18   8  12  1   
 19   9  13  1   
 20   9  14  1   
 21   9  27  1   
 22  10  28  1   
 23  11  15  1   
 24  11  16  1   
 25  11  29  1   
 26  12  30  1   
 27  12  31  1   
 28  12  32  1   
 29  13  17  1   
 30  13  33  1   
 31  13  34  1   
 32  14  18  1   
 33  14  35  1   
 34  14  36  1   
 35  15  37  1   
 36  15  38  1   
 37  15  39  1   
 38  16  40  1   
 39  16  41  1   
 40  16  42  1   
 41  17  19  1   
 42  17  20  1   
 43  17  43  1   
 44  18  19  1   
 45  18  44  1   
 46  18  45  1   
 47  19  46  1   
 48  19  47  1   
 49  20  48  1   
 50  20  49  1   
 51  20  50  1   
@<TRIPOS>SUBSTRUCTURE
  1 ****   1 GROUP 4 **** **** 0

# MOE 2024.06 (io_trps.svl 2023.06)
