@<TRIPOS>MOLECULE
NONAME
37 39 1 0 0 
SMALL
USER_CHARGES


@<TRIPOS>ATOM
  1 O       -1.3620    -0.4270     2.1720 O.2   1 <1>  -0.5700 
  2 C       -2.0700    -1.1130     1.4610 C.2   1 <1>   0.7060 
  3 O       -3.3430    -0.7420     1.3200 O.3   1 <1>  -0.2330 
  4 C       -1.6190    -2.2930     0.7760 C.2   1 <1>  -0.1240 
  5 C       -4.2240    -1.4150     0.5500 C.ar  1 <1>   0.0820 
  6 C       -2.4720    -3.0230     0.0130 C.2   1 <1>  -0.1670 
  7 C       -0.1500    -2.6730     0.9650 C.3   1 <1>  -0.0220 
  8 C       -3.8300    -2.5720    -0.1390 C.ar  1 <1>   0.0280 
  9 C       -5.5160    -0.9200     0.4640 C.ar  1 <1>  -0.1500 
 10 C       -2.0340    -4.3070    -0.6950 C.3   1 <1>  -0.0220 
 11 C        0.3310    -3.6980    -0.0690 C.3   1 <1>  -0.1600 
 12 C       -4.7960    -3.1980    -0.9340 C.ar  1 <1>  -0.1500 
 13 C       -6.4580    -1.5660    -0.3240 C.ar  1 <1>   0.0830 
 14 C       -0.6830    -4.8350    -0.1990 C.3   1 <1>  -0.1600 
 15 C       -6.0820    -2.7060    -1.0210 C.ar  1 <1>  -0.1500 
 16 O       -7.7410    -1.1630    -0.4720 O.3   1 <1>  -0.3630 
 17 C       -8.2940    -0.0540     0.2020 C.3   1 <1>   0.2000 
 18 C       -8.6600    -0.4730     1.6280 C.3   1 <1>  -0.2400 
 19 C       -9.5350     0.3720    -0.5800 C.3   1 <1>  -0.2400 
 20 H       -0.0260    -3.0750     1.9560 H     1 <1>   0.0800 
 21 H        0.4680    -1.7950     0.8900 H     1 <1>   0.0800 
 22 H       -5.7550    -0.0350     1.0180 H     1 <1>   0.1500 
 23 H       -1.9720    -4.1100    -1.7520 H     1 <1>   0.0800 
 24 H       -2.7660    -5.0800    -0.5400 H     1 <1>   0.0800 
 25 H        1.2890    -4.0880     0.2290 H     1 <1>   0.0800 
 26 H        0.4490    -3.2140    -1.0230 H     1 <1>   0.0800 
 27 H       -4.5500    -4.0790    -1.4970 H     1 <1>   0.1500 
 28 H       -0.3150    -5.5810    -0.8820 H     1 <1>   0.0800 
 29 H       -0.8160    -5.3030     0.7620 H     1 <1>   0.0800 
 30 H       -6.8160    -3.1980    -1.6340 H     1 <1>   0.1500 
 31 H       -7.5800     0.7510     0.1960 H     1 <1>   0.0800 
 32 H       -9.3620    -1.2870     1.6080 H     1 <1>   0.0800 
 33 H       -9.1080     0.3530     2.1490 H     1 <1>   0.0800 
 34 H       -7.7840    -0.7780     2.1710 H     1 <1>   0.0800 
 35 H      -10.2490    -0.4310    -0.6170 H     1 <1>   0.0800 
 36 H       -9.2580     0.6470    -1.5810 H     1 <1>   0.0800 
 37 H       -9.9940     1.2210    -0.1080 H     1 <1>   0.0800 
@<TRIPOS>BOND
  1   1   2  2   
  2   2   3  1   
  3   2   4  1   
  4   3   5  1   
  5   4   6  2   
  6   4   7  1   
  7   5   8  ar  
  8   5   9  ar  
  9   6   8  1   
 10   6  10  1   
 11   7  11  1   
 12   7  20  1   
 13   7  21  1   
 14   8  12  ar  
 15   9  13  ar  
 16   9  22  1   
 17  10  14  1   
 18  10  23  1   
 19  10  24  1   
 20  11  14  1   
 21  11  25  1   
 22  11  26  1   
 23  12  15  ar  
 24  12  27  1   
 25  13  15  ar  
 26  13  16  1   
 27  14  28  1   
 28  14  29  1   
 29  15  30  1   
 30  16  17  1   
 31  17  18  1   
 32  17  19  1   
 33  17  31  1   
 34  18  32  1   
 35  18  33  1   
 36  18  34  1   
 37  19  35  1   
 38  19  36  1   
 39  19  37  1   
@<TRIPOS>SUBSTRUCTURE
  1 ****   5 GROUP 4 **** **** 0

# MOE 2024.06 (io_trps.svl 2023.06)
