@<TRIPOS>MOLECULE
NONAME
44 46 1 0 0 
SMALL
USER_CHARGES


@<TRIPOS>ATOM
  1 S       -1.5240    -1.4710    -2.2110 S.3   1 <1>  -0.2860 
  2 C       -1.6830    -0.6790    -0.6150 C.2   1 <1>   0.5340 
  3 C        0.2990    -1.7740    -2.4060 C.3   1 <1>   0.1310 
  4 O       -2.8640    -0.4510    -0.1560 O.3   1 <1>  -0.2800 
  5 N       -0.7380    -0.3110     0.1610 N.2   1 <1>  -0.3380 
  6 C        0.5830    -3.2700    -2.4240 C.2   1 <1>   0.5690 
  7 C       -2.6140     0.1050     0.9890 C.2   1 <1>   0.2980 
  8 N       -1.3570     0.2040     1.2270 N.2   1 <1>  -0.3380 
  9 O        0.8120    -3.7970    -3.4830 O.2   1 <1>  -0.5700 
 10 N        0.6010    -4.0240    -1.2970 N.am  1 <1>  -0.7300 
 11 C       -3.7560     0.5490     1.8830 C.3   1 <1>   0.1630 
 12 C        0.4040    -3.6210     0.1040 C.3   1 <1>   0.2200 
 13 C       -4.5550     1.6720     1.2350 C.ar  1 <1>  -0.1430 
 14 C        1.5040    -4.2490     0.9640 C.3   1 <1>  -0.1600 
 15 C       -0.9830    -4.0750     0.5690 C.3   1 <1>  -0.1600 
 16 C       -5.7510     1.4040     0.5850 C.ar  1 <1>  -0.1500 
 17 C       -4.0840     2.9750     1.2840 C.ar  1 <1>  -0.1500 
 18 C        1.2960    -3.9110     2.4480 C.3   1 <1>  -0.1600 
 19 C       -1.2030    -3.7300     2.0490 C.3   1 <1>  -0.1600 
 20 C       -6.4700     2.4300    -0.0040 C.ar  1 <1>  -0.1500 
 21 C       -4.8030     4.0010     0.6950 C.ar  1 <1>  -0.1500 
 22 C       -0.0990    -4.3380     2.9260 C.3   1 <1>  -0.1600 
 23 C       -5.9970     3.7290     0.0510 C.ar  1 <1>  -0.1500 
 24 H        0.8240    -1.2870    -1.6090 H     1 <1>   0.0800 
 25 H        0.5840    -1.3360    -3.3440 H     1 <1>   0.0800 
 26 H        0.7670    -5.0210    -1.4420 H     1 <1>   0.3700 
 27 H       -3.3570     0.8890     2.8210 H     1 <1>   0.0800 
 28 H       -4.3920    -0.2940     2.0810 H     1 <1>   0.0800 
 29 H        0.4780    -2.5530     0.1940 H     1 <1>   0.0800 
 30 H        2.4630    -3.8780     0.6470 H     1 <1>   0.0800 
 31 H        1.4930    -5.3180     0.8440 H     1 <1>   0.0800 
 32 H       -1.0770    -5.1380     0.4380 H     1 <1>   0.0800 
 33 H       -1.7400    -3.5930    -0.0230 H     1 <1>   0.0800 
 34 H       -6.1300     0.3990     0.5290 H     1 <1>   0.1500 
 35 H       -3.1530     3.1990     1.7770 H     1 <1>   0.1500 
 36 H        1.4090    -2.8490     2.5910 H     1 <1>   0.0800 
 37 H        2.0470    -4.4040     3.0410 H     1 <1>   0.0800 
 38 H       -2.1620    -4.0990     2.3680 H     1 <1>   0.0800 
 39 H       -1.2030    -2.6600     2.1700 H     1 <1>   0.0800 
 40 H       -7.3970     2.2170    -0.5070 H     1 <1>   0.1500 
 41 H       -4.4320     5.0100     0.7360 H     1 <1>   0.1500 
 42 H       -0.2400    -4.0290     3.9480 H     1 <1>   0.0800 
 43 H       -0.1720    -5.4120     2.8960 H     1 <1>   0.0800 
 44 H       -6.5550     4.5260    -0.4070 H     1 <1>   0.1500 
@<TRIPOS>BOND
  1   1   2  1   
  2   1   3  1   
  3   2   4  1   
  4   2   5  2   
  5   3   6  1   
  6   3  24  1   
  7   3  25  1   
  8   4   7  1   
  9   5   8  1   
 10   6   9  2   
 11   6  10  am  
 12   7   8  2   
 13   7  11  1   
 14  10  12  1   
 15  10  26  1   
 16  11  13  1   
 17  11  27  1   
 18  11  28  1   
 19  12  14  1   
 20  12  15  1   
 21  12  29  1   
 22  13  16  ar  
 23  13  17  ar  
 24  14  18  1   
 25  14  30  1   
 26  14  31  1   
 27  15  19  1   
 28  15  32  1   
 29  15  33  1   
 30  16  20  ar  
 31  16  34  1   
 32  17  21  ar  
 33  17  35  1   
 34  18  22  1   
 35  18  36  1   
 36  18  37  1   
 37  19  22  1   
 38  19  38  1   
 39  19  39  1   
 40  20  23  ar  
 41  20  40  1   
 42  21  23  ar  
 43  21  41  1   
 44  22  42  1   
 45  22  43  1   
 46  23  44  1   
@<TRIPOS>SUBSTRUCTURE
  1 ****   2 GROUP 4 **** **** 0

# MOE 2024.06 (io_trps.svl 2023.06)
