@<TRIPOS>MOLECULE
NONAME
41 43 1 0 0 
SMALL
USER_CHARGES


@<TRIPOS>ATOM
  1 N        0.6460     0.3890    -0.7070 N.ar  1 <1>  -0.6200 
  2 C        0.6280     1.5430    -0.0520 C.ar  1 <1>   0.7200 
  3 C       -0.1960     0.2790    -1.7060 C.ar  1 <1>   0.1600 
  4 N       -0.1190     2.6080    -0.3400 N.ar  1 <1>  -0.6200 
  5 N        1.5020     1.6640     1.0050 N.pl3 1 <1>  -0.8380 
  6 C       -1.0320     1.3050    -2.0700 C.ar  1 <1>  -0.1500 
  7 C       -0.9510     2.4690    -1.3450 C.ar  1 <1>   0.1600 
  8 C        2.9220     1.2610     0.8020 C.3   1 <1>   0.2090 
  9 C        1.3370     2.7650     1.9960 C.3   1 <1>   0.2090 
 10 C        3.7490     2.4830     0.3490 C.3   1 <1>   0.3430 
 11 C        2.1410     3.9990     1.5360 C.3   1 <1>   0.3430 
 12 N        3.5990     3.6820     1.2710 N.4   1 <1>  -0.9590 
 13 C        4.3290     4.9030     0.8140 C.3   1 <1>   0.4230 
 14 C        3.8870     5.3750    -0.5810 C.3   1 <1>  -0.1600 
 15 C        5.8320     4.6370     0.7150 C.3   1 <1>  -0.1600 
 16 C        5.1180     5.3190    -1.5010 C.3   1 <1>  -0.0800 
 17 C        6.1380     4.4460    -0.7710 C.3   1 <1>  -0.1600 
 18 C        5.6820     6.7240    -1.7540 C.3   1 <1>  -0.2400 
 19 H       -0.2190    -0.6530    -2.2470 H     1 <1>   0.1500 
 20 H       -1.7200     1.2020    -2.8890 H     1 <1>   0.1500 
 21 H       -1.5870     3.3010    -1.5990 H     1 <1>   0.1500 
 22 H        2.9990     0.4860     0.0590 H     1 <1>   0.0800 
 23 H        3.3170     0.8640     1.7210 H     1 <1>   0.0800 
 24 H        1.6820     2.4350     2.9600 H     1 <1>   0.0800 
 25 H        0.2960     3.0240     2.1000 H     1 <1>   0.0800 
 26 H        3.4240     2.7470    -0.6430 H     1 <1>   0.0800 
 27 H        4.7840     2.1960     0.2880 H     1 <1>   0.0800 
 28 H        2.0610     4.7690     2.2840 H     1 <1>   0.0800 
 29 H        1.6800     4.3670     0.6340 H     1 <1>   0.0800 
 30 H        4.0100     3.4110     2.1710 H     1 <1>   0.4500 
 31 H        4.1660     5.6970     1.5260 H     1 <1>   0.0800 
 32 H        3.5130     6.3820    -0.5170 H     1 <1>   0.0800 
 33 H        3.1040     4.7640    -0.9910 H     1 <1>   0.0800 
 34 H        6.1660     3.8100     1.3150 H     1 <1>   0.0800 
 35 H        6.3470     5.5220     1.0490 H     1 <1>   0.0800 
 36 H        4.8620     4.8780    -2.4520 H     1 <1>   0.0800 
 37 H        5.9950     3.4180    -1.0520 H     1 <1>   0.0800 
 38 H        7.1550     4.7160    -1.0070 H     1 <1>   0.0800 
 39 H        5.9570     7.2100    -0.8340 H     1 <1>   0.0800 
 40 H        4.9540     7.3340    -2.2600 H     1 <1>   0.0800 
 41 H        6.5550     6.6660    -2.3810 H     1 <1>   0.0800 
@<TRIPOS>BOND
  1   1   2  ar  
  2   1   3  ar  
  3   2   4  ar  
  4   2   5  1   
  5   3   6  ar  
  6   3  19  1   
  7   4   7  ar  
  8   5   8  1   
  9   5   9  1   
 10   6   7  ar  
 11   6  20  1   
 12   7  21  1   
 13   8  10  1   
 14   8  22  1   
 15   8  23  1   
 16   9  11  1   
 17   9  24  1   
 18   9  25  1   
 19  10  12  1   
 20  10  26  1   
 21  10  27  1   
 22  11  12  1   
 23  11  28  1   
 24  11  29  1   
 25  12  13  1   
 26  12  30  1   
 27  13  14  1   
 28  13  15  1   
 29  13  31  1   
 30  14  16  1   
 31  14  32  1   
 32  14  33  1   
 33  15  17  1   
 34  15  34  1   
 35  15  35  1   
 36  16  17  1   
 37  16  18  1   
 38  16  36  1   
 39  17  37  1   
 40  17  38  1   
 41  18  39  1   
 42  18  40  1   
 43  18  41  1   
@<TRIPOS>SUBSTRUCTURE
  1 ****  10 GROUP 4 **** **** 0

# MOE 2024.06 (io_trps.svl 2023.06)
