@<TRIPOS>MOLECULE
NONAME
37 38 1 0 0 
SMALL
USER_CHARGES


@<TRIPOS>ATOM
  1 F       -0.7000     0.8320     1.7890 F     1 <1>  -0.1900 
  2 C       -0.2820     1.7140     0.9110 C.ar  1 <1>   0.1900 
  3 C       -1.2260     2.4850     0.2320 C.ar  1 <1>   0.1170 
  4 C        1.0790     1.8300     0.7110 C.ar  1 <1>  -0.1500 
  5 N       -2.5980     2.3070     0.4990 N.am  1 <1>  -0.5470 
  6 C       -0.7310     3.4160    -0.6790 C.ar  1 <1>  -0.1500 
  7 C        1.5390     2.7600    -0.2060 C.ar  1 <1>  -0.1500 
  8 C       -3.7180     2.6880    -0.1760 C.2   1 <1>   0.6900 
  9 C        0.6320     3.5490    -0.8960 C.ar  1 <1>  -0.1500 
 10 O       -3.6670     3.2350    -1.2590 O.2   1 <1>  -0.5700 
 11 N       -4.9110     2.4240     0.4080 N.am  1 <1>  -0.7300 
 12 C       -6.2280     2.7810    -0.1550 C.3   1 <1>   0.2200 
 13 C       -6.9420     3.8000     0.7580 C.3   1 <1>  -0.0800 
 14 C       -7.0450     1.4930    -0.3090 C.3   1 <1>  -0.1600 
 15 C       -8.3620     4.0850     0.2360 C.3   1 <1>  -0.1600 
 16 C       -6.1620     5.1200     0.8710 C.3   1 <1>  -0.2400 
 17 C       -8.4600     1.7880    -0.8250 C.3   1 <1>  -0.1600 
 18 C       -9.1790     2.7950     0.0820 C.3   1 <1>  -0.1600 
 19 H        1.7620     1.2080     1.2600 H     1 <1>   0.1500 
 20 H       -2.7830     1.6810     1.2760 H     1 <1>   0.3700 
 21 H       -1.4070     4.0470    -1.2260 H     1 <1>   0.1500 
 22 H        2.5960     2.8710    -0.3820 H     1 <1>   0.1500 
 23 H        0.9870     4.2740    -1.6080 H     1 <1>   0.1500 
 24 H       -4.9360     2.0870     1.3650 H     1 <1>   0.3700 
 25 H       -6.0980     3.2220    -1.1310 H     1 <1>   0.0800 
 26 H       -7.0340     3.3710     1.7410 H     1 <1>   0.0800 
 27 H       -7.1160     0.9940     0.6410 H     1 <1>   0.0800 
 28 H       -6.5460     0.8390    -1.0030 H     1 <1>   0.0800 
 29 H       -8.3010     4.5790    -0.7190 H     1 <1>   0.0800 
 30 H       -8.8730     4.7460     0.9150 H     1 <1>   0.0800 
 31 H       -6.0180     5.5560    -0.1030 H     1 <1>   0.0800 
 32 H       -5.1950     4.9540     1.3110 H     1 <1>   0.0800 
 33 H       -6.6940     5.8220     1.4880 H     1 <1>   0.0800 
 34 H       -9.0270     0.8730    -0.8700 H     1 <1>   0.0800 
 35 H       -8.3990     2.1880    -1.8230 H     1 <1>   0.0800 
 36 H      -10.1440     3.0280    -0.3340 H     1 <1>   0.0800 
 37 H       -9.3370     2.3530     1.0510 H     1 <1>   0.0800 
@<TRIPOS>BOND
  1   1   2  1   
  2   2   3  ar  
  3   2   4  ar  
  4   3   5  1   
  5   3   6  ar  
  6   4   7  ar  
  7   4  19  1   
  8   5   8  am  
  9   5  20  1   
 10   6   9  ar  
 11   6  21  1   
 12   7   9  ar  
 13   7  22  1   
 14   8  10  2   
 15   8  11  am  
 16   9  23  1   
 17  11  12  1   
 18  11  24  1   
 19  12  13  1   
 20  12  14  1   
 21  12  25  1   
 22  13  15  1   
 23  13  16  1   
 24  13  26  1   
 25  14  17  1   
 26  14  27  1   
 27  14  28  1   
 28  15  18  1   
 29  15  29  1   
 30  15  30  1   
 31  16  31  1   
 32  16  32  1   
 33  16  33  1   
 34  17  18  1   
 35  17  34  1   
 36  17  35  1   
 37  18  36  1   
 38  18  37  1   
@<TRIPOS>SUBSTRUCTURE
  1 ****   8 GROUP 4 **** **** 0

# MOE 2024.06 (io_trps.svl 2023.06)
