@<TRIPOS>MOLECULE
NONAME
37 38 1 0 0 
SMALL
USER_CHARGES


@<TRIPOS>ATOM
  1 CL      -0.1860    -1.2170     2.0250 Cl    1 <1>  -0.1770 
  2 C        0.8180    -2.0420     0.8540 C.ar  1 <1>   0.1770 
  3 C        0.2650    -2.5190    -0.3260 C.ar  1 <1>  -0.1440 
  4 C        2.1590    -2.1970     1.1420 C.ar  1 <1>  -0.1500 
  5 C        1.0990    -3.1640    -1.2250 C.ar  1 <1>  -0.1500 
  6 C       -1.2140    -2.3450    -0.6340 C.3   1 <1>  -0.0960 
  7 C        2.9970    -2.8450     0.2440 C.ar  1 <1>   0.1170 
  8 C        2.4460    -3.3220    -0.9430 C.ar  1 <1>  -0.1500 
  9 N        4.3560    -2.9740     0.5600 N.am  1 <1>  -0.5470 
 10 C        5.3150    -3.8400     0.1270 C.2   1 <1>   0.6900 
 11 O        5.0540    -4.7680    -0.6160 O.2   1 <1>  -0.5700 
 12 N        6.5910    -3.6090     0.5600 N.am  1 <1>  -0.6600 
 13 C        7.5430    -4.6960     0.9210 C.3   1 <1>   0.2200 
 14 C        7.2770    -2.3800     0.0830 C.3   1 <1>   0.1400 
 15 C        8.3580    -5.0870    -0.3190 C.3   1 <1>  -0.1600 
 16 C        6.8520    -5.8990     1.5690 C.3   1 <1>  -0.2400 
 17 C        8.1110    -2.7140    -1.1610 C.3   1 <1>  -0.1600 
 18 C        9.0910    -3.8700    -0.9050 C.3   1 <1>  -0.1600 
 19 H        2.5440    -1.8150     2.0670 H     1 <1>   0.1500 
 20 H        0.7090    -3.5490    -2.1510 H     1 <1>   0.1500 
 21 H       -1.8060    -2.8270     0.1240 H     1 <1>   0.0800 
 22 H       -1.4630    -2.7770    -1.5870 H     1 <1>   0.0800 
 23 H       -1.4640    -1.3000    -0.6570 H     1 <1>   0.0800 
 24 H        3.0730    -3.8220    -1.6580 H     1 <1>   0.1500 
 25 H        4.6970    -2.3940     1.3190 H     1 <1>   0.3700 
 26 H        8.2240    -4.2960     1.6530 H     1 <1>   0.0800 
 27 H        7.9140    -2.0030     0.8650 H     1 <1>   0.0800 
 28 H        6.5550    -1.6200    -0.1620 H     1 <1>   0.0800 
 29 H        7.6950    -5.5060    -1.0570 H     1 <1>   0.0800 
 30 H        9.0750    -5.8440    -0.0550 H     1 <1>   0.0800 
 31 H        6.2490    -6.4310     0.8560 H     1 <1>   0.0800 
 32 H        6.2370    -5.5770     2.3880 H     1 <1>   0.0800 
 33 H        7.5920    -6.5800     1.9470 H     1 <1>   0.0800 
 34 H        8.6540    -1.8400    -1.4730 H     1 <1>   0.0800 
 35 H        7.4410    -2.9840    -1.9600 H     1 <1>   0.0800 
 36 H        9.5750    -4.1470    -1.8260 H     1 <1>   0.0800 
 37 H        9.8500    -3.5460    -0.2150 H     1 <1>   0.0800 
@<TRIPOS>BOND
  1   1   2  1   
  2   2   3  ar  
  3   2   4  ar  
  4   3   5  ar  
  5   3   6  1   
  6   4   7  ar  
  7   4  19  1   
  8   5   8  ar  
  9   5  20  1   
 10   6  21  1   
 11   6  22  1   
 12   6  23  1   
 13   7   8  ar  
 14   7   9  1   
 15   8  24  1   
 16   9  10  am  
 17   9  25  1   
 18  10  11  2   
 19  10  12  am  
 20  12  13  1   
 21  12  14  1   
 22  13  15  1   
 23  13  16  1   
 24  13  26  1   
 25  14  17  1   
 26  14  27  1   
 27  14  28  1   
 28  15  18  1   
 29  15  29  1   
 30  15  30  1   
 31  16  31  1   
 32  16  32  1   
 33  16  33  1   
 34  17  18  1   
 35  17  34  1   
 36  17  35  1   
 37  18  36  1   
 38  18  37  1   
@<TRIPOS>SUBSTRUCTURE
  1 ****   9 GROUP 4 **** **** 0

# MOE 2024.06 (io_trps.svl 2023.06)
