@<TRIPOS>MOLECULE
NONAME
46 48 1 0 0 
SMALL
USER_CHARGES


@<TRIPOS>ATOM
  1 O       -1.5720     0.9160     2.5920 O.2   1 <1>  -0.5700 
  2 C       -1.9920     1.3920     1.5660 C.2   1 <1>   0.5690 
  3 N       -2.7370     0.6320     0.6970 N.am  1 <1>  -0.6600 
  4 C       -1.6410     2.8420     1.2920 C.3   1 <1>  -0.0990 
  5 C       -3.1980    -0.7310     1.1070 C.3   1 <1>   0.1400 
  6 C       -2.8830     0.8900    -0.7700 C.3   1 <1>   0.1400 
  7 C       -0.1410     3.0140     1.0030 C.3   1 <1>   0.2070 
  8 C       -2.4270    -1.8040     0.3200 C.3   1 <1>   0.3430 
  9 C       -2.1460    -0.1990    -1.5760 C.3   1 <1>   0.3430 
 10 C        0.3040     4.4720     0.7640 C.ar  1 <1>  -0.1440 
 11 C        0.2950     2.1020    -0.1510 C.ar  1 <1>  -0.1440 
 12 N       -2.5450    -1.5900    -1.1650 N.4   1 <1>  -0.9060 
 13 C        1.6480     4.7610     0.5140 C.ar  1 <1>   0.0820 
 14 C       -0.5850     5.5430     0.8170 C.ar  1 <1>  -0.1500 
 15 C        0.1550     2.5010    -1.4740 C.ar  1 <1>  -0.1500 
 16 C        0.8810     0.8740     0.1230 C.ar  1 <1>  -0.1500 
 17 O        2.5680     3.7880     0.4070 O.3   1 <1>  -0.5330 
 18 C        2.0860     6.0630     0.3440 C.ar  1 <1>  -0.1500 
 19 C       -0.1490     6.8460     0.6360 C.ar  1 <1>  -0.1500 
 20 C        0.6040     1.6910    -2.5030 C.ar  1 <1>  -0.1500 
 21 C        1.3350     0.0650    -0.9040 C.ar  1 <1>  -0.1500 
 22 C        1.1870     7.1090     0.4030 C.ar  1 <1>  -0.1500 
 23 C        1.1980     0.4740    -2.2190 C.ar  1 <1>  -0.1500 
 24 H       -1.8850     3.3970     2.1790 H     1 <1>   0.0800 
 25 H       -2.2320     3.2390     0.4930 H     1 <1>   0.0800 
 26 H       -4.2550    -0.8230     0.9230 H     1 <1>   0.0800 
 27 H       -3.0450    -0.8860     2.1620 H     1 <1>   0.0800 
 28 H       -2.4770     1.8450    -1.0430 H     1 <1>   0.0800 
 29 H       -3.9280     0.8960    -1.0290 H     1 <1>   0.0800 
 30 H        0.3800     2.6950     1.8910 H     1 <1>   0.0800 
 31 H       -2.8000    -2.7790     0.5860 H     1 <1>   0.0800 
 32 H       -1.3900    -1.7540     0.6140 H     1 <1>   0.0800 
 33 H       -1.0900    -0.0700    -1.4120 H     1 <1>   0.0800 
 34 H       -2.3320    -0.0540    -2.6270 H     1 <1>   0.0800 
 35 H       -3.5160    -1.7630    -1.4530 H     1 <1>   0.4500 
 36 H       -1.9560    -2.2740    -1.6570 H     1 <1>   0.4500 
 37 H       -1.6320     5.4050     1.0060 H     1 <1>   0.1500 
 38 H       -0.2810     3.4590    -1.7080 H     1 <1>   0.1500 
 39 H        1.0000     0.5450     1.1450 H     1 <1>   0.1500 
 40 H        2.1690     2.9160     0.2210 H     1 <1>   0.4500 
 41 H        3.1290     6.2480     0.1620 H     1 <1>   0.1500 
 42 H       -0.8520     7.6600     0.6820 H     1 <1>   0.1500 
 43 H        0.5100     2.0210    -3.5250 H     1 <1>   0.1500 
 44 H        1.8100    -0.8760    -0.6790 H     1 <1>   0.1500 
 45 H        1.5270     8.1210     0.2680 H     1 <1>   0.1500 
 46 H        1.5680    -0.1440    -3.0200 H     1 <1>   0.1500 
@<TRIPOS>BOND
  1   1   2  2   
  2   2   3  am  
  3   2   4  1   
  4   3   5  1   
  5   3   6  1   
  6   4   7  1   
  7   4  24  1   
  8   4  25  1   
  9   5   8  1   
 10   5  26  1   
 11   5  27  1   
 12   6   9  1   
 13   6  28  1   
 14   6  29  1   
 15   7  10  1   
 16   7  11  1   
 17   7  30  1   
 18   8  12  1   
 19   8  31  1   
 20   8  32  1   
 21   9  12  1   
 22   9  33  1   
 23   9  34  1   
 24  10  13  ar  
 25  10  14  ar  
 26  11  15  ar  
 27  11  16  ar  
 28  12  35  1   
 29  12  36  1   
 30  13  17  1   
 31  13  18  ar  
 32  14  19  ar  
 33  14  37  1   
 34  15  20  ar  
 35  15  38  1   
 36  16  21  ar  
 37  16  39  1   
 38  17  40  1   
 39  18  22  ar  
 40  18  41  1   
 41  19  22  ar  
 42  19  42  1   
 43  20  23  ar  
 44  20  43  1   
 45  21  23  ar  
 46  21  44  1   
 47  22  45  1   
 48  23  46  1   
@<TRIPOS>SUBSTRUCTURE
  1 ****  11 GROUP 4 **** **** 0

# MOE 2024.06 (io_trps.svl 2023.06)
