@<TRIPOS>MOLECULE
NONAME
50 52 1 0 0 
SMALL
USER_CHARGES


@<TRIPOS>ATOM
  1 O        0.4100    -0.0540     0.7730 O.2   1 <1>  -0.5700 
  2 C        0.8580    -1.0950     0.3330 C.2   1 <1>   0.6900 
  3 N        2.2130    -1.2530     0.1870 N.am  1 <1>  -0.6600 
  4 N        0.0330    -2.1320     0.0030 N.am  1 <1>  -0.5470 
  5 C        3.1740    -0.2650     0.7710 C.3   1 <1>   0.1400 
  6 C        2.8780    -2.2640    -0.6940 C.3   1 <1>   0.1400 
  7 C       -1.3660    -2.2070    -0.0840 C.ar  1 <1>   0.1170 
  8 C        4.3420    -0.9570     1.4970 C.3   1 <1>   0.2090 
  9 C        4.0140    -2.9960     0.0430 C.3   1 <1>   0.2090 
 10 C       -1.9840    -3.4420     0.0770 C.ar  1 <1>  -0.1500 
 11 C       -2.1650    -1.0990    -0.3490 C.ar  1 <1>  -0.1500 
 12 N        4.9670    -2.0470     0.6860 N.pl3 1 <1>  -0.8380 
 13 C       -3.3590    -3.5730    -0.0200 C.ar  1 <1>  -0.1500 
 14 C       -3.5390    -1.2230    -0.4470 C.ar  1 <1>  -0.1500 
 15 C        6.1790    -1.7990     0.0400 C.ar  1 <1>   0.1000 
 16 C       -4.1470    -2.4570    -0.2840 C.ar  1 <1>   0.0820 
 17 C        7.3570    -2.4530     0.4220 C.ar  1 <1>  -0.1430 
 18 C        6.2180    -0.8960    -1.0150 C.ar  1 <1>  -0.1500 
 19 O       -5.5010    -2.4930    -0.3970 O.3   1 <1>  -0.3630 
 20 C        8.5420    -2.2050    -0.2670 C.ar  1 <1>  -0.1430 
 21 C        7.3120    -3.4370     1.5920 C.3   1 <1>  -0.0970 
 22 C        7.3930    -0.6420    -1.6890 C.ar  1 <1>  -0.1500 
 23 C       -6.2130    -3.6960    -0.2110 C.3   1 <1>   0.0400 
 24 C        8.5510    -1.2970    -1.3160 C.ar  1 <1>  -0.1500 
 25 C        9.8490    -2.9030     0.0840 C.3   1 <1>  -0.0970 
 26 H        0.5220    -3.0130    -0.0700 H     1 <1>   0.3700 
 27 H        2.6710     0.3810     1.4690 H     1 <1>   0.0800 
 28 H        3.5630     0.3530    -0.0180 H     1 <1>   0.0800 
 29 H        3.2950    -1.7580    -1.5460 H     1 <1>   0.0800 
 30 H        2.1720    -2.9850    -1.0610 H     1 <1>   0.0800 
 31 H        3.9790    -1.3790     2.4180 H     1 <1>   0.0800 
 32 H        5.0900    -0.2250     1.7480 H     1 <1>   0.0800 
 33 H        4.5500    -3.6190    -0.6530 H     1 <1>   0.0800 
 34 H        3.5960    -3.6340     0.8020 H     1 <1>   0.0800 
 35 H       -1.3870    -4.3110     0.2840 H     1 <1>   0.1500 
 36 H       -1.7130    -0.1330    -0.4820 H     1 <1>   0.1500 
 37 H       -3.7960    -4.5440     0.1130 H     1 <1>   0.1500 
 38 H       -4.1480    -0.3620    -0.6500 H     1 <1>   0.1500 
 39 H        5.3180    -0.3930    -1.3090 H     1 <1>   0.1500 
 40 H        6.6170    -3.1030     2.3400 H     1 <1>   0.0800 
 41 H        8.2660    -3.5350     2.0730 H     1 <1>   0.0800 
 42 H        6.9970    -4.4010     1.2380 H     1 <1>   0.0800 
 43 H        7.4100     0.0610    -2.5030 H     1 <1>   0.1500 
 44 H       -7.2600    -3.4860    -0.3320 H     1 <1>   0.0800 
 45 H       -6.0250    -4.0620     0.7820 H     1 <1>   0.0800 
 46 H       -5.8950    -4.4070    -0.9530 H     1 <1>   0.0800 
 47 H        9.4620    -1.0940    -1.8510 H     1 <1>   0.1500 
 48 H       10.2050    -2.5530     1.0360 H     1 <1>   0.0800 
 49 H       10.6050    -2.7040    -0.6540 H     1 <1>   0.0800 
 50 H        9.7000    -3.9660     0.1300 H     1 <1>   0.0800 
@<TRIPOS>BOND
  1   1   2  2   
  2   2   3  am  
  3   2   4  am  
  4   3   5  1   
  5   3   6  1   
  6   4   7  1   
  7   4  26  1   
  8   5   8  1   
  9   5  27  1   
 10   5  28  1   
 11   6   9  1   
 12   6  29  1   
 13   6  30  1   
 14   7  10  ar  
 15   7  11  ar  
 16   8  12  1   
 17   8  31  1   
 18   8  32  1   
 19   9  12  1   
 20   9  33  1   
 21   9  34  1   
 22  10  13  ar  
 23  10  35  1   
 24  11  14  ar  
 25  11  36  1   
 26  12  15  1   
 27  13  16  ar  
 28  13  37  1   
 29  14  16  ar  
 30  14  38  1   
 31  15  17  ar  
 32  15  18  ar  
 33  16  19  1   
 34  17  20  ar  
 35  17  21  1   
 36  18  22  ar  
 37  18  39  1   
 38  19  23  1   
 39  20  24  ar  
 40  20  25  1   
 41  21  40  1   
 42  21  41  1   
 43  21  42  1   
 44  22  24  ar  
 45  22  43  1   
 46  23  44  1   
 47  23  45  1   
 48  23  46  1   
 49  24  47  1   
 50  25  48  1   
 51  25  49  1   
 52  25  50  1   
@<TRIPOS>SUBSTRUCTURE
  1 ****   3 GROUP 4 **** **** 0

# MOE 2024.06 (io_trps.svl 2023.06)
