@<TRIPOS>MOLECULE
NONAME
51 53 1 0 0 
SMALL
USER_CHARGES


@<TRIPOS>ATOM
  1 S       -0.3410     0.5320    -1.2100 S.o2  1 <1>   1.2040 
  2 O       -0.3460    -0.8660    -1.5900 O.2   1 <1>  -0.6500 
  3 O       -0.8730     1.5290    -2.1150 O.2   1 <1>  -0.6500 
  4 C        1.3440     1.0040    -0.7530 C.ar  1 <1>  -0.0090 
  5 C       -1.1660     0.6930     0.3790 C.3   1 <1>   0.0890 
  6 C        2.2650     0.0550    -0.3230 C.ar  1 <1>  -0.1500 
  7 C        1.7500     2.3330    -0.7830 C.ar  1 <1>  -0.1500 
  8 C       -2.6650     0.4150     0.3410 C.ar  1 <1>  -0.1440 
  9 C        3.5410     0.4200     0.0680 C.ar  1 <1>  -0.1500 
 10 C        3.0250     2.7040    -0.3930 C.ar  1 <1>  -0.1500 
 11 C       -3.5720     1.4410     0.5500 C.ar  1 <1>  -0.1500 
 12 C       -3.1340    -0.8650     0.0980 C.ar  1 <1>  -0.1500 
 13 C        3.9280     1.7480     0.0360 C.ar  1 <1>  -0.1430 
 14 C       -4.9500     1.2250     0.5260 C.ar  1 <1>   0.0860 
 15 C       -4.4950    -1.1100     0.0740 C.ar  1 <1>  -0.1500 
 16 C        5.3280     2.1510     0.4640 C.3   1 <1>  -0.0970 
 17 C       -5.8770     2.3220     0.7430 C.2   1 <1>   0.5440 
 18 C       -5.3890    -0.0780     0.2900 C.ar  1 <1>  -0.1500 
 19 O       -5.5680     3.2620     1.4500 O.2   1 <1>  -0.5700 
 20 N       -7.1050     2.3210     0.1440 N.am  1 <1>  -0.7300 
 21 C       -8.1330     3.3650     0.2870 C.3   1 <1>   0.2200 
 22 C       -9.4470     2.7080     0.7210 C.3   1 <1>  -0.1600 
 23 C       -8.2900     4.0930    -1.0520 C.3   1 <1>  -0.1600 
 24 C      -10.5880     3.7360     0.7820 C.3   1 <1>  -0.1600 
 25 C       -9.4280     5.1220    -0.9950 C.3   1 <1>  -0.1600 
 26 C      -10.7460     4.4690    -0.5570 C.3   1 <1>  -0.1600 
 27 H       -1.0090     1.6850     0.7540 H     1 <1>   0.0800 
 28 H       -0.7170     0.0140     1.0780 H     1 <1>   0.0800 
 29 H        1.9850    -0.9850    -0.2980 H     1 <1>   0.1500 
 30 H        1.0620     3.0910    -1.1210 H     1 <1>   0.1500 
 31 H        4.2330    -0.3370     0.3970 H     1 <1>   0.1500 
 32 H        3.3110     3.7410    -0.4280 H     1 <1>   0.1500 
 33 H       -3.2230     2.4430     0.7360 H     1 <1>   0.1500 
 34 H       -2.4480    -1.6780    -0.0770 H     1 <1>   0.1500 
 35 H       -4.8540    -2.1080    -0.1120 H     1 <1>   0.1500 
 36 H        6.0270     1.3580     0.2620 H     1 <1>   0.0800 
 37 H        5.3400     2.3630     1.5180 H     1 <1>   0.0800 
 38 H        5.6480     3.0270    -0.0700 H     1 <1>   0.0800 
 39 H       -6.4430    -0.2900     0.2810 H     1 <1>   0.1500 
 40 H       -7.3170     1.6050    -0.5490 H     1 <1>   0.3700 
 41 H       -7.8320     4.0760     1.0400 H     1 <1>   0.0800 
 42 H       -9.3170     2.2650     1.6920 H     1 <1>   0.0800 
 43 H       -9.7120     1.9340     0.0230 H     1 <1>   0.0800 
 44 H       -8.5030     3.3790    -1.8290 H     1 <1>   0.0800 
 45 H       -7.3690     4.5950    -1.2910 H     1 <1>   0.0800 
 46 H      -10.3780     4.4530     1.5570 H     1 <1>   0.0800 
 47 H      -11.5090     3.2390     1.0330 H     1 <1>   0.0800 
 48 H       -9.5530     5.5770    -1.9630 H     1 <1>   0.0800 
 49 H       -9.1670     5.9000    -0.2970 H     1 <1>   0.0800 
 50 H      -11.5090     5.2240    -0.4660 H     1 <1>   0.0800 
 51 H      -11.0650     3.7700    -1.3120 H     1 <1>   0.0800 
@<TRIPOS>BOND
  1   1   2  2   
  2   1   3  2   
  3   1   4  1   
  4   1   5  1   
  5   4   6  ar  
  6   4   7  ar  
  7   5   8  1   
  8   5  27  1   
  9   5  28  1   
 10   6   9  ar  
 11   6  29  1   
 12   7  10  ar  
 13   7  30  1   
 14   8  11  ar  
 15   8  12  ar  
 16   9  13  ar  
 17   9  31  1   
 18  10  13  ar  
 19  10  32  1   
 20  11  14  ar  
 21  11  33  1   
 22  12  15  ar  
 23  12  34  1   
 24  13  16  1   
 25  14  17  1   
 26  14  18  ar  
 27  15  18  ar  
 28  15  35  1   
 29  16  36  1   
 30  16  37  1   
 31  16  38  1   
 32  17  19  2   
 33  17  20  am  
 34  18  39  1   
 35  20  21  1   
 36  20  40  1   
 37  21  22  1   
 38  21  23  1   
 39  21  41  1   
 40  22  24  1   
 41  22  42  1   
 42  22  43  1   
 43  23  25  1   
 44  23  44  1   
 45  23  45  1   
 46  24  26  1   
 47  24  46  1   
 48  24  47  1   
 49  25  26  1   
 50  25  48  1   
 51  25  49  1   
 52  26  50  1   
 53  26  51  1   
@<TRIPOS>SUBSTRUCTURE
  1 ****  11 GROUP 4 **** **** 0

# MOE 2024.06 (io_trps.svl 2023.06)
