@<TRIPOS>MOLECULE
NONAME
43 45 1 0 0 
SMALL
USER_CHARGES


@<TRIPOS>ATOM
  1 CL       1.7830    -1.2110     3.0890 Cl    1 <1>  -0.1770 
  2 C        2.2250    -1.1060     1.3980 C.ar  1 <1>   0.1770 
  3 C        1.4420    -1.7180     0.4270 C.ar  1 <1>   0.0820 
  4 C        3.3670    -0.4030     1.0680 C.ar  1 <1>  -0.1500 
  5 O        0.3310    -2.3950     0.8200 O.3   1 <1>  -0.3630 
  6 C        1.8390    -1.6070    -0.9030 C.ar  1 <1>  -0.1500 
  7 C        3.7720    -0.2910    -0.2570 C.ar  1 <1>  -0.0090 
  8 C       -0.5460    -2.9910    -0.1100 C.3   1 <1>   0.0400 
  9 C        2.9860    -0.9020    -1.2300 C.ar  1 <1>  -0.1500 
 10 S        5.2740     0.6270    -0.6940 S.o2  1 <1>   1.4470 
 11 O        5.6960     0.2730    -2.0320 O.2   1 <1>  -0.6500 
 12 O        5.0910     2.0190    -0.3490 O.2   1 <1>  -0.6500 
 13 N        6.4280     0.0000     0.3750 N.am  1 <1>  -0.8490 
 14 C        7.6360     0.8450     0.4100 C.3   1 <1>   0.1960 
 15 C        6.8260    -1.3800     0.0300 C.3   1 <1>   0.1960 
 16 C        8.6590     0.3600     1.4560 C.3   1 <1>   0.2090 
 17 C        7.8310    -1.9780     1.0380 C.3   1 <1>   0.2090 
 18 N        9.0070    -1.0830     1.2780 N.pl3 1 <1>  -0.8380 
 19 C       10.2840    -1.4110     0.7940 C.ar  1 <1>   0.1000 
 20 C       10.5720    -1.9090    -0.4850 C.ar  1 <1>   0.1900 
 21 C       11.3700    -1.2260     1.6430 C.ar  1 <1>  -0.1500 
 22 F        9.6040    -2.1010    -1.3490 F     1 <1>  -0.1900 
 23 C       11.8530    -2.2090    -0.9040 C.ar  1 <1>  -0.1500 
 24 C       12.6640    -1.5200     1.2410 C.ar  1 <1>  -0.1500 
 25 C       12.9100    -2.0110    -0.0310 C.ar  1 <1>  -0.1500 
 26 H        3.9460     0.0620     1.8480 H     1 <1>   0.1500 
 27 H        1.2700    -2.0600    -1.6940 H     1 <1>   0.1500 
 28 H       -1.3550    -3.4400     0.4380 H     1 <1>   0.0800 
 29 H       -0.0150    -3.7470    -0.6600 H     1 <1>   0.0800 
 30 H       -0.9300    -2.2300    -0.7670 H     1 <1>   0.0800 
 31 H        3.2790    -0.8240    -2.2650 H     1 <1>   0.1500 
 32 H        7.3640     1.8570     0.6540 H     1 <1>   0.0800 
 33 H        8.1050     0.8540    -0.5610 H     1 <1>   0.0800 
 34 H        7.2670    -1.3980    -0.9520 H     1 <1>   0.0800 
 35 H        5.9560    -2.0120     0.0060 H     1 <1>   0.0800 
 36 H        8.2470     0.5010     2.4390 H     1 <1>   0.0800 
 37 H        9.5500     0.9590     1.3810 H     1 <1>   0.0800 
 38 H        8.1700    -2.9350     0.6830 H     1 <1>   0.0800 
 39 H        7.3270    -2.1390     1.9750 H     1 <1>   0.0800 
 40 H       11.1890    -0.8520     2.6340 H     1 <1>   0.1500 
 41 H       12.0200    -2.5880    -1.8960 H     1 <1>   0.1500 
 42 H       13.4820    -1.3670     1.9230 H     1 <1>   0.1500 
 43 H       13.9160    -2.2390    -0.3380 H     1 <1>   0.1500 
@<TRIPOS>BOND
  1   1   2  1   
  2   2   3  ar  
  3   2   4  ar  
  4   3   5  1   
  5   3   6  ar  
  6   4   7  ar  
  7   4  26  1   
  8   5   8  1   
  9   6   9  ar  
 10   6  27  1   
 11   7   9  ar  
 12   7  10  1   
 13   8  28  1   
 14   8  29  1   
 15   8  30  1   
 16   9  31  1   
 17  10  11  2   
 18  10  12  2   
 19  10  13  am  
 20  13  14  1   
 21  13  15  1   
 22  14  16  1   
 23  14  32  1   
 24  14  33  1   
 25  15  17  1   
 26  15  34  1   
 27  15  35  1   
 28  16  18  1   
 29  16  36  1   
 30  16  37  1   
 31  17  18  1   
 32  17  38  1   
 33  17  39  1   
 34  18  19  1   
 35  19  20  ar  
 36  19  21  ar  
 37  20  22  1   
 38  20  23  ar  
 39  21  24  ar  
 40  21  40  1   
 41  23  25  ar  
 42  23  41  1   
 43  24  25  ar  
 44  24  42  1   
 45  25  43  1   
@<TRIPOS>SUBSTRUCTURE
  1 ****  15 GROUP 4 **** **** 0

# MOE 2024.06 (io_trps.svl 2023.06)
