@<TRIPOS>MOLECULE
NONAME
40 42 1 0 0 
SMALL
USER_CHARGES


@<TRIPOS>ATOM
  1 O       -5.8180     2.7380     1.2220 O.2   1 <1>  -0.5700 
  2 C       -4.9110     3.0210     0.4780 C.2   1 <1>   0.5940 
  3 C       -3.8670     2.1180     0.0720 C.2   1 <1>   0.0550 
  4 C       -4.8880     4.4450    -0.0490 C.3   1 <1>  -0.0990 
  5 O       -3.8800     0.8510     0.4740 O.3   1 <1>  -0.2800 
  6 C       -2.7630     2.3000    -0.7120 C.2   1 <1>  -0.1500 
  7 C       -6.2430     5.1140     0.2020 C.3   1 <1>   0.3430 
  8 C       -2.8360     0.2300    -0.0200 C.2   1 <1>  -0.0100 
  9 C       -2.0990     1.0760    -0.7690 C.2   1 <1>  -0.1500 
 10 N       -6.2620     6.5250    -0.2860 N.4   1 <1>  -0.9590 
 11 C       -5.3960     7.4640     0.4970 C.3   1 <1>   0.3430 
 12 C       -7.6250     7.1080    -0.2530 C.3   1 <1>   0.3430 
 13 C       -6.1280     8.8110     0.5620 C.3   1 <1>   0.0630 
 14 C       -7.3700     8.6020    -0.3120 C.3   1 <1>  -0.1600 
 15 C       -5.2180     9.9780     0.1710 C.ar  1 <1>  -0.1430 
 16 C       -3.9350    10.0450     0.7030 C.ar  1 <1>  -0.1500 
 17 C       -5.6330    10.9950    -0.6830 C.ar  1 <1>  -0.1500 
 18 C       -3.0800    11.0800     0.3660 C.ar  1 <1>  -0.1500 
 19 C       -4.7780    12.0290    -1.0210 C.ar  1 <1>  -0.1500 
 20 C       -3.4990    12.0710    -0.5000 C.ar  1 <1>  -0.1500 
 21 H       -4.6840     4.4220    -1.1030 H     1 <1>   0.0800 
 22 H       -4.1050     4.9730     0.4620 H     1 <1>   0.0800 
 23 H       -2.4250     3.1920    -1.2090 H     1 <1>   0.1500 
 24 H       -6.4640     5.0870     1.2580 H     1 <1>   0.0800 
 25 H       -7.0070     4.5430    -0.3030 H     1 <1>   0.0800 
 26 H       -2.6910    -0.8130     0.2080 H     1 <1>   0.1500 
 27 H       -1.1880     0.8700    -1.3050 H     1 <1>   0.1500 
 28 H       -5.9500     6.5590    -1.2670 H     1 <1>   0.4500 
 29 H       -4.4400     7.5800     0.0120 H     1 <1>   0.0800 
 30 H       -5.2410     7.0940     1.4980 H     1 <1>   0.0800 
 31 H       -8.1140     6.8580     0.6760 H     1 <1>   0.0800 
 32 H       -8.2280     6.7700    -1.0820 H     1 <1>   0.0800 
 33 H       -6.4420     8.9650     1.5810 H     1 <1>   0.0800 
 34 H       -8.2140     9.1680     0.0400 H     1 <1>   0.0800 
 35 H       -7.1740     8.8630    -1.3380 H     1 <1>   0.0800 
 36 H       -3.5760     9.3050     1.3950 H     1 <1>   0.1500 
 37 H       -6.6240    11.0160    -1.0990 H     1 <1>   0.1500 
 38 H       -2.0870    11.1210     0.7810 H     1 <1>   0.1500 
 39 H       -5.1090    12.8070    -1.6870 H     1 <1>   0.1500 
 40 H       -2.8340    12.8760    -0.7640 H     1 <1>   0.1500 
@<TRIPOS>BOND
  1   1   2  2   
  2   2   3  1   
  3   2   4  1   
  4   3   5  1   
  5   3   6  2   
  6   4   7  1   
  7   4  21  1   
  8   4  22  1   
  9   5   8  1   
 10   6   9  1   
 11   6  23  1   
 12   7  10  1   
 13   7  24  1   
 14   7  25  1   
 15   8   9  2   
 16   8  26  1   
 17   9  27  1   
 18  10  11  1   
 19  10  12  1   
 20  10  28  1   
 21  11  13  1   
 22  11  29  1   
 23  11  30  1   
 24  12  14  1   
 25  12  31  1   
 26  12  32  1   
 27  13  14  1   
 28  13  15  1   
 29  13  33  1   
 30  14  34  1   
 31  14  35  1   
 32  15  16  ar  
 33  15  17  ar  
 34  16  18  ar  
 35  16  36  1   
 36  17  19  ar  
 37  17  37  1   
 38  18  20  ar  
 39  18  38  1   
 40  19  20  ar  
 41  19  39  1   
 42  20  40  1   
@<TRIPOS>SUBSTRUCTURE
  1 ****  11 GROUP 4 **** **** 0

# MOE 2024.06 (io_trps.svl 2023.06)
