@<TRIPOS>MOLECULE
NONAME
49 51 1 0 0 
SMALL
USER_CHARGES


@<TRIPOS>ATOM
  1 O       -0.3310    -0.5460    -1.1310 O.2   1 <1>  -0.5700 
  2 C       -0.7510    -1.1660    -0.1710 C.2   1 <1>   0.7800 
  3 O        0.0900    -1.8610     0.6090 O.3   1 <1>  -0.2330 
  4 N       -2.0860    -1.1920     0.1520 N.am  1 <1>  -0.6600 
  5 C        1.4480    -1.8660     0.5240 C.ar  1 <1>   0.0830 
  6 C       -3.1060    -0.5050    -0.6860 C.3   1 <1>   0.1400 
  7 C       -2.6370    -1.9130     1.3320 C.3   1 <1>   0.1400 
  8 C        2.1000    -3.0760     0.6910 C.ar  1 <1>  -0.1500 
  9 C        2.1880    -0.7100     0.3100 C.ar  1 <1>  -0.1500 
 10 C       -4.1480    -1.5220    -1.1640 C.3   1 <1>  -0.1600 
 11 C       -3.6730    -2.9430     0.8670 C.3   1 <1>  -0.1600 
 12 C        3.4810    -3.1340     0.6330 C.ar  1 <1>  -0.1500 
 13 C        3.5680    -0.7750     0.2540 C.ar  1 <1>  -0.1500 
 14 C       -4.7690    -2.2950     0.0090 C.3   1 <1>  -0.1600 
 15 C        4.2350    -1.9860     0.4150 C.ar  1 <1>   0.1170 
 16 N        5.6300    -2.0950     0.3440 N.am  1 <1>  -0.5470 
 17 C        6.6190    -1.1910     0.6080 C.2   1 <1>   0.6900 
 18 O        6.3690    -0.1160     1.1200 O.2   1 <1>  -0.5700 
 19 N        7.9160    -1.5320     0.3160 N.am  1 <1>  -0.6600 
 20 C        9.0300    -0.6950     0.8530 C.3   1 <1>   0.1400 
 21 C        8.2770    -2.5990    -0.6670 C.3   1 <1>   0.1400 
 22 C       10.3290    -1.5040     0.9180 C.3   1 <1>  -0.1600 
 23 C        9.5660    -2.2380    -1.4130 C.3   1 <1>  -0.1600 
 24 C       10.7570    -2.0380    -0.4600 C.3   1 <1>  -0.1600 
 25 H       -2.6460    -0.0340    -1.5390 H     1 <1>   0.0800 
 26 H       -3.5830     0.2610    -0.1000 H     1 <1>   0.0800 
 27 H       -3.1040    -1.1990     1.9890 H     1 <1>   0.0800 
 28 H       -1.8580    -2.4100     1.8840 H     1 <1>   0.0800 
 29 H        1.5250    -3.9670     0.8640 H     1 <1>   0.1500 
 30 H        1.6940     0.2370     0.1870 H     1 <1>   0.1500 
 31 H       -3.6730    -2.2100    -1.8420 H     1 <1>   0.0800 
 32 H       -4.9200    -1.0090    -1.7090 H     1 <1>   0.0800 
 33 H       -4.1180    -3.4120     1.7260 H     1 <1>   0.0800 
 34 H       -3.1710    -3.7070     0.2990 H     1 <1>   0.0800 
 35 H        3.9760    -4.0780     0.7640 H     1 <1>   0.1500 
 36 H        4.1310     0.1250     0.0810 H     1 <1>   0.1500 
 37 H       -5.4340    -3.0530    -0.3660 H     1 <1>   0.0800 
 38 H       -5.3450    -1.6180     0.6170 H     1 <1>   0.0800 
 39 H        5.9900    -3.0260     0.1740 H     1 <1>   0.3700 
 40 H        8.7730    -0.3440     1.8390 H     1 <1>   0.0800 
 41 H        9.1610     0.1640     0.2170 H     1 <1>   0.0800 
 42 H        7.4830    -2.7210    -1.3840 H     1 <1>   0.0800 
 43 H        8.4140    -3.5280    -0.1400 H     1 <1>   0.0800 
 44 H       10.1750    -2.3280     1.5940 H     1 <1>   0.0800 
 45 H       11.1130    -0.8940     1.3290 H     1 <1>   0.0800 
 46 H        9.3900    -1.3300    -1.9640 H     1 <1>   0.0800 
 47 H        9.8000    -3.0070    -2.1270 H     1 <1>   0.0800 
 48 H       11.2740    -2.9730    -0.3220 H     1 <1>   0.0800 
 49 H       11.4490    -1.3500    -0.9160 H     1 <1>   0.0800 
@<TRIPOS>BOND
  1   1   2  2   
  2   2   3  1   
  3   2   4  am  
  4   3   5  1   
  5   4   6  1   
  6   4   7  1   
  7   5   8  ar  
  8   5   9  ar  
  9   6  10  1   
 10   6  25  1   
 11   6  26  1   
 12   7  11  1   
 13   7  27  1   
 14   7  28  1   
 15   8  12  ar  
 16   8  29  1   
 17   9  13  ar  
 18   9  30  1   
 19  10  14  1   
 20  10  31  1   
 21  10  32  1   
 22  11  14  1   
 23  11  33  1   
 24  11  34  1   
 25  12  15  ar  
 26  12  35  1   
 27  13  15  ar  
 28  13  36  1   
 29  14  37  1   
 30  14  38  1   
 31  15  16  1   
 32  16  17  am  
 33  16  39  1   
 34  17  18  2   
 35  17  19  am  
 36  19  20  1   
 37  19  21  1   
 38  20  22  1   
 39  20  40  1   
 40  20  41  1   
 41  21  23  1   
 42  21  42  1   
 43  21  43  1   
 44  22  24  1   
 45  22  44  1   
 46  22  45  1   
 47  23  24  1   
 48  23  46  1   
 49  23  47  1   
 50  24  48  1   
 51  24  49  1   
@<TRIPOS>SUBSTRUCTURE
  1 ****  13 GROUP 4 **** **** 0

# MOE 2024.06 (io_trps.svl 2023.06)
