@<TRIPOS>MOLECULE
NONAME
43 44 1 0 0 
SMALL
USER_CHARGES


@<TRIPOS>ATOM
  1 O        1.9860     0.8660     0.1890 O.2   1 <1>  -0.5700 
  2 C        1.1810     1.3310    -0.5750 C.2   1 <1>   0.5690 
  3 N        1.5900     2.3250    -1.4050 N.am  1 <1>  -0.7300 
  4 C       -0.2590     0.8340    -0.5300 C.3   1 <1>   0.0440 
  5 C        0.7720     3.3210    -2.1520 C.3   1 <1>   0.1400 
  6 C       -1.1990     1.9050     0.0100 C.ar  1 <1>  -0.1430 
  7 C        0.2720     4.5020    -1.2800 C.3   1 <1>   0.3430 
  8 C       -2.2520     2.3860    -0.7560 C.ar  1 <1>  -0.1500 
  9 C       -0.9850     2.4230     1.2780 C.ar  1 <1>  -0.1500 
 10 N        1.3300     5.1590    -0.4410 N.4   1 <1>  -0.9590 
 11 C       -3.0490     3.4130    -0.2810 C.ar  1 <1>  -0.1500 
 12 C       -1.7780     3.4520     1.7520 C.ar  1 <1>  -0.1500 
 13 C        1.6380     4.4190     0.8350 C.3   1 <1>   0.3430 
 14 C        0.9720     6.5790    -0.1050 C.3   1 <1>   0.3430 
 15 C       -2.8010     3.9640     0.9720 C.ar  1 <1>   0.0830 
 16 C        2.7450     5.1320     1.6440 C.3   1 <1>   0.1200 
 17 C        2.0030     7.2210     0.8530 C.3   1 <1>   0.1200 
 18 O       -3.5090     4.9930     1.4910 O.3   1 <1>  -0.3630 
 19 O        3.0910     6.3650     1.0680 O.3   1 <1>  -0.5600 
 20 C       -4.8010     5.2990     1.0090 C.3   1 <1>   0.0400 
 21 H        2.6080     2.4380    -1.4560 H     1 <1>   0.3700 
 22 H       -0.3090    -0.0320     0.1050 H     1 <1>   0.0800 
 23 H       -0.5510     0.5290    -1.5170 H     1 <1>   0.0800 
 24 H       -0.0790     2.8270    -2.5870 H     1 <1>   0.0800 
 25 H        1.3590     3.7090    -2.9660 H     1 <1>   0.0800 
 26 H       -0.5220     4.1630    -0.6390 H     1 <1>   0.0800 
 27 H       -0.1560     5.2340    -1.9440 H     1 <1>   0.0800 
 28 H       -2.4580     1.9660    -1.7270 H     1 <1>   0.1500 
 29 H       -0.2000     2.0240     1.9010 H     1 <1>   0.1500 
 30 H        2.2240     5.2050    -0.9500 H     1 <1>   0.4500 
 31 H       -3.8550     3.7730    -0.8940 H     1 <1>   0.1500 
 32 H       -1.6200     3.8580     2.7360 H     1 <1>   0.1500 
 33 H        1.9580     3.4120     0.6330 H     1 <1>   0.0800 
 34 H        0.7500     4.3570     1.4410 H     1 <1>   0.0800 
 35 H        0.0000     6.6140     0.3600 H     1 <1>   0.0800 
 36 H        0.9210     7.1670    -1.0060 H     1 <1>   0.0800 
 37 H        3.6320     4.5230     1.6680 H     1 <1>   0.0800 
 38 H        2.4260     5.3000     2.6580 H     1 <1>   0.0800 
 39 H        1.5510     7.4490     1.8030 H     1 <1>   0.0800 
 40 H        2.3810     8.1370     0.4330 H     1 <1>   0.0800 
 41 H       -5.2350     6.0370     1.6590 H     1 <1>   0.0800 
 42 H       -5.4000     4.4050     1.0220 H     1 <1>   0.0800 
 43 H       -4.7220     5.6950     0.0120 H     1 <1>   0.0800 
@<TRIPOS>BOND
  1   1   2  2   
  2   2   3  am  
  3   2   4  1   
  4   3   5  1   
  5   3  21  1   
  6   4   6  1   
  7   4  22  1   
  8   4  23  1   
  9   5   7  1   
 10   5  24  1   
 11   5  25  1   
 12   6   8  ar  
 13   6   9  ar  
 14   7  10  1   
 15   7  26  1   
 16   7  27  1   
 17   8  11  ar  
 18   8  28  1   
 19   9  12  ar  
 20   9  29  1   
 21  10  13  1   
 22  10  14  1   
 23  10  30  1   
 24  11  15  ar  
 25  11  31  1   
 26  12  15  ar  
 27  12  32  1   
 28  13  16  1   
 29  13  33  1   
 30  13  34  1   
 31  14  17  1   
 32  14  35  1   
 33  14  36  1   
 34  15  18  1   
 35  16  19  1   
 36  16  37  1   
 37  16  38  1   
 38  17  19  1   
 39  17  39  1   
 40  17  40  1   
 41  18  20  1   
 42  20  41  1   
 43  20  42  1   
 44  20  43  1   
@<TRIPOS>SUBSTRUCTURE
  1 ****   7 GROUP 4 **** **** 0

# MOE 2024.06 (io_trps.svl 2023.06)
