@<TRIPOS>MOLECULE
NONAME
43 44 1 0 0 
SMALL
USER_CHARGES


@<TRIPOS>ATOM
  1 O        0.9090    -1.5970     2.0120 O.3   1 <1>  -0.6800 
  2 C        2.1100    -2.0200     1.4660 C.3   1 <1>   0.1200 
  3 C        2.8530    -0.7910     0.9320 C.3   1 <1>   0.1100 
  4 N        4.1490    -1.1520     0.3140 N.3   1 <1>  -0.8100 
  5 C        3.9780    -1.7470    -1.0360 C.3   1 <1>   0.1100 
  6 C        5.0290     0.0420     0.2350 C.3   1 <1>   0.1100 
  7 C        5.3320    -2.1330    -1.6860 C.3   1 <1>   0.3430 
  8 C        6.3750    -0.2460    -0.4730 C.3   1 <1>   0.3430 
  9 N        6.4860    -1.6970    -0.8380 N.4   1 <1>  -0.9590 
 10 C        7.8200    -2.0980    -1.3520 C.3   1 <1>   0.4860 
 11 C        8.8730    -1.7050    -0.3330 C.ar  1 <1>  -0.1430 
 12 C        9.0340    -2.3940     0.8670 C.ar  1 <1>  -0.1430 
 13 C        9.6830    -0.6130    -0.6150 C.ar  1 <1>  -0.1500 
 14 C        9.9920    -1.9600     1.7680 C.ar  1 <1>  -0.1500 
 15 C        8.2000    -3.6140     1.2380 C.3   1 <1>  -0.0970 
 16 C       10.6380    -0.1860     0.2900 C.ar  1 <1>  -0.1430 
 17 C       10.7870    -0.8650     1.4840 C.ar  1 <1>  -0.1500 
 18 C       11.5240     1.0080    -0.0210 C.3   1 <1>  -0.0970 
 19 H        0.4220    -2.3450     2.4120 H     1 <1>   0.4000 
 20 H        1.8870    -2.7170     0.6780 H     1 <1>   0.0800 
 21 H        2.6840    -2.4990     2.2400 H     1 <1>   0.0800 
 22 H        3.0290    -0.1360     1.7690 H     1 <1>   0.0800 
 23 H        2.2330    -0.2720     0.2200 H     1 <1>   0.0800 
 24 H        3.4670    -1.0500    -1.6790 H     1 <1>   0.0800 
 25 H        3.3670    -2.6310    -0.9730 H     1 <1>   0.0800 
 26 H        5.2360     0.3930     1.2320 H     1 <1>   0.0800 
 27 H        4.5230     0.8380    -0.2860 H     1 <1>   0.0800 
 28 H        5.3950    -1.6800    -2.6620 H     1 <1>   0.0800 
 29 H        5.3600    -3.2020    -1.8170 H     1 <1>   0.0800 
 30 H        7.1790     0.0310     0.1900 H     1 <1>   0.0800 
 31 H        6.4530     0.3650    -1.3560 H     1 <1>   0.0800 
 32 H        6.3420    -2.1640     0.0680 H     1 <1>   0.4500 
 33 H        8.0190    -1.6060    -2.2900 H     1 <1>   0.0800 
 34 H        7.8540    -3.1620    -1.5110 H     1 <1>   0.0800 
 35 H        9.5800    -0.0820    -1.5460 H     1 <1>   0.1500 
 36 H       10.1330    -2.4730     2.7040 H     1 <1>   0.1500 
 37 H        8.0780    -4.2720     0.3970 H     1 <1>   0.0800 
 38 H        7.2350    -3.3120     1.6020 H     1 <1>   0.0800 
 39 H        8.6860    -4.1770     2.0170 H     1 <1>   0.0800 
 40 H       11.5280    -0.5480     2.1990 H     1 <1>   0.1500 
 41 H       11.7500     1.5510     0.8790 H     1 <1>   0.0800 
 42 H       11.0380     1.6770    -0.7070 H     1 <1>   0.0800 
 43 H       12.4460     0.6710    -0.4600 H     1 <1>   0.0800 
@<TRIPOS>BOND
  1   1   2  1   
  2   1  19  1   
  3   2   3  1   
  4   2  20  1   
  5   2  21  1   
  6   3   4  1   
  7   3  22  1   
  8   3  23  1   
  9   4   5  1   
 10   4   6  1   
 11   5   7  1   
 12   5  24  1   
 13   5  25  1   
 14   6   8  1   
 15   6  26  1   
 16   6  27  1   
 17   7   9  1   
 18   7  28  1   
 19   7  29  1   
 20   8   9  1   
 21   8  30  1   
 22   8  31  1   
 23   9  10  1   
 24   9  32  1   
 25  10  11  1   
 26  10  33  1   
 27  10  34  1   
 28  11  12  ar  
 29  11  13  ar  
 30  12  14  ar  
 31  12  15  1   
 32  13  16  ar  
 33  13  35  1   
 34  14  17  ar  
 35  14  36  1   
 36  15  37  1   
 37  15  38  1   
 38  15  39  1   
 39  16  17  ar  
 40  16  18  1   
 41  17  40  1   
 42  18  41  1   
 43  18  42  1   
 44  18  43  1   
@<TRIPOS>SUBSTRUCTURE
  1 ****   9 GROUP 4 **** **** 0

# MOE 2024.06 (io_trps.svl 2023.06)
