@<TRIPOS>MOLECULE
NONAME
45 48 1 0 0 
SMALL
USER_CHARGES


@<TRIPOS>ATOM
  1 O        2.8610     0.2890    -2.2100 O.3   1 <1>  -0.3630 
  2 C        3.0960    -0.2140    -0.9950 C.ar  1 <1>   0.0830 
  3 C        1.6330    -0.2850    -2.6590 C.3   1 <1>   0.4000 
  4 C        2.1070    -1.0860    -0.6470 C.ar  1 <1>   0.0830 
  5 C        4.1560     0.0520    -0.1540 C.ar  1 <1>  -0.1500 
  6 O        1.2020    -1.1700    -1.6260 O.3   1 <1>  -0.3630 
  7 C        2.1220    -1.7410     0.5680 C.ar  1 <1>  -0.1500 
  8 C        4.2010    -0.6040     1.0740 C.ar  1 <1>  -0.1440 
  9 C        3.1820    -1.4910     1.4300 C.ar  1 <1>  -0.1500 
 10 C        5.3640    -0.3630     2.0170 C.3   1 <1>   0.4870 
 11 N        6.5870    -0.9570     1.4220 N.4   1 <1>  -0.9590 
 12 C        6.4770    -2.4230     1.1150 C.3   1 <1>   0.3430 
 13 C        7.8490    -0.6580     2.1680 C.3   1 <1>   0.3430 
 14 C        7.7590    -2.9470     0.4220 C.3   1 <1>   0.1100 
 15 C        9.0830    -1.1240     1.3590 C.3   1 <1>   0.1100 
 16 N        8.7170    -1.8590     0.1170 N.3   1 <1>  -0.8100 
 17 C        9.9270    -2.3830    -0.5700 C.3   1 <1>   0.2530 
 18 C       10.9210    -1.2840    -0.9410 C.ar  1 <1>   0.1670 
 19 N       11.9340    -1.0840    -0.1060 N.ar  1 <1>  -0.6200 
 20 C       10.7240    -0.5570    -2.1060 C.ar  1 <1>  -0.1500 
 21 C       12.7860    -0.1330    -0.4560 C.ar  1 <1>   0.1600 
 22 C       11.6160     0.4330    -2.4540 C.ar  1 <1>  -0.1500 
 23 C       12.6760     0.6420    -1.5980 C.ar  1 <1>  -0.1500 
 24 H        1.8010    -0.8400    -3.5650 H     1 <1>   0.0800 
 25 H        0.9010     0.4910    -2.7980 H     1 <1>   0.0800 
 26 H        4.9090     0.7520    -0.4700 H     1 <1>   0.1500 
 27 H        1.3260    -2.4190     0.8230 H     1 <1>   0.1500 
 28 H        3.1980    -1.9960     2.3810 H     1 <1>   0.1500 
 29 H        5.1600    -0.8110     2.9750 H     1 <1>   0.0800 
 30 H        5.4960     0.6980     2.1550 H     1 <1>   0.0800 
 31 H        6.7390    -0.5380     0.4920 H     1 <1>   0.4500 
 32 H        5.6370    -2.5950     0.4610 H     1 <1>   0.0800 
 33 H        6.3070    -2.9820     2.0200 H     1 <1>   0.0800 
 34 H        7.8430    -1.1580     3.1220 H     1 <1>   0.0800 
 35 H        7.9350     0.4010     2.3500 H     1 <1>   0.0800 
 36 H        7.4790    -3.4460    -0.4910 H     1 <1>   0.0800 
 37 H        8.2290    -3.6790     1.0580 H     1 <1>   0.0800 
 38 H        9.7060    -1.7420     1.9840 H     1 <1>   0.0800 
 39 H        9.6610    -0.2520     1.1010 H     1 <1>   0.0800 
 40 H        9.6300    -2.8890    -1.4720 H     1 <1>   0.0800 
 41 H       10.4260    -3.1010     0.0590 H     1 <1>   0.0800 
 42 H        9.8770    -0.7650    -2.7350 H     1 <1>   0.1500 
 43 H       13.6210     0.0390     0.2020 H     1 <1>   0.1500 
 44 H       11.4930     1.0150    -3.3520 H     1 <1>   0.1500 
 45 H       13.4110     1.3960    -1.8110 H     1 <1>   0.1500 
@<TRIPOS>BOND
  1   1   2  1   
  2   1   3  1   
  3   2   4  ar  
  4   2   5  ar  
  5   3   6  1   
  6   3  24  1   
  7   3  25  1   
  8   4   6  1   
  9   4   7  ar  
 10   5   8  ar  
 11   5  26  1   
 12   7   9  ar  
 13   7  27  1   
 14   8   9  ar  
 15   8  10  1   
 16   9  28  1   
 17  10  11  1   
 18  10  29  1   
 19  10  30  1   
 20  11  12  1   
 21  11  13  1   
 22  11  31  1   
 23  12  14  1   
 24  12  32  1   
 25  12  33  1   
 26  13  15  1   
 27  13  34  1   
 28  13  35  1   
 29  14  16  1   
 30  14  36  1   
 31  14  37  1   
 32  15  16  1   
 33  15  38  1   
 34  15  39  1   
 35  16  17  1   
 36  17  18  1   
 37  17  40  1   
 38  17  41  1   
 39  18  19  ar  
 40  18  20  ar  
 41  19  21  ar  
 42  20  22  ar  
 43  20  42  1   
 44  21  23  ar  
 45  21  43  1   
 46  22  23  ar  
 47  22  44  1   
 48  23  45  1   
@<TRIPOS>SUBSTRUCTURE
  1 ****  11 GROUP 4 **** **** 0

# MOE 2024.06 (io_trps.svl 2023.06)
