@<TRIPOS>MOLECULE
NONAME
46 46 1 0 0 
SMALL
USER_CHARGES


@<TRIPOS>ATOM
  1 O        0.7870    -1.5530    -0.1810 O.3   1 <1>  -0.3630 
  2 C       -0.4690    -1.6680    -0.6880 C.ar  1 <1>   0.0830 
  3 C        1.7950    -0.8310    -0.8440 C.3   1 <1>   0.1200 
  4 C       -1.4130    -2.3690     0.0610 C.ar  1 <1>  -0.1440 
  5 C       -0.8380    -1.1140    -1.9140 C.ar  1 <1>  -0.1500 
  6 C        3.0520    -0.8980     0.0250 C.3   1 <1>  -0.1600 
  7 C       -2.7060    -2.5010    -0.4210 C.ar  1 <1>  -0.1500 
  8 C       -1.0610    -2.9950     1.4060 C.3   1 <1>  -0.0160 
  9 C       -2.1310    -1.2560    -2.3830 C.ar  1 <1>  -0.1500 
 10 C        4.2270    -0.1370    -0.6060 C.3   1 <1>  -0.1600 
 11 C       -3.0660    -1.9490    -1.6370 C.ar  1 <1>  -0.1500 
 12 C       -1.2350    -1.9780     2.5370 C.3   1 <1>  -0.2400 
 13 C        5.4620    -0.2270     0.2880 C.3   1 <1>   0.3430 
 14 N        6.5790     0.5200    -0.3470 N.4   1 <1>  -0.9060 
 15 C        7.8530     0.5430     0.3760 C.3   1 <1>   0.5030 
 16 C        7.6650     1.2140     1.7360 C.3   1 <1>  -0.2400 
 17 C        8.8150     1.3630    -0.4780 C.3   1 <1>  -0.2400 
 18 C        8.3840    -0.8820     0.5330 C.3   1 <1>  -0.2400 
 19 H        1.4580     0.1840    -0.9630 H     1 <1>   0.0800 
 20 H        1.9610    -1.2890    -1.8040 H     1 <1>   0.0800 
 21 H       -0.1390    -0.5710    -2.5180 H     1 <1>   0.1500 
 22 H        3.3180    -1.9340     0.1580 H     1 <1>   0.0800 
 23 H        2.8210    -0.4780     0.9900 H     1 <1>   0.0800 
 24 H       -3.4420    -3.0360     0.1530 H     1 <1>   0.1500 
 25 H       -0.0470    -3.3540     1.3930 H     1 <1>   0.0800 
 26 H       -1.6960    -3.8440     1.5890 H     1 <1>   0.0800 
 27 H       -2.4120    -0.8270    -3.3290 H     1 <1>   0.1500 
 28 H        3.9440     0.8940    -0.7340 H     1 <1>   0.0800 
 29 H        4.4420    -0.5650    -1.5700 H     1 <1>   0.0800 
 30 H       -4.0730    -2.0580    -2.0000 H     1 <1>   0.1500 
 31 H       -0.5890    -1.1340     2.3730 H     1 <1>   0.0800 
 32 H       -0.9870    -2.4270     3.4820 H     1 <1>   0.0800 
 33 H       -2.2520    -1.6320     2.5710 H     1 <1>   0.0800 
 34 H        5.7340    -1.2620     0.4200 H     1 <1>   0.0800 
 35 H        5.2360     0.1920     1.2550 H     1 <1>   0.0800 
 36 H        6.2930     1.4930    -0.4910 H     1 <1>   0.4500 
 37 H        6.7620     0.1270    -1.2750 H     1 <1>   0.4500 
 38 H        7.0390     0.6280     2.3850 H     1 <1>   0.0800 
 39 H        8.6190     1.3160     2.2230 H     1 <1>   0.0800 
 40 H        7.2460     2.1990     1.6290 H     1 <1>   0.0800 
 41 H        8.9600     0.9110    -1.4440 H     1 <1>   0.0800 
 42 H        9.7760     1.4170     0.0030 H     1 <1>   0.0800 
 43 H        8.4600     2.3700    -0.6070 H     1 <1>   0.0800 
 44 H        8.4710    -1.3720    -0.4200 H     1 <1>   0.0800 
 45 H        7.7600    -1.4690     1.1820 H     1 <1>   0.0800 
 46 H        9.3640    -0.8550     0.9770 H     1 <1>   0.0800 
@<TRIPOS>BOND
  1   1   2  1   
  2   1   3  1   
  3   2   4  ar  
  4   2   5  ar  
  5   3   6  1   
  6   3  19  1   
  7   3  20  1   
  8   4   7  ar  
  9   4   8  1   
 10   5   9  ar  
 11   5  21  1   
 12   6  10  1   
 13   6  22  1   
 14   6  23  1   
 15   7  11  ar  
 16   7  24  1   
 17   8  12  1   
 18   8  25  1   
 19   8  26  1   
 20   9  11  ar  
 21   9  27  1   
 22  10  13  1   
 23  10  28  1   
 24  10  29  1   
 25  11  30  1   
 26  12  31  1   
 27  12  32  1   
 28  12  33  1   
 29  13  14  1   
 30  13  34  1   
 31  13  35  1   
 32  14  15  1   
 33  14  36  1   
 34  14  37  1   
 35  15  16  1   
 36  15  17  1   
 37  15  18  1   
 38  16  38  1   
 39  16  39  1   
 40  16  40  1   
 41  17  41  1   
 42  17  42  1   
 43  17  43  1   
 44  18  44  1   
 45  18  45  1   
 46  18  46  1   
@<TRIPOS>SUBSTRUCTURE
  1 ****   6 GROUP 4 **** **** 0

# MOE 2024.06 (io_trps.svl 2023.06)
