@<TRIPOS>MOLECULE
NONAME
47 48 1 0 0 
SMALL
USER_CHARGES


@<TRIPOS>ATOM
  1 O       -0.1990     0.6140    -0.5930 O.2   1 <1>  -0.5700 
  2 C       -0.2690     1.8110    -0.4660 C.2   1 <1>   0.5690 
  3 N        0.8460     2.5080    -0.1250 N.am  1 <1>  -0.5470 
  4 C       -1.6030     2.5130    -0.6720 C.3   1 <1>  -0.0990 
  5 C        1.0440     3.8810     0.0700 C.ar  1 <1>   0.1170 
  6 C       -2.8180     1.5900    -0.4450 C.3   1 <1>  -0.0990 
  7 C        0.6420     4.8190    -0.8730 C.ar  1 <1>  -0.1500 
  8 C        1.6730     4.3220     1.2270 C.ar  1 <1>  -0.1500 
  9 C       -4.1680     2.2810    -0.6200 C.2   1 <1>   0.4230 
 10 C        0.8450     6.1710    -0.6600 C.ar  1 <1>  -0.1500 
 11 C        1.8810     5.6720     1.4430 C.ar  1 <1>  -0.1500 
 12 O       -4.1680     3.4270    -0.9920 O.2   1 <1>  -0.5700 
 13 C       -5.3900     1.5480    -0.3370 C.ar  1 <1>   0.0860 
 14 C        1.4670     6.6060     0.5070 C.ar  1 <1>   0.0830 
 15 C       -5.4110     0.1930     0.0070 C.ar  1 <1>  -0.1500 
 16 C       -6.6260     2.1930    -0.4030 C.ar  1 <1>  -0.1500 
 17 O        1.7050     7.9110     0.7990 O.3   1 <1>  -0.3630 
 18 C       -6.5950    -0.4710     0.2710 C.ar  1 <1>  -0.1500 
 19 C       -7.8120     1.5330    -0.1400 C.ar  1 <1>  -0.1500 
 20 C        1.2730     8.9380    -0.0660 C.3   1 <1>   0.0400 
 21 C       -7.8110     0.1910     0.2010 C.ar  1 <1>  -0.1430 
 22 C       -9.1280    -0.5270     0.4900 C.3   1 <1>   0.0630 
 23 C       -9.1620    -1.0490     1.9300 C.3   1 <1>  -0.2400 
 24 C       -9.3590    -1.6670    -0.5080 C.3   1 <1>  -0.2400 
 25 H        1.6440     1.9030     0.0670 H     1 <1>   0.3700 
 26 H       -1.6330     2.8940    -1.6760 H     1 <1>   0.0800 
 27 H       -1.6710     3.3450     0.0060 H     1 <1>   0.0800 
 28 H       -2.7610     1.1910     0.5520 H     1 <1>   0.0800 
 29 H       -2.7650     0.7720    -1.1410 H     1 <1>   0.0800 
 30 H        0.1720     4.4920    -1.7830 H     1 <1>   0.1500 
 31 H        1.9950     3.6090     1.9640 H     1 <1>   0.1500 
 32 H        0.5170     6.8660    -1.4100 H     1 <1>   0.1500 
 33 H        2.3640     6.0130     2.3410 H     1 <1>   0.1500 
 34 H       -4.4980    -0.3690     0.0720 H     1 <1>   0.1500 
 35 H       -6.6560     3.2370    -0.6670 H     1 <1>   0.1500 
 36 H       -6.5660    -1.5140     0.5330 H     1 <1>   0.1500 
 37 H       -8.7400     2.0750    -0.2040 H     1 <1>   0.1500 
 38 H        1.5460     9.8810     0.3730 H     1 <1>   0.0800 
 39 H        0.2050     8.8800    -0.1710 H     1 <1>   0.0800 
 40 H        1.7630     8.8230    -1.0160 H     1 <1>   0.0800 
 41 H       -9.9370     0.1750     0.3770 H     1 <1>   0.0800 
 42 H       -8.4040    -1.7950     2.0860 H     1 <1>   0.0800 
 43 H      -10.1220    -1.4840     2.1450 H     1 <1>   0.0800 
 44 H       -8.9930    -0.2380     2.6160 H     1 <1>   0.0800 
 45 H       -8.6050    -2.4260    -0.4050 H     1 <1>   0.0800 
 46 H       -9.3260    -1.2840    -1.5120 H     1 <1>   0.0800 
 47 H      -10.3230    -2.1150    -0.3440 H     1 <1>   0.0800 
@<TRIPOS>BOND
  1   1   2  2   
  2   2   3  am  
  3   2   4  1   
  4   3   5  1   
  5   3  25  1   
  6   4   6  1   
  7   4  26  1   
  8   4  27  1   
  9   5   7  ar  
 10   5   8  ar  
 11   6   9  1   
 12   6  28  1   
 13   6  29  1   
 14   7  10  ar  
 15   7  30  1   
 16   8  11  ar  
 17   8  31  1   
 18   9  12  2   
 19   9  13  1   
 20  10  14  ar  
 21  10  32  1   
 22  11  14  ar  
 23  11  33  1   
 24  13  15  ar  
 25  13  16  ar  
 26  14  17  1   
 27  15  18  ar  
 28  15  34  1   
 29  16  19  ar  
 30  16  35  1   
 31  17  20  1   
 32  18  21  ar  
 33  18  36  1   
 34  19  21  ar  
 35  19  37  1   
 36  20  38  1   
 37  20  39  1   
 38  20  40  1   
 39  21  22  1   
 40  22  23  1   
 41  22  24  1   
 42  22  41  1   
 43  23  42  1   
 44  23  43  1   
 45  23  44  1   
 46  24  45  1   
 47  24  46  1   
 48  24  47  1   
@<TRIPOS>SUBSTRUCTURE
  1 ****   6 GROUP 4 **** **** 0

# MOE 2024.06 (io_trps.svl 2023.06)
