@<TRIPOS>MOLECULE
NONAME
31 31 1 0 0 
SMALL
USER_CHARGES


@<TRIPOS>ATOM
  1 F        4.1090    -3.9760    -0.8050 F     1 <1>  -0.1900 
  2 C        2.8560    -3.6960    -0.5790 C.ar  1 <1>   0.1900 
  3 C        1.9080    -4.0590    -1.5150 C.ar  1 <1>  -0.1500 
  4 C        2.5150    -3.0470     0.5910 C.ar  1 <1>  -0.1500 
  5 C        0.5810    -3.7550    -1.2670 C.ar  1 <1>  -0.1500 
  6 C        1.1830    -2.7500     0.8240 C.ar  1 <1>  -0.1500 
  7 C        0.1860    -3.0890    -0.1000 C.ar  1 <1>   0.0860 
  8 C       -1.2140    -2.7690     0.1300 C.2   1 <1>   0.5440 
  9 O       -2.1030    -3.4080    -0.3990 O.2   1 <1>  -0.5700 
 10 N       -1.5860    -1.7150     0.9210 N.am  1 <1>  -0.7300 
 11 C       -2.9330    -1.5020     1.5350 C.3   1 <1>   0.1400 
 12 C       -3.9270    -0.8150     0.5740 C.3   1 <1>   0.3430 
 13 N       -4.2260    -1.6710    -0.6140 N.4   1 <1>  -0.9590 
 14 C       -4.5250    -0.8740    -1.8370 C.3   1 <1>   0.2630 
 15 C       -5.2840    -2.6880    -0.3410 C.3   1 <1>   0.2630 
 16 H        2.2080    -4.5690    -2.4130 H     1 <1>   0.1500 
 17 H        3.2820    -2.7860     1.2990 H     1 <1>   0.1500 
 18 H       -0.1650    -4.0390    -1.9890 H     1 <1>   0.1500 
 19 H        0.9210    -2.2590     1.7430 H     1 <1>   0.1500 
 20 H       -0.8380    -1.1280     1.3010 H     1 <1>   0.3700 
 21 H       -2.8170    -0.8880     2.4120 H     1 <1>   0.0800 
 22 H       -3.3350    -2.4490     1.8550 H     1 <1>   0.0800 
 23 H       -3.4900     0.1160     0.2510 H     1 <1>   0.0800 
 24 H       -4.8410    -0.5880     1.0970 H     1 <1>   0.0800 
 25 H       -3.3480    -2.2190    -0.7790 H     1 <1>   0.4500 
 26 H       -5.4230    -0.2950    -1.6980 H     1 <1>   0.0800 
 27 H       -4.6610    -1.5290    -2.6830 H     1 <1>   0.0800 
 28 H       -3.7080    -0.2040    -2.0530 H     1 <1>   0.0800 
 29 H       -6.2220    -2.2070    -0.1150 H     1 <1>   0.0800 
 30 H       -4.9970    -3.3080     0.4930 H     1 <1>   0.0800 
 31 H       -5.4170    -3.3240    -1.2010 H     1 <1>   0.0800 
@<TRIPOS>BOND
  1   1   2  1   
  2   2   3  ar  
  3   2   4  ar  
  4   3   5  ar  
  5   3  16  1   
  6   4   6  ar  
  7   4  17  1   
  8   5   7  ar  
  9   5  18  1   
 10   6   7  ar  
 11   6  19  1   
 12   7   8  1   
 13   8   9  2   
 14   8  10  am  
 15  10  11  1   
 16  10  20  1   
 17  11  12  1   
 18  11  21  1   
 19  11  22  1   
 20  12  13  1   
 21  12  23  1   
 22  12  24  1   
 23  13  14  1   
 24  13  15  1   
 25  13  25  1   
 26  14  26  1   
 27  14  27  1   
 28  14  28  1   
 29  15  29  1   
 30  15  30  1   
 31  15  31  1   
@<TRIPOS>SUBSTRUCTURE
  1 ****   8 GROUP 4 **** **** 0

# MOE 2024.06 (io_trps.svl 2023.06)
