@<TRIPOS>MOLECULE
NONAME
53 55 1 0 0 
SMALL
USER_CHARGES


@<TRIPOS>ATOM
  1 O       -1.8130    -0.9310     1.8520 O.2   1 <1>  -0.5700 
  2 C       -2.4400    -1.3420     0.8960 C.2   1 <1>   0.7060 
  3 O       -3.7510    -1.1020     0.8820 O.3   1 <1>  -0.2320 
  4 C       -1.8540    -2.0480    -0.2130 C.2   1 <1>  -0.1240 
  5 C       -4.5520    -1.4640    -0.1390 C.ar  1 <1>   0.0820 
  6 C       -2.6240    -2.4560    -1.2590 C.2   1 <1>  -0.1670 
  7 C       -0.3460    -2.3090    -0.1160 C.3   1 <1>   0.0390 
  8 C       -4.0310    -2.1460    -1.2480 C.ar  1 <1>   0.0280 
  9 C       -5.8960    -1.1390    -0.0550 C.ar  1 <1>  -0.1500 
 10 C       -2.0870    -3.2480    -2.4550 C.3   1 <1>  -0.1020 
 11 C       -0.0610    -3.7070     0.3940 C.2   1 <1>   0.6590 
 12 C       -4.9310    -2.4740    -2.2700 C.ar  1 <1>  -0.1500 
 13 C       -6.7650    -1.4770    -1.0730 C.ar  1 <1>   0.0830 
 14 O        0.4930    -4.5240    -0.2960 O.2   1 <1>  -0.5700 
 15 O       -0.4570    -3.9770     1.6310 O.3   1 <1>  -0.4300 
 16 C       -6.2700    -2.1500    -2.1890 C.ar  1 <1>  -0.1500 
 17 O       -8.0610    -1.1250    -0.9190 O.3   1 <1>  -0.3630 
 18 C       -0.2580    -5.2460     2.2180 C.3   1 <1>   0.0400 
 19 C       -9.0410    -1.4250    -1.9070 C.3   1 <1>   0.1810 
 20 C      -10.4230    -0.9270    -1.4990 C.2   1 <1>   0.5690 
 21 O      -11.3470    -1.1210    -2.2520 O.2   1 <1>  -0.5700 
 22 N      -10.5800    -0.2850    -0.3120 N.am  1 <1>  -0.7300 
 23 C      -11.8400     0.2520     0.2220 C.3   1 <1>   0.2200 
 24 C      -11.6930     1.7650     0.4100 C.3   1 <1>  -0.1600 
 25 C      -12.1540    -0.4460     1.5480 C.3   1 <1>  -0.1600 
 26 C      -12.9450     2.3670     1.0660 C.3   1 <1>  -0.1600 
 27 C      -13.4070     0.1500     2.2070 C.3   1 <1>  -0.1600 
 28 C      -13.2660     1.6670     2.3940 C.3   1 <1>  -0.1600 
 29 H        0.1350    -1.6080     0.5400 H     1 <1>   0.0800 
 30 H        0.1170    -2.1860    -1.0760 H     1 <1>   0.0800 
 31 H       -6.2640    -0.6180     0.8100 H     1 <1>   0.1500 
 32 H       -2.1910    -2.6700    -3.3560 H     1 <1>   0.0800 
 33 H       -2.6420    -4.1640    -2.5640 H     1 <1>   0.0800 
 34 H       -1.0550    -3.5220    -2.3580 H     1 <1>   0.0800 
 35 H       -4.5870    -2.9910    -3.1460 H     1 <1>   0.1500 
 36 H       -6.9160    -2.4270    -3.0020 H     1 <1>   0.1500 
 37 H       -0.6580    -5.2250     3.2160 H     1 <1>   0.0800 
 38 H        0.7970    -5.4560     2.2440 H     1 <1>   0.0800 
 39 H       -0.7700    -5.9860     1.6280 H     1 <1>   0.0800 
 40 H       -9.0760    -2.4900    -2.0380 H     1 <1>   0.0800 
 41 H       -8.7540    -0.9490    -2.8260 H     1 <1>   0.0800 
 42 H       -9.7530    -0.1570     0.2740 H     1 <1>   0.3700 
 43 H      -12.6390     0.0600    -0.4760 H     1 <1>   0.0800 
 44 H      -11.5370     2.2280    -0.5480 H     1 <1>   0.0800 
 45 H      -10.8400     1.9700     1.0330 H     1 <1>   0.0800 
 46 H      -11.3210    -0.3370     2.2200 H     1 <1>   0.0800 
 47 H      -12.3130    -1.4950     1.3670 H     1 <1>   0.0800 
 48 H      -13.7820     2.2610     0.3970 H     1 <1>   0.0800 
 49 H      -12.7930     3.4180     1.2390 H     1 <1>   0.0800 
 50 H      -13.5710    -0.3190     3.1610 H     1 <1>   0.0800 
 51 H      -14.2650    -0.0540     1.5880 H     1 <1>   0.0800 
 52 H      -14.1800     2.0660     2.8000 H     1 <1>   0.0800 
 53 H      -12.4790     1.8670     3.1010 H     1 <1>   0.0800 
@<TRIPOS>BOND
  1   1   2  2   
  2   2   3  1   
  3   2   4  1   
  4   3   5  1   
  5   4   6  2   
  6   4   7  1   
  7   5   8  ar  
  8   5   9  ar  
  9   6   8  1   
 10   6  10  1   
 11   7  11  1   
 12   7  29  1   
 13   7  30  1   
 14   8  12  ar  
 15   9  13  ar  
 16   9  31  1   
 17  10  32  1   
 18  10  33  1   
 19  10  34  1   
 20  11  14  2   
 21  11  15  1   
 22  12  16  ar  
 23  12  35  1   
 24  13  16  ar  
 25  13  17  1   
 26  15  18  1   
 27  16  36  1   
 28  17  19  1   
 29  18  37  1   
 30  18  38  1   
 31  18  39  1   
 32  19  20  1   
 33  19  40  1   
 34  19  41  1   
 35  20  21  2   
 36  20  22  am  
 37  22  23  1   
 38  22  42  1   
 39  23  24  1   
 40  23  25  1   
 41  23  43  1   
 42  24  26  1   
 43  24  44  1   
 44  24  45  1   
 45  25  27  1   
 46  25  46  1   
 47  25  47  1   
 48  26  28  1   
 49  26  48  1   
 50  26  49  1   
 51  27  28  1   
 52  27  50  1   
 53  27  51  1   
 54  28  52  1   
 55  28  53  1   
@<TRIPOS>SUBSTRUCTURE
  1 ****   9 GROUP 4 **** **** 0

# MOE 2024.06 (io_trps.svl 2023.06)
