@<TRIPOS>MOLECULE
NONAME
36 37 1 0 0 
SMALL
USER_CHARGES


@<TRIPOS>ATOM
  1 S       -0.0750    -0.5640    -0.7770 S.o2  1 <1>   1.5010 
  2 O       -0.0670    -0.4480    -2.2160 O.2   1 <1>  -0.6500 
  3 O       -0.7980    -1.6370    -0.1320 O.2   1 <1>  -0.6500 
  4 N       -0.7380     0.8920    -0.2820 N.am  1 <1>  -0.9140 
  5 C        1.6000    -0.4820    -0.1350 C.2   1 <1>  -0.0630 
  6 C       -2.1830     0.8940    -0.2670 C.3   1 <1>   0.2760 
  7 C        2.0150    -1.1070     1.0330 C.2   1 <1>   0.1390 
  8 C        2.7140     0.1600    -0.5690 C.2   1 <1>  -0.3020 
  9 C       -2.6580     2.2690    -0.7500 C.3   1 <1>  -0.1600 
 10 C       -2.6760     0.6240     1.1600 C.3   1 <1>  -0.1600 
 11 N        3.2660    -0.8880     1.3040 N.2   1 <1>  -0.7070 
 12 N        3.7010    -0.0990     0.3080 N.pl3 1 <1>   0.3140 
 13 C       -4.1870     2.3930    -0.6660 C.3   1 <1>  -0.1600 
 14 C       -4.2050     0.7450     1.2570 C.3   1 <1>  -0.1600 
 15 C        5.0950     0.3840     0.2440 C.3   1 <1>   0.0960 
 16 C       -4.6870     2.1130     0.7570 C.3   1 <1>  -0.1600 
 17 C        5.1990     1.8410     0.7120 C.3   1 <1>  -0.2400 
 18 H       -0.4690     1.5150    -1.0370 H     1 <1>   0.4200 
 19 H       -2.5740     0.1420    -0.9360 H     1 <1>   0.0800 
 20 H        1.3700    -1.7110     1.6520 H     1 <1>   0.1500 
 21 H        2.8470     0.7740    -1.4410 H     1 <1>   0.1500 
 22 H       -2.3530     2.4200    -1.7710 H     1 <1>   0.0800 
 23 H       -2.2140     3.0370    -0.1400 H     1 <1>   0.0800 
 24 H       -2.2240     1.3330     1.8320 H     1 <1>   0.0800 
 25 H       -2.3850    -0.3640     1.4680 H     1 <1>   0.0800 
 26 H       -4.6410     1.6940    -1.3480 H     1 <1>   0.0800 
 27 H       -4.4860     3.3840    -0.9640 H     1 <1>   0.0800 
 28 H       -4.5120     0.6050     2.2790 H     1 <1>   0.0800 
 29 H       -4.6600    -0.0330     0.6680 H     1 <1>   0.0800 
 30 H        5.4430     0.2900    -0.7680 H     1 <1>   0.0800 
 31 H        5.6970    -0.2470     0.8740 H     1 <1>   0.0800 
 32 H       -5.7630     2.1440     0.7750 H     1 <1>   0.0800 
 33 H       -4.3250     2.8810     1.4190 H     1 <1>   0.0800 
 34 H        4.6130     2.4830     0.0800 H     1 <1>   0.0800 
 35 H        6.2240     2.1640     0.6750 H     1 <1>   0.0800 
 36 H        4.8510     1.9260     1.7280 H     1 <1>   0.0800 
@<TRIPOS>BOND
  1   1   2  2   
  2   1   3  2   
  3   1   4  am  
  4   1   5  1   
  5   4   6  1   
  6   4  18  1   
  7   5   7  1   
  8   5   8  2   
  9   6   9  1   
 10   6  10  1   
 11   6  19  1   
 12   7  11  2   
 13   7  20  1   
 14   8  12  1   
 15   8  21  1   
 16   9  13  1   
 17   9  22  1   
 18   9  23  1   
 19  10  14  1   
 20  10  24  1   
 21  10  25  1   
 22  11  12  1   
 23  12  15  1   
 24  13  16  1   
 25  13  26  1   
 26  13  27  1   
 27  14  16  1   
 28  14  28  1   
 29  14  29  1   
 30  15  17  1   
 31  15  30  1   
 32  15  31  1   
 33  16  32  1   
 34  16  33  1   
 35  17  34  1   
 36  17  35  1   
 37  17  36  1   
@<TRIPOS>SUBSTRUCTURE
  1 ****   4 GROUP 4 **** **** 0

# MOE 2024.06 (io_trps.svl 2023.06)
