@<TRIPOS>MOLECULE
NONAME
43 45 1 0 0 
SMALL
USER_CHARGES


@<TRIPOS>ATOM
  1 O       -1.5130     0.4030    -0.7050 O.3   1 <1>  -0.2800 
  2 C       -1.6730     1.1830     0.3490 C.2   1 <1>  -0.0400 
  3 C       -0.4210     0.7980    -1.3300 C.2   1 <1>  -0.0100 
  4 C       -0.6840     2.1020     0.4130 C.2   1 <1>  -0.1500 
  5 C       -2.8730     0.9390     1.2430 C.3   1 <1>   0.5230 
  6 C        0.1390     1.8470    -0.6910 C.2   1 <1>  -0.1500 
  7 N       -4.0810     0.8610     0.3810 N.4   1 <1>  -0.9590 
  8 C       -4.3780     2.1780    -0.2930 C.3   1 <1>   0.3430 
  9 C       -5.2850     0.3250     1.1100 C.3   1 <1>   0.3430 
 10 C       -5.6130     2.1140    -1.2170 C.3   1 <1>   0.2090 
 11 C       -6.5190     0.1990     0.1940 C.3   1 <1>   0.2090 
 12 N       -6.7780     1.4680    -0.5430 N.pl3 1 <1>  -0.8380 
 13 C       -7.8360     2.2620    -0.0970 C.ar  1 <1>   0.1000 
 14 C       -9.1390     2.0790    -0.5730 C.ar  1 <1>  -0.1430 
 15 C       -7.5950     3.2430     0.8590 C.ar  1 <1>  -0.1500 
 16 C      -10.1760     2.8600    -0.0680 C.ar  1 <1>  -0.1430 
 17 C       -9.4210     1.0210    -1.6420 C.3   1 <1>  -0.0970 
 18 C       -8.6200     4.0250     1.3470 C.ar  1 <1>  -0.1500 
 19 C       -9.9070     3.8310     0.8850 C.ar  1 <1>  -0.1500 
 20 C      -11.6180     2.6900    -0.5260 C.3   1 <1>  -0.0970 
 21 H       -0.1090     0.2790    -2.2220 H     1 <1>   0.1500 
 22 H       -0.5110     2.8820     1.1350 H     1 <1>   0.1500 
 23 H       -2.9690     1.7320     1.9660 H     1 <1>   0.0800 
 24 H       -2.7320     0.0070     1.7640 H     1 <1>   0.0800 
 25 H        1.0320     2.3910    -0.9480 H     1 <1>   0.1500 
 26 H       -3.8280     0.2030    -0.3710 H     1 <1>   0.4500 
 27 H       -3.5270     2.4930    -0.8750 H     1 <1>   0.0800 
 28 H       -4.5600     2.9310     0.4550 H     1 <1>   0.0800 
 29 H       -5.5410     0.9870     1.9210 H     1 <1>   0.0800 
 30 H       -5.0630    -0.6430     1.5290 H     1 <1>   0.0800 
 31 H       -5.3710     1.5570    -2.1050 H     1 <1>   0.0800 
 32 H       -5.8840     3.1100    -1.5240 H     1 <1>   0.0800 
 33 H       -7.3820    -0.0500     0.7900 H     1 <1>   0.0800 
 34 H       -6.3720    -0.5970    -0.5140 H     1 <1>   0.0800 
 35 H       -6.6030     3.3980     1.2310 H     1 <1>   0.1500 
 36 H       -8.5490     0.8230    -2.2370 H     1 <1>   0.0800 
 37 H      -10.1900     1.3470    -2.3170 H     1 <1>   0.0800 
 38 H       -9.7330     0.1060    -1.1720 H     1 <1>   0.0800 
 39 H       -8.4270     4.7830     2.0850 H     1 <1>   0.1500 
 40 H      -10.7020     4.4430     1.2750 H     1 <1>   0.1500 
 41 H      -11.9030     1.6540    -0.4860 H     1 <1>   0.0800 
 42 H      -11.7270     3.0480    -1.5340 H     1 <1>   0.0800 
 43 H      -12.2920     3.2430     0.1030 H     1 <1>   0.0800 
@<TRIPOS>BOND
  1   1   2  1   
  2   1   3  1   
  3   2   4  2   
  4   2   5  1   
  5   3   6  2   
  6   3  21  1   
  7   4   6  1   
  8   4  22  1   
  9   5   7  1   
 10   5  23  1   
 11   5  24  1   
 12   6  25  1   
 13   7   8  1   
 14   7   9  1   
 15   7  26  1   
 16   8  10  1   
 17   8  27  1   
 18   8  28  1   
 19   9  11  1   
 20   9  29  1   
 21   9  30  1   
 22  10  12  1   
 23  10  31  1   
 24  10  32  1   
 25  11  12  1   
 26  11  33  1   
 27  11  34  1   
 28  12  13  1   
 29  13  14  ar  
 30  13  15  ar  
 31  14  16  ar  
 32  14  17  1   
 33  15  18  ar  
 34  15  35  1   
 35  16  19  ar  
 36  16  20  1   
 37  17  36  1   
 38  17  37  1   
 39  17  38  1   
 40  18  19  ar  
 41  18  39  1   
 42  19  40  1   
 43  20  41  1   
 44  20  42  1   
 45  20  43  1   
@<TRIPOS>SUBSTRUCTURE
  1 ****  10 GROUP 4 **** **** 0

# MOE 2024.06 (io_trps.svl 2023.06)
