@<TRIPOS>MOLECULE
NONAME
40 42 1 0 0 
SMALL
USER_CHARGES


@<TRIPOS>ATOM
  1 O       -0.1020    -0.4600    -1.1520 O.2   1 <1>  -0.5700 
  2 C       -0.2560    -1.6570    -1.0430 C.2   1 <1>   0.4950 
  3 C       -1.2460    -2.2800    -0.2330 C.2   1 <1>  -0.1240 
  4 C        0.6400    -2.5440    -1.8730 C.3   1 <1>  -0.0990 
  5 C       -1.2930    -3.6330    -0.0660 C.2   1 <1>  -0.0380 
  6 C       -2.2630    -1.3360     0.4120 C.3   1 <1>  -0.0220 
  7 C        0.9490    -3.8380    -1.1320 C.3   1 <1>   0.2090 
  8 N       -0.2990    -4.4530    -0.5800 N.pl3 1 <1>  -0.8380 
  9 C       -2.4330    -4.2960     0.7130 C.3   1 <1>  -0.0220 
 10 C       -3.0910    -2.0060     1.5110 C.3   1 <1>  -0.1600 
 11 C       -0.2500    -5.9480    -0.4520 C.3   1 <1>   0.4330 
 12 C       -3.6050    -3.3580     1.0210 C.3   1 <1>  -0.1600 
 13 C        1.1210    -6.4130     0.0610 C.ar  1 <1>  -0.1440 
 14 C       -0.6810    -6.5420    -1.7920 C.3   1 <1>  -0.2400 
 15 C        1.4970    -6.0300     1.3420 C.ar  1 <1>  -0.1500 
 16 C        2.0010    -7.1930    -0.6830 C.ar  1 <1>  -0.1500 
 17 C        2.7160    -6.4140     1.8710 C.ar  1 <1>  -0.1500 
 18 C        3.2220    -7.5780    -0.1560 C.ar  1 <1>  -0.1500 
 19 C        3.5810    -7.1900     1.1220 C.ar  1 <1>  -0.1500 
 20 H        1.5560    -2.0290    -2.0950 H     1 <1>   0.0800 
 21 H        0.1430    -2.7700    -2.7960 H     1 <1>   0.0800 
 22 H       -2.9180    -0.9670    -0.3580 H     1 <1>   0.0800 
 23 H       -1.7530    -0.4880     0.8380 H     1 <1>   0.0800 
 24 H        1.6200    -3.6340    -0.3150 H     1 <1>   0.0800 
 25 H        1.4380    -4.5190    -1.8070 H     1 <1>   0.0800 
 26 H       -2.0330    -4.6730     1.6380 H     1 <1>   0.0800 
 27 H       -2.8230    -5.1240     0.1490 H     1 <1>   0.0800 
 28 H       -3.9160    -1.3700     1.7810 H     1 <1>   0.0800 
 29 H       -2.4780    -2.1500     2.3840 H     1 <1>   0.0800 
 30 H       -0.9620    -6.2740     0.2830 H     1 <1>   0.0800 
 31 H       -4.2400    -3.8050     1.7650 H     1 <1>   0.0800 
 32 H       -4.1880    -3.2130     0.1270 H     1 <1>   0.0800 
 33 H       -0.0090    -6.2460    -2.5750 H     1 <1>   0.0800 
 34 H       -1.6700    -6.1980    -2.0340 H     1 <1>   0.0800 
 35 H       -0.7000    -7.6140    -1.7270 H     1 <1>   0.0800 
 36 H        0.8330    -5.4180     1.9290 H     1 <1>   0.1500 
 37 H        1.7550    -7.5120    -1.6800 H     1 <1>   0.1500 
 38 H        2.9910    -6.1070     2.8650 H     1 <1>   0.1500 
 39 H        3.8930    -8.1810    -0.7410 H     1 <1>   0.1500 
 40 H        4.5290    -7.4900     1.5310 H     1 <1>   0.1500 
@<TRIPOS>BOND
  1   1   2  2   
  2   2   3  1   
  3   2   4  1   
  4   3   5  2   
  5   3   6  1   
  6   4   7  1   
  7   4  20  1   
  8   4  21  1   
  9   5   8  1   
 10   5   9  1   
 11   6  10  1   
 12   6  22  1   
 13   6  23  1   
 14   7   8  1   
 15   7  24  1   
 16   7  25  1   
 17   8  11  1   
 18   9  12  1   
 19   9  26  1   
 20   9  27  1   
 21  10  12  1   
 22  10  28  1   
 23  10  29  1   
 24  11  13  1   
 25  11  14  1   
 26  11  30  1   
 27  12  31  1   
 28  12  32  1   
 29  13  15  ar  
 30  13  16  ar  
 31  14  33  1   
 32  14  34  1   
 33  14  35  1   
 34  15  17  ar  
 35  15  36  1   
 36  16  18  ar  
 37  16  37  1   
 38  17  19  ar  
 39  17  38  1   
 40  18  19  ar  
 41  18  39  1   
 42  19  40  1   
@<TRIPOS>SUBSTRUCTURE
  1 ****   8 GROUP 4 **** **** 0

# MOE 2024.06 (io_trps.svl 2023.06)
