@<TRIPOS>MOLECULE
NONAME
31 30 1 0 0 
SMALL
USER_CHARGES


@<TRIPOS>ATOM
  1 F       -0.7420     0.6400    -1.3990 F     1 <1>  -0.3400 
  2 C        0.3830     0.8140    -0.7150 C.3   1 <1>   1.0200 
  3 F        1.3520     0.4130    -1.5340 F     1 <1>  -0.3400 
  4 F        0.3470    -0.1040     0.2470 F     1 <1>  -0.3400 
  5 C        0.5590     2.2710    -0.1410 C.3   1 <1>   0.5800 
  6 O        1.7180     2.4280     0.6870 O.3   1 <1>  -0.5600 
  7 N       -0.4720     2.6250     0.9030 N.am  1 <1>  -0.7300 
  8 C        0.5790     3.2350    -1.3920 C.3   1 <1>   1.0200 
  9 C        2.9950     2.0770     0.2390 C.3   1 <1>   0.1200 
 10 C       -1.6760     3.1830     0.6660 C.2   1 <1>   0.5690 
 11 F       -0.5640     3.2620    -2.0700 F     1 <1>  -0.3400 
 12 F        1.5100     2.9460    -2.2980 F     1 <1>  -0.3400 
 13 F        0.8170     4.4980    -1.0530 F     1 <1>  -0.3400 
 14 C        3.9860     2.5010     1.3210 C.3   1 <1>  -0.1600 
 15 O       -1.8360     4.3460     0.9190 O.2   1 <1>  -0.5700 
 16 C       -2.8220     2.3580     0.0960 C.3   1 <1>  -0.0990 
 17 C        5.4250     2.1540     0.9240 C.3   1 <1>  -0.2400 
 18 C       -4.1710     2.6440     0.7770 C.3   1 <1>  -0.2400 
 19 H        0.0400     3.1200     1.6380 H     1 <1>   0.3700 
 20 H        3.2240     2.5890    -0.6780 H     1 <1>   0.0800 
 21 H        3.0500     1.0100     0.1010 H     1 <1>   0.0800 
 22 H        3.7430     2.0010     2.2430 H     1 <1>   0.0800 
 23 H        3.9100     3.5640     1.4760 H     1 <1>   0.0800 
 24 H       -2.6020     1.3140     0.2190 H     1 <1>   0.0800 
 25 H       -2.9090     2.5670    -0.9540 H     1 <1>   0.0800 
 26 H        5.5320     1.0930     0.7810 H     1 <1>   0.0800 
 27 H        6.1030     2.4620     1.7010 H     1 <1>   0.0800 
 28 H        5.6990     2.6580     0.0140 H     1 <1>   0.0800 
 29 H       -4.1050     2.4440     1.8320 H     1 <1>   0.0800 
 30 H       -4.9410     2.0240     0.3540 H     1 <1>   0.0800 
 31 H       -4.4450     3.6760     0.6410 H     1 <1>   0.0800 
@<TRIPOS>BOND
  1   1   2  1   
  2   2   3  1   
  3   2   4  1   
  4   2   5  1   
  5   5   6  1   
  6   5   7  1   
  7   5   8  1   
  8   6   9  1   
  9   7  10  am  
 10   7  19  1   
 11   8  11  1   
 12   8  12  1   
 13   8  13  1   
 14   9  14  1   
 15   9  20  1   
 16   9  21  1   
 17  10  15  2   
 18  10  16  1   
 19  14  17  1   
 20  14  22  1   
 21  14  23  1   
 22  16  18  1   
 23  16  24  1   
 24  16  25  1   
 25  17  26  1   
 26  17  27  1   
 27  17  28  1   
 28  18  29  1   
 29  18  30  1   
 30  18  31  1   
@<TRIPOS>SUBSTRUCTURE
  1 ****   5 GROUP 4 **** **** 0

# MOE 2024.06 (io_trps.svl 2023.06)
