@<TRIPOS>MOLECULE
NONAME
43 46 1 0 0 
SMALL
USER_CHARGES


@<TRIPOS>ATOM
  1 S        0.1680    -0.3150    -0.6190 S.3   1 <1>  -0.0800 
  2 C       -1.0100    -1.6200    -0.4580 C.ar  1 <1>   0.2970 
  3 C       -1.0460     0.8820    -0.1820 C.2   1 <1>  -0.1400 
  4 N       -0.6870    -2.8820    -0.6450 N.ar  1 <1>  -0.5670 
  5 C       -2.2490    -1.1280    -0.1180 C.ar  1 <1>   0.0000 
  6 C       -2.2350     0.3090     0.0580 C.2   1 <1>  -0.1810 
  7 C       -0.6720     2.3450    -0.0970 C.3   1 <1>   0.0200 
  8 C       -1.7090    -3.6940    -0.4620 C.ar  1 <1>   0.4770 
  9 C       -3.2440    -2.1060    -0.0010 C.ar  1 <1>   0.4100 
 10 C       -3.4270     1.1440     0.5010 C.3   1 <1>   0.0210 
 11 C       -1.9540     3.1880     0.0360 C.3   1 <1>  -0.1600 
 12 N       -2.9540    -3.3880    -0.1420 N.ar  1 <1>  -0.6200 
 13 C       -1.4370    -5.1680    -0.6400 C.3   1 <1>  -0.0960 
 14 N       -4.5660    -1.7980     0.2380 N.pl3 1 <1>  -0.8380 
 15 C       -2.9770     2.5360     0.9900 C.3   1 <1>  -0.1600 
 16 C       -5.3680    -1.2000    -0.8650 C.3   1 <1>   0.2090 
 17 C       -5.3430    -2.5660     1.2530 C.3   1 <1>   0.2090 
 18 C       -6.2900    -2.2370    -1.5090 C.3   1 <1>  -0.1600 
 19 C       -6.2790    -3.5840     0.5940 C.3   1 <1>  -0.1600 
 20 C       -7.1860    -2.9280    -0.4620 C.3   1 <1>  -0.1860 
 21 C       -8.1770    -3.9260    -1.0560 C.2   1 <1>   0.9060 
 22 O       -8.0320    -4.3330    -2.2150 O.co2 1 <1>  -0.9000 
 23 O       -9.1240    -4.2850    -0.3470 O.co2 1 <1>  -0.9000 
 24 H       -0.1260     2.6410    -0.9750 H     1 <1>   0.0800 
 25 H       -0.0430     2.4910     0.7640 H     1 <1>   0.0800 
 26 H       -3.9500     0.6400     1.2940 H     1 <1>   0.0800 
 27 H       -4.0970     1.2570    -0.3310 H     1 <1>   0.0800 
 28 H       -2.4050     3.2880    -0.9360 H     1 <1>   0.0800 
 29 H       -1.7000     4.1730     0.3850 H     1 <1>   0.0800 
 30 H       -0.4690    -5.3250    -1.0790 H     1 <1>   0.0800 
 31 H       -2.1860    -5.5950    -1.2800 H     1 <1>   0.0800 
 32 H       -1.4740    -5.6530     0.3170 H     1 <1>   0.0800 
 33 H       -2.5270     2.4320     1.9620 H     1 <1>   0.0800 
 34 H       -3.8380     3.1720     1.0930 H     1 <1>   0.0800 
 35 H       -4.7110    -0.7980    -1.6160 H     1 <1>   0.0800 
 36 H       -5.9620    -0.3970    -0.4660 H     1 <1>   0.0800 
 37 H       -5.9240    -1.8750     1.8380 H     1 <1>   0.0800 
 38 H       -4.6670    -3.0790     1.9160 H     1 <1>   0.0800 
 39 H       -5.6920    -2.9770    -2.0130 H     1 <1>   0.0800 
 40 H       -6.9090    -1.7620    -2.2490 H     1 <1>   0.0800 
 41 H       -6.8900    -4.0480     1.3480 H     1 <1>   0.0800 
 42 H       -5.6910    -4.3570     0.1310 H     1 <1>   0.0800 
 43 H       -7.7830    -2.1780     0.0220 H     1 <1>   0.0800 
@<TRIPOS>BOND
  1   1   2  1   
  2   1   3  1   
  3   2   4  ar  
  4   2   5  ar  
  5   3   6  2   
  6   3   7  1   
  7   4   8  ar  
  8   5   6  1   
  9   5   9  ar  
 10   6  10  1   
 11   7  11  1   
 12   7  24  1   
 13   7  25  1   
 14   8  12  ar  
 15   8  13  1   
 16   9  12  ar  
 17   9  14  1   
 18  10  15  1   
 19  10  26  1   
 20  10  27  1   
 21  11  15  1   
 22  11  28  1   
 23  11  29  1   
 24  13  30  1   
 25  13  31  1   
 26  13  32  1   
 27  14  16  1   
 28  14  17  1   
 29  15  33  1   
 30  15  34  1   
 31  16  18  1   
 32  16  35  1   
 33  16  36  1   
 34  17  19  1   
 35  17  37  1   
 36  17  38  1   
 37  18  20  1   
 38  18  39  1   
 39  18  40  1   
 40  19  20  1   
 41  19  41  1   
 42  19  42  1   
 43  20  21  1   
 44  20  43  1   
 45  21  22  ar  
 46  21  23  ar  
@<TRIPOS>SUBSTRUCTURE
  1 ****   9 GROUP 4 **** **** 0

# MOE 2024.06 (io_trps.svl 2023.06)
