@<TRIPOS>MOLECULE
NONAME
38 40 1 0 0 
SMALL
USER_CHARGES


@<TRIPOS>ATOM
  1 O        3.4550     1.9680    -2.3520 O.co2 1 <1>  -0.9000 
  2 C        3.7910     0.8370    -1.9960 C.2   1 <1>   0.9060 
  3 O        4.8470     0.3220    -2.3870 O.co2 1 <1>  -0.9000 
  4 C        2.8860     0.0890    -1.0330 C.3   1 <1>  -0.1860 
  5 C        3.1830     0.2820     0.5020 C.3   1 <1>  -0.0190 
  6 C        2.7690    -1.4200    -1.3720 C.3   1 <1>   0.0580 
  7 C        4.4840     0.9820     0.9140 C.2   1 <1>   0.5690 
  8 C        3.0900    -1.0860     1.2290 C.3   1 <1>   0.0580 
  9 C        3.9600    -2.1450    -0.7560 C.2   1 <1>  -0.2880 
 10 C        1.5370    -1.9520    -0.6030 C.3   1 <1>  -0.1600 
 11 O        4.4610     1.6850     1.9000 O.2   1 <1>  -0.5700 
 12 N        5.6310     0.7960     0.2240 N.am  1 <1>  -0.7300 
 13 C        4.1140    -1.9920     0.5610 C.2   1 <1>  -0.2880 
 14 C        1.7040    -1.7060     0.9250 C.3   1 <1>  -0.1600 
 15 C        6.8260     1.6310     0.3500 C.3   1 <1>   0.2840 
 16 C        8.0310     0.8630    -0.1670 C.ar  1 <1>  -0.1440 
 17 C        9.1000     0.5300     0.6400 C.ar  1 <1>  -0.1500 
 18 C        8.1130     0.4570    -1.4830 C.ar  1 <1>  -0.1500 
 19 C       10.1720    -0.1650     0.1030 C.ar  1 <1>   0.1600 
 20 C        9.2290    -0.2360    -1.9190 C.ar  1 <1>   0.1600 
 21 N       10.2680    -0.5530    -1.1590 N.ar  1 <1>  -0.6200 
 22 H        1.9180     0.5170    -1.2150 H     1 <1>   0.0800 
 23 H        2.3980     0.9050     0.8880 H     1 <1>   0.0800 
 24 H        2.6900    -1.5910    -2.4320 H     1 <1>   0.0800 
 25 H        3.2640    -0.9870     2.2870 H     1 <1>   0.0800 
 26 H        4.5840    -2.7070    -1.4270 H     1 <1>   0.1500 
 27 H        1.4420    -3.0070    -0.7880 H     1 <1>   0.0800 
 28 H        0.6430    -1.4720    -0.9610 H     1 <1>   0.0800 
 29 H        5.5430     0.3430    -0.7090 H     1 <1>   0.3700 
 30 H        4.8860    -2.4120     1.1810 H     1 <1>   0.1500 
 31 H        0.9290    -1.0500     1.2790 H     1 <1>   0.0800 
 32 H        1.6140    -2.6410     1.4480 H     1 <1>   0.0800 
 33 H        6.9640     1.9110     1.3800 H     1 <1>   0.0800 
 34 H        6.6860     2.5230    -0.2360 H     1 <1>   0.0800 
 35 H        9.1050     0.8020     1.6790 H     1 <1>   0.1500 
 36 H        7.3110     0.6710    -2.1710 H     1 <1>   0.1500 
 37 H       10.9950    -0.4150     0.7480 H     1 <1>   0.1500 
 38 H        9.2610    -0.5450    -2.9500 H     1 <1>   0.1500 
@<TRIPOS>BOND
  1   1   2  ar  
  2   2   3  ar  
  3   2   4  1   
  4   4   5  1   
  5   4   6  1   
  6   4  22  1   
  7   5   7  1   
  8   5   8  1   
  9   5  23  1   
 10   6   9  1   
 11   6  10  1   
 12   6  24  1   
 13   7  11  2   
 14   7  12  am  
 15   8  13  1   
 16   8  14  1   
 17   8  25  1   
 18   9  13  2   
 19   9  26  1   
 20  10  14  1   
 21  10  27  1   
 22  10  28  1   
 23  12  15  1   
 24  12  29  1   
 25  13  30  1   
 26  14  31  1   
 27  14  32  1   
 28  15  16  1   
 29  15  33  1   
 30  15  34  1   
 31  16  17  ar  
 32  16  18  ar  
 33  17  19  ar  
 34  17  35  1   
 35  18  20  ar  
 36  18  36  1   
 37  19  21  ar  
 38  19  37  1   
 39  20  21  ar  
 40  20  38  1   
@<TRIPOS>SUBSTRUCTURE
  1 ****  12 GROUP 4 **** **** 0

# MOE 2024.06 (io_trps.svl 2023.06)
