@<TRIPOS>MOLECULE
NONAME
40 41 1 0 0 
SMALL
USER_CHARGES


@<TRIPOS>ATOM
  1 S        0.3460    -0.9140     0.2940 S.o2  1 <1>   1.4470 
  2 O        1.4550    -0.5560     1.1510 O.2   1 <1>  -0.6500 
  3 O       -0.2770    -2.2030     0.4840 O.2   1 <1>  -0.6500 
  4 N        0.9760    -1.0940    -1.2500 N.am  1 <1>  -0.9140 
  5 C       -0.8450     0.4760     0.1570 C.ar  1 <1>  -0.0090 
  6 C        2.2020    -1.9240    -1.3010 C.3   1 <1>   0.2570 
  7 C       -0.4560     1.7030    -0.4040 C.ar  1 <1>  -0.1430 
  8 C       -2.1660     0.3700     0.6180 C.ar  1 <1>  -0.1430 
  9 C        3.5300    -1.1490    -1.2910 C.2   1 <1>   0.5690 
 10 C       -1.3620     2.7440    -0.5340 C.ar  1 <1>  -0.1500 
 11 C        0.9630     1.9820    -0.8960 C.3   1 <1>  -0.0960 
 12 C       -3.0550     1.4250     0.4780 C.ar  1 <1>  -0.1500 
 13 C       -2.7110    -0.8810     1.3000 C.3   1 <1>  -0.0960 
 14 O        4.2800    -1.2850    -2.2310 O.2   1 <1>  -0.5700 
 15 N        3.8370    -0.3530    -0.2320 N.am  1 <1>  -0.5790 
 16 C       -2.6640     2.6140    -0.0990 C.ar  1 <1>  -0.1430 
 17 C        5.0490     0.4580    -0.0710 C.3   1 <1>   0.0490 
 18 C       -3.6480     3.7600    -0.2510 C.3   1 <1>  -0.0970 
 19 C        5.6180     0.5990     1.3010 C.3   1 <1>  -0.2000 
 20 C        4.9270     1.7590     0.6490 C.3   1 <1>  -0.2000 
 21 H        0.2470    -1.6280    -1.7210 H     1 <1>   0.4200 
 22 H        2.1830    -2.4870    -2.2180 H     1 <1>   0.0800 
 23 H        2.2090    -2.6360    -0.4940 H     1 <1>   0.0800 
 24 H       -1.0540     3.6740    -0.9790 H     1 <1>   0.1500 
 25 H        1.1390     1.4870    -1.8340 H     1 <1>   0.0800 
 26 H        1.6920     1.6540    -0.1800 H     1 <1>   0.0800 
 27 H        1.1190     3.0350    -1.0470 H     1 <1>   0.0800 
 28 H       -4.0690     1.3270     0.8240 H     1 <1>   0.1500 
 29 H       -2.8070    -1.6820     0.5880 H     1 <1>   0.0800 
 30 H       -3.6820    -0.7030     1.7270 H     1 <1>   0.0800 
 31 H       -2.0610    -1.1910     2.0980 H     1 <1>   0.0800 
 32 H        3.1470    -0.2740     0.5300 H     1 <1>   0.3700 
 33 H        5.7260     0.3880    -0.9090 H     1 <1>   0.1000 
 34 H       -3.1360     4.7040    -0.2090 H     1 <1>   0.0800 
 35 H       -4.3780     3.7370     0.5380 H     1 <1>   0.0800 
 36 H       -4.1550     3.6810    -1.1960 H     1 <1>   0.0800 
 37 H        6.6870     0.6400     1.4140 H     1 <1>   0.1000 
 38 H        5.1330     0.0910     2.1160 H     1 <1>   0.1000 
 39 H        3.9650     2.0620     1.0220 H     1 <1>   0.1000 
 40 H        5.5270     2.5890     0.3200 H     1 <1>   0.1000 
@<TRIPOS>BOND
  1   1   2  2   
  2   1   3  2   
  3   1   4  am  
  4   1   5  1   
  5   4   6  1   
  6   4  21  1   
  7   5   7  ar  
  8   5   8  ar  
  9   6   9  1   
 10   6  22  1   
 11   6  23  1   
 12   7  10  ar  
 13   7  11  1   
 14   8  12  ar  
 15   8  13  1   
 16   9  14  2   
 17   9  15  am  
 18  10  16  ar  
 19  10  24  1   
 20  11  25  1   
 21  11  26  1   
 22  11  27  1   
 23  12  16  ar  
 24  12  28  1   
 25  13  29  1   
 26  13  30  1   
 27  13  31  1   
 28  15  17  1   
 29  15  32  1   
 30  16  18  1   
 31  17  19  1   
 32  17  20  1   
 33  17  33  1   
 34  18  34  1   
 35  18  35  1   
 36  18  36  1   
 37  19  20  1   
 38  19  37  1   
 39  19  38  1   
 40  20  39  1   
 41  20  40  1   
@<TRIPOS>SUBSTRUCTURE
  1 ****   1 GROUP 4 **** **** 0

# MOE 2024.06 (io_trps.svl 2023.06)
