@<TRIPOS>MOLECULE
NONAME
46 47 1 0 0 
SMALL
USER_CHARGES


@<TRIPOS>ATOM
  1 O       -0.1380    -1.0750     2.3120 O.2   1 <1>  -0.5700 
  2 C       -0.1650    -1.7650     1.3230 C.2   1 <1>   0.5690 
  3 N        0.8820    -1.8830     0.4450 N.am  1 <1>  -0.5470 
  4 C       -1.4480    -2.5510     1.0170 C.3   1 <1>   0.1710 
  5 C        2.1210    -1.2230     0.3800 C.ar  1 <1>   0.1170 
  6 N       -2.5560    -1.7320     0.4400 N.3   1 <1>  -0.8100 
  7 C        3.1140    -1.7650    -0.4280 C.ar  1 <1>  -0.1500 
  8 C        2.3990    -0.0450     1.0650 C.ar  1 <1>  -0.1500 
  9 C       -2.1880    -0.9910    -0.7920 C.3   1 <1>   0.1100 
 10 C       -3.8090    -2.4960     0.2600 C.3   1 <1>   0.1100 
 11 C        4.3500    -1.1560    -0.5540 C.ar  1 <1>  -0.1430 
 12 C        3.6310     0.5760     0.9490 C.ar  1 <1>  -0.1430 
 13 C       -3.3530    -0.1140    -1.3170 C.3   1 <1>   0.3430 
 14 C       -4.9810    -1.5890    -0.1950 C.3   1 <1>   0.3430 
 15 C        4.6030     0.0160     0.1380 C.ar  1 <1>  -0.1500 
 16 C        5.4280    -1.7570    -1.4380 C.3   1 <1>  -0.0970 
 17 C        3.9240     1.8590     1.7060 C.3   1 <1>  -0.0970 
 18 N       -4.5290    -0.1670    -0.3870 N.4   1 <1>  -0.9590 
 19 C       -5.6020     0.7890    -0.7510 C.3   1 <1>   0.3430 
 20 C       -6.5570     0.9630     0.4230 C.3   1 <1>  -0.2400 
 21 H        0.7720    -2.5960    -0.2700 H     1 <1>   0.3700 
 22 H       -1.7830    -2.9780     1.9460 H     1 <1>   0.0800 
 23 H       -1.2140    -3.3620     0.3500 H     1 <1>   0.0800 
 24 H        2.9210    -2.6750    -0.9640 H     1 <1>   0.1500 
 25 H        1.6510     0.3970     1.6950 H     1 <1>   0.1500 
 26 H       -1.8870    -1.6800    -1.5630 H     1 <1>   0.0800 
 27 H       -1.3500    -0.3450    -0.5870 H     1 <1>   0.0800 
 28 H       -4.0800    -2.9650     1.1920 H     1 <1>   0.0800 
 29 H       -3.6620    -3.2780    -0.4660 H     1 <1>   0.0800 
 30 H       -3.6430    -0.4580    -2.2960 H     1 <1>   0.0800 
 31 H       -3.0060     0.9010    -1.4140 H     1 <1>   0.0800 
 32 H       -5.7550    -1.6290     0.5530 H     1 <1>   0.0800 
 33 H       -5.3930    -1.9730    -1.1130 H     1 <1>   0.0800 
 34 H        5.5620     0.4960     0.0460 H     1 <1>   0.1500 
 35 H        5.2140    -2.7880    -1.6560 H     1 <1>   0.0800 
 36 H        6.3820    -1.7060    -0.9450 H     1 <1>   0.0800 
 37 H        5.4850    -1.2120    -2.3630 H     1 <1>   0.0800 
 38 H        3.0170     2.2950     2.0840 H     1 <1>   0.0800 
 39 H        4.4000     2.5720     1.0560 H     1 <1>   0.0800 
 40 H        4.5780     1.6500     2.5330 H     1 <1>   0.0800 
 41 H       -4.1240     0.0900     0.5290 H     1 <1>   0.4500 
 42 H       -6.1380     0.4360    -1.6180 H     1 <1>   0.0800 
 43 H       -5.1660     1.7460    -0.9900 H     1 <1>   0.0800 
 44 H       -7.0950     0.0570     0.6320 H     1 <1>   0.0800 
 45 H       -7.2800     1.7220     0.1790 H     1 <1>   0.0800 
 46 H       -6.0270     1.2830     1.3030 H     1 <1>   0.0800 
@<TRIPOS>BOND
  1   1   2  2   
  2   2   3  am  
  3   2   4  1   
  4   3   5  1   
  5   3  21  1   
  6   4   6  1   
  7   4  22  1   
  8   4  23  1   
  9   5   7  ar  
 10   5   8  ar  
 11   6   9  1   
 12   6  10  1   
 13   7  11  ar  
 14   7  24  1   
 15   8  12  ar  
 16   8  25  1   
 17   9  13  1   
 18   9  26  1   
 19   9  27  1   
 20  10  14  1   
 21  10  28  1   
 22  10  29  1   
 23  11  15  ar  
 24  11  16  1   
 25  12  15  ar  
 26  12  17  1   
 27  13  18  1   
 28  13  30  1   
 29  13  31  1   
 30  14  18  1   
 31  14  32  1   
 32  14  33  1   
 33  15  34  1   
 34  16  35  1   
 35  16  36  1   
 36  16  37  1   
 37  17  38  1   
 38  17  39  1   
 39  17  40  1   
 40  18  19  1   
 41  18  41  1   
 42  19  20  1   
 43  19  42  1   
 44  19  43  1   
 45  20  44  1   
 46  20  45  1   
 47  20  46  1   
@<TRIPOS>SUBSTRUCTURE
  1 ****   2 GROUP 4 **** **** 0

# MOE 2024.06 (io_trps.svl 2023.06)
