@<TRIPOS>MOLECULE
NONAME
37 38 1 0 0 
SMALL
USER_CHARGES


@<TRIPOS>ATOM
  1 O       -0.0600    -0.6780     0.5090 O.3   1 <1>  -0.5600 
  2 C        0.8860     0.0670     1.2120 C.3   1 <1>   0.1200 
  3 C        0.3100    -0.9790    -0.8020 C.3   1 <1>   0.1200 
  4 C        2.1980    -0.7280     1.3050 C.3   1 <1>   0.1100 
  5 C        1.5980    -1.8170    -0.7910 C.3   1 <1>   0.1100 
  6 N        2.6680    -1.1290    -0.0400 N.3   1 <1>  -0.3020 
  7 N        3.8950    -1.9610     0.0260 N.4   1 <1>  -0.6410 
  8 C        5.1250    -1.1640     0.2530 C.3   1 <1>   0.4230 
  9 C        5.4760    -0.3880    -1.0270 C.3   1 <1>  -0.1600 
 10 C        6.2170    -2.1310     0.7310 C.3   1 <1>  -0.1600 
 11 C        6.4980     0.7270    -0.7600 C.3   1 <1>  -0.1600 
 12 C        7.5860    -1.4820     0.9990 C.3   1 <1>  -0.1600 
 13 C        7.9680     0.2900    -0.8510 C.3   1 <1>  -0.1600 
 14 C        8.3190    -1.0980    -0.2940 C.3   1 <1>  -0.1600 
 15 H        0.4900     0.2570     2.1950 H     1 <1>   0.0800 
 16 H        1.0330     1.0080     0.7100 H     1 <1>   0.0800 
 17 H        0.4440    -0.0600    -1.3470 H     1 <1>   0.0800 
 18 H       -0.4970    -1.5330    -1.2510 H     1 <1>   0.0800 
 19 H        2.0270    -1.6000     1.9130 H     1 <1>   0.0800 
 20 H        2.9410    -0.1160     1.7850 H     1 <1>   0.0800 
 21 H        1.9160    -1.9800    -1.8060 H     1 <1>   0.0800 
 22 H        1.3830    -2.7710    -0.3410 H     1 <1>   0.0800 
 23 H        4.0310    -2.4650    -0.8590 H     1 <1>   0.4500 
 24 H        3.8150    -2.6720     0.7650 H     1 <1>   0.4500 
 25 H        4.9370    -0.4550     1.0430 H     1 <1>   0.0800 
 26 H        4.5870     0.0930    -1.3950 H     1 <1>   0.0800 
 27 H        5.8370    -1.0470    -1.7980 H     1 <1>   0.0800 
 28 H        6.3490    -2.9220     0.0130 H     1 <1>   0.0800 
 29 H        5.8930    -2.5750     1.6560 H     1 <1>   0.0800 
 30 H        6.3150     1.1640     0.2080 H     1 <1>   0.0800 
 31 H        6.3510     1.5130    -1.4820 H     1 <1>   0.0800 
 32 H        8.1950    -2.2070     1.5120 H     1 <1>   0.0800 
 33 H        7.4960    -0.6300     1.6520 H     1 <1>   0.0800 
 34 H        8.5630     1.0270    -0.3370 H     1 <1>   0.0800 
 35 H        8.2740     0.3170    -1.8830 H     1 <1>   0.0800 
 36 H        8.1440    -1.8450    -1.0500 H     1 <1>   0.0800 
 37 H        9.3790    -1.1080    -0.1010 H     1 <1>   0.0800 
@<TRIPOS>BOND
  1   1   2  1   
  2   1   3  1   
  3   2   4  1   
  4   2  15  1   
  5   2  16  1   
  6   3   5  1   
  7   3  17  1   
  8   3  18  1   
  9   4   6  1   
 10   4  19  1   
 11   4  20  1   
 12   5   6  1   
 13   5  21  1   
 14   5  22  1   
 15   6   7  1   
 16   7   8  1   
 17   7  23  1   
 18   7  24  1   
 19   8   9  1   
 20   8  10  1   
 21   8  25  1   
 22   9  11  1   
 23   9  26  1   
 24   9  27  1   
 25  10  12  1   
 26  10  28  1   
 27  10  29  1   
 28  11  13  1   
 29  11  30  1   
 30  11  31  1   
 31  12  14  1   
 32  12  32  1   
 33  12  33  1   
 34  13  14  1   
 35  13  34  1   
 36  13  35  1   
 37  14  36  1   
 38  14  37  1   
@<TRIPOS>SUBSTRUCTURE
  1 ****   8 GROUP 4 **** **** 0

# MOE 2024.06 (io_trps.svl 2023.06)
