@<TRIPOS>MOLECULE
NONAME
36 36 1 0 0 
SMALL
USER_CHARGES


@<TRIPOS>ATOM
  1 F        1.1450    -0.9980    -0.3520 F     1 <1>  -0.3400 
  2 C        1.7040     0.0530     0.2340 C.3   1 <1>   1.0200 
  3 F        0.9070     1.0800    -0.0370 F     1 <1>  -0.3400 
  4 F        1.5840    -0.1460     1.5410 F     1 <1>  -0.3400 
  5 C        3.1400     0.3320    -0.2010 C.3   1 <1>   0.2600 
  6 F        3.1850     0.6060    -1.5180 F     1 <1>  -0.3400 
  7 C        4.0720    -0.8350     0.1180 C.3   1 <1>   0.9600 
  8 F        3.6800    -1.9660    -0.4580 F     1 <1>  -0.3400 
  9 F        4.1020    -1.0800     1.4230 F     1 <1>  -0.3400 
 10 O        5.4040    -0.5730    -0.3000 O.3   1 <1>  -0.3630 
 11 C        6.4820    -1.3900    -0.0730 C.ar  1 <1>   0.0820 
 12 C        7.7360    -0.8840    -0.4330 C.ar  1 <1>   0.1170 
 13 C        6.3920    -2.6620     0.4860 C.ar  1 <1>  -0.1500 
 14 N        7.8410     0.4020    -0.9940 N.am  1 <1>  -0.5470 
 15 C        8.8650    -1.6720    -0.2520 C.ar  1 <1>  -0.1500 
 16 C        7.5320    -3.4240     0.6730 C.ar  1 <1>  -0.1500 
 17 C        8.6300     1.4610    -0.6820 C.2   1 <1>   0.5690 
 18 C        8.7780    -2.9400     0.2980 C.ar  1 <1>   0.1170 
 19 O        8.4960     2.4990    -1.2730 O.2   1 <1>  -0.5700 
 20 C        9.6630     1.3770     0.4180 C.3   1 <1>  -0.1790 
 21 N        9.9380    -3.7030     0.4770 N.am  1 <1>  -0.5470 
 22 C       10.2380    -4.9630     0.0720 C.2   1 <1>   0.5690 
 23 O       11.2990    -5.4480     0.3620 O.2   1 <1>  -0.5700 
 24 C        9.2680    -5.7700    -0.7600 C.3   1 <1>  -0.1790 
 25 H        3.4970     1.2140     0.2910 H     1 <1>   0.0800 
 26 H        5.4530    -3.0880     0.7860 H     1 <1>   0.1500 
 27 H        7.1060     0.6500    -1.6580 H     1 <1>   0.3700 
 28 H        9.8250    -1.3010    -0.5560 H     1 <1>   0.1500 
 29 H        7.4520    -4.3990     1.1190 H     1 <1>   0.1500 
 30 H        9.2820     0.8120     1.2470 H     1 <1>   0.0800 
 31 H        9.9030     2.3680     0.7580 H     1 <1>   0.0800 
 32 H       10.5560     0.9170     0.0410 H     1 <1>   0.0800 
 33 H       10.7210    -3.2500     0.9480 H     1 <1>   0.3700 
 34 H        8.7820    -5.1420    -1.4820 H     1 <1>   0.0800 
 35 H        8.5330    -6.2220    -0.1210 H     1 <1>   0.0800 
 36 H        9.8000    -6.5450    -1.2790 H     1 <1>   0.0800 
@<TRIPOS>BOND
  1   1   2  1   
  2   2   3  1   
  3   2   4  1   
  4   2   5  1   
  5   5   6  1   
  6   5   7  1   
  7   5  25  1   
  8   7   8  1   
  9   7   9  1   
 10   7  10  1   
 11  10  11  1   
 12  11  12  ar  
 13  11  13  ar  
 14  12  14  1   
 15  12  15  ar  
 16  13  16  ar  
 17  13  26  1   
 18  14  17  am  
 19  14  27  1   
 20  15  18  ar  
 21  15  28  1   
 22  16  18  ar  
 23  16  29  1   
 24  17  19  2   
 25  17  20  1   
 26  18  21  1   
 27  20  30  1   
 28  20  31  1   
 29  20  32  1   
 30  21  22  am  
 31  21  33  1   
 32  22  23  2   
 33  22  24  1   
 34  24  34  1   
 35  24  35  1   
 36  24  36  1   
@<TRIPOS>SUBSTRUCTURE
  1 ****  11 GROUP 4 **** **** 0

# MOE 2024.06 (io_trps.svl 2023.06)
