@<TRIPOS>MOLECULE
NONAME
39 40 1 0 0 
SMALL
USER_CHARGES


@<TRIPOS>ATOM
  1 O        0.6650     0.9200    -1.9510 O.2   1 <1>  -0.5700 
  2 C        0.3920     1.9580    -1.3770 C.2   1 <1>   0.5440 
  3 N       -0.9160     2.2010    -1.0070 N.am  1 <1>  -0.6600 
  4 C        1.4590     2.8970    -1.0890 C.ar  1 <1>   0.0860 
  5 C       -1.3160     3.2340    -0.0100 C.3   1 <1>   0.1400 
  6 C       -2.0340     1.3260    -1.4610 C.3   1 <1>   0.1400 
  7 C        2.5730     2.4990    -0.3550 C.ar  1 <1>  -0.1500 
  8 C        1.4080     4.2180    -1.5360 C.ar  1 <1>  -0.1500 
  9 C       -1.9530     2.5570     1.2080 C.3   1 <1>  -0.1600 
 10 C       -2.6720     0.6320    -0.2530 C.3   1 <1>  -0.1600 
 11 C        3.5990     3.3890    -0.0580 C.ar  1 <1>   0.0830 
 12 C        2.4220     5.1130    -1.2460 C.ar  1 <1>  -0.1500 
 13 C       -3.1220     1.6460     0.8080 C.3   1 <1>  -0.1600 
 14 O        4.7070     3.0670     0.6550 O.3   1 <1>  -0.3630 
 15 C        3.5130     4.6970    -0.5050 C.ar  1 <1>  -0.1500 
 16 C        5.0120     1.7500     1.0610 C.3   1 <1>   0.2000 
 17 C        6.0500     1.8550     2.1750 C.3   1 <1>  -0.2400 
 18 C        5.5680     0.9760    -0.1370 C.3   1 <1>  -0.2400 
 19 H       -2.0240     3.9050    -0.4670 H     1 <1>   0.0800 
 20 H       -0.4690     3.8100     0.3150 H     1 <1>   0.0800 
 21 H       -1.6820     0.5850    -2.1590 H     1 <1>   0.0800 
 22 H       -2.7680     1.9310    -1.9650 H     1 <1>   0.0800 
 23 H        2.6070     1.4760    -0.0320 H     1 <1>   0.1500 
 24 H        0.5620     4.5370    -2.1190 H     1 <1>   0.1500 
 25 H       -2.3000     3.3110     1.8930 H     1 <1>   0.0800 
 26 H       -1.2010     1.9770     1.7140 H     1 <1>   0.0800 
 27 H       -1.9520    -0.0460     0.1720 H     1 <1>   0.0800 
 28 H       -3.5150     0.0510    -0.5810 H     1 <1>   0.0800 
 29 H        2.3650     6.1290    -1.5970 H     1 <1>   0.1500 
 30 H       -3.9240     2.2460     0.4110 H     1 <1>   0.0800 
 31 H       -3.4930     1.1260     1.6740 H     1 <1>   0.0800 
 32 H        4.3080     5.3830    -0.2720 H     1 <1>   0.1500 
 33 H        4.1220     1.2890     1.4520 H     1 <1>   0.0800 
 34 H        6.9370     2.3440     1.8150 H     1 <1>   0.0800 
 35 H        6.3140     0.8750     2.5260 H     1 <1>   0.0800 
 36 H        5.6450     2.4140     2.9990 H     1 <1>   0.0800 
 37 H        6.4440     1.4660    -0.5230 H     1 <1>   0.0800 
 38 H        4.8330     0.9030    -0.9180 H     1 <1>   0.0800 
 39 H        5.8360    -0.0210     0.1640 H     1 <1>   0.0800 
@<TRIPOS>BOND
  1   1   2  2   
  2   2   3  am  
  3   2   4  1   
  4   3   5  1   
  5   3   6  1   
  6   4   7  ar  
  7   4   8  ar  
  8   5   9  1   
  9   5  19  1   
 10   5  20  1   
 11   6  10  1   
 12   6  21  1   
 13   6  22  1   
 14   7  11  ar  
 15   7  23  1   
 16   8  12  ar  
 17   8  24  1   
 18   9  13  1   
 19   9  25  1   
 20   9  26  1   
 21  10  13  1   
 22  10  27  1   
 23  10  28  1   
 24  11  14  1   
 25  11  15  ar  
 26  12  15  ar  
 27  12  29  1   
 28  13  30  1   
 29  13  31  1   
 30  14  16  1   
 31  15  32  1   
 32  16  17  1   
 33  16  18  1   
 34  16  33  1   
 35  17  34  1   
 36  17  35  1   
 37  17  36  1   
 38  18  37  1   
 39  18  38  1   
 40  18  39  1   
@<TRIPOS>SUBSTRUCTURE
  1 ****   4 GROUP 4 **** **** 0

# MOE 2024.06 (io_trps.svl 2023.06)
