@<TRIPOS>MOLECULE
NONAME
34 35 1 0 0 
SMALL
USER_CHARGES


@<TRIPOS>ATOM
  1 S       -0.7600     1.5010    -0.8850 S.3   1 <1>  -0.0800 
  2 C       -1.6750     0.7660     0.4240 C.2   1 <1>  -0.1400 
  3 C        0.1610     2.4750     0.2460 C.2   1 <1>  -0.1100 
  4 C       -1.2680     1.2510     1.6130 C.2   1 <1>  -0.1500 
  5 C       -2.7200    -0.2620     0.0450 C.3   1 <1>   0.5230 
  6 C       -0.2250     2.2260     1.5100 C.2   1 <1>  -0.1500 
  7 N       -4.0390     0.4050    -0.1030 N.4   1 <1>  -0.9590 
  8 C       -5.1840    -0.5460    -0.2710 C.3   1 <1>   0.3430 
  9 C       -4.0780     1.4790    -1.1520 C.3   1 <1>   0.3430 
 10 C       -6.5410     0.2010    -0.2470 C.3   1 <1>   0.1100 
 11 C       -5.4680     2.1580    -1.2150 C.3   1 <1>   0.1100 
 12 N       -6.3840     1.6760    -0.1520 N.3   1 <1>  -0.8100 
 13 C       -7.6830     2.3810    -0.2250 C.3   1 <1>   0.1100 
 14 C       -8.5020     2.2030     1.0600 C.3   1 <1>   0.1200 
 15 O       -9.6900     2.9070     0.9400 O.3   1 <1>  -0.6800 
 16 H        0.9070     3.1380    -0.1590 H     1 <1>   0.1500 
 17 H       -1.6480     0.9710     2.5820 H     1 <1>   0.1500 
 18 H       -2.7760    -1.0030     0.8250 H     1 <1>   0.0800 
 19 H       -2.4350    -0.7510    -0.8720 H     1 <1>   0.0800 
 20 H        0.1880     2.6920     2.3890 H     1 <1>   0.1500 
 21 H       -4.2480     0.9180     0.7660 H     1 <1>   0.4500 
 22 H       -5.1770    -1.2780     0.5190 H     1 <1>   0.0800 
 23 H       -5.0900    -1.0720    -1.2070 H     1 <1>   0.0800 
 24 H       -3.8370     1.0680    -2.1180 H     1 <1>   0.0800 
 25 H       -3.3420     2.2340    -0.9260 H     1 <1>   0.0800 
 26 H       -7.1070    -0.1550     0.5960 H     1 <1>   0.0800 
 27 H       -7.0960    -0.0530    -1.1350 H     1 <1>   0.0800 
 28 H       -5.9050     1.9770    -2.1830 H     1 <1>   0.0800 
 29 H       -5.3330     3.2220    -1.1180 H     1 <1>   0.0800 
 30 H       -8.2510     2.0230    -1.0670 H     1 <1>   0.0800 
 31 H       -7.5030     3.4350    -0.3570 H     1 <1>   0.0800 
 32 H       -7.9690     2.5790     1.9150 H     1 <1>   0.0800 
 33 H       -8.7600     1.1710     1.2140 H     1 <1>   0.0800 
 34 H       -9.5370     3.8700     0.9990 H     1 <1>   0.4000 
@<TRIPOS>BOND
  1   1   2  1   
  2   1   3  1   
  3   2   4  2   
  4   2   5  1   
  5   3   6  2   
  6   3  16  1   
  7   4   6  1   
  8   4  17  1   
  9   5   7  1   
 10   5  18  1   
 11   5  19  1   
 12   6  20  1   
 13   7   8  1   
 14   7   9  1   
 15   7  21  1   
 16   8  10  1   
 17   8  22  1   
 18   8  23  1   
 19   9  11  1   
 20   9  24  1   
 21   9  25  1   
 22  10  12  1   
 23  10  26  1   
 24  10  27  1   
 25  11  12  1   
 26  11  28  1   
 27  11  29  1   
 28  12  13  1   
 29  13  14  1   
 30  13  30  1   
 31  13  31  1   
 32  14  15  1   
 33  14  32  1   
 34  14  33  1   
 35  15  34  1   
@<TRIPOS>SUBSTRUCTURE
  1 ****   7 GROUP 4 **** **** 0

# MOE 2024.06 (io_trps.svl 2023.06)
