@<TRIPOS>MOLECULE
NONAME
43 45 1 0 0 
SMALL
USER_CHARGES


@<TRIPOS>ATOM
  1 CL       0.8560     0.0440    -1.7490 Cl    1 <1>  -0.1770 
  2 C       -0.6110    -0.6680    -1.1100 C.ar  1 <1>   0.1770 
  3 C       -0.5290    -1.7740    -0.2670 C.ar  1 <1>   0.1170 
  4 C       -1.8210    -0.1050    -1.4590 C.ar  1 <1>  -0.1500 
  5 N        0.7280    -2.3100     0.0590 N.am  1 <1>  -0.5470 
  6 C       -1.7220    -2.3060     0.2140 C.ar  1 <1>  -0.1500 
  7 C       -2.9940    -0.6500    -0.9650 C.ar  1 <1>  -0.1500 
  8 C        1.1650    -3.1200     1.0670 C.2   1 <1>   0.5690 
  9 C       -2.9570    -1.7610    -0.1240 C.ar  1 <1>  -0.1440 
 10 O        0.4490    -3.5870     1.9200 O.2   1 <1>  -0.5700 
 11 C        2.6650    -3.4240     1.0910 C.3   1 <1>   0.1710 
 12 C       -4.2530    -2.3740     0.4350 C.3   1 <1>   1.1640 
 13 N        3.4810    -2.4490     0.3050 N.3   1 <1>  -0.8100 
 14 F       -4.5390    -1.9140     1.6450 F     1 <1>  -0.3400 
 15 F       -5.3140    -2.1120    -0.3220 F     1 <1>  -0.3400 
 16 F       -4.1960    -3.6960     0.5380 F     1 <1>  -0.3400 
 17 C        3.6240    -1.1740     1.0350 C.3   1 <1>   0.1100 
 18 C        4.8020    -3.0180    -0.0120 C.3   1 <1>   0.1100 
 19 C        4.3290    -0.1500     0.1470 C.3   1 <1>  -0.1600 
 20 C        5.5610    -2.0690    -0.9380 C.3   1 <1>  -0.1600 
 21 C        5.6870    -0.6910    -0.3020 C.3   1 <1>   0.5600 
 22 O        6.5600    -0.7650     0.7790 O.3   1 <1>  -0.5600 
 23 O        6.2890     0.1760    -1.2020 O.3   1 <1>  -0.5600 
 24 C        7.3220     0.3880     0.8290 C.3   1 <1>   0.1200 
 25 C        7.0760     1.0690    -0.5040 C.3   1 <1>   0.1200 
 26 H       -1.8440     0.7500    -2.1110 H     1 <1>   0.1500 
 27 H        1.5230    -1.9570    -0.4920 H     1 <1>   0.3700 
 28 H       -1.6830    -3.1640     0.8630 H     1 <1>   0.1500 
 29 H       -3.9350    -0.2010    -1.2410 H     1 <1>   0.1500 
 30 H        2.7870    -4.4090     0.6770 H     1 <1>   0.0800 
 31 H        3.0020    -3.4520     2.1120 H     1 <1>   0.0800 
 32 H        4.1940    -1.3280     1.9370 H     1 <1>   0.0800 
 33 H        2.6550    -0.7910     1.3090 H     1 <1>   0.0800 
 34 H        4.6810    -3.9660    -0.5080 H     1 <1>   0.0800 
 35 H        5.3650    -3.1740     0.8950 H     1 <1>   0.0800 
 36 H        4.4510     0.7720     0.6810 H     1 <1>   0.0800 
 37 H        3.7210     0.0340    -0.7190 H     1 <1>   0.0800 
 38 H        5.0220    -1.9840    -1.8630 H     1 <1>   0.0800 
 39 H        6.5400    -2.4570    -1.1450 H     1 <1>   0.0800 
 40 H        8.3550     0.1160     0.9560 H     1 <1>   0.0800 
 41 H        6.9920     0.9950     1.6540 H     1 <1>   0.0800 
 42 H        6.5350     1.9910    -0.3830 H     1 <1>   0.0800 
 43 H        7.9880     1.2390    -1.0490 H     1 <1>   0.0800 
@<TRIPOS>BOND
  1   1   2  1   
  2   2   3  ar  
  3   2   4  ar  
  4   3   5  1   
  5   3   6  ar  
  6   4   7  ar  
  7   4  26  1   
  8   5   8  am  
  9   5  27  1   
 10   6   9  ar  
 11   6  28  1   
 12   7   9  ar  
 13   7  29  1   
 14   8  10  2   
 15   8  11  1   
 16   9  12  1   
 17  11  13  1   
 18  11  30  1   
 19  11  31  1   
 20  12  14  1   
 21  12  15  1   
 22  12  16  1   
 23  13  17  1   
 24  13  18  1   
 25  17  19  1   
 26  17  32  1   
 27  17  33  1   
 28  18  20  1   
 29  18  34  1   
 30  18  35  1   
 31  19  21  1   
 32  19  36  1   
 33  19  37  1   
 34  20  21  1   
 35  20  38  1   
 36  20  39  1   
 37  21  22  1   
 38  21  23  1   
 39  22  24  1   
 40  23  25  1   
 41  24  25  1   
 42  24  40  1   
 43  24  41  1   
 44  25  42  1   
 45  25  43  1   
@<TRIPOS>SUBSTRUCTURE
  1 ****   5 GROUP 4 **** **** 0

# MOE 2024.06 (io_trps.svl 2023.06)
