@<TRIPOS>MOLECULE
NONAME
43 45 1 0 0 
SMALL
USER_CHARGES


@<TRIPOS>ATOM
  1 O       -1.8450     1.2180     0.5250 O.3   1 <1>  -0.3630 
  2 C       -1.0630     2.1160    -0.1370 C.ar  1 <1>   0.0820 
  3 C       -1.3450     0.4710     1.6170 C.3   1 <1>   0.0400 
  4 C       -1.5770     2.6680    -1.3070 C.ar  1 <1>  -0.1440 
  5 C        0.1980     2.4980     0.3130 C.ar  1 <1>  -0.1500 
  6 C       -0.8320     3.5940    -2.0210 C.ar  1 <1>  -0.1500 
  7 C       -2.9520     2.2620    -1.8020 C.3   1 <1>   0.4870 
  8 C        0.9400     3.4290    -0.4060 C.ar  1 <1>   0.0820 
  9 C        0.4180     3.9700    -1.5680 C.ar  1 <1>  -0.1500 
 10 N       -3.9470     2.6240    -0.7660 N.4   1 <1>  -0.9590 
 11 O        2.1720     3.8610    -0.0410 O.3   1 <1>  -0.3620 
 12 C       -5.2820     2.0270    -1.0120 C.3   1 <1>   0.4860 
 13 C       -4.0380     4.0910    -0.5200 C.3   1 <1>   0.3430 
 14 C        2.8450     3.3310     1.0810 C.3   1 <1>   0.0400 
 15 C       -6.2410     2.3890     0.1120 C.ar  1 <1>  -0.1430 
 16 C       -4.7710     4.3450     0.7990 C.3   1 <1>  -0.0160 
 17 C       -6.0130     3.4770     0.9500 C.ar  1 <1>  -0.1430 
 18 C       -7.3770     1.6140     0.2930 C.ar  1 <1>  -0.1500 
 19 C       -6.9200     3.7750     1.9540 C.ar  1 <1>  -0.1500 
 20 C       -8.2790     1.9170     1.2970 C.ar  1 <1>  -0.1500 
 21 C       -8.0510     2.9980     2.1270 C.ar  1 <1>  -0.1500 
 22 H       -1.1120     1.1400     2.4260 H     1 <1>   0.0800 
 23 H       -0.4680    -0.0680     1.3020 H     1 <1>   0.0800 
 24 H       -2.1040    -0.2240     1.9280 H     1 <1>   0.0800 
 25 H        0.6030     2.0830     1.2130 H     1 <1>   0.1500 
 26 H       -1.2060     4.0300    -2.9320 H     1 <1>   0.1500 
 27 H       -2.9600     1.1960    -1.9650 H     1 <1>   0.0800 
 28 H       -3.1770     2.7580    -2.7320 H     1 <1>   0.0800 
 29 H        1.0060     4.6880    -2.1150 H     1 <1>   0.1500 
 30 H       -3.5790     2.1960     0.1000 H     1 <1>   0.4500 
 31 H       -5.1980     0.9540    -1.0730 H     1 <1>   0.0800 
 32 H       -5.6830     2.3920    -1.9440 H     1 <1>   0.0800 
 33 H       -4.5780     4.5610    -1.3260 H     1 <1>   0.0800 
 34 H       -3.0540     4.5280    -0.4660 H     1 <1>   0.0800 
 35 H        3.8080     3.8070     1.1450 H     1 <1>   0.0800 
 36 H        2.9710     2.2720     0.9460 H     1 <1>   0.0800 
 37 H        2.2740     3.5450     1.9660 H     1 <1>   0.0800 
 38 H       -5.0440     5.3850     0.8500 H     1 <1>   0.0800 
 39 H       -4.1010     4.1450     1.6170 H     1 <1>   0.0800 
 40 H       -7.5790     0.7680    -0.3410 H     1 <1>   0.1500 
 41 H       -6.7550     4.6120     2.6110 H     1 <1>   0.1500 
 42 H       -9.1600     1.3130     1.4350 H     1 <1>   0.1500 
 43 H       -8.7530     3.2340     2.9090 H     1 <1>   0.1500 
@<TRIPOS>BOND
  1   1   2  1   
  2   1   3  1   
  3   2   4  ar  
  4   2   5  ar  
  5   3  22  1   
  6   3  23  1   
  7   3  24  1   
  8   4   6  ar  
  9   4   7  1   
 10   5   8  ar  
 11   5  25  1   
 12   6   9  ar  
 13   6  26  1   
 14   7  10  1   
 15   7  27  1   
 16   7  28  1   
 17   8   9  ar  
 18   8  11  1   
 19   9  29  1   
 20  10  12  1   
 21  10  13  1   
 22  10  30  1   
 23  11  14  1   
 24  12  15  1   
 25  12  31  1   
 26  12  32  1   
 27  13  16  1   
 28  13  33  1   
 29  13  34  1   
 30  14  35  1   
 31  14  36  1   
 32  14  37  1   
 33  15  17  ar  
 34  15  18  ar  
 35  16  17  1   
 36  16  38  1   
 37  16  39  1   
 38  17  19  ar  
 39  18  20  ar  
 40  18  40  1   
 41  19  21  ar  
 42  19  41  1   
 43  20  21  ar  
 44  20  42  1   
 45  21  43  1   
@<TRIPOS>SUBSTRUCTURE
  1 ****  10 GROUP 4 **** **** 0

# MOE 2024.06 (io_trps.svl 2023.06)
