@<TRIPOS>MOLECULE
NONAME
51 52 1 0 0 
SMALL
USER_CHARGES


@<TRIPOS>ATOM
  1 O        0.2970    -2.1370    -2.7360 O.2   1 <1>  -0.5700 
  2 C       -0.3320    -2.3350    -1.7240 C.2   1 <1>   0.5690 
  3 N        0.2380    -2.2650    -0.4920 N.am  1 <1>  -0.7300 
  4 C       -1.8120    -2.6760    -1.8450 C.3   1 <1>   0.1810 
  5 C        1.6520    -1.9890    -0.2050 C.3   1 <1>   0.2200 
  6 O       -2.3960    -2.9310    -0.5730 O.3   1 <1>  -0.3630 
  7 C        2.2570    -3.1590     0.5820 C.3   1 <1>  -0.1600 
  8 C        1.7220    -0.6910     0.5910 C.3   1 <1>  -0.2400 
  9 C       -3.7120    -3.2370    -0.4610 C.ar  1 <1>   0.0820 
 10 C        2.2350    -4.4840    -0.1960 C.3   1 <1>  -0.2400 
 11 C       -4.2000    -3.4370     0.8180 C.ar  1 <1>  -0.1500 
 12 C       -4.5770    -3.3570    -1.5420 C.ar  1 <1>  -0.1500 
 13 C       -5.5320    -3.7490     1.0240 C.ar  1 <1>  -0.1500 
 14 C       -5.9070    -3.6690    -1.3300 C.ar  1 <1>  -0.1500 
 15 C       -6.4120    -3.8660    -0.0490 C.ar  1 <1>  -0.1440 
 16 C       -7.9070    -4.2170     0.1170 C.3   1 <1>   0.2870 
 17 C       -8.7710    -3.2810    -0.7580 C.ar  1 <1>  -0.1440 
 18 C       -8.0540    -5.7000    -0.2620 C.3   1 <1>  -0.2400 
 19 C       -8.4070    -4.0550     1.5620 C.3   1 <1>  -0.2400 
 20 C       -9.7940    -3.7360    -1.5860 C.ar  1 <1>  -0.1500 
 21 C       -8.5300    -1.9110    -0.7130 C.ar  1 <1>  -0.1500 
 22 C      -10.5420    -2.8520    -2.3460 C.ar  1 <1>  -0.1500 
 23 C       -9.2760    -1.0250    -1.4710 C.ar  1 <1>  -0.1500 
 24 C      -10.2840    -1.4960    -2.2900 C.ar  1 <1>  -0.1500 
 25 H       -0.3550    -2.4630     0.3160 H     1 <1>   0.3700 
 26 H       -1.9220    -3.5540    -2.4530 H     1 <1>   0.0800 
 27 H       -2.3270    -1.8480    -2.2960 H     1 <1>   0.0800 
 28 H        2.1910    -1.8660    -1.1320 H     1 <1>   0.0800 
 29 H        1.7340    -3.2790     1.5150 H     1 <1>   0.0800 
 30 H        3.2810    -2.9200     0.8140 H     1 <1>   0.0800 
 31 H        1.1910    -0.7840     1.5210 H     1 <1>   0.0800 
 32 H        1.2960     0.1120     0.0160 H     1 <1>   0.0800 
 33 H        2.7470    -0.4460     0.8020 H     1 <1>   0.0800 
 34 H        1.2230    -4.7980    -0.3830 H     1 <1>   0.0800 
 35 H        2.7310    -5.2530     0.3690 H     1 <1>   0.0800 
 36 H        2.7380    -4.3710    -1.1400 H     1 <1>   0.0800 
 37 H       -3.5310    -3.3480     1.6540 H     1 <1>   0.1500 
 38 H       -4.2430    -3.2120    -2.5520 H     1 <1>   0.1500 
 39 H       -5.8600    -3.8980     2.0350 H     1 <1>   0.1500 
 40 H       -6.5620    -3.7560    -2.1810 H     1 <1>   0.1500 
 41 H       -7.3720    -6.2960     0.3180 H     1 <1>   0.0800 
 42 H       -7.8240    -5.8450    -1.3020 H     1 <1>   0.0800 
 43 H       -9.0510    -6.0510    -0.0700 H     1 <1>   0.0800 
 44 H       -7.9320    -4.7620     2.2180 H     1 <1>   0.0800 
 45 H       -9.4680    -4.2220     1.6020 H     1 <1>   0.0800 
 46 H       -8.2110    -3.0600     1.9170 H     1 <1>   0.0800 
 47 H      -10.0320    -4.7800    -1.6580 H     1 <1>   0.1500 
 48 H       -7.7490    -1.5230    -0.0820 H     1 <1>   0.1500 
 49 H      -11.3270    -3.2220    -2.9810 H     1 <1>   0.1500 
 50 H       -9.0710     0.0300    -1.4210 H     1 <1>   0.1500 
 51 H      -10.8660    -0.8090    -2.8810 H     1 <1>   0.1500 
@<TRIPOS>BOND
  1   1   2  2   
  2   2   3  am  
  3   2   4  1   
  4   3   5  1   
  5   3  25  1   
  6   4   6  1   
  7   4  26  1   
  8   4  27  1   
  9   5   7  1   
 10   5   8  1   
 11   5  28  1   
 12   6   9  1   
 13   7  10  1   
 14   7  29  1   
 15   7  30  1   
 16   8  31  1   
 17   8  32  1   
 18   8  33  1   
 19   9  11  ar  
 20   9  12  ar  
 21  10  34  1   
 22  10  35  1   
 23  10  36  1   
 24  11  13  ar  
 25  11  37  1   
 26  12  14  ar  
 27  12  38  1   
 28  13  15  ar  
 29  13  39  1   
 30  14  15  ar  
 31  14  40  1   
 32  15  16  1   
 33  16  17  1   
 34  16  18  1   
 35  16  19  1   
 36  17  20  ar  
 37  17  21  ar  
 38  18  41  1   
 39  18  42  1   
 40  18  43  1   
 41  19  44  1   
 42  19  45  1   
 43  19  46  1   
 44  20  22  ar  
 45  20  47  1   
 46  21  23  ar  
 47  21  48  1   
 48  22  24  ar  
 49  22  49  1   
 50  23  24  ar  
 51  23  50  1   
 52  24  51  1   
@<TRIPOS>SUBSTRUCTURE
  1 ****   9 GROUP 4 **** **** 0

# MOE 2024.06 (io_trps.svl 2023.06)
