@<TRIPOS>MOLECULE
NONAME
34 34 1 0 0 
SMALL
USER_CHARGES


@<TRIPOS>ATOM
  1 CL       2.2420    -1.1230    -2.2430 Cl    1 <1>  -0.1770 
  2 C        1.4570    -1.9160    -0.8940 C.ar  1 <1>   0.1770 
  3 C        2.0210    -1.8490     0.3750 C.ar  1 <1>   0.0830 
  4 C        0.2820    -2.6120    -1.1190 C.ar  1 <1>  -0.1500 
  5 O        3.1600    -1.1470     0.5970 O.3   1 <1>  -0.3630 
  6 C        1.3770    -2.5010     1.4180 C.ar  1 <1>   0.1770 
  7 C       -0.3480    -3.2560    -0.0630 C.ar  1 <1>  -0.1500 
  8 C        4.3670    -1.8190     0.3440 C.3   1 <1>   0.1200 
  9 CL       2.0640    -2.4580     3.0270 Cl    1 <1>  -0.1770 
 10 C        0.2020    -3.2010     1.2090 C.ar  1 <1>  -0.1500 
 11 C        5.4990    -0.8050     0.5380 C.3   1 <1>   0.3430 
 12 N        6.8610    -1.3790     0.2670 N.4   1 <1>  -0.9590 
 13 C        7.9010    -0.4210     0.7280 C.3   1 <1>   0.3430 
 14 C        7.0410    -1.7370    -1.1680 C.3   1 <1>   0.3430 
 15 C        9.2370    -1.1420     0.8700 C.3   1 <1>  -0.2400 
 16 C        7.1280    -3.2530    -1.2790 C.3   1 <1>  -0.2400 
 17 H       -0.1360    -2.6490    -2.1100 H     1 <1>   0.1500 
 18 H       -1.2640    -3.7980    -0.2320 H     1 <1>   0.1500 
 19 H        4.3390    -2.1860    -0.6660 H     1 <1>   0.0800 
 20 H        4.4480    -2.6330     1.0420 H     1 <1>   0.0800 
 21 H       -0.2780    -3.6970     2.0350 H     1 <1>   0.1500 
 22 H        5.4560    -0.4540     1.5570 H     1 <1>   0.0800 
 23 H        5.3260     0.0340    -0.1150 H     1 <1>   0.0800 
 24 H        6.9740    -2.2360     0.8240 H     1 <1>   0.4500 
 25 H        7.6230    -0.0170     1.6900 H     1 <1>   0.0800 
 26 H        7.9910     0.3990     0.0330 H     1 <1>   0.0800 
 27 H        7.9480    -1.2990    -1.5540 H     1 <1>   0.0800 
 28 H        6.2160    -1.3690    -1.7580 H     1 <1>   0.0800 
 29 H        9.1580    -1.9610     1.5620 H     1 <1>   0.0800 
 30 H        9.9680    -0.4540     1.2570 H     1 <1>   0.0800 
 31 H        9.5960    -1.5010    -0.0770 H     1 <1>   0.0800 
 32 H        7.9740    -3.6280    -0.7310 H     1 <1>   0.0800 
 33 H        7.2590    -3.5230    -2.3120 H     1 <1>   0.0800 
 34 H        6.2280    -3.7240    -0.9270 H     1 <1>   0.0800 
@<TRIPOS>BOND
  1   1   2  1   
  2   2   3  ar  
  3   2   4  ar  
  4   3   5  1   
  5   3   6  ar  
  6   4   7  ar  
  7   4  17  1   
  8   5   8  1   
  9   6   9  1   
 10   6  10  ar  
 11   7  10  ar  
 12   7  18  1   
 13   8  11  1   
 14   8  19  1   
 15   8  20  1   
 16  10  21  1   
 17  11  12  1   
 18  11  22  1   
 19  11  23  1   
 20  12  13  1   
 21  12  14  1   
 22  12  24  1   
 23  13  15  1   
 24  13  25  1   
 25  13  26  1   
 26  14  16  1   
 27  14  27  1   
 28  14  28  1   
 29  15  29  1   
 30  15  30  1   
 31  15  31  1   
 32  16  32  1   
 33  16  33  1   
 34  16  34  1   
@<TRIPOS>SUBSTRUCTURE
  1 ****   8 GROUP 4 **** **** 0

# MOE 2024.06 (io_trps.svl 2023.06)
