@<TRIPOS>MOLECULE
NONAME
43 45 1 0 0 
SMALL
USER_CHARGES


@<TRIPOS>ATOM
  1 O       -0.7380    -1.3080    -1.8360 O.2   1 <1>  -0.5700 
  2 C       -0.9060    -2.0770    -0.9260 C.2   1 <1>   0.5690 
  3 N       -1.8340    -1.9480     0.0570 N.am  1 <1>  -0.4200 
  4 C       -0.0780    -3.3310    -0.7270 C.3   1 <1>  -0.0190 
  5 C       -1.7570    -2.9640     0.9540 C.2   1 <1>   0.5690 
  6 C       -2.8330    -0.8410     0.1190 C.3   1 <1>   0.2010 
  7 C       -0.6570    -3.9370     0.5810 C.3   1 <1>  -0.0190 
  8 C        1.4360    -3.0390    -0.7380 C.3   1 <1>  -0.0220 
  9 O       -2.4720    -3.0980     1.9170 O.2   1 <1>  -0.5700 
 10 C       -4.2510    -1.2980    -0.2120 C.2   1 <1>   0.5690 
 11 C        0.3390    -4.1580     1.7350 C.3   1 <1>  -0.0220 
 12 C        2.1940    -4.0670     0.0780 C.2   1 <1>  -0.2880 
 13 O       -4.8160    -0.7810    -1.1450 O.2   1 <1>  -0.5700 
 14 N       -4.8290    -2.2570     0.5640 N.am  1 <1>  -0.7300 
 15 C        1.6960    -4.5770     1.2040 C.2   1 <1>  -0.2880 
 16 C       -6.1680    -2.8690     0.4400 C.3   1 <1>   0.2200 
 17 C       -6.3040    -3.6170    -0.8920 C.3   1 <1>  -0.1600 
 18 C       -7.2720    -1.8200     0.6170 C.3   1 <1>  -0.1600 
 19 C       -7.6940    -4.2580    -1.0220 C.3   1 <1>  -0.1600 
 20 C       -8.6620    -2.4610     0.4900 C.3   1 <1>  -0.1600 
 21 C       -8.8050    -3.2120    -0.8420 C.3   1 <1>  -0.1600 
 22 H       -0.2960    -4.0040    -1.5370 H     1 <1>   0.0800 
 23 H       -2.5530    -0.0660    -0.5720 H     1 <1>   0.0800 
 24 H       -2.8310    -0.4210     1.1080 H     1 <1>   0.0800 
 25 H       -1.1120    -4.8820     0.3430 H     1 <1>   0.0800 
 26 H        1.6350    -2.0640    -0.3270 H     1 <1>   0.0800 
 27 H        1.7850    -3.0430    -1.7560 H     1 <1>   0.0800 
 28 H       -0.0500    -4.9150     2.3940 H     1 <1>   0.0800 
 29 H        0.4620    -3.2540     2.3080 H     1 <1>   0.0800 
 30 H        3.1640    -4.3210    -0.3190 H     1 <1>   0.1500 
 31 H       -4.2500    -2.6680     1.3110 H     1 <1>   0.3700 
 32 H        2.2160    -5.2900     1.8230 H     1 <1>   0.1500 
 33 H       -6.2690    -3.5900     1.2340 H     1 <1>   0.0800 
 34 H       -5.5500    -4.3800    -0.9570 H     1 <1>   0.0800 
 35 H       -6.1640    -2.9290    -1.7080 H     1 <1>   0.0800 
 36 H       -7.1740    -1.0590    -0.1370 H     1 <1>   0.0800 
 37 H       -7.1770    -1.3570     1.5830 H     1 <1>   0.0800 
 38 H       -7.8050    -5.0270    -0.2770 H     1 <1>   0.0800 
 39 H       -7.7880    -4.7190    -1.9890 H     1 <1>   0.0800 
 40 H       -9.4170    -1.6960     0.5540 H     1 <1>   0.0800 
 41 H       -8.8170    -3.1470     1.3050 H     1 <1>   0.0800 
 42 H       -9.7660    -3.6950    -0.8830 H     1 <1>   0.0800 
 43 H       -8.7570    -2.5040    -1.6530 H     1 <1>   0.0800 
@<TRIPOS>BOND
  1   1   2  2   
  2   2   3  am  
  3   2   4  1   
  4   3   5  am  
  5   3   6  1   
  6   4   7  1   
  7   4   8  1   
  8   4  22  1   
  9   5   7  1   
 10   5   9  2   
 11   6  10  1   
 12   6  23  1   
 13   6  24  1   
 14   7  11  1   
 15   7  25  1   
 16   8  12  1   
 17   8  26  1   
 18   8  27  1   
 19  10  13  2   
 20  10  14  am  
 21  11  15  1   
 22  11  28  1   
 23  11  29  1   
 24  12  15  2   
 25  12  30  1   
 26  14  16  1   
 27  14  31  1   
 28  15  32  1   
 29  16  17  1   
 30  16  18  1   
 31  16  33  1   
 32  17  19  1   
 33  17  34  1   
 34  17  35  1   
 35  18  20  1   
 36  18  36  1   
 37  18  37  1   
 38  19  21  1   
 39  19  38  1   
 40  19  39  1   
 41  20  21  1   
 42  20  40  1   
 43  20  41  1   
 44  21  42  1   
 45  21  43  1   
@<TRIPOS>SUBSTRUCTURE
  1 ****   3 GROUP 4 **** **** 0

# MOE 2024.06 (io_trps.svl 2023.06)
