@<TRIPOS>MOLECULE
NONAME
44 47 1 0 0 
SMALL
USER_CHARGES


@<TRIPOS>ATOM
  1 S       -0.8910     1.5920     1.6180 S.3   1 <1>  -0.0800 
  2 C       -1.0550     1.4460    -0.1300 C.2   1 <1>  -0.1400 
  3 C       -1.6890     0.0540     1.8720 C.2   1 <1>  -0.1100 
  4 C       -1.6810     0.2930    -0.4440 C.2   1 <1>  -0.1810 
  5 C       -0.4920     2.5890    -0.9750 C.3   1 <1>   0.3760 
  6 C       -2.0390    -0.4960     0.6970 C.2   1 <1>  -0.1500 
  7 C       -2.0200    -0.2120    -1.8350 C.3   1 <1>  -0.0590 
  8 C        1.0080     2.6980    -0.7190 C.2   1 <1>  -0.1240 
  9 C       -1.2390     3.8790    -0.6340 C.2   1 <1>  -0.1240 
 10 C        1.5230     3.7340    -0.0060 C.2   1 <1>   0.2090 
 11 C        1.8490     1.6860    -1.2270 C.2   1 <1>   0.6160 
 12 C       -0.6150     4.8550     0.0730 C.2   1 <1>  -0.0380 
 13 C       -2.5840     3.9730    -1.0930 C.2   1 <1>   0.4950 
 14 N        2.8790     3.7740     0.2830 N.am  1 <1>  -0.4690 
 15 N        0.7130     4.7630     0.4230 N.pl3 1 <1>  -0.6000 
 16 O        1.4360     0.8190    -1.9870 O.2   1 <1>  -0.5700 
 17 N        3.1900     1.7010    -0.8850 N.am  1 <1>  -0.4200 
 18 C       -1.3480     6.1160     0.5050 C.3   1 <1>  -0.0220 
 19 O       -3.1170     3.1670    -1.8190 O.2   1 <1>  -0.5700 
 20 C       -3.3940     5.1990    -0.6990 C.3   1 <1>  -0.0990 
 21 C        3.7130     2.7500    -0.1540 C.2   1 <1>   0.6900 
 22 C        3.4480     4.9020     1.0830 C.3   1 <1>   0.0600 
 23 C        4.0780     0.5930    -1.3450 C.3   1 <1>   0.0600 
 24 C       -2.8630     5.8700     0.5800 C.3   1 <1>  -0.1600 
 25 O        4.9060     2.7780     0.0960 O.2   1 <1>  -0.5700 
 26 H       -1.8130    -0.2780     2.8870 H     1 <1>   0.1500 
 27 H       -0.6400     2.3820    -2.0190 H     1 <1>   0.0800 
 28 H       -2.5430    -1.4380     0.5780 H     1 <1>   0.1500 
 29 H       -1.6980     0.4790    -2.5910 H     1 <1>   0.0800 
 30 H       -3.0840    -0.3390    -1.9250 H     1 <1>   0.0800 
 31 H       -1.5360    -1.1550    -2.0090 H     1 <1>   0.0800 
 32 H        1.1410     5.5000     0.9870 H     1 <1>   0.4000 
 33 H       -1.1350     6.9040    -0.1970 H     1 <1>   0.0800 
 34 H       -1.0020     6.4270     1.4750 H     1 <1>   0.0800 
 35 H       -4.4190     4.9050    -0.5520 H     1 <1>   0.0800 
 36 H       -3.3640     5.8950    -1.5170 H     1 <1>   0.0800 
 37 H        2.9780     4.9290     2.0500 H     1 <1>   0.0800 
 38 H        3.2770     5.8300     0.5690 H     1 <1>   0.0800 
 39 H        4.5080     4.7890     1.2290 H     1 <1>   0.0800 
 40 H        3.5320    -0.3340    -1.3770 H     1 <1>   0.0800 
 41 H        4.9110     0.4710    -0.6750 H     1 <1>   0.0800 
 42 H        4.4480     0.8180    -2.3300 H     1 <1>   0.0800 
 43 H       -3.3800     6.7980     0.7510 H     1 <1>   0.0800 
 44 H       -3.0630     5.2210     1.4160 H     1 <1>   0.0800 
@<TRIPOS>BOND
  1   1   2  1   
  2   1   3  1   
  3   2   4  2   
  4   2   5  1   
  5   3   6  2   
  6   3  26  1   
  7   4   6  1   
  8   4   7  1   
  9   5   8  1   
 10   5   9  1   
 11   5  27  1   
 12   6  28  1   
 13   7  29  1   
 14   7  30  1   
 15   7  31  1   
 16   8  10  2   
 17   8  11  1   
 18   9  12  2   
 19   9  13  1   
 20  10  14  1   
 21  10  15  1   
 22  11  16  2   
 23  11  17  am  
 24  12  15  1   
 25  12  18  1   
 26  13  19  2   
 27  13  20  1   
 28  14  21  am  
 29  14  22  1   
 30  15  32  1   
 31  17  21  am  
 32  17  23  1   
 33  18  24  1   
 34  18  33  1   
 35  18  34  1   
 36  20  24  1   
 37  20  35  1   
 38  20  36  1   
 39  21  25  2   
 40  22  37  1   
 41  22  38  1   
 42  22  39  1   
 43  23  40  1   
 44  23  41  1   
 45  23  42  1   
 46  24  43  1   
 47  24  44  1   
@<TRIPOS>SUBSTRUCTURE
  1 ****   5 GROUP 4 **** **** 0

# MOE 2024.06 (io_trps.svl 2023.06)
