@<TRIPOS>MOLECULE
NONAME
47 49 1 0 0 
SMALL
USER_CHARGES


@<TRIPOS>ATOM
  1 F       -0.8090     0.4010     0.5900 F     1 <1>  -0.1900 
  2 C       -1.7770    -0.4650     0.4500 C.ar  1 <1>   0.1900 
  3 C       -1.4760    -1.7380     0.0100 C.ar  1 <1>  -0.1500 
  4 C       -3.0670    -0.0760     0.7450 C.ar  1 <1>  -0.1500 
  5 C       -2.5080    -2.6480    -0.1380 C.ar  1 <1>  -0.1500 
  6 C       -4.0900    -0.9980     0.5940 C.ar  1 <1>  -0.1500 
  7 C       -3.8230    -2.2930     0.1530 C.ar  1 <1>  -0.1430 
  8 C       -4.9290    -3.3410    -0.0290 C.3   1 <1>   0.2070 
  9 C       -6.3250    -2.7260    -0.1880 C.ar  1 <1>  -0.1430 
 10 C       -4.9060    -4.3900     1.0970 C.3   1 <1>  -0.0990 
 11 C       -6.8150    -2.4810    -1.4640 C.ar  1 <1>  -0.1500 
 12 C       -7.1220    -2.4060     0.9060 C.ar  1 <1>  -0.1500 
 13 C       -3.9120    -5.4990     0.8170 C.2   1 <1>   0.5690 
 14 C       -8.0760    -1.9410    -1.6430 C.ar  1 <1>  -0.1500 
 15 C       -8.3840    -1.8650     0.7300 C.ar  1 <1>  -0.1500 
 16 O       -2.8890    -5.4990     1.4570 O.2   1 <1>  -0.5700 
 17 N       -4.1710    -6.4620    -0.1270 N.am  1 <1>  -0.6600 
 18 C       -8.8700    -1.6310    -0.5520 C.ar  1 <1>   0.0830 
 19 C       -3.1940    -7.5610    -0.3970 C.3   1 <1>   0.1400 
 20 C       -5.4220    -6.6000    -0.9400 C.3   1 <1>   0.1400 
 21 O      -10.0930    -1.1080    -0.8150 O.3   1 <1>  -0.3620 
 22 C       -3.8840    -8.9330    -0.3190 C.3   1 <1>   0.1200 
 23 C       -5.9870    -8.0250    -0.8240 C.3   1 <1>   0.1200 
 24 C      -10.9680    -0.7260     0.2230 C.3   1 <1>   0.0400 
 25 O       -5.0090    -8.9690    -1.1520 O.3   1 <1>  -0.5600 
 26 H       -0.4590    -2.0080    -0.2070 H     1 <1>   0.1500 
 27 H       -3.2650     0.9240     1.0850 H     1 <1>   0.1500 
 28 H       -2.2740    -3.6430    -0.4760 H     1 <1>   0.1500 
 29 H       -5.0930    -0.6850     0.8230 H     1 <1>   0.1500 
 30 H       -4.7180    -3.8500    -0.9530 H     1 <1>   0.0800 
 31 H       -5.8740    -4.8340     1.2280 H     1 <1>   0.0800 
 32 H       -4.6480    -3.9120     2.0240 H     1 <1>   0.0800 
 33 H       -6.2170    -2.7040    -2.3300 H     1 <1>   0.1500 
 34 H       -6.7650    -2.5690     1.9070 H     1 <1>   0.1500 
 35 H       -8.4520    -1.7520    -2.6320 H     1 <1>   0.1500 
 36 H       -8.9710    -1.6320     1.5980 H     1 <1>   0.1500 
 37 H       -2.3830    -7.5360     0.3110 H     1 <1>   0.0800 
 38 H       -2.7760    -7.4310    -1.3800 H     1 <1>   0.0800 
 39 H       -5.1940    -6.4010    -1.9720 H     1 <1>   0.0800 
 40 H       -6.1760    -5.9010    -0.6300 H     1 <1>   0.0800 
 41 H       -4.1920    -9.1440     0.6910 H     1 <1>   0.0800 
 42 H       -3.2100    -9.7060    -0.6430 H     1 <1>   0.0800 
 43 H       -6.8090    -8.1560    -1.5060 H     1 <1>   0.0800 
 44 H       -6.3330    -8.2180     0.1770 H     1 <1>   0.0800 
 45 H      -11.8640    -0.3340    -0.2230 H     1 <1>   0.0800 
 46 H      -10.4930     0.0340     0.8180 H     1 <1>   0.0800 
 47 H      -11.2040    -1.5910     0.8170 H     1 <1>   0.0800 
@<TRIPOS>BOND
  1   1   2  1   
  2   2   3  ar  
  3   2   4  ar  
  4   3   5  ar  
  5   3  26  1   
  6   4   6  ar  
  7   4  27  1   
  8   5   7  ar  
  9   5  28  1   
 10   6   7  ar  
 11   6  29  1   
 12   7   8  1   
 13   8   9  1   
 14   8  10  1   
 15   8  30  1   
 16   9  11  ar  
 17   9  12  ar  
 18  10  13  1   
 19  10  31  1   
 20  10  32  1   
 21  11  14  ar  
 22  11  33  1   
 23  12  15  ar  
 24  12  34  1   
 25  13  16  2   
 26  13  17  am  
 27  14  18  ar  
 28  14  35  1   
 29  15  18  ar  
 30  15  36  1   
 31  17  19  1   
 32  17  20  1   
 33  18  21  1   
 34  19  22  1   
 35  19  37  1   
 36  19  38  1   
 37  20  23  1   
 38  20  39  1   
 39  20  40  1   
 40  21  24  1   
 41  22  25  1   
 42  22  41  1   
 43  22  42  1   
 44  23  25  1   
 45  23  43  1   
 46  23  44  1   
 47  24  45  1   
 48  24  46  1   
 49  24  47  1   
@<TRIPOS>SUBSTRUCTURE
  1 ****   8 GROUP 4 **** **** 0

# MOE 2024.06 (io_trps.svl 2023.06)
