@<TRIPOS>MOLECULE
NONAME
29 30 1 0 0 
SMALL
USER_CHARGES


@<TRIPOS>ATOM
  1 S       -0.1780     0.1470    -0.2240 S.o2  1 <1>   1.2040 
  2 O        0.9540    -0.7020    -0.5170 O.2   1 <1>  -0.6500 
  3 O       -0.4980     1.2570    -1.0940 O.2   1 <1>  -0.6500 
  4 C       -1.6540    -0.8700     0.0110 C.ar  1 <1>  -0.0090 
  5 C        0.0730     0.8150     1.4080 C.3   1 <1>  -0.1350 
  6 C       -2.9200    -0.3620    -0.2470 C.ar  1 <1>  -0.1500 
  7 C       -1.5580    -2.1720     0.4870 C.ar  1 <1>  -0.1500 
  8 C       -4.0720    -1.1090    -0.0390 C.ar  1 <1>   0.1170 
  9 C       -2.6920    -2.9370     0.7010 C.ar  1 <1>  -0.1500 
 10 N       -5.3140    -0.5300    -0.3340 N.am  1 <1>  -0.5470 
 11 C       -3.9400    -2.4070     0.4400 C.ar  1 <1>  -0.1500 
 12 C       -6.5590    -0.7920     0.1610 C.2   1 <1>   0.6300 
 13 O       -6.7890    -1.6170     1.0090 O.2   1 <1>  -0.5700 
 14 C       -7.7130     0.0230    -0.4030 C.3   1 <1>  -0.1000 
 15 C       -7.6200     1.5130    -0.5910 C.3   1 <1>  -0.2000 
 16 C       -8.4950     0.9480     0.4840 C.3   1 <1>  -0.2000 
 17 H        0.9340     1.4550     1.4130 H     1 <1>   0.0800 
 18 H        0.2320     0.0250     2.1160 H     1 <1>   0.0800 
 19 H       -0.7800     1.3890     1.7140 H     1 <1>   0.0800 
 20 H       -3.0100     0.6430    -0.6200 H     1 <1>   0.1500 
 21 H       -0.5880    -2.5970     0.6880 H     1 <1>   0.1500 
 22 H       -2.6030    -3.9450     1.0690 H     1 <1>   0.1500 
 23 H       -5.2900     0.2400    -1.0000 H     1 <1>   0.3700 
 24 H       -4.8140    -3.0120     0.6060 H     1 <1>   0.1500 
 25 H       -8.2780    -0.5450    -1.1200 H     1 <1>   0.1000 
 26 H       -8.0910     1.9580    -1.4510 H     1 <1>   0.1000 
 27 H       -6.7390     2.0460    -0.2810 H     1 <1>   0.1000 
 28 H       -8.1920     1.0400     1.5140 H     1 <1>   0.1000 
 29 H       -9.5640     0.9870     0.3670 H     1 <1>   0.1000 
@<TRIPOS>BOND
  1   1   2  2   
  2   1   3  2   
  3   1   4  1   
  4   1   5  1   
  5   4   6  ar  
  6   4   7  ar  
  7   5  17  1   
  8   5  18  1   
  9   5  19  1   
 10   6   8  ar  
 11   6  20  1   
 12   7   9  ar  
 13   7  21  1   
 14   8  10  1   
 15   8  11  ar  
 16   9  11  ar  
 17   9  22  1   
 18  10  12  am  
 19  10  23  1   
 20  11  24  1   
 21  12  13  2   
 22  12  14  1   
 23  14  15  1   
 24  14  16  1   
 25  14  25  1   
 26  15  16  1   
 27  15  26  1   
 28  15  27  1   
 29  16  28  1   
 30  16  29  1   
@<TRIPOS>SUBSTRUCTURE
  1 ****   8 GROUP 4 **** **** 0

# MOE 2024.06 (io_trps.svl 2023.06)
