@<TRIPOS>MOLECULE
NONAME
36 37 1 0 0 
SMALL
USER_CHARGES


@<TRIPOS>ATOM
  1 F       -2.0160     2.8360    -0.3210 F     1 <1>  -0.3400 
  2 C       -3.0880     3.1330     0.4030 C.3   1 <1>   1.1640 
  3 F       -2.7290     2.9970     1.6730 F     1 <1>  -0.3400 
  4 F       -3.3130     4.4280     0.2160 F     1 <1>  -0.3400 
  5 C       -4.3020     2.2570     0.0540 C.ar  1 <1>  -0.1440 
  6 C       -5.5960     2.7550     0.1680 C.ar  1 <1>  -0.1500 
  7 C       -4.1340     0.9450    -0.3760 C.ar  1 <1>  -0.1500 
  8 C       -6.6960     1.9720    -0.1410 C.ar  1 <1>   0.0830 
  9 C       -5.2270     0.1550    -0.6880 C.ar  1 <1>  -0.1500 
 10 O       -7.9120     2.5530     0.0050 O.3   1 <1>  -0.3630 
 11 C       -6.5080     0.6630    -0.5730 C.ar  1 <1>  -0.1500 
 12 C       -9.1000     1.8470    -0.2500 C.3   1 <1>   0.1200 
 13 C      -10.2590     2.8110     0.0170 C.3   1 <1>   0.3430 
 14 N      -11.6010     2.1830    -0.2060 N.4   1 <1>  -0.9590 
 15 C      -12.7040     3.2040    -0.2160 C.3   1 <1>   0.3430 
 16 C      -11.9390     1.0770     0.7590 C.3   1 <1>   0.3430 
 17 C      -14.0790     2.5450    -0.4790 C.3   1 <1>   0.1200 
 18 C      -13.3710     0.5390     0.5290 C.3   1 <1>   0.1200 
 19 O      -13.9640     1.1510    -0.5840 O.3   1 <1>  -0.5600 
 20 H       -5.7650     3.7640     0.5020 H     1 <1>   0.1500 
 21 H       -3.1450     0.5250    -0.4720 H     1 <1>   0.1500 
 22 H       -5.0760    -0.8580    -1.0210 H     1 <1>   0.1500 
 23 H       -7.3320     0.0240    -0.8250 H     1 <1>   0.1500 
 24 H       -9.1300     1.0010     0.4140 H     1 <1>   0.0800 
 25 H       -9.0890     1.5340    -1.2790 H     1 <1>   0.0800 
 26 H      -10.1480     3.6560    -0.6430 H     1 <1>   0.0800 
 27 H      -10.1910     3.1640     1.0330 H     1 <1>   0.0800 
 28 H      -11.6450     1.7510    -1.1430 H     1 <1>   0.4500 
 29 H      -12.5180     3.9440    -0.9780 H     1 <1>   0.0800 
 30 H      -12.7390     3.7180     0.7310 H     1 <1>   0.0800 
 31 H      -11.8590     1.4320     1.7730 H     1 <1>   0.0800 
 32 H      -11.2420     0.2620     0.6470 H     1 <1>   0.0800 
 33 H      -14.4930     2.9090    -1.4040 H     1 <1>   0.0800 
 34 H      -14.7710     2.7770     0.3120 H     1 <1>   0.0800 
 35 H      -13.9900     0.7180     1.3920 H     1 <1>   0.0800 
 36 H      -13.3460    -0.5210     0.3480 H     1 <1>   0.0800 
@<TRIPOS>BOND
  1   1   2  1   
  2   2   3  1   
  3   2   4  1   
  4   2   5  1   
  5   5   6  ar  
  6   5   7  ar  
  7   6   8  ar  
  8   6  20  1   
  9   7   9  ar  
 10   7  21  1   
 11   8  10  1   
 12   8  11  ar  
 13   9  11  ar  
 14   9  22  1   
 15  10  12  1   
 16  11  23  1   
 17  12  13  1   
 18  12  24  1   
 19  12  25  1   
 20  13  14  1   
 21  13  26  1   
 22  13  27  1   
 23  14  15  1   
 24  14  16  1   
 25  14  28  1   
 26  15  17  1   
 27  15  29  1   
 28  15  30  1   
 29  16  18  1   
 30  16  31  1   
 31  16  32  1   
 32  17  19  1   
 33  17  33  1   
 34  17  34  1   
 35  18  19  1   
 36  18  35  1   
 37  18  36  1   
@<TRIPOS>SUBSTRUCTURE
  1 ****  10 GROUP 4 **** **** 0

# MOE 2024.06 (io_trps.svl 2023.06)
