@<TRIPOS>MOLECULE
NONAME
37 37 1 0 0 
SMALL
USER_CHARGES


@<TRIPOS>ATOM
  1 O        1.0740     1.3170     0.6130 O.2   1 <1>  -0.5700 
  2 C        0.5550     2.1760    -0.0740 C.2   1 <1>   0.5440 
  3 N        1.2960     2.7060    -1.0940 N.am  1 <1>  -0.7300 
  4 C       -0.7890     2.6630     0.1820 C.ar  1 <1>   0.0860 
  5 C        2.5470     2.1260    -1.6710 C.3   1 <1>   0.1400 
  6 C       -1.9010     1.8180     0.2890 C.ar  1 <1>  -0.1430 
  7 C       -1.0020     4.0350     0.3190 C.ar  1 <1>  -0.1500 
  8 C        3.8030     2.4940    -0.8530 C.3   1 <1>   0.3430 
  9 C       -3.1610     2.3460     0.5220 C.ar  1 <1>  -0.1500 
 10 C       -1.7620     0.3060     0.1510 C.3   1 <1>  -0.0960 
 11 C       -2.2610     4.5550     0.5490 C.ar  1 <1>  -0.1500 
 12 N        3.7530     1.9150     0.5240 N.4   1 <1>  -0.9590 
 13 C       -3.3510     3.7110     0.6500 C.ar  1 <1>  -0.1430 
 14 C        4.4420     2.7680     1.5340 C.3   1 <1>   0.2630 
 15 C        4.2220     0.5000     0.5750 C.3   1 <1>   0.2630 
 16 C       -4.7390     4.2700     0.9060 C.3   1 <1>  -0.0970 
 17 H        0.8040     3.3670    -1.7060 H     1 <1>   0.3700 
 18 H        2.6640     2.4980    -2.6740 H     1 <1>   0.0800 
 19 H        2.4510     1.0550    -1.7300 H     1 <1>   0.0800 
 20 H       -0.1680     4.7100     0.2520 H     1 <1>   0.1500 
 21 H        3.8600     3.5680    -0.7950 H     1 <1>   0.0800 
 22 H        4.6850     2.1420    -1.3630 H     1 <1>   0.0800 
 23 H       -4.0110     1.6910     0.6060 H     1 <1>   0.1500 
 24 H       -1.2210     0.0590    -0.7450 H     1 <1>   0.0800 
 25 H       -2.7250    -0.1700     0.1010 H     1 <1>   0.0800 
 26 H       -1.2320    -0.0910     0.9980 H     1 <1>   0.0800 
 27 H       -2.3920     5.6190     0.6530 H     1 <1>   0.1500 
 28 H        2.7330     1.8790     0.7630 H     1 <1>   0.4500 
 29 H        5.4960     2.8280     1.3190 H     1 <1>   0.0800 
 30 H        4.3120     2.3520     2.5200 H     1 <1>   0.0800 
 31 H        4.0270     3.7620     1.5270 H     1 <1>   0.0800 
 32 H        5.2610     0.4350     0.3000 H     1 <1>   0.0800 
 33 H        3.6400    -0.1080    -0.1000 H     1 <1>   0.0800 
 34 H        4.1000     0.1060     1.5710 H     1 <1>   0.0800 
 35 H       -4.9530     4.2420     1.9600 H     1 <1>   0.0800 
 36 H       -5.4790     3.6880     0.3860 H     1 <1>   0.0800 
 37 H       -4.8080     5.2870     0.5650 H     1 <1>   0.0800 
@<TRIPOS>BOND
  1   1   2  2   
  2   2   3  am  
  3   2   4  1   
  4   3   5  1   
  5   3  17  1   
  6   4   6  ar  
  7   4   7  ar  
  8   5   8  1   
  9   5  18  1   
 10   5  19  1   
 11   6   9  ar  
 12   6  10  1   
 13   7  11  ar  
 14   7  20  1   
 15   8  12  1   
 16   8  21  1   
 17   8  22  1   
 18   9  13  ar  
 19   9  23  1   
 20  10  24  1   
 21  10  25  1   
 22  10  26  1   
 23  11  13  ar  
 24  11  27  1   
 25  12  14  1   
 26  12  15  1   
 27  12  28  1   
 28  13  16  1   
 29  14  29  1   
 30  14  30  1   
 31  14  31  1   
 32  15  32  1   
 33  15  33  1   
 34  15  34  1   
 35  16  35  1   
 36  16  36  1   
 37  16  37  1   
@<TRIPOS>SUBSTRUCTURE
  1 ****   2 GROUP 4 **** **** 0

# MOE 2024.06 (io_trps.svl 2023.06)
