@<TRIPOS>MOLECULE
NONAME
39 40 1 0 0 
SMALL
USER_CHARGES


@<TRIPOS>ATOM
  1 CL       0.0520     0.4700     0.2220 Cl    1 <1>  -0.1770 
  2 C        1.6930     1.0750     0.2670 C.ar  1 <1>   0.1770 
  3 C        2.7560     0.2450    -0.0640 C.ar  1 <1>  -0.1440 
  4 C        1.8930     2.3920     0.6380 C.ar  1 <1>  -0.1500 
  5 C        4.0430     0.7610    -0.0170 C.ar  1 <1>  -0.1500 
  6 C        2.5180    -1.2030    -0.4700 C.3   1 <1>  -0.0960 
  7 C        3.1800     2.8960     0.6810 C.ar  1 <1>  -0.1500 
  8 C        4.2590     2.0880     0.3560 C.ar  1 <1>   0.0830 
  9 O        5.4870     2.6630     0.4240 O.3   1 <1>  -0.3630 
 10 C        6.6540     1.9450     0.1160 C.3   1 <1>   0.1200 
 11 C        7.8290     2.9060     0.2940 C.3   1 <1>  -0.1600 
 12 C        9.1520     2.2170    -0.0330 C.3   1 <1>   0.3430 
 13 N       10.2960     3.1330     0.2360 N.4   1 <1>  -0.9590 
 14 C       10.3590     4.2830    -0.7390 C.3   1 <1>   0.3430 
 15 C       11.6010     2.3810     0.2300 C.3   1 <1>   0.3430 
 16 C       11.6210     5.1410    -0.5260 C.3   1 <1>   0.1200 
 17 C       12.8050     3.3270     0.4010 C.3   1 <1>   0.1200 
 18 O       12.7640     4.3380    -0.5630 O.3   1 <1>  -0.5600 
 19 H        1.0500     3.0100     0.8880 H     1 <1>   0.1500 
 20 H        4.8630     0.1190    -0.2720 H     1 <1>   0.1500 
 21 H        1.8920    -1.2400    -1.3430 H     1 <1>   0.0800 
 22 H        2.0290    -1.7320     0.3280 H     1 <1>   0.0800 
 23 H        3.4440    -1.7020    -0.6930 H     1 <1>   0.0800 
 24 H        3.3530     3.9180     0.9680 H     1 <1>   0.1500 
 25 H        6.5780     1.6020    -0.9020 H     1 <1>   0.0800 
 26 H        6.7230     1.1090     0.7920 H     1 <1>   0.0800 
 27 H        7.8380     3.2440     1.3150 H     1 <1>   0.0800 
 28 H        7.6740     3.7440    -0.3620 H     1 <1>   0.0800 
 29 H        9.1620     1.9070    -1.0660 H     1 <1>   0.0800 
 30 H        9.2460     1.3360     0.5830 H     1 <1>   0.0800 
 31 H       10.1760     3.5320     1.1770 H     1 <1>   0.4500 
 32 H        9.4880     4.9090    -0.6320 H     1 <1>   0.0800 
 33 H       10.3740     3.9060    -1.7480 H     1 <1>   0.0800 
 34 H       11.7150     1.8580    -0.7060 H     1 <1>   0.0800 
 35 H       11.6100     1.6490     1.0210 H     1 <1>   0.0800 
 36 H       11.5890     5.6590     0.4170 H     1 <1>   0.0800 
 37 H       11.7100     5.8710    -1.3130 H     1 <1>   0.0800 
 38 H       13.7250     2.7840     0.2650 H     1 <1>   0.0800 
 39 H       12.8140     3.7770     1.3780 H     1 <1>   0.0800 
@<TRIPOS>BOND
  1   1   2  1   
  2   2   3  ar  
  3   2   4  ar  
  4   3   5  ar  
  5   3   6  1   
  6   4   7  ar  
  7   4  19  1   
  8   5   8  ar  
  9   5  20  1   
 10   6  21  1   
 11   6  22  1   
 12   6  23  1   
 13   7   8  ar  
 14   7  24  1   
 15   8   9  1   
 16   9  10  1   
 17  10  11  1   
 18  10  25  1   
 19  10  26  1   
 20  11  12  1   
 21  11  27  1   
 22  11  28  1   
 23  12  13  1   
 24  12  29  1   
 25  12  30  1   
 26  13  14  1   
 27  13  15  1   
 28  13  31  1   
 29  14  16  1   
 30  14  32  1   
 31  14  33  1   
 32  15  17  1   
 33  15  34  1   
 34  15  35  1   
 35  16  18  1   
 36  16  36  1   
 37  16  37  1   
 38  17  18  1   
 39  17  38  1   
 40  17  39  1   
@<TRIPOS>SUBSTRUCTURE
  1 ****  10 GROUP 4 **** **** 0

# MOE 2024.06 (io_trps.svl 2023.06)
