@<TRIPOS>MOLECULE
NONAME
45 48 1 0 0 
SMALL
USER_CHARGES


@<TRIPOS>ATOM
  1 O        0.3020    -0.8740     0.8880 O.2   1 <1>  -0.5700 
  2 C        0.9860    -1.8370     0.6360 C.2   1 <1>   0.5690 
  3 N        2.3280    -1.6190     0.5860 N.am  1 <1>  -0.7300 
  4 C        0.3000    -3.2120     0.3950 C.3   1 <1>   0.0610 
  5 C        3.4950    -2.4900     0.3150 C.3   1 <1>   0.1400 
  6 C        0.6910    -4.2350     1.4950 C.3   1 <1>  -0.1600 
  7 C        0.6460    -3.7930    -1.0030 C.3   1 <1>  -0.1600 
  8 C       -1.2490    -3.0680     0.4480 C.3   1 <1>  -0.1600 
  9 C        4.1080    -2.1290    -1.0380 C.3   1 <1>  -0.0170 
 10 C        0.0080    -5.5950     1.2590 C.3   1 <1>  -0.0800 
 11 C       -0.0390    -5.1540    -1.2280 C.3   1 <1>  -0.0800 
 12 C       -1.9600    -4.4160     0.2220 C.3   1 <1>  -0.0800 
 13 C        5.2260    -3.0990    -1.3780 C.ar  1 <1>  -0.1440 
 14 C        0.4080    -6.1340    -0.1270 C.3   1 <1>  -0.1600 
 15 C       -1.5180    -5.4080     1.3110 C.3   1 <1>  -0.1600 
 16 C       -1.5650    -4.9680    -1.1580 C.3   1 <1>  -0.1600 
 17 C        6.5410    -2.8480    -1.0400 C.ar  1 <1>  -0.1500 
 18 C        4.9810    -4.2860    -2.0380 C.ar  1 <1>  -0.1500 
 19 C        7.5190    -3.7730    -1.3670 C.ar  1 <1>   0.1600 
 20 C        6.0330    -5.1420    -2.3190 C.ar  1 <1>   0.1600 
 21 N        7.2960    -4.9150    -1.9970 N.ar  1 <1>  -0.6200 
 22 H        2.5680    -0.6440     0.7820 H     1 <1>   0.3700 
 23 H        3.2160    -3.5250     0.3150 H     1 <1>   0.0800 
 24 H        4.2270    -2.3510     1.0930 H     1 <1>   0.0800 
 25 H        0.4000    -3.8490     2.4570 H     1 <1>   0.0800 
 26 H        1.7520    -4.3850     1.5260 H     1 <1>   0.0800 
 27 H        0.3320    -3.1000    -1.7640 H     1 <1>   0.0800 
 28 H        1.7010    -3.9300    -1.1140 H     1 <1>   0.0800 
 29 H       -1.5730    -2.3650    -0.3000 H     1 <1>   0.0800 
 30 H       -1.5430    -2.6710     1.4040 H     1 <1>   0.0800 
 31 H        4.4930    -1.1250    -1.0060 H     1 <1>   0.0800 
 32 H        3.3520    -2.1750    -1.8020 H     1 <1>   0.0800 
 33 H        0.3120    -6.2920     2.0220 H     1 <1>   0.0800 
 34 H        0.2330    -5.5430    -2.1950 H     1 <1>   0.0800 
 35 H       -3.0260    -4.2770     0.2660 H     1 <1>   0.0800 
 36 H       -0.0530    -7.0930    -0.2890 H     1 <1>   0.0800 
 37 H        1.4740    -6.2740    -0.1710 H     1 <1>   0.0800 
 38 H       -1.8080    -5.0380     2.2790 H     1 <1>   0.0800 
 39 H       -2.0080    -6.3540     1.1630 H     1 <1>   0.0800 
 40 H       -2.0560    -5.9110    -1.3280 H     1 <1>   0.0800 
 41 H       -1.8870    -4.2890    -1.9280 H     1 <1>   0.0800 
 42 H        6.8160    -1.9460    -0.5260 H     1 <1>   0.1500 
 43 H        3.9850    -4.5540    -2.3390 H     1 <1>   0.1500 
 44 H        8.5400    -3.5620    -1.0960 H     1 <1>   0.1500 
 45 H        5.8240    -6.0640    -2.8350 H     1 <1>   0.1500 
@<TRIPOS>BOND
  1   1   2  2   
  2   2   3  am  
  3   2   4  1   
  4   3   5  1   
  5   3  22  1   
  6   4   6  1   
  7   4   7  1   
  8   4   8  1   
  9   5   9  1   
 10   5  23  1   
 11   5  24  1   
 12   6  10  1   
 13   6  25  1   
 14   6  26  1   
 15   7  11  1   
 16   7  27  1   
 17   7  28  1   
 18   8  12  1   
 19   8  29  1   
 20   8  30  1   
 21   9  13  1   
 22   9  31  1   
 23   9  32  1   
 24  10  14  1   
 25  10  15  1   
 26  10  33  1   
 27  11  14  1   
 28  11  16  1   
 29  11  34  1   
 30  12  15  1   
 31  12  16  1   
 32  12  35  1   
 33  13  17  ar  
 34  13  18  ar  
 35  14  36  1   
 36  14  37  1   
 37  15  38  1   
 38  15  39  1   
 39  16  40  1   
 40  16  41  1   
 41  17  19  ar  
 42  17  42  1   
 43  18  20  ar  
 44  18  43  1   
 45  19  21  ar  
 46  19  44  1   
 47  20  21  ar  
 48  20  45  1   
@<TRIPOS>SUBSTRUCTURE
  1 ****   7 GROUP 4 **** **** 0

# MOE 2024.06 (io_trps.svl 2023.06)
