@<TRIPOS>MOLECULE
NONAME
42 42 1 0 0 
SMALL
USER_CHARGES


@<TRIPOS>ATOM
  1 O       -2.4180     0.1370     1.8190 O.3   1 <1>  -0.3630 
  2 C       -2.5950     0.8770     0.6870 C.ar  1 <1>   0.0830 
  3 C       -1.1500    -0.1450     2.3680 C.3   1 <1>   0.0400 
  4 C       -1.6410     1.6890     0.0460 C.ar  1 <1>   0.0830 
  5 C       -3.8710     0.7830     0.1580 C.ar  1 <1>  -0.1500 
  6 O       -0.3840     1.8140     0.5620 O.3   1 <1>  -0.3630 
  7 C       -2.0120     2.3680    -1.1130 C.ar  1 <1>  -0.1500 
  8 C       -4.2350     1.4720    -0.9870 C.ar  1 <1>  -0.1430 
  9 C        0.6260     2.5780    -0.0620 C.3   1 <1>   0.0400 
 10 C       -3.2930     2.2620    -1.6250 C.ar  1 <1>  -0.1500 
 11 C       -5.6490     1.3670    -1.5210 C.3   1 <1>   0.4860 
 12 N       -6.5730     1.9880    -0.5370 N.4   1 <1>  -0.9590 
 13 C       -7.9810     1.6350    -0.8060 C.3   1 <1>   0.4810 
 14 C       -6.3400     3.4490    -0.4000 C.3   1 <1>   0.3430 
 15 C       -8.3410     0.5250     0.1640 C.2   1 <1>  -0.2760 
 16 C       -6.9380     3.9420     0.9120 C.3   1 <1>  -0.2400 
 17 C       -9.0570     0.7450     1.2720 C.2   1 <1>  -0.3000 
 18 C       -7.8540    -0.8720    -0.2070 C.3   1 <1>  -0.1020 
 19 H       -1.2750    -0.8740     3.1470 H     1 <1>   0.0800 
 20 H       -0.7400     0.7600     2.7790 H     1 <1>   0.0800 
 21 H       -0.5130    -0.5390     1.5950 H     1 <1>   0.0800 
 22 H       -4.5720     0.1480     0.6710 H     1 <1>   0.1500 
 23 H       -1.3130     2.9920    -1.6380 H     1 <1>   0.1500 
 24 H        1.5200     2.4940     0.5290 H     1 <1>   0.0800 
 25 H        0.3130     3.6070    -0.1020 H     1 <1>   0.0800 
 26 H        0.8040     2.1870    -1.0480 H     1 <1>   0.0800 
 27 H       -3.5380     2.8020    -2.5240 H     1 <1>   0.1500 
 28 H       -5.8940     0.3270    -1.6620 H     1 <1>   0.0800 
 29 H       -5.7240     1.8660    -2.4730 H     1 <1>   0.0800 
 30 H       -6.3600     1.5650     0.3760 H     1 <1>   0.4500 
 31 H       -8.1280     1.3220    -1.8270 H     1 <1>   0.0800 
 32 H       -8.6160     2.4850    -0.6140 H     1 <1>   0.0800 
 33 H       -6.7720     3.9800    -1.2330 H     1 <1>   0.0800 
 34 H       -5.2790     3.6490    -0.3860 H     1 <1>   0.0800 
 35 H       -8.0080     3.8450     0.9240 H     1 <1>   0.0800 
 36 H       -6.7020     4.9840     1.0360 H     1 <1>   0.0800 
 37 H       -6.5160     3.4080     1.7460 H     1 <1>   0.0800 
 38 H       -9.4380     1.7030     1.5840 H     1 <1>   0.1500 
 39 H       -9.3340    -0.0250     1.9750 H     1 <1>   0.1500 
 40 H       -6.7820    -0.9370    -0.1660 H     1 <1>   0.0800 
 41 H       -8.1880    -1.1390    -1.1940 H     1 <1>   0.0800 
 42 H       -8.2490    -1.6000     0.4810 H     1 <1>   0.0800 
@<TRIPOS>BOND
  1   1   2  1   
  2   1   3  1   
  3   2   4  ar  
  4   2   5  ar  
  5   3  19  1   
  6   3  20  1   
  7   3  21  1   
  8   4   6  1   
  9   4   7  ar  
 10   5   8  ar  
 11   5  22  1   
 12   6   9  1   
 13   7  10  ar  
 14   7  23  1   
 15   8  10  ar  
 16   8  11  1   
 17   9  24  1   
 18   9  25  1   
 19   9  26  1   
 20  10  27  1   
 21  11  12  1   
 22  11  28  1   
 23  11  29  1   
 24  12  13  1   
 25  12  14  1   
 26  12  30  1   
 27  13  15  1   
 28  13  31  1   
 29  13  32  1   
 30  14  16  1   
 31  14  33  1   
 32  14  34  1   
 33  15  17  2   
 34  15  18  1   
 35  16  35  1   
 36  16  36  1   
 37  16  37  1   
 38  17  38  1   
 39  17  39  1   
 40  18  40  1   
 41  18  41  1   
 42  18  42  1   
@<TRIPOS>SUBSTRUCTURE
  1 ****   5 GROUP 4 **** **** 0

# MOE 2024.06 (io_trps.svl 2023.06)
