@<TRIPOS>MOLECULE
NONAME
34 35 1 0 0 
SMALL
USER_CHARGES


@<TRIPOS>ATOM
  1 O       -2.4450    -1.8320     1.4280 O.2   1 <1>  -0.5700 
  2 C       -2.5800    -2.7750     0.6850 C.2   1 <1>   0.5690 
  3 N       -3.6550    -3.0290    -0.1230 N.am  1 <1>  -0.2370 
  4 C       -1.5210    -3.8740     0.5630 C.3   1 <1>   0.2510 
  5 C       -4.7900    -2.1950    -0.2540 C.ar  1 <1>   0.1170 
  6 C       -3.4600    -4.2150    -0.7830 C.2   1 <1>   0.5690 
  7 N       -0.2180    -3.3810     0.0740 N.3   1 <1>  -0.9000 
  8 C       -2.1320    -4.8460    -0.4490 C.3   1 <1>  -0.0990 
  9 C       -4.6470    -0.8220    -0.4320 C.ar  1 <1>  -0.1500 
 10 C       -6.0770    -2.7230    -0.2070 C.ar  1 <1>  -0.1500 
 11 O       -4.2330    -4.7520    -1.5340 O.2   1 <1>  -0.5700 
 12 C        0.8740    -4.3290     0.3300 C.3   1 <1>   0.1100 
 13 C       -5.7530    -0.0020    -0.5590 C.ar  1 <1>  -0.1500 
 14 C       -7.1860    -1.9060    -0.3330 C.ar  1 <1>  -0.1500 
 15 C        2.1830    -3.8000    -0.2540 C.3   1 <1>   0.1200 
 16 C       -7.0260    -0.5430    -0.5090 C.ar  1 <1>  -0.1500 
 17 O        3.1930    -4.7090     0.0490 O.3   1 <1>  -0.5600 
 18 C        4.4400    -4.3500    -0.4500 C.3   1 <1>   0.0400 
 19 H       -1.4080    -4.3410     1.5270 H     1 <1>   0.0800 
 20 H       -0.0140    -2.5100     0.5920 H     1 <1>   0.3600 
 21 H       -2.2910    -5.8140    -0.0130 H     1 <1>   0.0800 
 22 H       -1.5410    -4.9310    -1.3430 H     1 <1>   0.0800 
 23 H       -3.6630    -0.3890    -0.4690 H     1 <1>   0.1500 
 24 H       -6.2150    -3.7820    -0.0760 H     1 <1>   0.1500 
 25 H        0.6520    -5.2770    -0.1310 H     1 <1>   0.0800 
 26 H        0.9940    -4.4710     1.3910 H     1 <1>   0.0800 
 27 H       -5.6250     1.0580    -0.6940 H     1 <1>   0.1500 
 28 H       -8.1740    -2.3310    -0.2970 H     1 <1>   0.1500 
 29 H        2.4340    -2.8490     0.1830 H     1 <1>   0.0800 
 30 H        2.1030    -3.7130    -1.3240 H     1 <1>   0.0800 
 31 H       -7.8880     0.0930    -0.6070 H     1 <1>   0.1500 
 32 H        5.1460    -5.1100    -0.1640 H     1 <1>   0.0800 
 33 H        4.7350    -3.4040    -0.0270 H     1 <1>   0.0800 
 34 H        4.3900    -4.2870    -1.5230 H     1 <1>   0.0800 
@<TRIPOS>BOND
  1   1   2  2   
  2   2   3  am  
  3   2   4  1   
  4   3   5  1   
  5   3   6  am  
  6   4   7  1   
  7   4   8  1   
  8   4  19  1   
  9   5   9  ar  
 10   5  10  ar  
 11   6   8  1   
 12   6  11  2   
 13   7  12  1   
 14   7  20  1   
 15   8  21  1   
 16   8  22  1   
 17   9  13  ar  
 18   9  23  1   
 19  10  14  ar  
 20  10  24  1   
 21  12  15  1   
 22  12  25  1   
 23  12  26  1   
 24  13  16  ar  
 25  13  27  1   
 26  14  16  ar  
 27  14  28  1   
 28  15  17  1   
 29  15  29  1   
 30  15  30  1   
 31  16  31  1   
 32  17  18  1   
 33  18  32  1   
 34  18  33  1   
 35  18  34  1   
@<TRIPOS>SUBSTRUCTURE
  1 ****   2 GROUP 4 **** **** 0

# MOE 2024.06 (io_trps.svl 2023.06)
