@<TRIPOS>MOLECULE
NONAME
35 35 1 0 0 
SMALL
USER_CHARGES


@<TRIPOS>ATOM
  1 S       -0.8910    -0.9940    -1.5450 S.3   1 <1>  -0.2820 
  2 C       -1.9350    -1.1290    -0.1410 C.2   1 <1>   0.6410 
  3 C        0.5440    -1.1340    -0.5210 C.2   1 <1>   0.5300 
  4 N       -1.0880    -1.2580     0.9420 N.pl3 1 <1>  -0.4080 
  5 N       -3.1960    -1.0850    -0.2940 N.2   1 <1>  -0.6960 
  6 N        0.2810    -1.2610     0.7120 N.2   1 <1>  -0.4920 
  7 C        1.8800    -1.0860    -1.2200 C.3   1 <1>  -0.1790 
  8 C       -4.2370    -1.2290     0.7820 C.3   1 <1>   0.5460 
  9 N       -5.3730    -1.5730    -0.1340 N.am  1 <1>  -0.7300 
 10 C       -4.4150     0.1010     1.6200 C.3   1 <1>   1.0200 
 11 C       -3.9660    -2.3590     1.8540 C.3   1 <1>   1.0200 
 12 C       -6.6890    -1.5120     0.1200 C.2   1 <1>   0.7800 
 13 F       -5.1440     0.0020     2.7250 F     1 <1>  -0.3400 
 14 F       -4.9670     1.0840     0.9110 F     1 <1>  -0.3400 
 15 F       -3.2470     0.5930     2.0290 F     1 <1>  -0.3400 
 16 F       -3.5180    -3.4770     1.2880 F     1 <1>  -0.3400 
 17 F       -3.0350    -2.0390     2.7520 F     1 <1>  -0.3400 
 18 F       -5.0240    -2.7340     2.5610 F     1 <1>  -0.3400 
 19 O       -7.1260    -1.2710     1.2210 O.2   1 <1>  -0.5700 
 20 O       -7.4890    -1.7300    -0.9140 O.3   1 <1>  -0.4300 
 21 C       -8.8920    -1.7150    -0.7880 C.3   1 <1>   0.2000 
 22 C       -9.3530    -3.0950    -0.3170 C.3   1 <1>  -0.2400 
 23 C       -9.4650    -1.3740    -2.1610 C.3   1 <1>  -0.2400 
 24 H       -1.4330    -1.3180     1.9090 H     1 <1>   0.4000 
 25 H        1.9850    -0.1510    -1.7380 H     1 <1>   0.0800 
 26 H        1.9500    -1.8930    -1.9250 H     1 <1>   0.0800 
 27 H        2.6700    -1.1800    -0.4980 H     1 <1>   0.0800 
 28 H       -5.0810    -1.6710    -1.1050 H     1 <1>   0.3700 
 29 H       -9.1740    -0.9530    -0.0780 H     1 <1>   0.0800 
 30 H       -9.0370    -3.8540    -1.0100 H     1 <1>   0.0800 
 31 H      -10.4250    -3.1170    -0.2460 H     1 <1>   0.0800 
 32 H       -8.9500    -3.3080     0.6570 H     1 <1>   0.0800 
 33 H       -9.1170    -0.4060    -2.4730 H     1 <1>   0.0800 
 34 H      -10.5390    -1.3490    -2.1140 H     1 <1>   0.0800 
 35 H       -9.1690    -2.1120    -2.8850 H     1 <1>   0.0800 
@<TRIPOS>BOND
  1   1   2  1   
  2   1   3  1   
  3   2   4  1   
  4   2   5  2   
  5   3   6  2   
  6   3   7  1   
  7   4   6  1   
  8   4  24  1   
  9   5   8  1   
 10   7  25  1   
 11   7  26  1   
 12   7  27  1   
 13   8   9  1   
 14   8  10  1   
 15   8  11  1   
 16   9  12  am  
 17   9  28  1   
 18  10  13  1   
 19  10  14  1   
 20  10  15  1   
 21  11  16  1   
 22  11  17  1   
 23  11  18  1   
 24  12  19  2   
 25  12  20  1   
 26  20  21  1   
 27  21  22  1   
 28  21  23  1   
 29  21  29  1   
 30  22  30  1   
 31  22  31  1   
 32  22  32  1   
 33  23  33  1   
 34  23  34  1   
 35  23  35  1   
@<TRIPOS>SUBSTRUCTURE
  1 ****   8 GROUP 4 **** **** 0

# MOE 2024.06 (io_trps.svl 2023.06)
