@<TRIPOS>MOLECULE
NONAME
39 40 1 0 0 
SMALL
USER_CHARGES


@<TRIPOS>ATOM
  1 S       -0.2920     0.4770     0.6890 S.o2  1 <1>   1.4470 
  2 O       -0.6810     0.7850     2.0490 O.2   1 <1>  -0.6500 
  3 O       -0.5130    -0.8520     0.1690 O.2   1 <1>  -0.6500 
  4 N       -1.1200     1.5940    -0.2870 N.am  1 <1>  -0.8490 
  5 C        1.4570     0.8910     0.4340 C.ar  1 <1>  -0.0090 
  6 C       -2.6010     1.3710    -0.2360 C.3   1 <1>   0.3370 
  7 C       -0.7940     2.9720     0.1140 C.3   1 <1>   0.1960 
  8 C        2.0170     0.8520    -0.8370 C.ar  1 <1>  -0.1500 
  9 C        2.2760     1.2660     1.4930 C.ar  1 <1>  -0.1500 
 10 C       -3.1100    -0.0560    -0.5630 C.2   1 <1>   0.6590 
 11 C       -3.3060     2.3740    -1.1740 C.3   1 <1>  -0.1600 
 12 C       -1.4350     3.9850    -0.8360 C.3   1 <1>  -0.1600 
 13 C        3.3450     1.1820    -1.0470 C.ar  1 <1>  -0.1500 
 14 C        3.6050     1.5970     1.2890 C.ar  1 <1>  -0.1500 
 15 O       -3.1980    -0.4810    -1.6910 O.2   1 <1>  -0.5700 
 16 O       -3.4840    -0.7850     0.4860 O.3   1 <1>  -0.4300 
 17 C       -2.9550     3.8290    -0.8560 C.3   1 <1>  -0.1600 
 18 C        4.1460     1.5600     0.0160 C.ar  1 <1>  -0.1430 
 19 C       -3.8610    -2.1380     0.3470 C.3   1 <1>   0.0400 
 20 C        5.6030     1.9210    -0.2110 C.3   1 <1>  -0.0970 
 21 H       -2.9300     1.5780     0.7680 H     1 <1>   0.0800 
 22 H        0.2710     3.1240     0.0880 H     1 <1>   0.0800 
 23 H       -1.1320     3.1550     1.1220 H     1 <1>   0.0800 
 24 H        1.4020     0.5580    -1.6710 H     1 <1>   0.1500 
 25 H        1.8710     1.2980     2.4910 H     1 <1>   0.1500 
 26 H       -4.3710     2.2420    -1.0990 H     1 <1>   0.0800 
 27 H       -3.0250     2.1510    -2.1900 H     1 <1>   0.0800 
 28 H       -1.0350     3.8370    -1.8250 H     1 <1>   0.0800 
 29 H       -1.1780     4.9810    -0.5220 H     1 <1>   0.0800 
 30 H        3.7500     1.1410    -2.0440 H     1 <1>   0.1500 
 31 H        4.2160     1.8820     2.1280 H     1 <1>   0.1500 
 32 H       -3.3600     4.0990     0.1040 H     1 <1>   0.0800 
 33 H       -3.3830     4.4820    -1.5980 H     1 <1>   0.0800 
 34 H       -4.1090    -2.5240     1.3190 H     1 <1>   0.0800 
 35 H       -3.0310    -2.6830    -0.0670 H     1 <1>   0.0800 
 36 H       -4.7120    -2.1990    -0.3090 H     1 <1>   0.0800 
 37 H        6.2120     1.0390    -0.1280 H     1 <1>   0.0800 
 38 H        5.9310     2.6390     0.5190 H     1 <1>   0.0800 
 39 H        5.7380     2.3460    -1.1890 H     1 <1>   0.0800 
@<TRIPOS>BOND
  1   1   2  2   
  2   1   3  2   
  3   1   4  am  
  4   1   5  1   
  5   4   6  1   
  6   4   7  1   
  7   5   8  ar  
  8   5   9  ar  
  9   6  10  1   
 10   6  11  1   
 11   6  21  1   
 12   7  12  1   
 13   7  22  1   
 14   7  23  1   
 15   8  13  ar  
 16   8  24  1   
 17   9  14  ar  
 18   9  25  1   
 19  10  15  2   
 20  10  16  1   
 21  11  17  1   
 22  11  26  1   
 23  11  27  1   
 24  12  17  1   
 25  12  28  1   
 26  12  29  1   
 27  13  18  ar  
 28  13  30  1   
 29  14  18  ar  
 30  14  31  1   
 31  16  19  1   
 32  17  32  1   
 33  17  33  1   
 34  18  20  1   
 35  19  34  1   
 36  19  35  1   
 37  19  36  1   
 38  20  37  1   
 39  20  38  1   
 40  20  39  1   
@<TRIPOS>SUBSTRUCTURE
  1 ****   1 GROUP 4 **** **** 0

# MOE 2024.06 (io_trps.svl 2023.06)
