@<TRIPOS>MOLECULE
NONAME
38 38 1 0 0 
SMALL
USER_CHARGES


@<TRIPOS>ATOM
  1 CL      -1.2060     1.1290    -1.8760 Cl    1 <1>  -0.1770 
  2 C       -0.7640     2.4800    -0.8640 C.ar  1 <1>   0.1770 
  3 C       -1.3230     2.6050     0.3970 C.ar  1 <1>  -0.1440 
  4 C        0.1530     3.3970    -1.3470 C.ar  1 <1>  -0.1500 
  5 C       -0.9200     3.6790     1.1740 C.ar  1 <1>   0.1770 
  6 C       -2.3270     1.5920     0.9100 C.3   1 <1>   0.4870 
  7 C        0.5350     4.4670    -0.5550 C.ar  1 <1>  -0.1500 
  8 CL      -1.5870     3.8850     2.7760 Cl    1 <1>  -0.1770 
  9 C       -0.0030     4.6080     0.7140 C.ar  1 <1>  -0.1500 
 10 N       -3.6870     1.8750     0.3740 N.4   1 <1>  -0.9590 
 11 C       -4.2110     3.2420     0.6830 C.3   1 <1>   0.3430 
 12 C       -4.6790     0.7920     0.6530 C.3   1 <1>   0.3430 
 13 C       -4.9170     3.8390    -0.5540 C.3   1 <1>   0.2000 
 14 C       -4.4940    -0.4060    -0.3060 C.3   1 <1>   0.2000 
 15 O       -4.1790     3.5160    -1.6830 O.3   1 <1>  -0.6800 
 16 C       -5.0170     5.3600    -0.4930 C.3   1 <1>  -0.2400 
 17 O       -4.2920     0.0860    -1.5830 O.3   1 <1>  -0.6800 
 18 C       -5.7200    -1.3130    -0.3540 C.3   1 <1>  -0.2400 
 19 H        0.5650     3.2720    -2.3340 H     1 <1>   0.1500 
 20 H       -2.3480     1.6090     1.9870 H     1 <1>   0.0800 
 21 H       -2.0150     0.6090     0.5980 H     1 <1>   0.0800 
 22 H        1.2490     5.1860    -0.9240 H     1 <1>   0.1500 
 23 H        0.2880     5.4320     1.3420 H     1 <1>   0.1500 
 24 H       -3.5970     1.8800    -0.6700 H     1 <1>   0.4500 
 25 H       -3.3980     3.9000     0.9330 H     1 <1>   0.0800 
 26 H       -4.8820     3.2180     1.5250 H     1 <1>   0.0800 
 27 H       -5.6730     1.1750     0.4990 H     1 <1>   0.0800 
 28 H       -4.6070     0.4630     1.6760 H     1 <1>   0.0800 
 29 H       -5.8980     3.4050    -0.6640 H     1 <1>   0.0800 
 30 H       -3.6230    -0.9760    -0.0270 H     1 <1>   0.0800 
 31 H       -4.5780     3.9170    -2.4850 H     1 <1>   0.4000 
 32 H       -4.0370     5.8030    -0.4350 H     1 <1>   0.0800 
 33 H       -5.5770     5.6600     0.3750 H     1 <1>   0.0800 
 34 H       -5.5260     5.7390    -1.3610 H     1 <1>   0.0800 
 35 H       -4.2110    -0.6450    -2.2320 H     1 <1>   0.4000 
 36 H       -6.5860    -0.7670    -0.6850 H     1 <1>   0.0800 
 37 H       -5.9230    -1.7140     0.6230 H     1 <1>   0.0800 
 38 H       -5.5480    -2.1400    -1.0200 H     1 <1>   0.0800 
@<TRIPOS>BOND
  1   1   2  1   
  2   2   3  ar  
  3   2   4  ar  
  4   3   5  ar  
  5   3   6  1   
  6   4   7  ar  
  7   4  19  1   
  8   5   8  1   
  9   5   9  ar  
 10   6  10  1   
 11   6  20  1   
 12   6  21  1   
 13   7   9  ar  
 14   7  22  1   
 15   9  23  1   
 16  10  11  1   
 17  10  12  1   
 18  10  24  1   
 19  11  13  1   
 20  11  25  1   
 21  11  26  1   
 22  12  14  1   
 23  12  27  1   
 24  12  28  1   
 25  13  15  1   
 26  13  16  1   
 27  13  29  1   
 28  14  17  1   
 29  14  18  1   
 30  14  30  1   
 31  15  31  1   
 32  16  32  1   
 33  16  33  1   
 34  16  34  1   
 35  17  35  1   
 36  18  36  1   
 37  18  37  1   
 38  18  38  1   
@<TRIPOS>SUBSTRUCTURE
  1 ****  10 GROUP 4 **** **** 0

# MOE 2024.06 (io_trps.svl 2023.06)
