@<TRIPOS>MOLECULE
NONAME
40 41 1 0 0 
SMALL
USER_CHARGES


@<TRIPOS>ATOM
  1 S        0.5860    -0.2110     0.1130 S.o2  1 <1>   1.3330 
  2 O        0.6630    -1.6390    -0.0590 O.2   1 <1>  -0.6500 
  3 O       -0.5420     0.5460    -0.3670 O.2   1 <1>  -0.6500 
  4 N        2.0130     0.4030    -0.6180 N.am  1 <1>  -0.7570 
  5 C        0.8730     0.1600     1.8290 C.3   1 <1>  -0.1350 
  6 C        2.4060     1.6960    -0.9490 C.ar  1 <1>   0.1990 
  7 C        3.6520     1.9030    -1.5680 C.ar  1 <1>   0.0860 
  8 C        1.5960     2.8000    -0.6820 C.ar  1 <1>  -0.1500 
  9 C        4.5480     0.7960    -1.8250 C.2   1 <1>   0.5440 
 10 C        4.0160     3.2020    -1.9270 C.ar  1 <1>  -0.1500 
 11 C        1.9840     4.0780    -1.0300 C.ar  1 <1>  -0.1500 
 12 O        4.1270    -0.1880    -2.4090 O.2   1 <1>  -0.5700 
 13 N        5.8660     0.8060    -1.4080 N.am  1 <1>  -0.6600 
 14 C        3.1990     4.2810    -1.6600 C.ar  1 <1>  -0.1500 
 15 C        6.3820     1.6790    -0.3170 C.3   1 <1>   0.1400 
 16 C        6.8370    -0.2290    -1.8640 C.3   1 <1>   0.1400 
 17 C        6.7970     0.8170     0.8800 C.3   1 <1>  -0.1600 
 18 C        7.2490    -1.1070    -0.6790 C.3   1 <1>  -0.1600 
 19 C        7.8100    -0.2670     0.4780 C.3   1 <1>  -0.0800 
 20 C        8.1510    -1.1580     1.6770 C.3   1 <1>  -0.2400 
 21 H        2.5080    -0.3500    -1.1110 H     1 <1>   0.4200 
 22 H        1.7790    -0.3080     2.1610 H     1 <1>   0.0800 
 23 H        0.0590    -0.2040     2.4230 H     1 <1>   0.0800 
 24 H        0.9580     1.2190     1.9700 H     1 <1>   0.0800 
 25 H        0.6420     2.6720    -0.2070 H     1 <1>   0.1500 
 26 H        4.9580     3.3590    -2.4240 H     1 <1>   0.1500 
 27 H        1.3410     4.9150    -0.8190 H     1 <1>   0.1500 
 28 H        3.4990     5.2760    -1.9420 H     1 <1>   0.1500 
 29 H        5.6350     2.3830     0.0030 H     1 <1>   0.0800 
 30 H        7.2310     2.2310    -0.6820 H     1 <1>   0.0800 
 31 H        7.7020     0.2610    -2.2750 H     1 <1>   0.0800 
 32 H        6.4080    -0.8430    -2.6390 H     1 <1>   0.0800 
 33 H        5.9160     0.3590     1.2950 H     1 <1>   0.0800 
 34 H        7.2250     1.4500     1.6370 H     1 <1>   0.0800 
 35 H        7.9890    -1.8140    -1.0090 H     1 <1>   0.0800 
 36 H        6.3880    -1.6630    -0.3510 H     1 <1>   0.0800 
 37 H        8.7140     0.2150     0.1440 H     1 <1>   0.0800 
 38 H        7.2720    -1.6600     2.0390 H     1 <1>   0.0800 
 39 H        8.5640    -0.5680     2.4760 H     1 <1>   0.0800 
 40 H        8.8780    -1.9000     1.3950 H     1 <1>   0.0800 
@<TRIPOS>BOND
  1   1   2  2   
  2   1   3  2   
  3   1   4  am  
  4   1   5  1   
  5   4   6  1   
  6   4  21  1   
  7   5  22  1   
  8   5  23  1   
  9   5  24  1   
 10   6   7  ar  
 11   6   8  ar  
 12   7   9  1   
 13   7  10  ar  
 14   8  11  ar  
 15   8  25  1   
 16   9  12  2   
 17   9  13  am  
 18  10  14  ar  
 19  10  26  1   
 20  11  14  ar  
 21  11  27  1   
 22  13  15  1   
 23  13  16  1   
 24  14  28  1   
 25  15  17  1   
 26  15  29  1   
 27  15  30  1   
 28  16  18  1   
 29  16  31  1   
 30  16  32  1   
 31  17  19  1   
 32  17  33  1   
 33  17  34  1   
 34  18  19  1   
 35  18  35  1   
 36  18  36  1   
 37  19  20  1   
 38  19  37  1   
 39  20  38  1   
 40  20  39  1   
 41  20  40  1   
@<TRIPOS>SUBSTRUCTURE
  1 ****   9 GROUP 4 **** **** 0

# MOE 2024.06 (io_trps.svl 2023.06)
