@<TRIPOS>MOLECULE
NONAME
50 52 1 0 0 
SMALL
USER_CHARGES


@<TRIPOS>ATOM
  1 S        0.0900     0.3550     0.5710 S.o2  1 <1>   1.4470 
  2 O       -0.3040     0.2500     1.9610 O.2   1 <1>  -0.6500 
  3 O       -0.0680    -0.8120    -0.2700 O.2   1 <1>  -0.6500 
  4 N       -0.7980     1.6340    -0.1210 N.am  1 <1>  -0.8490 
  5 C        1.8270     0.8700     0.4410 C.ar  1 <1>  -0.0090 
  6 C       -1.1140     2.7450     0.8150 C.3   1 <1>   0.2760 
  7 C       -2.0120     1.0940    -0.7580 C.3   1 <1>   0.1960 
  8 C        2.7250     0.6450     1.4790 C.ar  1 <1>  -0.1500 
  9 C        2.3120     1.4890    -0.7050 C.ar  1 <1>  -0.1500 
 10 C       -1.9190     3.8420     0.0840 C.3   1 <1>  -0.1600 
 11 C        0.1690     3.3710     1.4200 C.3   1 <1>  -0.1600 
 12 C       -2.7750     2.1660    -1.5330 C.3   1 <1>  -0.1600 
 13 C        4.0480     1.0350     1.3820 C.ar  1 <1>  -0.1500 
 14 C        3.6340     1.8810    -0.8070 C.ar  1 <1>  -0.1500 
 15 C       -3.1730     3.3110    -0.6090 C.3   1 <1>  -0.1600 
 16 C       -0.0610     4.5920     2.3260 C.3   1 <1>  -0.2400 
 17 C        4.5240     1.6640     0.2390 C.ar  1 <1>   0.1170 
 18 N        5.8740     2.0320     0.1780 N.am  1 <1>  -0.5470 
 19 C        6.5150     3.0010    -0.5510 C.2   1 <1>   0.7160 
 20 O        5.8780     3.8220    -1.1800 O.2   1 <1>  -0.5700 
 21 C        7.9550     3.0590    -0.5140 C.2   1 <1>  -0.0860 
 22 C        8.8990     2.0850    -0.3520 C.2   1 <1>  -0.0400 
 23 C        8.7080     4.2450    -0.6490 C.2   1 <1>  -0.1500 
 24 O       10.1060     2.5960    -0.3550 O.3   1 <1>  -0.2800 
 25 C        8.7940     0.5790    -0.2020 C.3   1 <1>  -0.0600 
 26 C       10.0030     3.8940    -0.5380 C.2   1 <1>  -0.0100 
 27 H       -1.7200     2.3600     1.6200 H     1 <1>   0.0800 
 28 H       -2.6510     0.6560    -0.0080 H     1 <1>   0.0800 
 29 H       -1.7490     0.3230    -1.4630 H     1 <1>   0.0800 
 30 H        2.3770     0.1590     2.3760 H     1 <1>   0.1500 
 31 H        1.6400     1.6690    -1.5280 H     1 <1>   0.1500 
 32 H       -1.2820     4.3160    -0.6430 H     1 <1>   0.0800 
 33 H       -2.2330     4.5940     0.7840 H     1 <1>   0.0800 
 34 H        0.8360     3.6540     0.6250 H     1 <1>   0.0800 
 35 H        0.6630     2.6470     2.0390 H     1 <1>   0.0800 
 36 H       -3.6560     1.7310    -1.9710 H     1 <1>   0.0800 
 37 H       -2.1530     2.5310    -2.3310 H     1 <1>   0.0800 
 38 H        4.7130     0.8500     2.2060 H     1 <1>   0.1500 
 39 H        3.9710     2.3570    -1.7100 H     1 <1>   0.1500 
 40 H       -3.6440     4.0960    -1.1750 H     1 <1>   0.0800 
 41 H       -3.8740     2.9570     0.1280 H     1 <1>   0.0800 
 42 H       -0.3740     5.4490     1.7560 H     1 <1>   0.0800 
 43 H        0.8580     4.8500     2.8230 H     1 <1>   0.0800 
 44 H       -0.8010     4.3740     3.0750 H     1 <1>   0.0800 
 45 H        6.4870     1.5610     0.8380 H     1 <1>   0.3700 
 46 H        8.2830     5.2210    -0.8090 H     1 <1>   0.1500 
 47 H        7.7890     0.2350    -0.3570 H     1 <1>   0.0800 
 48 H        9.1250     0.2870     0.7790 H     1 <1>   0.0800 
 49 H        9.4270     0.1060    -0.9300 H     1 <1>   0.0800 
 50 H       10.9000     4.4870    -0.5790 H     1 <1>   0.1500 
@<TRIPOS>BOND
  1   1   2  2   
  2   1   3  2   
  3   1   4  am  
  4   1   5  1   
  5   4   6  1   
  6   4   7  1   
  7   5   8  ar  
  8   5   9  ar  
  9   6  10  1   
 10   6  11  1   
 11   6  27  1   
 12   7  12  1   
 13   7  28  1   
 14   7  29  1   
 15   8  13  ar  
 16   8  30  1   
 17   9  14  ar  
 18   9  31  1   
 19  10  15  1   
 20  10  32  1   
 21  10  33  1   
 22  11  16  1   
 23  11  34  1   
 24  11  35  1   
 25  12  15  1   
 26  12  36  1   
 27  12  37  1   
 28  13  17  ar  
 29  13  38  1   
 30  14  17  ar  
 31  14  39  1   
 32  15  40  1   
 33  15  41  1   
 34  16  42  1   
 35  16  43  1   
 36  16  44  1   
 37  17  18  1   
 38  18  19  am  
 39  18  45  1   
 40  19  20  2   
 41  19  21  1   
 42  21  22  2   
 43  21  23  1   
 44  22  24  1   
 45  22  25  1   
 46  23  26  2   
 47  23  46  1   
 48  24  26  1   
 49  25  47  1   
 50  25  48  1   
 51  25  49  1   
 52  26  50  1   
@<TRIPOS>SUBSTRUCTURE
  1 ****  14 GROUP 4 **** **** 0

# MOE 2024.06 (io_trps.svl 2023.06)
