@<TRIPOS>MOLECULE
NONAME
48 49 1 0 0 
SMALL
USER_CHARGES


@<TRIPOS>ATOM
  1 CL       0.0070     0.7440     0.4310 Cl    1 <1>  -0.1770 
  2 C        1.7410     0.8350     0.2530 C.ar  1 <1>   0.1770 
  3 C        2.3100     0.5770    -0.9800 C.ar  1 <1>  -0.1500 
  4 C        2.5170     1.1620     1.3480 C.ar  1 <1>  -0.1500 
  5 C        3.6870     0.6480    -1.1290 C.ar  1 <1>  -0.1440 
  6 C        3.8920     1.2340     1.2060 C.ar  1 <1>  -0.1500 
  7 C        4.4830     0.9780    -0.0320 C.ar  1 <1>   0.0830 
  8 C        4.3120     0.3650    -2.4880 C.3   1 <1>  -0.0960 
  9 O        5.8260     1.0350    -0.2290 O.3   1 <1>  -0.3630 
 10 C        6.7170     1.4370     0.7950 C.3   1 <1>   0.1200 
 11 C        8.1490     1.4280     0.2460 C.3   1 <1>   0.2000 
 12 O        8.3690     0.1900    -0.3490 O.3   1 <1>  -0.6800 
 13 C        9.1930     1.6880     1.3550 C.3   1 <1>   0.1100 
 14 N       10.5380     2.0920     0.8650 N.3   1 <1>  -0.8100 
 15 C       11.4140     2.4680     1.9980 C.3   1 <1>   0.1100 
 16 C       11.1810     1.0240     0.0480 C.3   1 <1>   0.1100 
 17 C       12.7970     2.9830     1.5260 C.3   1 <1>   0.3430 
 18 C       12.6720     1.2980    -0.2550 C.3   1 <1>   0.3430 
 19 N       13.0190     2.7200     0.0620 N.4   1 <1>  -0.9590 
 20 C       14.3760     3.1020    -0.4410 C.3   1 <1>   0.3430 
 21 C       14.6300     4.6160    -0.3790 C.3   1 <1>   0.1200 
 22 O       15.9100     4.8490    -0.8500 O.3   1 <1>  -0.6800 
 23 H        1.6730     0.3250    -1.8070 H     1 <1>   0.1500 
 24 H        2.0470     1.3570     2.2950 H     1 <1>   0.1500 
 25 H        4.4780     1.4880     2.0680 H     1 <1>   0.1500 
 26 H        3.5590     0.1830    -3.2320 H     1 <1>   0.0800 
 27 H        4.9470    -0.5000    -2.4230 H     1 <1>   0.0800 
 28 H        4.9040     1.2070    -2.8000 H     1 <1>   0.0800 
 29 H        6.6270     0.7470     1.6160 H     1 <1>   0.0800 
 30 H        6.4430     2.4280     1.1140 H     1 <1>   0.0800 
 31 H        8.2340     2.1880    -0.5120 H     1 <1>   0.0800 
 32 H        7.5520    -0.0570    -0.8350 H     1 <1>   0.4000 
 33 H        9.2690     0.8120     1.9790 H     1 <1>   0.0800 
 34 H        8.8160     2.4890     1.9680 H     1 <1>   0.0800 
 35 H       11.5570     1.6160     2.6420 H     1 <1>   0.0800 
 36 H       10.9410     3.2380     2.5840 H     1 <1>   0.0800 
 37 H       10.6650     0.9480    -0.8930 H     1 <1>   0.0800 
 38 H       11.0880     0.0710     0.5400 H     1 <1>   0.0800 
 39 H       13.5670     2.5070     2.1100 H     1 <1>   0.0800 
 40 H       12.8510     4.0420     1.7150 H     1 <1>   0.0800 
 41 H       12.8630     1.0850    -1.2940 H     1 <1>   0.0800 
 42 H       13.2810     0.6330     0.3350 H     1 <1>   0.0800 
 43 H       12.2800     3.2600    -0.4160 H     1 <1>   0.4500 
 44 H       14.4770     2.7900    -1.4670 H     1 <1>   0.0800 
 45 H       15.1310     2.6000     0.1410 H     1 <1>   0.0800 
 46 H       14.5780     4.9840     0.6300 H     1 <1>   0.0800 
 47 H       13.9390     5.1480    -1.0110 H     1 <1>   0.0800 
 48 H       16.1260     5.8060    -0.8640 H     1 <1>   0.4000 
@<TRIPOS>BOND
  1   1   2  1   
  2   2   3  ar  
  3   2   4  ar  
  4   3   5  ar  
  5   3  23  1   
  6   4   6  ar  
  7   4  24  1   
  8   5   7  ar  
  9   5   8  1   
 10   6   7  ar  
 11   6  25  1   
 12   7   9  1   
 13   8  26  1   
 14   8  27  1   
 15   8  28  1   
 16   9  10  1   
 17  10  11  1   
 18  10  29  1   
 19  10  30  1   
 20  11  12  1   
 21  11  13  1   
 22  11  31  1   
 23  12  32  1   
 24  13  14  1   
 25  13  33  1   
 26  13  34  1   
 27  14  15  1   
 28  14  16  1   
 29  15  17  1   
 30  15  35  1   
 31  15  36  1   
 32  16  18  1   
 33  16  37  1   
 34  16  38  1   
 35  17  19  1   
 36  17  39  1   
 37  17  40  1   
 38  18  19  1   
 39  18  41  1   
 40  18  42  1   
 41  19  20  1   
 42  19  43  1   
 43  20  21  1   
 44  20  44  1   
 45  20  45  1   
 46  21  22  1   
 47  21  46  1   
 48  21  47  1   
 49  22  48  1   
@<TRIPOS>SUBSTRUCTURE
  1 ****  11 GROUP 4 **** **** 0

# MOE 2024.06 (io_trps.svl 2023.06)
