@<TRIPOS>MOLECULE
NONAME
40 41 1 0 0 
SMALL
USER_CHARGES


@<TRIPOS>ATOM
  1 CL      -0.9740    -0.0430    -1.4790 Cl    1 <1>  -0.1770 
  2 C       -0.4400    -1.4440    -0.5710 C.ar  1 <1>   0.1770 
  3 C       -1.3910    -2.3540    -0.1040 C.ar  1 <1>   0.1170 
  4 C        0.9160    -1.6040    -0.3490 C.ar  1 <1>  -0.1500 
  5 N       -2.7540    -2.1240    -0.3740 N.am  1 <1>  -0.5470 
  6 C       -0.9260    -3.4620     0.6010 C.ar  1 <1>  -0.1500 
  7 C        1.3580    -2.7080     0.3600 C.ar  1 <1>  -0.1500 
  8 C       -3.8860    -2.6140     0.2040 C.2   1 <1>   0.6900 
  9 C        0.4300    -3.6230     0.8240 C.ar  1 <1>   0.1770 
 10 O       -3.8580    -3.3590     1.1620 O.2   1 <1>  -0.5700 
 11 N       -5.0790    -2.2430    -0.3230 N.am  1 <1>  -0.7300 
 12 CL       0.9900    -5.0180     1.7100 Cl    1 <1>  -0.1770 
 13 C       -6.3700    -2.6540     0.2460 C.3   1 <1>   0.2200 
 14 C       -6.8020    -3.9760    -0.3820 C.3   1 <1>  -0.1600 
 15 C       -7.4150    -1.5700    -0.0020 C.3   1 <1>  -0.1600 
 16 C       -8.1680    -4.3940     0.1540 C.3   1 <1>   0.3430 
 17 C       -8.7750    -2.0210     0.5280 C.3   1 <1>   0.3430 
 18 N       -9.1710    -3.3140    -0.1070 N.4   1 <1>  -0.9590 
 19 C      -10.5360    -3.7060     0.3350 C.3   1 <1>   0.3430 
 20 C      -11.1050    -4.7540    -0.6140 C.3   1 <1>  -0.2400 
 21 H        1.6120    -0.8750    -0.7250 H     1 <1>   0.1500 
 22 H       -2.9170    -1.3530    -1.0170 H     1 <1>   0.3700 
 23 H       -1.6030    -4.2050     0.9790 H     1 <1>   0.1500 
 24 H        2.4060    -2.8630     0.5510 H     1 <1>   0.1500 
 25 H       -5.0950    -1.7540    -1.2160 H     1 <1>   0.3700 
 26 H       -6.2540    -2.7910     1.3100 H     1 <1>   0.0800 
 27 H       -6.0850    -4.7370    -0.1270 H     1 <1>   0.0800 
 28 H       -6.8410    -3.8960    -1.4530 H     1 <1>   0.0800 
 29 H       -7.4940    -1.3490    -1.0520 H     1 <1>   0.0800 
 30 H       -7.1220    -0.6710     0.5130 H     1 <1>   0.0800 
 31 H       -8.0960    -4.5780     1.2150 H     1 <1>   0.0800 
 32 H       -8.4710    -5.3110    -0.3260 H     1 <1>   0.0800 
 33 H       -9.5110    -1.2630     0.3130 H     1 <1>   0.0800 
 34 H       -8.7190    -2.1430     1.5980 H     1 <1>   0.0800 
 35 H       -9.2100    -3.1640    -1.1250 H     1 <1>   0.4500 
 36 H      -11.1830    -2.8430     0.3240 H     1 <1>   0.0800 
 37 H      -10.5070    -4.0920     1.3430 H     1 <1>   0.0800 
 38 H      -11.1220    -4.3880    -1.6250 H     1 <1>   0.0800 
 39 H      -12.1180    -4.9730    -0.3270 H     1 <1>   0.0800 
 40 H      -10.5500    -5.6730    -0.5690 H     1 <1>   0.0800 
@<TRIPOS>BOND
  1   1   2  1   
  2   2   3  ar  
  3   2   4  ar  
  4   3   5  1   
  5   3   6  ar  
  6   4   7  ar  
  7   4  21  1   
  8   5   8  am  
  9   5  22  1   
 10   6   9  ar  
 11   6  23  1   
 12   7   9  ar  
 13   7  24  1   
 14   8  10  2   
 15   8  11  am  
 16   9  12  1   
 17  11  13  1   
 18  11  25  1   
 19  13  14  1   
 20  13  15  1   
 21  13  26  1   
 22  14  16  1   
 23  14  27  1   
 24  14  28  1   
 25  15  17  1   
 26  15  29  1   
 27  15  30  1   
 28  16  18  1   
 29  16  31  1   
 30  16  32  1   
 31  17  18  1   
 32  17  33  1   
 33  17  34  1   
 34  18  19  1   
 35  18  35  1   
 36  19  20  1   
 37  19  36  1   
 38  19  37  1   
 39  20  38  1   
 40  20  39  1   
 41  20  40  1   
@<TRIPOS>SUBSTRUCTURE
  1 ****   8 GROUP 4 **** **** 0

# MOE 2024.06 (io_trps.svl 2023.06)
