@<TRIPOS>MOLECULE
NONAME
26 26 1 0 0 
SMALL
USER_CHARGES


@<TRIPOS>ATOM
  1 CL      -0.0570    -0.2030     0.0060 Cl    1 <1>  -0.1770 
  2 C        1.3930     0.7680     0.0030 C.ar  1 <1>   0.1770 
  3 C        2.6270     0.1410     0.0030 C.ar  1 <1>  -0.1500 
  4 C        1.2840     2.1480     0.0000 C.ar  1 <1>  -0.1500 
  5 C        3.7810     0.9080     0.0010 C.ar  1 <1>  -0.1500 
  6 C        2.4370     2.9160    -0.0030 C.ar  1 <1>  -0.1500 
  7 C        3.6740     2.2930    -0.0020 C.ar  1 <1>   0.1020 
  8 S        5.1230     3.3630    -0.0060 S.3   1 <1>  -0.3320 
  9 C        6.5990     2.2520    -0.0040 C.3   1 <1>   0.0700 
 10 C        7.8540     3.1270    -0.0070 C.3   1 <1>  -0.0990 
 11 C        9.1280     2.3070    -0.0050 C.2   1 <1>   0.5690 
 12 O        9.0690     1.1010    -0.0080 O.2   1 <1>  -0.5700 
 13 N       10.3100     2.9750    -0.0010 N.am  1 <1>  -0.7300 
 14 C       11.6510     2.3370     0.0020 C.3   1 <1>   0.0600 
 15 H        2.6800    -0.9330     0.0060 H     1 <1>   0.1500 
 16 H        0.3120     2.6080    -0.0010 H     1 <1>   0.1500 
 17 H        4.7360     0.4180     0.0010 H     1 <1>   0.1500 
 18 H        2.3810     3.9900    -0.0050 H     1 <1>   0.1500 
 19 H        6.5470     1.6380    -0.8860 H     1 <1>   0.0800 
 20 H        6.5490     1.6420     0.8820 H     1 <1>   0.0800 
 21 H        7.8480     3.7540     0.8640 H     1 <1>   0.0800 
 22 H        7.8480     3.7490    -0.8830 H     1 <1>   0.0800 
 23 H       10.3040     3.9970     0.0010 H     1 <1>   0.3700 
 24 H       11.5560     1.2640     0.0000 H     1 <1>   0.0800 
 25 H       12.1940     2.6350     0.8810 H     1 <1>   0.0800 
 26 H       12.1990     2.6370    -0.8740 H     1 <1>   0.0800 
@<TRIPOS>BOND
  1   1   2  1   
  2   2   3  ar  
  3   2   4  ar  
  4   3   5  ar  
  5   3  15  1   
  6   4   6  ar  
  7   4  16  1   
  8   5   7  ar  
  9   5  17  1   
 10   6   7  ar  
 11   6  18  1   
 12   7   8  1   
 13   8   9  1   
 14   9  10  1   
 15   9  19  1   
 16   9  20  1   
 17  10  11  1   
 18  10  21  1   
 19  10  22  1   
 20  11  12  2   
 21  11  13  am  
 22  13  14  1   
 23  13  23  1   
 24  14  24  1   
 25  14  25  1   
 26  14  26  1   
@<TRIPOS>SUBSTRUCTURE
  1 ****   9 GROUP 4 **** **** 0

# MOE 2024.06 (io_trps.svl 2023.06)
