@<TRIPOS>MOLECULE
NONAME
43 44 1 0 0 
SMALL
USER_CHARGES


@<TRIPOS>ATOM
  1 O       -0.2800    -0.0810    -0.0180 O.3   1 <1>  -0.2800 
  2 C       -1.4260    -0.7040    -0.2080 C.2   1 <1>  -0.0400 
  3 C        0.6710    -0.9900     0.0380 C.2   1 <1>  -0.0400 
  4 C       -1.2250    -2.0390    -0.2770 C.2   1 <1>  -0.1500 
  5 C       -2.6820     0.1490    -0.3050 C.3   1 <1>   0.1000 
  6 C        0.1530    -2.2260    -0.1150 C.2   1 <1>  -0.1500 
  7 C        2.0970    -0.5330     0.2510 C.3   1 <1>  -0.0600 
  8 C       -3.9440    -0.7160    -0.1610 C.3   1 <1>  -0.1600 
  9 C       -2.6690     0.9280    -1.6280 C.3   1 <1>  -0.2400 
 10 C       -5.2100     0.1370    -0.0860 C.3   1 <1>   0.3430 
 11 N       -6.3990    -0.7120     0.2050 N.4   1 <1>  -0.9590 
 12 C       -6.7830    -1.5710    -0.9570 C.3   1 <1>   0.3430 
 13 C       -7.5440     0.1320     0.6550 C.3   1 <1>   0.3430 
 14 C       -7.9290    -2.5000    -0.5550 C.3   1 <1>  -0.1600 
 15 C       -8.7050    -0.7630     1.0910 C.3   1 <1>  -0.1600 
 16 C       -9.1400    -1.7140    -0.0320 C.3   1 <1>  -0.0800 
 17 C      -10.2320    -2.6690     0.4600 C.3   1 <1>  -0.2400 
 18 H       -1.9310    -2.8350    -0.4250 H     1 <1>   0.1500 
 19 H       -2.6460     0.8530     0.5110 H     1 <1>   0.0800 
 20 H        0.6620    -3.1730    -0.1180 H     1 <1>   0.1500 
 21 H        2.3900     0.1210    -0.5500 H     1 <1>   0.0800 
 22 H        2.7600    -1.3780     0.2740 H     1 <1>   0.0800 
 23 H        2.1720    -0.0010     1.1820 H     1 <1>   0.0800 
 24 H       -3.8530    -1.2910     0.7450 H     1 <1>   0.0800 
 25 H       -3.9930    -1.3910    -0.9960 H     1 <1>   0.0800 
 26 H       -2.7070     0.2510    -2.4640 H     1 <1>   0.0800 
 27 H       -1.7560     1.4930    -1.7030 H     1 <1>   0.0800 
 28 H       -3.4890     1.6200    -1.6930 H     1 <1>   0.0800 
 29 H       -5.3540     0.6680    -1.0140 H     1 <1>   0.0800 
 30 H       -5.0880     0.8650     0.7010 H     1 <1>   0.0800 
 31 H       -6.1640    -1.3390     0.9850 H     1 <1>   0.4500 
 32 H       -5.9430    -2.1650    -1.2770 H     1 <1>   0.0800 
 33 H       -7.0950    -0.9510    -1.7820 H     1 <1>   0.0800 
 34 H       -7.8670     0.7710    -0.1520 H     1 <1>   0.0800 
 35 H       -7.2430     0.7550     1.4820 H     1 <1>   0.0800 
 36 H       -7.5800    -3.1900     0.1940 H     1 <1>   0.0800 
 37 H       -8.2230    -3.0790    -1.4130 H     1 <1>   0.0800 
 38 H       -9.5360    -0.1400     1.3720 H     1 <1>   0.0800 
 39 H       -8.4140    -1.3220     1.9640 H     1 <1>   0.0800 
 40 H       -9.5470    -1.1290    -0.8420 H     1 <1>   0.0800 
 41 H       -9.8760    -3.2790     1.2720 H     1 <1>   0.0800 
 42 H      -10.5530    -3.3170    -0.3370 H     1 <1>   0.0800 
 43 H      -11.0890    -2.1140     0.8020 H     1 <1>   0.0800 
@<TRIPOS>BOND
  1   1   2  1   
  2   1   3  1   
  3   2   4  2   
  4   2   5  1   
  5   3   6  2   
  6   3   7  1   
  7   4   6  1   
  8   4  18  1   
  9   5   8  1   
 10   5   9  1   
 11   5  19  1   
 12   6  20  1   
 13   7  21  1   
 14   7  22  1   
 15   7  23  1   
 16   8  10  1   
 17   8  24  1   
 18   8  25  1   
 19   9  26  1   
 20   9  27  1   
 21   9  28  1   
 22  10  11  1   
 23  10  29  1   
 24  10  30  1   
 25  11  12  1   
 26  11  13  1   
 27  11  31  1   
 28  12  14  1   
 29  12  32  1   
 30  12  33  1   
 31  13  15  1   
 32  13  34  1   
 33  13  35  1   
 34  14  16  1   
 35  14  36  1   
 36  14  37  1   
 37  15  16  1   
 38  15  38  1   
 39  15  39  1   
 40  16  17  1   
 41  16  40  1   
 42  17  41  1   
 43  17  42  1   
 44  17  43  1   
@<TRIPOS>SUBSTRUCTURE
  1 ****   8 GROUP 4 **** **** 0

# MOE 2024.06 (io_trps.svl 2023.06)
