@<TRIPOS>MOLECULE
NONAME
39 40 1 0 0 
SMALL
USER_CHARGES


@<TRIPOS>ATOM
  1 O        0.6620     1.2970     2.3340 O.2   1 <1>  -0.5700 
  2 C        0.2920     1.8660     1.3310 C.2   1 <1>   0.5690 
  3 N        1.0980     1.9540     0.2140 N.am  1 <1>  -0.6600 
  4 C       -1.0900     2.5140     1.3990 C.3   1 <1>   0.1810 
  5 C        0.6450     2.4950    -1.1010 C.3   1 <1>   0.1400 
  6 C        2.4410     1.3000     0.2090 C.3   1 <1>   0.1400 
  7 O       -1.9740     2.0050     0.4100 O.3   1 <1>  -0.3630 
  8 C        0.5090     4.0250    -1.1060 C.3   1 <1>  -0.1600 
  9 C        3.5580     2.1480    -0.4250 C.3   1 <1>  -0.1600 
 10 C       -3.1960     2.5580     0.2120 C.ar  1 <1>   0.0820 
 11 C        1.4900     4.8190    -0.2210 C.3   1 <1>  -0.1600 
 12 C        3.7260     3.5600     0.1620 C.3   1 <1>  -0.1600 
 13 C       -3.7380     3.5520     1.0220 C.ar  1 <1>  -0.1500 
 14 C       -3.9230     2.0890    -0.8710 C.ar  1 <1>  -0.1500 
 15 C        2.9730     4.6700    -0.5960 C.3   1 <1>  -0.1600 
 16 C       -4.9910     4.0680     0.7380 C.ar  1 <1>  -0.1500 
 17 C       -5.1750     2.6050    -1.1530 C.ar  1 <1>  -0.1500 
 18 C       -5.7090     3.5970    -0.3480 C.ar  1 <1>  -0.1500 
 19 H       -0.9920     3.5730     1.2650 H     1 <1>   0.0800 
 20 H       -1.5250     2.3140     2.3610 H     1 <1>   0.0800 
 21 H       -0.2970     2.0490    -1.3690 H     1 <1>   0.0800 
 22 H        1.3370     2.2060    -1.8690 H     1 <1>   0.0800 
 23 H        2.3630     0.3650    -0.3170 H     1 <1>   0.0800 
 24 H        2.7340     1.0720     1.2200 H     1 <1>   0.0800 
 25 H       -0.4930     4.2730    -0.8080 H     1 <1>   0.0800 
 26 H        0.6050     4.3630    -2.1220 H     1 <1>   0.0800 
 27 H        3.4490     2.1920    -1.4920 H     1 <1>   0.0800 
 28 H        4.4740     1.6130    -0.2460 H     1 <1>   0.0800 
 29 H        1.3470     4.5720     0.8170 H     1 <1>   0.0800 
 30 H        1.2310     5.8590    -0.3240 H     1 <1>   0.0800 
 31 H        4.7740     3.8010     0.1080 H     1 <1>   0.0800 
 32 H        3.4610     3.5650     1.2060 H     1 <1>   0.0800 
 33 H       -3.2090     3.9330     1.8740 H     1 <1>   0.1500 
 34 H       -3.5020     1.3170    -1.4900 H     1 <1>   0.1500 
 35 H        3.4540     5.5990    -0.3370 H     1 <1>   0.0800 
 36 H        3.0870     4.5520    -1.6590 H     1 <1>   0.0800 
 37 H       -5.4110     4.8370     1.3640 H     1 <1>   0.1500 
 38 H       -5.7330     2.2360    -1.9950 H     1 <1>   0.1500 
 39 H       -6.6830     4.0000    -0.5660 H     1 <1>   0.1500 
@<TRIPOS>BOND
  1   1   2  2   
  2   2   3  am  
  3   2   4  1   
  4   3   5  1   
  5   3   6  1   
  6   4   7  1   
  7   4  19  1   
  8   4  20  1   
  9   5   8  1   
 10   5  21  1   
 11   5  22  1   
 12   6   9  1   
 13   6  23  1   
 14   6  24  1   
 15   7  10  1   
 16   8  11  1   
 17   8  25  1   
 18   8  26  1   
 19   9  12  1   
 20   9  27  1   
 21   9  28  1   
 22  10  13  ar  
 23  10  14  ar  
 24  11  15  1   
 25  11  29  1   
 26  11  30  1   
 27  12  15  1   
 28  12  31  1   
 29  12  32  1   
 30  13  16  ar  
 31  13  33  1   
 32  14  17  ar  
 33  14  34  1   
 34  15  35  1   
 35  15  36  1   
 36  16  18  ar  
 37  16  37  1   
 38  17  18  ar  
 39  17  38  1   
 40  18  39  1   
@<TRIPOS>SUBSTRUCTURE
  1 ****   4 GROUP 4 **** **** 0

# MOE 2024.06 (io_trps.svl 2023.06)
