@<TRIPOS>MOLECULE
NONAME
48 49 1 0 0 
SMALL
USER_CHARGES


@<TRIPOS>ATOM
  1 O      -11.8630     2.1800     0.3640 O.3   1 <1>  -0.3630 
  2 C      -10.5130     2.1810     0.4620 C.ar  1 <1>   0.0830 
  3 C      -12.5500     1.2240    -0.4160 C.3   1 <1>   0.2640 
  4 C       -9.6820     1.2750    -0.1900 C.ar  1 <1>  -0.1500 
  5 C       -9.9530     3.1580     1.2680 C.ar  1 <1>  -0.1500 
  6 C      -14.0420     1.5090    -0.3540 C.ar  1 <1>  -0.1440 
  7 C       -8.3080     1.3580    -0.0350 C.ar  1 <1>  -0.1500 
  8 C       -8.5820     3.2420     1.4240 C.ar  1 <1>  -0.1500 
  9 C      -14.5390     2.7220    -0.8050 C.ar  1 <1>  -0.1500 
 10 C      -14.9240     0.5610     0.1430 C.ar  1 <1>  -0.1500 
 11 C       -7.7510     2.3440     0.7680 C.ar  1 <1>  -0.1430 
 12 C      -15.8980     2.9820    -0.7660 C.ar  1 <1>  -0.1500 
 13 C      -16.2830     0.8220     0.1830 C.ar  1 <1>  -0.1500 
 14 C       -6.2510     2.4540     0.9200 C.3   1 <1>   0.4860 
 15 C      -16.7780     2.0330    -0.2740 C.ar  1 <1>  -0.1430 
 16 N       -5.8120     3.4750    -0.0450 N.4   1 <1>  -0.9060 
 17 C      -18.2680     2.3190    -0.2280 C.3   1 <1>  -0.0970 
 18 C       -4.3780     3.8210    -0.0110 C.3   1 <1>   0.4230 
 19 C       -4.2300     5.3030    -0.4280 C.3   1 <1>   0.1200 
 20 C       -3.5980     2.8570    -0.9160 C.3   1 <1>  -0.1600 
 21 O       -5.3250     6.0360     0.0460 O.3   1 <1>  -0.6800 
 22 C       -2.0800     3.0880    -0.8590 C.3   1 <1>  -0.2400 
 23 H      -12.3300     0.2480    -0.0220 H     1 <1>   0.0800 
 24 H      -12.2040     1.3010    -1.4310 H     1 <1>   0.0800 
 25 H      -10.0850     0.5010    -0.8170 H     1 <1>   0.1500 
 26 H      -10.6060     3.8500     1.7720 H     1 <1>   0.1500 
 27 H       -7.6860     0.6440    -0.5480 H     1 <1>   0.1500 
 28 H       -8.1810     4.0130     2.0610 H     1 <1>   0.1500 
 29 H      -13.8650     3.4700    -1.1850 H     1 <1>   0.1500 
 30 H      -14.5600    -0.3840     0.5040 H     1 <1>   0.1500 
 31 H      -16.2650     3.9300    -1.1180 H     1 <1>   0.1500 
 32 H      -16.9540     0.0780     0.5730 H     1 <1>   0.1500 
 33 H       -5.7860     1.5050     0.7090 H     1 <1>   0.0800 
 34 H       -6.0040     2.7530     1.9260 H     1 <1>   0.0800 
 35 H       -6.2900     4.3670     0.1770 H     1 <1>   0.4500 
 36 H       -6.1250     3.2340    -0.9880 H     1 <1>   0.4500 
 37 H      -18.5480     2.9760    -1.0320 H     1 <1>   0.0800 
 38 H      -18.5180     2.7870     0.7070 H     1 <1>   0.0800 
 39 H      -18.8300     1.4080    -0.3230 H     1 <1>   0.0800 
 40 H       -4.0130     3.7280     0.9990 H     1 <1>   0.0800 
 41 H       -4.2020     5.3990    -1.5000 H     1 <1>   0.0800 
 42 H       -3.3260     5.7210    -0.0160 H     1 <1>   0.0800 
 43 H       -3.9240     2.9640    -1.9370 H     1 <1>   0.0800 
 44 H       -3.7870     1.8440    -0.6070 H     1 <1>   0.0800 
 45 H       -5.2140     6.9960    -0.1430 H     1 <1>   0.4000 
 46 H       -1.8140     4.0600    -1.2370 H     1 <1>   0.0800 
 47 H       -1.5760     2.3520    -1.4630 H     1 <1>   0.0800 
 48 H       -1.7140     2.9950     0.1500 H     1 <1>   0.0800 
@<TRIPOS>BOND
  1   1   2  1   
  2   1   3  1   
  3   2   4  ar  
  4   2   5  ar  
  5   3   6  1   
  6   3  23  1   
  7   3  24  1   
  8   4   7  ar  
  9   4  25  1   
 10   5   8  ar  
 11   5  26  1   
 12   6   9  ar  
 13   6  10  ar  
 14   7  11  ar  
 15   7  27  1   
 16   8  11  ar  
 17   8  28  1   
 18   9  12  ar  
 19   9  29  1   
 20  10  13  ar  
 21  10  30  1   
 22  11  14  1   
 23  12  15  ar  
 24  12  31  1   
 25  13  15  ar  
 26  13  32  1   
 27  14  16  1   
 28  14  33  1   
 29  14  34  1   
 30  15  17  1   
 31  16  18  1   
 32  16  35  1   
 33  16  36  1   
 34  17  37  1   
 35  17  38  1   
 36  17  39  1   
 37  18  19  1   
 38  18  20  1   
 39  18  40  1   
 40  19  21  1   
 41  19  41  1   
 42  19  42  1   
 43  20  22  1   
 44  20  43  1   
 45  20  44  1   
 46  21  45  1   
 47  22  46  1   
 48  22  47  1   
 49  22  48  1   
@<TRIPOS>SUBSTRUCTURE
  1 ****   2 GROUP 4 **** **** 0

# MOE 2024.06 (io_trps.svl 2023.06)
