@<TRIPOS>MOLECULE
NONAME
51 54 1 0 0 
SMALL
USER_CHARGES


@<TRIPOS>ATOM
  1 O        0.3450    -1.1080    -2.1910 O.2   1 <1>  -0.5700 
  2 C        1.4360    -1.0580    -1.6390 C.2   1 <1>   0.5440 
  3 N        2.1660    -2.2180    -1.4250 N.am  1 <1>  -0.2980 
  4 C        2.0010     0.1800    -1.1870 C.ar  1 <1>   0.0860 
  5 N        3.4280    -2.2440    -0.9030 N.2   1 <1>  -0.5120 
  6 C        1.5760    -3.5420    -1.7980 C.3   1 <1>   0.2010 
  7 C        3.2790     0.1450    -0.6090 C.ar  1 <1>   0.0860 
  8 C        1.3220     1.3980    -1.2900 C.ar  1 <1>  -0.1500 
  9 C        3.9670    -1.1230    -0.5310 C.2   1 <1>   0.2780 
 10 C        0.5320    -4.0450    -0.8020 C.2   1 <1>   0.5690 
 11 C        3.8160     1.3500    -0.1280 C.ar  1 <1>  -0.1500 
 12 C        1.8780     2.5680    -0.8240 C.ar  1 <1>  -0.1500 
 13 C        5.3160    -1.1590    -0.0170 C.ar  1 <1>   0.0860 
 14 O        0.6450    -5.1590    -0.3460 O.2   1 <1>  -0.5700 
 15 N       -0.5220    -3.2540    -0.4690 N.am  1 <1>  -0.7300 
 16 C        3.1330     2.5410    -0.2360 C.ar  1 <1>  -0.1500 
 17 C        6.3780    -0.5900    -0.7190 C.ar  1 <1>  -0.1500 
 18 C        5.5990    -1.7640     1.2060 C.ar  1 <1>  -0.1500 
 19 C       -1.5960    -3.5840     0.4930 C.3   1 <1>   0.1400 
 20 C        7.6640    -0.6060    -0.2110 C.ar  1 <1>  -0.1500 
 21 C        6.8840    -1.7830     1.7160 C.ar  1 <1>  -0.1500 
 22 C       -2.9310    -2.9770     0.0390 C.3   1 <1>   0.2000 
 23 C        7.9250    -1.2020     1.0120 C.ar  1 <1>  -0.1430 
 24 O       -2.8060    -1.6010    -0.1310 O.3   1 <1>  -0.5600 
 25 C       -4.0630    -3.1240     1.0460 C.3   1 <1>  -0.1600 
 26 C        9.3360    -1.2200     1.5720 C.3   1 <1>  -0.0970 
 27 C       -4.0570    -0.9960    -0.0780 C.3   1 <1>   0.1200 
 28 C       -4.9550    -1.9340     0.7290 C.3   1 <1>  -0.1600 
 29 H        2.3650    -4.2680    -1.8570 H     1 <1>   0.0800 
 30 H        1.1220    -3.4680    -2.7680 H     1 <1>   0.0800 
 31 H        0.3430     1.4120    -1.7410 H     1 <1>   0.1500 
 32 H        4.7840     1.3580     0.3420 H     1 <1>   0.1500 
 33 H        1.3430     3.4990    -0.9090 H     1 <1>   0.1500 
 34 H       -0.6130    -2.3210    -0.9050 H     1 <1>   0.3700 
 35 H        3.5660     3.4540     0.1370 H     1 <1>   0.1500 
 36 H        6.1890    -0.1330    -1.6740 H     1 <1>   0.1500 
 37 H        4.7970    -2.2260     1.7540 H     1 <1>   0.1500 
 38 H       -1.3340    -3.1920     1.4600 H     1 <1>   0.0800 
 39 H       -1.6920    -4.6530     0.5770 H     1 <1>   0.0800 
 40 H        8.4640    -0.1550    -0.7730 H     1 <1>   0.1500 
 41 H        7.0710    -2.2550     2.6650 H     1 <1>   0.1500 
 42 H       -3.2230    -3.3970    -0.9090 H     1 <1>   0.0800 
 43 H       -3.6750    -3.0380     2.0460 H     1 <1>   0.0800 
 44 H       -4.5720    -4.0660     0.9400 H     1 <1>   0.0800 
 45 H        9.4960    -0.3500     2.1830 H     1 <1>   0.0800 
 46 H       10.0580    -1.2240     0.7760 H     1 <1>   0.0800 
 47 H        9.4900    -2.0990     2.1720 H     1 <1>   0.0800 
 48 H       -4.4160    -0.8790    -1.0860 H     1 <1>   0.0800 
 49 H       -3.9490    -0.0330     0.3900 H     1 <1>   0.0800 
 50 H       -5.3120    -1.4560     1.6240 H     1 <1>   0.0800 
 51 H       -5.7970    -2.2300     0.1290 H     1 <1>   0.0800 
@<TRIPOS>BOND
  1   1   2  2   
  2   2   3  am  
  3   2   4  1   
  4   3   5  1   
  5   3   6  1   
  6   4   7  ar  
  7   4   8  ar  
  8   5   9  2   
  9   6  10  1   
 10   6  29  1   
 11   6  30  1   
 12   7   9  1   
 13   7  11  ar  
 14   8  12  ar  
 15   8  31  1   
 16   9  13  1   
 17  10  14  2   
 18  10  15  am  
 19  11  16  ar  
 20  11  32  1   
 21  12  16  ar  
 22  12  33  1   
 23  13  17  ar  
 24  13  18  ar  
 25  15  19  1   
 26  15  34  1   
 27  16  35  1   
 28  17  20  ar  
 29  17  36  1   
 30  18  21  ar  
 31  18  37  1   
 32  19  22  1   
 33  19  38  1   
 34  19  39  1   
 35  20  23  ar  
 36  20  40  1   
 37  21  23  ar  
 38  21  41  1   
 39  22  24  1   
 40  22  25  1   
 41  22  42  1   
 42  23  26  1   
 43  24  27  1   
 44  25  28  1   
 45  25  43  1   
 46  25  44  1   
 47  26  45  1   
 48  26  46  1   
 49  26  47  1   
 50  27  28  1   
 51  27  48  1   
 52  27  49  1   
 53  28  50  1   
 54  28  51  1   
@<TRIPOS>SUBSTRUCTURE
  1 ****   3 GROUP 4 **** **** 0

# MOE 2024.06 (io_trps.svl 2023.06)
