@<TRIPOS>MOLECULE
NONAME
33 33 1 0 0 
SMALL
USER_CHARGES


@<TRIPOS>ATOM
  1 BR       2.5620     2.0380    -2.4480 Br    1 <1>  -0.1110 
  2 C        1.4370     2.7900    -1.0700 C.ar  1 <1>   0.1110 
  3 C        1.9530     2.9810     0.2050 C.ar  1 <1>   0.0820 
  4 C        0.1370     3.1170    -1.4030 C.ar  1 <1>  -0.1500 
  5 O        3.2440     2.6270     0.4360 O.3   1 <1>  -0.3630 
  6 C        1.1130     3.5240     1.1730 C.ar  1 <1>  -0.1500 
  7 C       -0.6900     3.6580    -0.4310 C.ar  1 <1>  -0.1430 
  8 C        3.8410     2.7830     1.7170 C.3   1 <1>   0.1810 
  9 C       -0.1940     3.8560     0.8510 C.ar  1 <1>  -0.1500 
 10 C       -2.1270     4.0240    -0.7660 C.3   1 <1>  -0.0160 
 11 C        5.2880     2.3050     1.7150 C.2   1 <1>   0.5690 
 12 C       -3.0550     2.8350    -0.5140 C.3   1 <1>  -0.2400 
 13 O        5.9210     2.3760     2.7410 O.2   1 <1>  -0.5700 
 14 N        5.8310     1.8110     0.5740 N.am  1 <1>  -0.7300 
 15 C        7.2100     1.3420     0.4130 C.3   1 <1>   0.2780 
 16 C        7.6770     1.7780    -0.9590 C.2   1 <1>  -0.2880 
 17 C        8.0150     0.9610    -1.9610 C.2   1 <1>  -0.3000 
 18 H       -0.2170     2.9480    -2.4040 H     1 <1>   0.1500 
 19 H        1.4510     3.6960     2.1770 H     1 <1>   0.1500 
 20 H        3.2790     2.2060     2.4280 H     1 <1>   0.0800 
 21 H        3.8130     3.8240     1.9810 H     1 <1>   0.0800 
 22 H       -0.8340     4.2730     1.6100 H     1 <1>   0.1500 
 23 H       -2.1950     4.3220    -1.7980 H     1 <1>   0.0800 
 24 H       -2.4390     4.8610    -0.1650 H     1 <1>   0.0800 
 25 H       -2.7630     1.9990    -1.1240 H     1 <1>   0.0800 
 26 H       -4.0700     3.1000    -0.7530 H     1 <1>   0.0800 
 27 H       -3.0090     2.5400     0.5200 H     1 <1>   0.0800 
 28 H        5.2510     1.7730    -0.2690 H     1 <1>   0.3700 
 29 H        7.2330     0.2690     0.4960 H     1 <1>   0.0800 
 30 H        7.8410     1.7630     1.1770 H     1 <1>   0.0800 
 31 H        7.7090     2.8510    -1.0500 H     1 <1>   0.1500 
 32 H        8.3430     1.3020    -2.9280 H     1 <1>   0.1500 
 33 H        7.9920    -0.1140    -1.9030 H     1 <1>   0.1500 
@<TRIPOS>BOND
  1   1   2  1   
  2   2   3  ar  
  3   2   4  ar  
  4   3   5  1   
  5   3   6  ar  
  6   4   7  ar  
  7   4  18  1   
  8   5   8  1   
  9   6   9  ar  
 10   6  19  1   
 11   7   9  ar  
 12   7  10  1   
 13   8  11  1   
 14   8  20  1   
 15   8  21  1   
 16   9  22  1   
 17  10  12  1   
 18  10  23  1   
 19  10  24  1   
 20  11  13  2   
 21  11  14  am  
 22  12  25  1   
 23  12  26  1   
 24  12  27  1   
 25  14  15  1   
 26  14  28  1   
 27  15  16  1   
 28  15  29  1   
 29  15  30  1   
 30  16  17  2   
 31  16  31  1   
 32  17  32  1   
 33  17  33  1   
@<TRIPOS>SUBSTRUCTURE
  1 ****   5 GROUP 4 **** **** 0

# MOE 2024.06 (io_trps.svl 2023.06)
