@<TRIPOS>MOLECULE
NONAME
47 48 1 0 0 
SMALL
USER_CHARGES


@<TRIPOS>ATOM
  1 S       -0.2610    -1.3750     0.2650 S.o2  1 <1>   1.4470 
  2 O        0.5290    -1.8000     1.3950 O.2   1 <1>  -0.6500 
  3 O       -1.1250    -2.3140    -0.4070 O.2   1 <1>  -0.6500 
  4 N        0.8170    -0.9120    -0.9880 N.am  1 <1>  -0.7570 
  5 C       -1.1840     0.1380     0.6390 C.ar  1 <1>  -0.0090 
  6 C        2.1000    -0.4170    -0.7740 C.ar  1 <1>   0.1990 
  7 C       -2.1200     0.6410    -0.2570 C.ar  1 <1>  -0.1500 
  8 C       -0.9670     0.8410     1.8150 C.ar  1 <1>  -0.1500 
  9 C        2.3640     0.9610    -0.7990 C.ar  1 <1>  -0.1440 
 10 C        3.1530    -1.3160    -0.5650 C.ar  1 <1>  -0.1430 
 11 C       -2.8220     1.8190    -0.0110 C.ar  1 <1>   0.0830 
 12 C       -1.6590     2.0060     2.0860 C.ar  1 <1>  -0.1500 
 13 C        3.6590     1.4050    -0.5780 C.ar  1 <1>  -0.1500 
 14 C        1.2780     2.0060    -1.0940 C.3   1 <1>   0.0630 
 15 C        4.4340    -0.8420    -0.3440 C.ar  1 <1>  -0.1500 
 16 C        2.9440    -2.8280    -0.5640 C.3   1 <1>  -0.0970 
 17 O       -3.7090     2.3120    -0.9240 O.3   1 <1>  -0.3620 
 18 C       -2.5890     2.5080     1.1920 C.ar  1 <1>   0.0830 
 19 C        4.6890     0.5140    -0.3460 C.ar  1 <1>  -0.1500 
 20 C        1.5410     2.6950    -2.4370 C.3   1 <1>  -0.2400 
 21 C        1.1720     3.0460     0.0290 C.3   1 <1>  -0.2400 
 22 C       -3.9390     1.6950    -2.1720 C.3   1 <1>   0.0400 
 23 O       -3.1930     3.6610     1.5960 O.3   1 <1>  -0.3630 
 24 C       -4.4540     4.0660     1.1120 C.3   1 <1>   0.0400 
 25 H        0.7620    -1.6370    -1.6940 H     1 <1>   0.4200 
 26 H       -2.2780     0.0830    -1.1600 H     1 <1>   0.1500 
 27 H       -0.2450     0.4750     2.5280 H     1 <1>   0.1500 
 28 H       -1.4790     2.5390     3.0030 H     1 <1>   0.1500 
 29 H        3.8840     2.4560    -0.5900 H     1 <1>   0.1500 
 30 H        0.3210     1.5310    -1.1760 H     1 <1>   0.0800 
 31 H        5.2460    -1.5260    -0.1680 H     1 <1>   0.1500 
 32 H        2.3130    -3.1300    -1.3790 H     1 <1>   0.0800 
 33 H        2.4940    -3.1370     0.3620 H     1 <1>   0.0800 
 34 H        3.8820    -3.3440    -0.6670 H     1 <1>   0.0800 
 35 H        5.6880     0.8760    -0.1730 H     1 <1>   0.1500 
 36 H        2.4660     3.2420    -2.4140 H     1 <1>   0.0800 
 37 H        0.7430     3.3780    -2.6670 H     1 <1>   0.0800 
 38 H        1.5980     1.9590    -3.2190 H     1 <1>   0.0800 
 39 H        2.0340     3.6860     0.0500 H     1 <1>   0.0800 
 40 H        1.0920     2.5530     0.9800 H     1 <1>   0.0800 
 41 H        0.2970     3.6550    -0.1130 H     1 <1>   0.0800 
 42 H       -4.6590     2.2870    -2.7080 H     1 <1>   0.0800 
 43 H       -4.3310     0.7070    -2.0080 H     1 <1>   0.0800 
 44 H       -3.0150     1.6610    -2.7220 H     1 <1>   0.0800 
 45 H       -4.8340     4.8300     1.7650 H     1 <1>   0.0800 
 46 H       -5.1180     3.2190     1.1100 H     1 <1>   0.0800 
 47 H       -4.3340     4.4630     0.1200 H     1 <1>   0.0800 
@<TRIPOS>BOND
  1   1   2  2   
  2   1   3  2   
  3   1   4  am  
  4   1   5  1   
  5   4   6  1   
  6   4  25  1   
  7   5   7  ar  
  8   5   8  ar  
  9   6   9  ar  
 10   6  10  ar  
 11   7  11  ar  
 12   7  26  1   
 13   8  12  ar  
 14   8  27  1   
 15   9  13  ar  
 16   9  14  1   
 17  10  15  ar  
 18  10  16  1   
 19  11  17  1   
 20  11  18  ar  
 21  12  18  ar  
 22  12  28  1   
 23  13  19  ar  
 24  13  29  1   
 25  14  20  1   
 26  14  21  1   
 27  14  30  1   
 28  15  19  ar  
 29  15  31  1   
 30  16  32  1   
 31  16  33  1   
 32  16  34  1   
 33  17  22  1   
 34  18  23  1   
 35  19  35  1   
 36  20  36  1   
 37  20  37  1   
 38  20  38  1   
 39  21  39  1   
 40  21  40  1   
 41  21  41  1   
 42  22  42  1   
 43  22  43  1   
 44  22  44  1   
 45  23  24  1   
 46  24  45  1   
 47  24  46  1   
 48  24  47  1   
@<TRIPOS>SUBSTRUCTURE
  1 ****   5 GROUP 4 **** **** 0

# MOE 2024.06 (io_trps.svl 2023.06)
