@<TRIPOS>MOLECULE
NONAME
48 50 1 0 0 
SMALL
USER_CHARGES


@<TRIPOS>ATOM
  1 S       -0.0070     0.4900    -0.5800 S.3   1 <1>  -0.0800 
  2 C       -0.1970    -1.2300    -0.2770 C.2   1 <1>   0.1040 
  3 C        1.7200     0.3850    -0.3280 C.2   1 <1>  -0.1400 
  4 N       -1.4530    -1.8180    -0.3250 N.am  1 <1>  -0.4940 
  5 C        1.0090    -1.8260    -0.0070 C.2   1 <1>  -0.0860 
  6 C        2.0950    -0.8660    -0.0230 C.2   1 <1>  -0.1810 
  7 C        2.5710     1.6280    -0.4650 C.3   1 <1>   0.0200 
  8 C       -2.7030    -1.3260    -0.6070 C.2   1 <1>   0.5690 
  9 C        1.1230    -3.2410     0.2450 C.2   1 <1>   0.8060 
 10 C        3.5620    -1.1700     0.2680 C.3   1 <1>   0.0210 
 11 C        4.0510     1.2160    -0.5310 C.3   1 <1>  -0.1600 
 12 O       -2.9330    -0.1880    -0.9390 O.2   1 <1>  -0.5700 
 13 C       -3.9130    -2.2650    -0.4780 C.3   1 <1>   0.4040 
 14 O        0.1420    -3.9640     0.3500 O.2   1 <1>  -0.5700 
 15 O        2.3320    -3.8030     0.3520 O.3   1 <1>  -0.4300 
 16 C        4.3810     0.1170     0.4980 C.3   1 <1>  -0.1600 
 17 N       -5.2100    -1.5290    -0.2250 N.4   1 <1>  -0.9590 
 18 C        2.5040    -5.1890     0.5850 C.3   1 <1>   0.0400 
 19 C       -5.2200    -0.8750     1.1180 C.3   1 <1>   0.3430 
 20 C       -6.4110    -2.3750    -0.4690 C.3   1 <1>   0.3430 
 21 C       -6.4680    -0.0010     1.2540 C.3   1 <1>  -0.1600 
 22 C       -7.6740    -1.5200    -0.3550 C.3   1 <1>  -0.1600 
 23 C       -7.7540    -0.7960     0.9950 C.3   1 <1>  -0.1600 
 24 H       -1.3930    -2.8210    -0.1020 H     1 <1>   0.3700 
 25 H        2.3990     2.2630     0.3860 H     1 <1>   0.0800 
 26 H        2.3010     2.1670    -1.3560 H     1 <1>   0.0800 
 27 H        3.9740    -1.7150    -0.5630 H     1 <1>   0.0800 
 28 H        3.6460    -1.7820     1.1490 H     1 <1>   0.0800 
 29 H        4.6710     2.0790    -0.3610 H     1 <1>   0.0800 
 30 H        4.2650     0.8430    -1.5170 H     1 <1>   0.0800 
 31 H       -3.7310    -2.9640     0.3190 H     1 <1>   0.0800 
 32 H       -3.9920    -2.8170    -1.3980 H     1 <1>   0.0800 
 33 H        5.4300    -0.1170     0.4580 H     1 <1>   0.0800 
 34 H        4.1660     0.4930     1.4840 H     1 <1>   0.0800 
 35 H       -5.2110    -0.7470    -0.9030 H     1 <1>   0.4500 
 36 H        3.5570    -5.3980     0.6350 H     1 <1>   0.0800 
 37 H        2.0570    -5.7380    -0.2260 H     1 <1>   0.0800 
 38 H        2.0310    -5.4490     1.5160 H     1 <1>   0.0800 
 39 H       -4.3420    -0.2580     1.2370 H     1 <1>   0.0800 
 40 H       -5.2200    -1.6250     1.8930 H     1 <1>   0.0800 
 41 H       -6.4510    -3.1700     0.2580 H     1 <1>   0.0800 
 42 H       -6.3630    -2.8130    -1.4530 H     1 <1>   0.0800 
 43 H       -6.3990     0.8230     0.5640 H     1 <1>   0.0800 
 44 H       -6.4980     0.4160     2.2460 H     1 <1>   0.0800 
 45 H       -8.5380    -2.1510    -0.4720 H     1 <1>   0.0800 
 46 H       -7.6910    -0.8010    -1.1570 H     1 <1>   0.0800 
 47 H       -8.6020    -0.1310     1.0040 H     1 <1>   0.0800 
 48 H       -7.8960    -1.5170     1.7830 H     1 <1>   0.0800 
@<TRIPOS>BOND
  1   1   2  1   
  2   1   3  1   
  3   2   4  1   
  4   2   5  2   
  5   3   6  2   
  6   3   7  1   
  7   4   8  am  
  8   4  24  1   
  9   5   6  1   
 10   5   9  1   
 11   6  10  1   
 12   7  11  1   
 13   7  25  1   
 14   7  26  1   
 15   8  12  2   
 16   8  13  1   
 17   9  14  2   
 18   9  15  1   
 19  10  16  1   
 20  10  27  1   
 21  10  28  1   
 22  11  16  1   
 23  11  29  1   
 24  11  30  1   
 25  13  17  1   
 26  13  31  1   
 27  13  32  1   
 28  15  18  1   
 29  16  33  1   
 30  16  34  1   
 31  17  19  1   
 32  17  20  1   
 33  17  35  1   
 34  18  36  1   
 35  18  37  1   
 36  18  38  1   
 37  19  21  1   
 38  19  39  1   
 39  19  40  1   
 40  20  22  1   
 41  20  41  1   
 42  20  42  1   
 43  21  23  1   
 44  21  43  1   
 45  21  44  1   
 46  22  23  1   
 47  22  45  1   
 48  22  46  1   
 49  23  47  1   
 50  23  48  1   
@<TRIPOS>SUBSTRUCTURE
  1 ****   4 GROUP 4 **** **** 0

# MOE 2024.06 (io_trps.svl 2023.06)
