@<TRIPOS>MOLECULE
NONAME
39 40 1 0 0 
SMALL
USER_CHARGES


@<TRIPOS>ATOM
  1 S       -0.9700     0.1800     1.6740 S.3   1 <1>  -0.0800 
  2 C        0.2190     1.0440     0.7210 C.2   1 <1>   0.1040 
  3 C       -2.2990     0.8720     0.7700 C.2   1 <1>  -0.1400 
  4 N        1.5700     0.8860     1.0000 N.am  1 <1>  -0.4940 
  5 C       -0.3870     1.8180    -0.2360 C.2   1 <1>  -0.0860 
  6 C       -1.8380     1.7030    -0.1860 C.2   1 <1>  -0.1810 
  7 C       -3.6740     0.4160     1.2250 C.3   1 <1>  -0.0600 
  8 C        2.2720     0.1080     1.8880 C.2   1 <1>   0.5690 
  9 C        0.3820     2.6280    -1.1540 C.2   1 <1>   0.8060 
 10 C       -2.7590     2.4610    -1.1350 C.3   1 <1>  -0.0590 
 11 O        1.7640    -0.6910     2.6360 O.2   1 <1>  -0.5700 
 12 C        3.7820     0.2670     1.9470 C.3   1 <1>   0.1310 
 13 O        1.5960     2.7260    -1.0910 O.2   1 <1>  -0.5700 
 14 O       -0.2380     3.3090    -2.1270 O.3   1 <1>  -0.4300 
 15 S        4.4650     0.8820     0.3320 S.3   1 <1>  -0.2860 
 16 C        0.4660     4.1150    -3.0530 C.3   1 <1>   0.0400 
 17 C        6.1950     1.1540     0.7150 C.2   1 <1>   0.2420 
 18 N        6.6960     0.9170     1.8810 N.2   1 <1>  -0.5650 
 19 N        7.0570     1.6260    -0.2110 N.pl3 1 <1>   0.0480 
 20 C        7.9900     1.2570     1.7130 C.2   1 <1>   0.0770 
 21 C        8.2290     1.6900     0.4520 C.2   1 <1>  -0.3020 
 22 C        6.7870     1.9900    -1.6130 C.3   1 <1>   0.0160 
 23 H        2.1770     1.4560     0.3960 H     1 <1>   0.3700 
 24 H       -3.7450    -0.6530     1.1400 H     1 <1>   0.0800 
 25 H       -4.4540     0.8590     0.6370 H     1 <1>   0.0800 
 26 H       -3.8220     0.6890     2.2540 H     1 <1>   0.0800 
 27 H       -3.7930     2.2670    -0.9250 H     1 <1>   0.0800 
 28 H       -2.5690     2.1640    -2.1510 H     1 <1>   0.0800 
 29 H       -2.5980     3.5200    -1.0390 H     1 <1>   0.0800 
 30 H        4.2550    -0.6760     2.1520 H     1 <1>   0.0800 
 31 H        4.0540     0.9810     2.7010 H     1 <1>   0.0800 
 32 H       -0.2430     4.5570    -3.7290 H     1 <1>   0.0800 
 33 H        1.1600     3.4980    -3.5960 H     1 <1>   0.0800 
 34 H        0.9940     4.8850    -2.5160 H     1 <1>   0.0800 
 35 H        8.6970     1.1730     2.5230 H     1 <1>   0.1500 
 36 H        9.1460     2.0300     0.0060 H     1 <1>   0.1500 
 37 H        6.0200     2.7440    -1.6420 H     1 <1>   0.0800 
 38 H        6.4530     1.1190    -2.1470 H     1 <1>   0.0800 
 39 H        7.6830     2.3710    -2.0670 H     1 <1>   0.0800 
@<TRIPOS>BOND
  1   1   2  1   
  2   1   3  1   
  3   2   4  1   
  4   2   5  2   
  5   3   6  2   
  6   3   7  1   
  7   4   8  am  
  8   4  23  1   
  9   5   6  1   
 10   5   9  1   
 11   6  10  1   
 12   7  24  1   
 13   7  25  1   
 14   7  26  1   
 15   8  11  2   
 16   8  12  1   
 17   9  13  2   
 18   9  14  1   
 19  10  27  1   
 20  10  28  1   
 21  10  29  1   
 22  12  15  1   
 23  12  30  1   
 24  12  31  1   
 25  14  16  1   
 26  15  17  1   
 27  16  32  1   
 28  16  33  1   
 29  16  34  1   
 30  17  18  2   
 31  17  19  1   
 32  18  20  1   
 33  19  21  1   
 34  19  22  1   
 35  20  21  2   
 36  20  35  1   
 37  21  36  1   
 38  22  37  1   
 39  22  38  1   
 40  22  39  1   
@<TRIPOS>SUBSTRUCTURE
  1 ****   4 GROUP 4 **** **** 0

# MOE 2024.06 (io_trps.svl 2023.06)
