@<TRIPOS>MOLECULE
NONAME
56 58 1 0 0 
SMALL
USER_CHARGES


@<TRIPOS>ATOM
  1 S        0.5620    -0.1440     0.0790 S.o2  1 <1>   1.4470 
  2 O        1.2770    -0.5640     1.2650 O.2   1 <1>  -0.6500 
  3 O        1.1790    -0.3310    -1.2140 O.2   1 <1>  -0.6500 
  4 N        0.2890     1.5580     0.2630 N.am  1 <1>  -0.6930 
  5 C       -1.1100    -0.8480     0.1140 C.ar  1 <1>  -0.0090 
  6 C       -0.7620     2.1980    -0.3890 C.ar  1 <1>   0.1990 
  7 C        1.1170     2.3350     1.2420 C.3   1 <1>   0.2570 
  8 C       -1.9060    -0.8580    -1.0250 C.ar  1 <1>  -0.1500 
  9 C       -1.6540    -1.3620     1.2860 C.ar  1 <1>  -0.1500 
 10 C       -0.6260     2.8050    -1.6410 C.ar  1 <1>  -0.1430 
 11 C       -2.0050     2.2160     0.2340 C.ar  1 <1>  -0.1500 
 12 C        2.0890     3.3360     0.6000 C.2   1 <1>   0.5690 
 13 C       -3.1950    -1.3590    -0.9980 C.ar  1 <1>  -0.1500 
 14 C       -2.9420    -1.8660     1.3200 C.ar  1 <1>  -0.1500 
 15 C       -1.7300     3.3940    -2.2350 C.ar  1 <1>  -0.1500 
 16 C        0.7000     2.8640    -2.3890 C.3   1 <1>  -0.0960 
 17 C       -3.1070     2.7960    -0.3660 C.ar  1 <1>  -0.1430 
 18 O        1.7910     4.5070     0.6830 O.2   1 <1>  -0.5700 
 19 N        3.2510     2.9410    -0.0290 N.am  1 <1>  -0.6600 
 20 C       -3.7210    -1.8680     0.1760 C.ar  1 <1>  -0.1430 
 21 C       -2.9630     3.3890    -1.6080 C.ar  1 <1>  -0.1500 
 22 C       -4.4540     2.7780     0.3320 C.3   1 <1>  -0.0970 
 23 C        3.7420     1.5360    -0.1220 C.3   1 <1>   0.1400 
 24 C        4.0970     3.9260    -0.7640 C.3   1 <1>   0.1400 
 25 C       -5.1360    -2.4170     0.2080 C.3   1 <1>  -0.0970 
 26 C        5.1920     1.4480     0.3670 C.3   1 <1>  -0.1600 
 27 C        5.5420     3.8580    -0.2630 C.3   1 <1>  -0.1600 
 28 C        6.1060     2.4350    -0.3690 C.3   1 <1>  -0.1600 
 29 H        1.6730     1.6840     1.8860 H     1 <1>   0.0800 
 30 H        0.4480     2.8950     1.8710 H     1 <1>   0.0800 
 31 H       -1.5130    -0.4580    -1.9450 H     1 <1>   0.1500 
 32 H       -1.0620    -1.3670     2.1860 H     1 <1>   0.1500 
 33 H       -2.1080     1.7590     1.2000 H     1 <1>   0.1500 
 34 H       -3.7870    -1.3470    -1.8970 H     1 <1>   0.1500 
 35 H       -3.3360    -2.2580     2.2430 H     1 <1>   0.1500 
 36 H       -1.6350     3.8680    -3.1960 H     1 <1>   0.1500 
 37 H        1.2110     3.7770    -2.1390 H     1 <1>   0.0800 
 38 H        0.5350     2.8420    -3.4500 H     1 <1>   0.0800 
 39 H        1.3350     2.0380    -2.1380 H     1 <1>   0.0800 
 40 H       -3.8060     3.8510    -2.0900 H     1 <1>   0.1500 
 41 H       -4.5050     3.5800     1.0460 H     1 <1>   0.0800 
 42 H       -4.5920     1.8430     0.8470 H     1 <1>   0.0800 
 43 H       -5.2510     2.8930    -0.3790 H     1 <1>   0.0800 
 44 H        3.6770     1.2080    -1.1460 H     1 <1>   0.0800 
 45 H        3.1480     0.8760     0.4770 H     1 <1>   0.0800 
 46 H        3.7220     4.9270    -0.6340 H     1 <1>   0.0800 
 47 H        4.0640     3.6950    -1.8140 H     1 <1>   0.0800 
 48 H       -5.8300    -1.6230     0.4150 H     1 <1>   0.0800 
 49 H       -5.2320    -3.1710     0.9680 H     1 <1>   0.0800 
 50 H       -5.3870    -2.8590    -0.7400 H     1 <1>   0.0800 
 51 H        5.5520     0.4450     0.2220 H     1 <1>   0.0800 
 52 H        5.2130     1.6520     1.4230 H     1 <1>   0.0800 
 53 H        5.5690     4.1880     0.7610 H     1 <1>   0.0800 
 54 H        6.1500     4.5320    -0.8400 H     1 <1>   0.0800 
 55 H        6.1760     2.1530    -1.4050 H     1 <1>   0.0800 
 56 H        7.0950     2.4020     0.0550 H     1 <1>   0.0800 
@<TRIPOS>BOND
  1   1   2  2   
  2   1   3  2   
  3   1   4  am  
  4   1   5  1   
  5   4   6  1   
  6   4   7  1   
  7   5   8  ar  
  8   5   9  ar  
  9   6  10  ar  
 10   6  11  ar  
 11   7  12  1   
 12   7  29  1   
 13   7  30  1   
 14   8  13  ar  
 15   8  31  1   
 16   9  14  ar  
 17   9  32  1   
 18  10  15  ar  
 19  10  16  1   
 20  11  17  ar  
 21  11  33  1   
 22  12  18  2   
 23  12  19  am  
 24  13  20  ar  
 25  13  34  1   
 26  14  20  ar  
 27  14  35  1   
 28  15  21  ar  
 29  15  36  1   
 30  16  37  1   
 31  16  38  1   
 32  16  39  1   
 33  17  21  ar  
 34  17  22  1   
 35  19  23  1   
 36  19  24  1   
 37  20  25  1   
 38  21  40  1   
 39  22  41  1   
 40  22  42  1   
 41  22  43  1   
 42  23  26  1   
 43  23  44  1   
 44  23  45  1   
 45  24  27  1   
 46  24  46  1   
 47  24  47  1   
 48  25  48  1   
 49  25  49  1   
 50  25  50  1   
 51  26  28  1   
 52  26  51  1   
 53  26  52  1   
 54  27  28  1   
 55  27  53  1   
 56  27  54  1   
 57  28  55  1   
 58  28  56  1   
@<TRIPOS>SUBSTRUCTURE
  1 ****   4 GROUP 4 **** **** 0

# MOE 2024.06 (io_trps.svl 2023.06)
