@<TRIPOS>MOLECULE
NONAME
54 55 1 0 0 
SMALL
USER_CHARGES


@<TRIPOS>ATOM
  1 O      -10.1950     1.4810    -0.3720 O.3   1 <1>  -0.3630 
  2 C      -11.3830     2.1260    -0.2570 C.ar  1 <1>   0.0830 
  3 C       -8.9760     2.1900    -0.4190 C.3   1 <1>   0.1200 
  4 C      -11.5130     3.5040    -0.1220 C.ar  1 <1>  -0.1500 
  5 C      -12.5210     1.3430    -0.2800 C.ar  1 <1>  -0.1500 
  6 C       -7.8360     1.1760    -0.5740 C.3   1 <1>   0.2000 
  7 C      -12.7640     4.0950    -0.0120 C.ar  1 <1>  -0.1440 
  8 C      -13.7690     1.9250    -0.1700 C.ar  1 <1>  -0.1500 
  9 O       -7.9610     0.1970     0.4140 O.3   1 <1>  -0.6800 
 10 C       -6.4390     1.8250    -0.4610 C.3   1 <1>   0.3430 
 11 C      -13.9130     3.3010    -0.0350 C.ar  1 <1>  -0.1440 
 12 C      -12.8260     5.6110     0.1340 C.3   1 <1>  -0.0970 
 13 N       -5.4210     0.8020    -0.0660 N.4   1 <1>  -0.9590 
 14 C      -15.3300     3.8810     0.0810 C.3   1 <1>   0.0630 
 15 C       -4.3170     1.4020     0.7300 C.3   1 <1>   0.3430 
 16 C       -4.9900    -0.0350    -1.2200 C.3   1 <1>   0.3430 
 17 C      -16.0410     3.3490     1.3310 C.3   1 <1>  -0.2400 
 18 C      -16.1500     3.5820    -1.1790 C.3   1 <1>  -0.2400 
 19 C       -3.4450     0.3410     1.4050 C.3   1 <1>  -0.1600 
 20 C       -4.6560    -1.4450    -0.7360 C.3   1 <1>  -0.1600 
 21 C       -2.5480    -0.4230     0.4210 C.3   1 <1>  -0.1600 
 22 C       -3.2160    -1.6410    -0.2320 C.3   1 <1>  -0.1600 
 23 H       -8.8720     2.7460     0.4970 H     1 <1>   0.0800 
 24 H       -9.0070     2.8630    -1.2580 H     1 <1>   0.0800 
 25 H      -10.6470     4.1340    -0.1000 H     1 <1>   0.1500 
 26 H      -12.4300     0.2770    -0.3840 H     1 <1>   0.1500 
 27 H       -7.9320     0.6900    -1.5290 H     1 <1>   0.0800 
 28 H      -14.6360     1.2900    -0.1910 H     1 <1>   0.1500 
 29 H       -8.9170    -0.0350     0.4980 H     1 <1>   0.4000 
 30 H       -6.4900     2.5850     0.3010 H     1 <1>   0.0800 
 31 H       -6.1670     2.3020    -1.3880 H     1 <1>   0.0800 
 32 H      -11.8440     6.0470     0.1320 H     1 <1>   0.0800 
 33 H      -13.3050     5.8710     1.0600 H     1 <1>   0.0800 
 34 H      -13.3810     6.0350    -0.6840 H     1 <1>   0.0800 
 35 H       -5.9650     0.1740     0.5570 H     1 <1>   0.4500 
 36 H      -15.2890     4.9490     0.1780 H     1 <1>   0.0800 
 37 H       -4.7400     2.0290     1.4990 H     1 <1>   0.0800 
 38 H       -3.7030     2.0220     0.0970 H     1 <1>   0.0800 
 39 H       -4.1440     0.4050    -1.7230 H     1 <1>   0.0800 
 40 H       -5.8020    -0.1100    -1.9240 H     1 <1>   0.0800 
 41 H      -16.1920     2.2870     1.2670 H     1 <1>   0.0800 
 42 H      -16.9970     3.8260     1.4460 H     1 <1>   0.0800 
 43 H      -15.4460     3.5580     2.2020 H     1 <1>   0.0800 
 44 H      -16.3050     2.5250    -1.2980 H     1 <1>   0.0800 
 45 H      -15.6320     3.9520    -2.0460 H     1 <1>   0.0800 
 46 H      -17.1100     4.0640    -1.1210 H     1 <1>   0.0800 
 47 H       -4.0450    -0.3340     1.9910 H     1 <1>   0.0800 
 48 H       -2.8000     0.8610     2.0920 H     1 <1>   0.0800 
 49 H       -4.8040    -2.1230    -1.5590 H     1 <1>   0.0800 
 50 H       -5.3560    -1.7380     0.0280 H     1 <1>   0.0800 
 51 H       -1.6800    -0.7780     0.9530 H     1 <1>   0.0800 
 52 H       -2.1860     0.2490    -0.3400 H     1 <1>   0.0800 
 53 H       -2.5970    -1.9490    -1.0580 H     1 <1>   0.0800 
 54 H       -3.2160    -2.4570     0.4710 H     1 <1>   0.0800 
@<TRIPOS>BOND
  1   1   2  1   
  2   1   3  1   
  3   2   4  ar  
  4   2   5  ar  
  5   3   6  1   
  6   3  23  1   
  7   3  24  1   
  8   4   7  ar  
  9   4  25  1   
 10   5   8  ar  
 11   5  26  1   
 12   6   9  1   
 13   6  10  1   
 14   6  27  1   
 15   7  11  ar  
 16   7  12  1   
 17   8  11  ar  
 18   8  28  1   
 19   9  29  1   
 20  10  13  1   
 21  10  30  1   
 22  10  31  1   
 23  11  14  1   
 24  12  32  1   
 25  12  33  1   
 26  12  34  1   
 27  13  15  1   
 28  13  16  1   
 29  13  35  1   
 30  14  17  1   
 31  14  18  1   
 32  14  36  1   
 33  15  19  1   
 34  15  37  1   
 35  15  38  1   
 36  16  20  1   
 37  16  39  1   
 38  16  40  1   
 39  17  41  1   
 40  17  42  1   
 41  17  43  1   
 42  18  44  1   
 43  18  45  1   
 44  18  46  1   
 45  19  21  1   
 46  19  47  1   
 47  19  48  1   
 48  20  22  1   
 49  20  49  1   
 50  20  50  1   
 51  21  22  1   
 52  21  51  1   
 53  21  52  1   
 54  22  53  1   
 55  22  54  1   
@<TRIPOS>SUBSTRUCTURE
  1 ****   3 GROUP 4 **** **** 0

# MOE 2024.06 (io_trps.svl 2023.06)
