@<TRIPOS>MOLECULE
NONAME
40 41 1 0 0 
SMALL
USER_CHARGES


@<TRIPOS>ATOM
  1 CL       0.1620    -2.6310    -0.9800 Cl    1 <1>  -0.1400 
  2 C       -0.7660    -1.7790     0.2300 C.2   1 <1>   0.0020 
  3 C       -2.0060    -1.3310     0.0100 C.2   1 <1>  -0.2880 
  4 C        0.0150    -1.6250     1.5180 C.3   1 <1>  -0.1020 
  5 C       -2.8180    -1.4720    -1.2690 C.3   1 <1>   0.1160 
  6 C       -4.1350    -2.1960    -0.9830 C.2   1 <1>  -0.1240 
  7 C       -5.2330    -1.3870    -0.5450 C.2   1 <1>   0.4690 
  8 C       -4.2930    -3.5440    -1.1260 C.2   1 <1>  -0.0380 
  9 O       -5.1070    -0.1780    -0.3850 O.2   1 <1>  -0.5700 
 10 C       -6.5040    -2.0150    -0.2880 C.ar  1 <1>   0.0860 
 11 N       -5.5120    -4.1210    -0.8810 N.pl3 1 <1>  -0.6000 
 12 C       -3.2160    -4.5350    -1.5400 C.3   1 <1>  -0.1020 
 13 C       -6.6160    -3.4000    -0.4680 C.ar  1 <1>   0.1000 
 14 C       -7.6340    -1.3080     0.1350 C.ar  1 <1>  -0.1500 
 15 C       -7.8340    -4.0290    -0.2270 C.ar  1 <1>  -0.1500 
 16 C       -8.8600    -1.9180     0.3820 C.ar  1 <1>   0.0860 
 17 C       -8.9270    -3.3050     0.1880 C.ar  1 <1>  -0.1500 
 18 C      -10.0240    -1.1750     0.8210 C.2   1 <1>   0.6340 
 19 O      -11.1000    -1.6930     1.0440 O.2   1 <1>  -0.5700 
 20 O       -9.9010     0.1450     0.9870 O.3   1 <1>  -0.4300 
 21 C      -10.9830     0.9440     1.4110 C.3   1 <1>   0.1200 
 22 C      -10.4980     2.3880     1.4960 C.3   1 <1>  -0.2400 
 23 H       -2.5600    -0.8020     0.7670 H     1 <1>   0.1500 
 24 H        0.9190    -1.0730     1.3320 H     1 <1>   0.0800 
 25 H        0.2710    -2.5930     1.9080 H     1 <1>   0.0800 
 26 H       -0.5680    -1.0980     2.2510 H     1 <1>   0.0800 
 27 H       -2.2580    -1.9890    -2.0240 H     1 <1>   0.0800 
 28 H       -3.0120    -0.4920    -1.6690 H     1 <1>   0.0800 
 29 H       -5.6140    -5.1340    -0.9980 H     1 <1>   0.4000 
 30 H       -3.3990    -4.8750    -2.5440 H     1 <1>   0.0800 
 31 H       -3.2290    -5.3840    -0.8800 H     1 <1>   0.0800 
 32 H       -2.2320    -4.1130    -1.4940 H     1 <1>   0.0800 
 33 H       -7.5390    -0.2440     0.2710 H     1 <1>   0.1500 
 34 H       -7.9150    -5.0920    -0.3670 H     1 <1>   0.1500 
 35 H       -9.8630    -3.8080     0.3710 H     1 <1>   0.1500 
 36 H      -11.7820     0.8440     0.6960 H     1 <1>   0.0800 
 37 H      -11.3120     0.5880     2.3730 H     1 <1>   0.0800 
 38 H      -10.1640     2.7230     0.5310 H     1 <1>   0.0800 
 39 H       -9.6930     2.4670     2.2040 H     1 <1>   0.0800 
 40 H      -11.3040     3.0220     1.8200 H     1 <1>   0.0800 
@<TRIPOS>BOND
  1   1   2  1   
  2   2   3  2   
  3   2   4  1   
  4   3   5  1   
  5   3  23  1   
  6   4  24  1   
  7   4  25  1   
  8   4  26  1   
  9   5   6  1   
 10   5  27  1   
 11   5  28  1   
 12   6   7  1   
 13   6   8  2   
 14   7   9  2   
 15   7  10  1   
 16   8  11  1   
 17   8  12  1   
 18  10  13  ar  
 19  10  14  ar  
 20  11  13  1   
 21  11  29  1   
 22  12  30  1   
 23  12  31  1   
 24  12  32  1   
 25  13  15  ar  
 26  14  16  ar  
 27  14  33  1   
 28  15  17  ar  
 29  15  34  1   
 30  16  17  ar  
 31  16  18  1   
 32  17  35  1   
 33  18  19  2   
 34  18  20  1   
 35  20  21  1   
 36  21  22  1   
 37  21  36  1   
 38  21  37  1   
 39  22  38  1   
 40  22  39  1   
 41  22  40  1   
@<TRIPOS>SUBSTRUCTURE
  1 ****  10 GROUP 4 **** **** 0

# MOE 2024.06 (io_trps.svl 2023.06)
