@<TRIPOS>MOLECULE
NONAME
41 42 1 0 0 
SMALL
USER_CHARGES


@<TRIPOS>ATOM
  1 S       -2.3140     1.4680     1.7690 S.3   1 <1>  -0.0800 
  2 C       -2.0240     0.9370     0.1170 C.2   1 <1>  -0.1400 
  3 C       -2.9200     3.0170     1.2120 C.2   1 <1>  -0.1100 
  4 C       -2.3730     1.9020    -0.7540 C.2   1 <1>  -0.1500 
  5 C       -1.4550    -0.4620    -0.0850 C.3   1 <1>   0.0810 
  6 C       -2.8840     3.0850    -0.1310 C.2   1 <1>  -0.1500 
  7 C       -2.4600    -1.5760     0.1660 C.2   1 <1>   0.5690 
  8 O       -2.0880    -2.7210     0.0750 O.2   1 <1>  -0.5700 
  9 N       -3.7430    -1.2680     0.4700 N.am  1 <1>  -0.7300 
 10 C       -4.8360    -2.2220     0.6490 C.3   1 <1>   0.3640 
 11 C       -6.1250    -1.5560     0.1820 C.ar  1 <1>  -0.1430 
 12 C       -4.9030    -2.6250     2.1200 C.3   1 <1>  -0.2400 
 13 C       -6.8490    -2.1120    -0.8610 C.ar  1 <1>  -0.1500 
 14 C       -6.5940    -0.3910     0.7750 C.ar  1 <1>  -0.1500 
 15 C       -8.0180    -1.5170    -1.3020 C.ar  1 <1>  -0.1500 
 16 C       -7.7630     0.2030     0.3320 C.ar  1 <1>  -0.1500 
 17 C       -8.4870    -0.3530    -0.7110 C.ar  1 <1>  -0.1430 
 18 C       -9.7750     0.3170    -1.1870 C.3   1 <1>   0.0630 
 19 C      -10.9760    -0.6160    -1.0070 C.3   1 <1>  -0.2400 
 20 C       -9.6480     0.7670    -2.6460 C.3   1 <1>  -0.2400 
 21 H       -3.2400     3.7210     1.9590 H     1 <1>   0.1500 
 22 H       -2.2970     1.8370    -1.8260 H     1 <1>   0.1500 
 23 H       -0.6140    -0.6040     0.5670 H     1 <1>   0.0800 
 24 H       -1.1070    -0.5580    -1.0960 H     1 <1>   0.0800 
 25 H       -3.1990     3.9280    -0.7230 H     1 <1>   0.1500 
 26 H       -4.0280    -0.2870     0.4980 H     1 <1>   0.3700 
 27 H       -4.6390    -3.0990     0.0540 H     1 <1>   0.0800 
 28 H       -5.0300    -1.7640     2.7500 H     1 <1>   0.0800 
 29 H       -4.0000    -3.1380     2.3960 H     1 <1>   0.0800 
 30 H       -5.7330    -3.2900     2.2720 H     1 <1>   0.0800 
 31 H       -6.5060    -3.0120    -1.3400 H     1 <1>   0.1500 
 32 H       -6.0520     0.0620     1.5860 H     1 <1>   0.1500 
 33 H       -8.5610    -1.9670    -2.1140 H     1 <1>   0.1500 
 34 H       -8.1040     1.1040     0.8090 H     1 <1>   0.1500 
 35 H       -9.9490     1.1940    -0.5870 H     1 <1>   0.0800 
 36 H      -10.8800    -1.4900    -1.6250 H     1 <1>   0.0800 
 37 H      -11.8860    -0.1070    -1.2710 H     1 <1>   0.0800 
 38 H      -11.0440    -0.9290     0.0200 H     1 <1>   0.0800 
 39 H       -9.5200    -0.0770    -3.2980 H     1 <1>   0.0800 
 40 H       -8.7970     1.4160    -2.7540 H     1 <1>   0.0800 
 41 H      -10.5290     1.3050    -2.9470 H     1 <1>   0.0800 
@<TRIPOS>BOND
  1   1   2  1   
  2   1   3  1   
  3   2   4  2   
  4   2   5  1   
  5   3   6  2   
  6   3  21  1   
  7   4   6  1   
  8   4  22  1   
  9   5   7  1   
 10   5  23  1   
 11   5  24  1   
 12   6  25  1   
 13   7   8  2   
 14   7   9  am  
 15   9  10  1   
 16   9  26  1   
 17  10  11  1   
 18  10  12  1   
 19  10  27  1   
 20  11  13  ar  
 21  11  14  ar  
 22  12  28  1   
 23  12  29  1   
 24  12  30  1   
 25  13  15  ar  
 26  13  31  1   
 27  14  16  ar  
 28  14  32  1   
 29  15  17  ar  
 30  15  33  1   
 31  16  17  ar  
 32  16  34  1   
 33  17  18  1   
 34  18  19  1   
 35  18  20  1   
 36  18  35  1   
 37  19  36  1   
 38  19  37  1   
 39  19  38  1   
 40  20  39  1   
 41  20  40  1   
 42  20  41  1   
@<TRIPOS>SUBSTRUCTURE
  1 ****  14 GROUP 4 **** **** 0

# MOE 2024.06 (io_trps.svl 2023.06)
