@<TRIPOS>MOLECULE
NONAME
47 49 1 0 0 
SMALL
USER_CHARGES


@<TRIPOS>ATOM
  1 O       -0.5660     0.0820    -0.3060 O.2   1 <1>  -0.5700 
  2 C       -0.9780    -1.0570    -0.4210 C.2   1 <1>   0.6900 
  3 N       -2.3080    -1.2890    -0.6580 N.am  1 <1>  -0.6600 
  4 N       -0.1400    -2.1280    -0.3340 N.am  1 <1>  -0.5470 
  5 C       -3.0380    -2.5030    -0.1810 C.3   1 <1>   0.1400 
  6 C       -3.2410    -0.1690    -0.9940 C.3   1 <1>   0.1400 
  7 C        1.2180    -2.2800     0.0020 C.ar  1 <1>   0.1170 
  8 C       -3.9210    -2.1700     1.0360 C.3   1 <1>   0.2090 
  9 C       -4.1420     0.1810     0.2040 C.3   1 <1>   0.2090 
 10 C        1.8320    -3.5090    -0.2670 C.ar  1 <1>   0.0830 
 11 C        1.9680    -1.2730     0.5980 C.ar  1 <1>  -0.1500 
 12 N       -4.8390    -1.0260     0.7590 N.pl3 1 <1>  -0.8380 
 13 O        1.0600    -4.4820    -0.8420 O.3   1 <1>  -0.3630 
 14 C        3.1720    -3.7020     0.0510 C.ar  1 <1>  -0.1500 
 15 C        3.3010    -1.4680     0.9140 C.ar  1 <1>  -0.1500 
 16 C       -6.1080    -1.3290     0.3070 C.ar  1 <1>   0.4100 
 17 C        1.6220    -5.7160    -1.2340 C.3   1 <1>   0.0400 
 18 C        3.9090    -2.6880     0.6390 C.ar  1 <1>   0.0830 
 19 N       -6.3560    -1.1530    -0.9860 N.ar  1 <1>  -0.6200 
 20 C       -7.0540    -1.8140     1.2060 C.ar  1 <1>  -0.1500 
 21 O        5.2120    -2.9640     0.9150 O.3   1 <1>  -0.3630 
 22 C       -7.5770    -1.4660    -1.3870 C.ar  1 <1>   0.1600 
 23 C       -8.3200    -2.1370     0.7750 C.ar  1 <1>  -0.1500 
 24 C        6.0500    -1.9890     1.4930 C.3   1 <1>   0.0400 
 25 C       -8.5790    -1.9540    -0.5680 C.ar  1 <1>  -0.1500 
 26 H       -0.5360    -2.9780    -0.7260 H     1 <1>   0.3700 
 27 H       -2.3520    -3.2850     0.0900 H     1 <1>   0.0800 
 28 H       -3.6650    -2.8690    -0.9750 H     1 <1>   0.0800 
 29 H       -3.8590    -0.4640    -1.8230 H     1 <1>   0.0800 
 30 H       -2.6900     0.7050    -1.2940 H     1 <1>   0.0800 
 31 H       -3.2920    -1.9200     1.8730 H     1 <1>   0.0800 
 32 H       -4.4960    -3.0390     1.3030 H     1 <1>   0.0800 
 33 H       -4.8730     0.9090    -0.1030 H     1 <1>   0.0800 
 34 H       -3.5400     0.6260     0.9760 H     1 <1>   0.0800 
 35 H        1.5140    -0.3260     0.8220 H     1 <1>   0.1500 
 36 H        3.6750    -4.6290    -0.1410 H     1 <1>   0.1500 
 37 H        3.8410    -0.6610     1.3700 H     1 <1>   0.1500 
 38 H        0.8500    -6.3050    -1.6950 H     1 <1>   0.0800 
 39 H        1.9950    -6.2230    -0.3620 H     1 <1>   0.0800 
 40 H        2.4120    -5.5320    -1.9410 H     1 <1>   0.0800 
 41 H       -6.7760    -1.9220     2.2360 H     1 <1>   0.1500 
 42 H       -7.7920    -1.3250    -2.4320 H     1 <1>   0.1500 
 43 H       -9.0700    -2.5120     1.4490 H     1 <1>   0.1500 
 44 H        7.0290    -2.4170     1.6120 H     1 <1>   0.0800 
 45 H        5.6530    -1.7120     2.4530 H     1 <1>   0.0800 
 46 H        6.1010    -1.1380     0.8360 H     1 <1>   0.0800 
 47 H       -9.5480    -2.1840    -0.9730 H     1 <1>   0.1500 
@<TRIPOS>BOND
  1   1   2  2   
  2   2   3  am  
  3   2   4  am  
  4   3   5  1   
  5   3   6  1   
  6   4   7  1   
  7   4  26  1   
  8   5   8  1   
  9   5  27  1   
 10   5  28  1   
 11   6   9  1   
 12   6  29  1   
 13   6  30  1   
 14   7  10  ar  
 15   7  11  ar  
 16   8  12  1   
 17   8  31  1   
 18   8  32  1   
 19   9  12  1   
 20   9  33  1   
 21   9  34  1   
 22  10  13  1   
 23  10  14  ar  
 24  11  15  ar  
 25  11  35  1   
 26  12  16  1   
 27  13  17  1   
 28  14  18  ar  
 29  14  36  1   
 30  15  18  ar  
 31  15  37  1   
 32  16  19  ar  
 33  16  20  ar  
 34  17  38  1   
 35  17  39  1   
 36  17  40  1   
 37  18  21  1   
 38  19  22  ar  
 39  20  23  ar  
 40  20  41  1   
 41  21  24  1   
 42  22  25  ar  
 43  22  42  1   
 44  23  25  ar  
 45  23  43  1   
 46  24  44  1   
 47  24  45  1   
 48  24  46  1   
 49  25  47  1   
@<TRIPOS>SUBSTRUCTURE
  1 ****   2 GROUP 4 **** **** 0

# MOE 2024.06 (io_trps.svl 2023.06)
