@<TRIPOS>MOLECULE
NONAME
38 39 1 0 0 
SMALL
USER_CHARGES


@<TRIPOS>ATOM
  1 O       -0.4720     0.1450    -1.4850 O.2   1 <1>  -0.5700 
  2 C       -1.4610     0.0060    -0.7760 C.2   1 <1>   0.5440 
  3 N       -2.1200     1.1080    -0.2720 N.am  1 <1>  -0.3510 
  4 C       -1.9200    -1.3400    -0.4850 C.ar  1 <1>   0.0860 
  5 N       -1.6020     2.5110    -0.3460 N.3   1 <1>  -0.5490 
  6 C       -3.5720     1.0810    -0.0580 C.3   1 <1>   0.5000 
  7 C       -2.1830    -1.7580     0.8210 C.ar  1 <1>  -0.1500 
  8 C       -2.1090    -2.2680    -1.5080 C.ar  1 <1>  -0.1500 
  9 C       -2.8300     3.3580    -0.3840 C.3   1 <1>   0.1900 
 10 C       -0.8100     2.8530     0.8880 C.3   1 <1>   0.1900 
 11 O       -4.1350     0.7080    -1.2510 O.3   1 <1>  -0.6800 
 12 C       -3.9540     2.5180     0.2180 C.3   1 <1>  -0.1600 
 13 C       -2.6320    -3.0380     1.0910 C.ar  1 <1>  -0.1500 
 14 C       -2.5580    -3.5500    -1.2450 C.ar  1 <1>  -0.1500 
 15 C       -3.0880     3.7700    -1.8340 C.3   1 <1>  -0.2400 
 16 C        0.0130     4.1100     0.5880 C.3   1 <1>  -0.2400 
 17 C        0.1600     1.7440     1.3170 C.3   1 <1>  -0.2400 
 18 C       -2.8220    -3.9360     0.0560 C.ar  1 <1>  -0.1500 
 19 H       -3.8760     0.3980     0.7170 H     1 <1>   0.0800 
 20 H       -2.0260    -1.0710     1.6330 H     1 <1>   0.1500 
 21 H       -1.8990    -1.9700    -2.5210 H     1 <1>   0.1500 
 22 H       -2.7100     4.2530     0.2020 H     1 <1>   0.0800 
 23 H       -1.4790     3.0540     1.7080 H     1 <1>   0.0800 
 24 H       -3.6150     1.1590    -1.9450 H     1 <1>   0.4000 
 25 H       -3.9620     2.6670     1.2810 H     1 <1>   0.0800 
 26 H       -4.9270     2.7710    -0.1620 H     1 <1>   0.0800 
 27 H       -2.8310    -3.3400     2.1050 H     1 <1>   0.1500 
 28 H       -2.7000    -4.2460    -2.0540 H     1 <1>   0.1500 
 29 H       -3.1640     2.9140    -2.4760 H     1 <1>   0.0800 
 30 H       -2.2770     4.3850    -2.1790 H     1 <1>   0.0800 
 31 H       -3.9970     4.3390    -1.9020 H     1 <1>   0.0800 
 32 H        0.6800     3.9200    -0.2350 H     1 <1>   0.0800 
 33 H        0.5990     4.3860     1.4450 H     1 <1>   0.0800 
 34 H       -0.6180     4.9420     0.3370 H     1 <1>   0.0800 
 35 H        0.7900     1.4620     0.4920 H     1 <1>   0.0800 
 36 H       -0.3710     0.8830     1.6740 H     1 <1>   0.0800 
 37 H        0.7870     2.0890     2.1190 H     1 <1>   0.0800 
 38 H       -3.1720    -4.9330     0.2620 H     1 <1>   0.1500 
@<TRIPOS>BOND
  1   1   2  2   
  2   2   3  am  
  3   2   4  1   
  4   3   5  1   
  5   3   6  1   
  6   4   7  ar  
  7   4   8  ar  
  8   5   9  1   
  9   5  10  1   
 10   6  11  1   
 11   6  12  1   
 12   6  19  1   
 13   7  13  ar  
 14   7  20  1   
 15   8  14  ar  
 16   8  21  1   
 17   9  12  1   
 18   9  15  1   
 19   9  22  1   
 20  10  16  1   
 21  10  17  1   
 22  10  23  1   
 23  11  24  1   
 24  12  25  1   
 25  12  26  1   
 26  13  18  ar  
 27  13  27  1   
 28  14  18  ar  
 29  14  28  1   
 30  15  29  1   
 31  15  30  1   
 32  15  31  1   
 33  16  32  1   
 34  16  33  1   
 35  16  34  1   
 36  17  35  1   
 37  17  36  1   
 38  17  37  1   
 39  18  38  1   
@<TRIPOS>SUBSTRUCTURE
  1 ****   3 GROUP 4 **** **** 0

# MOE 2024.06 (io_trps.svl 2023.06)
