@<TRIPOS>MOLECULE
NONAME
38 39 1 0 0 
SMALL
USER_CHARGES


@<TRIPOS>ATOM
  1 BR      -0.0230    -0.1080    -1.1630 Br    1 <1>  -0.1110 
  2 C        1.0030    -1.6660    -0.6880 C.ar  1 <1>   0.1110 
  3 C        2.1880    -1.4990    -0.0010 C.ar  1 <1>  -0.1500 
  4 C        0.5290    -2.9090    -1.0470 C.ar  1 <1>  -0.1500 
  5 C        2.9500    -2.6050     0.3600 C.ar  1 <1>  -0.0090 
  6 C        1.2790    -4.0180    -0.7040 C.ar  1 <1>  -0.1500 
  7 S        4.5100    -2.3450     1.2540 S.o2  1 <1>   1.4470 
  8 C        2.4810    -3.8710    -0.0080 C.ar  1 <1>   0.0830 
  9 O        4.3990    -1.0920     1.9710 O.2   1 <1>  -0.6500 
 10 O        4.9830    -3.5000     1.9870 O.2   1 <1>  -0.6500 
 11 N        5.6360    -2.0610     0.0170 N.am  1 <1>  -0.8490 
 12 O        3.2320    -4.9500     0.3240 O.3   1 <1>  -0.3620 
 13 C        6.7900    -1.2880     0.5240 C.3   1 <1>   0.1960 
 14 C        6.0670    -3.2950    -0.6800 C.3   1 <1>   0.1960 
 15 C        2.6840    -6.2480     0.4020 C.3   1 <1>   0.0400 
 16 C        8.0680    -1.4920    -0.3220 C.3   1 <1>   0.2000 
 17 C        7.4440    -3.8080    -0.2000 C.3   1 <1>   0.2000 
 18 O        8.4450    -2.8430    -0.3900 O.3   1 <1>  -0.5600 
 19 C        9.2630    -0.7280     0.2420 C.3   1 <1>  -0.2400 
 20 C        7.8880    -5.0610    -0.9490 C.3   1 <1>  -0.2400 
 21 H        2.5160    -0.5060     0.2560 H     1 <1>   0.1500 
 22 H       -0.3990    -3.0030    -1.5830 H     1 <1>   0.1500 
 23 H        0.9160    -4.9870    -0.9920 H     1 <1>   0.1500 
 24 H        7.0150    -1.5830     1.5370 H     1 <1>   0.0800 
 25 H        6.5290    -0.2440     0.5420 H     1 <1>   0.0800 
 26 H        6.1360    -3.0870    -1.7330 H     1 <1>   0.0800 
 27 H        5.3380    -4.0740    -0.5610 H     1 <1>   0.0800 
 28 H        3.4160    -6.8900     0.8590 H     1 <1>   0.0800 
 29 H        2.4610    -6.5980    -0.5900 H     1 <1>   0.0800 
 30 H        1.7970    -6.2180     1.0110 H     1 <1>   0.0800 
 31 H        7.8760    -1.1590    -1.3270 H     1 <1>   0.0800 
 32 H        7.3930    -4.0250     0.8550 H     1 <1>   0.0800 
 33 H        9.4890    -1.0710     1.2360 H     1 <1>   0.0800 
 34 H        9.0470     0.3240     0.2790 H     1 <1>   0.0800 
 35 H       10.1210    -0.8790    -0.3890 H     1 <1>   0.0800 
 36 H        7.9750    -4.8570    -2.0010 H     1 <1>   0.0800 
 37 H        7.1730    -5.8500    -0.8040 H     1 <1>   0.0800 
 38 H        8.8390    -5.3910    -0.5720 H     1 <1>   0.0800 
@<TRIPOS>BOND
  1   1   2  1   
  2   2   3  ar  
  3   2   4  ar  
  4   3   5  ar  
  5   3  21  1   
  6   4   6  ar  
  7   4  22  1   
  8   5   7  1   
  9   5   8  ar  
 10   6   8  ar  
 11   6  23  1   
 12   7   9  2   
 13   7  10  2   
 14   7  11  am  
 15   8  12  1   
 16  11  13  1   
 17  11  14  1   
 18  12  15  1   
 19  13  16  1   
 20  13  24  1   
 21  13  25  1   
 22  14  17  1   
 23  14  26  1   
 24  14  27  1   
 25  15  28  1   
 26  15  29  1   
 27  15  30  1   
 28  16  18  1   
 29  16  19  1   
 30  16  31  1   
 31  17  18  1   
 32  17  20  1   
 33  17  32  1   
 34  19  33  1   
 35  19  34  1   
 36  19  35  1   
 37  20  36  1   
 38  20  37  1   
 39  20  38  1   
@<TRIPOS>SUBSTRUCTURE
  1 ****   7 GROUP 4 **** **** 0

# MOE 2024.06 (io_trps.svl 2023.06)
