@<TRIPOS>MOLECULE
NONAME
32 33 1 0 0 
SMALL
USER_CHARGES


@<TRIPOS>ATOM
  1 S       -0.2050     0.1180    -0.2190 S.o2  1 <1>   1.4470 
  2 O       -0.7880    -1.1870    -0.4110 O.2   1 <1>  -0.6500 
  3 O       -0.6970     1.2550    -0.9570 O.2   1 <1>  -0.6500 
  4 N       -0.6280     0.4660     1.3430 N.am  1 <1>  -0.9780 
  5 C        1.6070     0.0620    -0.2000 C.ar  1 <1>  -0.0090 
  6 C        2.3560     1.2120     0.0080 C.ar  1 <1>  -0.1500 
  7 C        2.2980    -1.1260    -0.3920 C.ar  1 <1>  -0.1500 
  8 C        3.7410     1.1920     0.0330 C.ar  1 <1>  -0.1430 
  9 C        3.6800    -1.1610    -0.3680 C.ar  1 <1>  -0.1500 
 10 C        4.4330    -0.0110    -0.1410 C.ar  1 <1>   0.1170 
 11 C        4.4690     2.5170     0.2280 C.3   1 <1>  -0.0170 
 12 N        5.8490    -0.0460    -0.1050 N.am  1 <1>  -0.4770 
 13 C        5.9640     2.3270     0.4990 C.3   1 <1>  -0.1600 
 14 C        6.6070    -1.1320     0.3040 C.2   1 <1>   0.7800 
 15 C        6.5380     1.2390    -0.4060 C.3   1 <1>   0.1400 
 16 O        6.1490    -2.0860     0.9050 O.2   1 <1>  -0.5700 
 17 O        7.9150    -1.1220     0.0230 O.3   1 <1>  -0.4300 
 18 C        8.7600    -2.1900     0.4050 C.3   1 <1>   0.0400 
 19 H       -0.9310    -0.4320     1.7110 H     1 <1>   0.4200 
 20 H       -1.4710     1.0240     1.2380 H     1 <1>   0.4200 
 21 H        1.8350     2.1440     0.1490 H     1 <1>   0.1500 
 22 H        1.7510    -2.0390    -0.5620 H     1 <1>   0.1500 
 23 H        4.1730    -2.1020    -0.5310 H     1 <1>   0.1500 
 24 H        4.0260     3.0640     1.0420 H     1 <1>   0.0800 
 25 H        4.3480     3.0990    -0.6690 H     1 <1>   0.0800 
 26 H        6.1140     2.0390     1.5260 H     1 <1>   0.0800 
 27 H        6.4830     3.2540     0.3340 H     1 <1>   0.0800 
 28 H        6.3750     1.4890    -1.4410 H     1 <1>   0.0800 
 29 H        7.5980     1.1710    -0.2400 H     1 <1>   0.0800 
 30 H        9.7600    -1.9670     0.0790 H     1 <1>   0.0800 
 31 H        8.4100    -3.0950    -0.0620 H     1 <1>   0.0800 
 32 H        8.7320    -2.2900     1.4760 H     1 <1>   0.0800 
@<TRIPOS>BOND
  1   1   2  2   
  2   1   3  2   
  3   1   4  am  
  4   1   5  1   
  5   4  19  1   
  6   4  20  1   
  7   5   6  ar  
  8   5   7  ar  
  9   6   8  ar  
 10   6  21  1   
 11   7   9  ar  
 12   7  22  1   
 13   8  10  ar  
 14   8  11  1   
 15   9  10  ar  
 16   9  23  1   
 17  10  12  1   
 18  11  13  1   
 19  11  24  1   
 20  11  25  1   
 21  12  14  am  
 22  12  15  1   
 23  13  15  1   
 24  13  26  1   
 25  13  27  1   
 26  14  16  2   
 27  14  17  1   
 28  15  28  1   
 29  15  29  1   
 30  17  18  1   
 31  18  30  1   
 32  18  31  1   
 33  18  32  1   
@<TRIPOS>SUBSTRUCTURE
  1 ****  10 GROUP 4 **** **** 0

# MOE 2024.06 (io_trps.svl 2023.06)
