@<TRIPOS>MOLECULE
NONAME
35 35 1 0 0 
SMALL
USER_CHARGES


@<TRIPOS>ATOM
  1 CL       0.5680    -0.7910    -0.5940 Cl    1 <1>  -0.1770 
  2 C       -0.6390     0.4250    -0.2180 C.ar  1 <1>   0.1770 
  3 C       -0.3450     1.7710     0.0600 C.ar  1 <1>   0.0820 
  4 C       -1.9470    -0.0330    -0.2110 C.ar  1 <1>  -0.1500 
  5 O        0.8790     2.3700     0.0930 O.3   1 <1>  -0.3630 
  6 C       -1.4010     2.6280     0.3380 C.ar  1 <1>  -0.1500 
  7 C       -2.9880     0.8350     0.0690 C.ar  1 <1>  -0.1500 
  8 C        2.0980     1.7030    -0.1160 C.3   1 <1>   0.1200 
  9 C       -2.7000     2.1590     0.3410 C.ar  1 <1>   0.1770 
 10 C        3.2230     2.7270     0.0420 C.3   1 <1>  -0.1600 
 11 CL      -4.0070     3.2590     0.6950 Cl    1 <1>  -0.1770 
 12 C        4.6020     2.0890    -0.1820 C.3   1 <1>  -0.1600 
 13 C        5.7110     3.1290    -0.0280 C.3   1 <1>   0.3430 
 14 N        7.0190     2.4800    -0.2600 N.4   1 <1>  -0.9060 
 15 C        8.1890     3.3830    -0.0890 C.3   1 <1>   0.3430 
 16 C        9.4490     2.5370     0.1710 C.3   1 <1>   0.1200 
 17 O        9.1050     1.4360     0.9600 O.3   1 <1>  -0.6800 
 18 H       -2.1480    -1.0680    -0.4260 H     1 <1>   0.1500 
 19 H       -1.2080     3.6630     0.5530 H     1 <1>   0.1500 
 20 H       -4.0090     0.4950     0.0780 H     1 <1>   0.1500 
 21 H        2.0930     1.2940    -1.1110 H     1 <1>   0.0800 
 22 H        2.1880     0.9210     0.6190 H     1 <1>   0.0800 
 23 H        3.1700     3.1430     1.0340 H     1 <1>   0.0800 
 24 H        3.0670     3.5180    -0.6720 H     1 <1>   0.0800 
 25 H        4.6340     1.6680    -1.1720 H     1 <1>   0.0800 
 26 H        4.7430     1.3000     0.5380 H     1 <1>   0.0800 
 27 H        5.6770     3.5480     0.9650 H     1 <1>   0.0800 
 28 H        5.5610     3.9250    -0.7410 H     1 <1>   0.0800 
 29 H        7.0510     2.0170    -1.1750 H     1 <1>   0.4500 
 30 H        7.1870     1.7270     0.4340 H     1 <1>   0.4500 
 31 H        8.0310     4.0200     0.7660 H     1 <1>   0.0800 
 32 H        8.3260     4.0100    -0.9550 H     1 <1>   0.0800 
 33 H       10.1950     3.1180     0.6870 H     1 <1>   0.0800 
 34 H        9.8630     2.1740    -0.7550 H     1 <1>   0.0800 
 35 H        9.9070     0.9300     1.2270 H     1 <1>   0.4000 
@<TRIPOS>BOND
  1   1   2  1   
  2   2   3  ar  
  3   2   4  ar  
  4   3   5  1   
  5   3   6  ar  
  6   4   7  ar  
  7   4  18  1   
  8   5   8  1   
  9   6   9  ar  
 10   6  19  1   
 11   7   9  ar  
 12   7  20  1   
 13   8  10  1   
 14   8  21  1   
 15   8  22  1   
 16   9  11  1   
 17  10  12  1   
 18  10  23  1   
 19  10  24  1   
 20  12  13  1   
 21  12  25  1   
 22  12  26  1   
 23  13  14  1   
 24  13  27  1   
 25  13  28  1   
 26  14  15  1   
 27  14  29  1   
 28  14  30  1   
 29  15  16  1   
 30  15  31  1   
 31  15  32  1   
 32  16  17  1   
 33  16  33  1   
 34  16  34  1   
 35  17  35  1   
@<TRIPOS>SUBSTRUCTURE
  1 ****   8 GROUP 4 **** **** 0

# MOE 2024.06 (io_trps.svl 2023.06)
