@<TRIPOS>MOLECULE
NONAME
47 49 1 0 0 
SMALL
USER_CHARGES


@<TRIPOS>ATOM
  1 F       -1.6280     3.9930    -0.8720 F     1 <1>  -0.1900 
  2 C       -2.8650     3.5940    -0.9680 C.ar  1 <1>   0.1900 
  3 C       -3.2010     2.6770    -1.9420 C.ar  1 <1>  -0.1500 
  4 C       -3.8020     4.1040    -0.0940 C.ar  1 <1>  -0.1500 
  5 C       -4.5180     2.2640    -2.0350 C.ar  1 <1>  -0.1500 
  6 C       -5.1150     3.6810    -0.2020 C.ar  1 <1>  -0.1500 
  7 C       -5.5120     2.7490    -1.1750 C.ar  1 <1>   0.0860 
  8 C       -6.8800     2.2860    -1.3180 C.2   1 <1>   0.4230 
  9 O       -7.2180     1.5160    -2.1800 O.2   1 <1>  -0.5700 
 10 C       -7.9660     2.7840    -0.3620 C.3   1 <1>  -0.0990 
 11 C       -9.3690     2.2000    -0.6600 C.3   1 <1>  -0.1600 
 12 C      -10.4880     2.6960     0.2570 C.3   1 <1>   0.3430 
 13 N      -10.6190     4.1670     0.1100 N.4   1 <1>  -0.9590 
 14 C      -10.1150     4.9540     1.2860 C.3   1 <1>   0.3430 
 15 C      -11.9960     4.6420    -0.2620 C.3   1 <1>   0.3430 
 16 C       -9.9710     6.4490     0.9040 C.3   1 <1>   0.3430 
 17 C      -12.1300     6.1780    -0.0930 C.3   1 <1>   0.1200 
 18 O      -10.8710     6.7980    -0.1290 O.3   1 <1>  -0.5600 
 19 C       -8.5400     6.6700     0.4200 C.ar  1 <1>  -0.1430 
 20 C       -8.2040     6.6420    -0.9290 C.ar  1 <1>  -0.1500 
 21 C       -7.5350     6.8780     1.3570 C.ar  1 <1>  -0.1500 
 22 C       -6.8890     6.8020    -1.3300 C.ar  1 <1>  -0.1500 
 23 C       -6.2210     7.0420     0.9550 C.ar  1 <1>  -0.1500 
 24 C       -5.8970     7.0010    -0.3880 C.ar  1 <1>  -0.1500 
 25 H       -2.4470     2.2970    -2.6090 H     1 <1>   0.1500 
 26 H       -3.5030     4.8190     0.6530 H     1 <1>   0.1500 
 27 H       -4.7880     1.5470    -2.7940 H     1 <1>   0.1500 
 28 H       -5.8300     4.0960     0.4840 H     1 <1>   0.1500 
 29 H       -7.9900     3.8540    -0.4410 H     1 <1>   0.0800 
 30 H       -7.6790     2.5200     0.6400 H     1 <1>   0.0800 
 31 H       -9.3160     1.1280    -0.5650 H     1 <1>   0.0800 
 32 H       -9.6380     2.4030    -1.6830 H     1 <1>   0.0800 
 33 H      -10.2690     2.4370     1.2810 H     1 <1>   0.0800 
 34 H      -11.4110     2.2130    -0.0230 H     1 <1>   0.0800 
 35 H      -10.0180     4.4570    -0.6780 H     1 <1>   0.4500 
 36 H       -9.1570     4.5830     1.6100 H     1 <1>   0.0800 
 37 H      -10.8020     4.8630     2.1100 H     1 <1>   0.0800 
 38 H      -12.7390     4.1590     0.3510 H     1 <1>   0.0800 
 39 H      -12.2020     4.3830    -1.2880 H     1 <1>   0.0800 
 40 H      -10.1720     7.0790     1.7540 H     1 <1>   0.0800 
 41 H      -12.6040     6.4210     0.8430 H     1 <1>   0.0800 
 42 H      -12.7280     6.5890    -0.8880 H     1 <1>   0.0800 
 43 H       -8.9590     6.5090    -1.6850 H     1 <1>   0.1500 
 44 H       -7.7610     6.9230     2.4090 H     1 <1>   0.1500 
 45 H       -6.6370     6.7810    -2.3770 H     1 <1>   0.1500 
 46 H       -5.4480     7.2100     1.6870 H     1 <1>   0.1500 
 47 H       -4.8750     7.1320    -0.7030 H     1 <1>   0.1500 
@<TRIPOS>BOND
  1   1   2  1   
  2   2   3  ar  
  3   2   4  ar  
  4   3   5  ar  
  5   3  25  1   
  6   4   6  ar  
  7   4  26  1   
  8   5   7  ar  
  9   5  27  1   
 10   6   7  ar  
 11   6  28  1   
 12   7   8  1   
 13   8   9  2   
 14   8  10  1   
 15  10  11  1   
 16  10  29  1   
 17  10  30  1   
 18  11  12  1   
 19  11  31  1   
 20  11  32  1   
 21  12  13  1   
 22  12  33  1   
 23  12  34  1   
 24  13  14  1   
 25  13  15  1   
 26  13  35  1   
 27  14  16  1   
 28  14  36  1   
 29  14  37  1   
 30  15  17  1   
 31  15  38  1   
 32  15  39  1   
 33  16  18  1   
 34  16  19  1   
 35  16  40  1   
 36  17  18  1   
 37  17  41  1   
 38  17  42  1   
 39  19  20  ar  
 40  19  21  ar  
 41  20  22  ar  
 42  20  43  1   
 43  21  23  ar  
 44  21  44  1   
 45  22  24  ar  
 46  22  45  1   
 47  23  24  ar  
 48  23  46  1   
 49  24  47  1   
@<TRIPOS>SUBSTRUCTURE
  1 ****  10 GROUP 4 **** **** 0

# MOE 2024.06 (io_trps.svl 2023.06)
