@<TRIPOS>MOLECULE
NONAME
36 37 1 0 0 
SMALL
USER_CHARGES


@<TRIPOS>ATOM
  1 S       -0.2180    -0.3050    -0.0250 S.3   1 <1>  -0.3320 
  2 C       -1.6750     0.7220     0.0760 C.ar  1 <1>   0.7220 
  3 C        1.1770     0.8710     0.2250 C.3   1 <1>   0.0700 
  4 N       -1.4470     2.0100     0.2860 N.ar  1 <1>  -0.6200 
  5 N       -2.8160     0.0780    -0.0720 N.ar  1 <1>  -0.6200 
  6 C        2.4700     0.0620     0.1290 C.3   1 <1>   0.3430 
  7 C       -2.5340     2.7440     0.3580 C.ar  1 <1>   0.1660 
  8 C       -3.8830     0.8380     0.0040 C.ar  1 <1>   0.1660 
  9 N        3.6810     0.9180     0.3320 N.4   1 <1>  -0.9590 
 10 C       -3.7900     2.1950     0.2210 C.ar  1 <1>  -0.1500 
 11 C       -2.3510     4.2270     0.5980 C.3   1 <1>  -0.0970 
 12 C       -5.2240     0.1540    -0.1580 C.3   1 <1>  -0.0970 
 13 C        3.8900     1.9380    -0.7270 C.3   1 <1>   0.3430 
 14 C        4.9330     0.1240     0.3770 C.3   1 <1>   0.3430 
 15 C        5.3610     2.3120    -0.6080 C.3   1 <1>  -0.1600 
 16 C        6.0350     1.1400     0.1110 C.3   1 <1>  -0.1600 
 17 H        1.0440     1.3110     1.1980 H     1 <1>   0.0800 
 18 H        1.0980     1.6130    -0.5490 H     1 <1>   0.0800 
 19 H        2.5160    -0.4120    -0.8380 H     1 <1>   0.0800 
 20 H        2.4440    -0.7120     0.8790 H     1 <1>   0.0800 
 21 H        3.6030     1.4120     1.2320 H     1 <1>   0.4500 
 22 H       -4.6710     2.8050     0.2810 H     1 <1>   0.1500 
 23 H       -1.8350     4.3810     1.5280 H     1 <1>   0.0800 
 24 H       -3.2980     4.7320     0.6410 H     1 <1>   0.0800 
 25 H       -1.7680     4.6530    -0.1980 H     1 <1>   0.0800 
 26 H       -5.3390    -0.5940     0.6050 H     1 <1>   0.0800 
 27 H       -5.2690    -0.3240    -1.1190 H     1 <1>   0.0800 
 28 H       -6.0310     0.8590    -0.0800 H     1 <1>   0.0800 
 29 H        3.2470     2.7940    -0.5930 H     1 <1>   0.0800 
 30 H        3.7080     1.5010    -1.6960 H     1 <1>   0.0800 
 31 H        4.9270    -0.6130    -0.4100 H     1 <1>   0.0800 
 32 H        5.0630    -0.3690     1.3280 H     1 <1>   0.0800 
 33 H        5.4620     3.2160    -0.0310 H     1 <1>   0.0800 
 34 H        5.7850     2.4820    -1.5830 H     1 <1>   0.0800 
 35 H        6.8160     0.7000    -0.4860 H     1 <1>   0.0800 
 36 H        6.4640     1.4660     1.0430 H     1 <1>   0.0800 
@<TRIPOS>BOND
  1   1   2  1   
  2   1   3  1   
  3   2   4  ar  
  4   2   5  ar  
  5   3   6  1   
  6   3  17  1   
  7   3  18  1   
  8   4   7  ar  
  9   5   8  ar  
 10   6   9  1   
 11   6  19  1   
 12   6  20  1   
 13   7  10  ar  
 14   7  11  1   
 15   8  10  ar  
 16   8  12  1   
 17   9  13  1   
 18   9  14  1   
 19   9  21  1   
 20  10  22  1   
 21  11  23  1   
 22  11  24  1   
 23  11  25  1   
 24  12  26  1   
 25  12  27  1   
 26  12  28  1   
 27  13  15  1   
 28  13  29  1   
 29  13  30  1   
 30  14  16  1   
 31  14  31  1   
 32  14  32  1   
 33  15  16  1   
 34  15  33  1   
 35  15  34  1   
 36  16  35  1   
 37  16  36  1   
@<TRIPOS>SUBSTRUCTURE
  1 ****   3 GROUP 4 **** **** 0

# MOE 2024.06 (io_trps.svl 2023.06)
