@<TRIPOS>MOLECULE
NONAME
38 39 1 0 0 
SMALL
USER_CHARGES


@<TRIPOS>ATOM
  1 CL      -0.7680     0.3470     2.5140 Cl    1 <1>  -0.1770 
  2 C       -1.8580     1.2750     1.5180 C.ar  1 <1>   0.1770 
  3 C       -1.4260     2.3540     0.7520 C.ar  1 <1>  -0.0090 
  4 C       -3.1780     0.8670     1.5210 C.ar  1 <1>  -0.1500 
  5 S        0.2960     2.9240     0.7080 S.o2  1 <1>   1.4470 
  6 C       -2.3810     2.9930    -0.0340 C.ar  1 <1>  -0.1500 
  7 C       -4.0950     1.5360     0.7370 C.ar  1 <1>   0.1770 
  8 O        1.0230     2.6200     1.9190 O.2   1 <1>  -0.6500 
  9 O        0.2760     4.2980     0.2570 O.2   1 <1>  -0.6500 
 10 N        0.9890     2.0110    -0.5420 N.am  1 <1>  -0.8490 
 11 C       -3.7230     2.6130    -0.0610 C.ar  1 <1>   0.0860 
 12 CL      -5.7490     0.9810     0.7680 Cl    1 <1>  -0.1770 
 13 C        2.2330     2.6150    -1.0780 C.3   1 <1>   0.1960 
 14 C        1.1670     0.5840    -0.2010 C.3   1 <1>   0.1960 
 15 C       -4.6650     3.3100    -0.9040 C.2   1 <1>   0.5440 
 16 C        3.5020     1.8310    -0.6890 C.3   1 <1>   0.1200 
 17 C        2.1690    -0.1120    -1.1400 C.3   1 <1>   0.1200 
 18 O       -4.5550     3.1920    -2.1080 O.2   1 <1>  -0.5700 
 19 N       -5.6540     4.1250    -0.3860 N.am  1 <1>  -0.6600 
 20 O        3.4390     0.4900    -1.1080 O.3   1 <1>  -0.5600 
 21 C       -6.6990     4.7350    -1.2560 C.3   1 <1>   0.0600 
 22 C       -5.7790     4.4730     1.0560 C.3   1 <1>   0.0600 
 23 H       -3.4890     0.0330     2.1250 H     1 <1>   0.1500 
 24 H       -2.0820     3.8190    -0.6600 H     1 <1>   0.1500 
 25 H        2.3450     3.6360    -0.7530 H     1 <1>   0.0800 
 26 H        2.1680     2.6350    -2.1520 H     1 <1>   0.0800 
 27 H        0.2170     0.0820    -0.2620 H     1 <1>   0.0800 
 28 H        1.5350     0.4770     0.8060 H     1 <1>   0.0800 
 29 H        3.6290     1.8440     0.3800 H     1 <1>   0.0800 
 30 H        4.3710     2.2740    -1.1420 H     1 <1>   0.0800 
 31 H        1.8080    -0.0720    -2.1530 H     1 <1>   0.0800 
 32 H        2.2920    -1.1440    -0.8610 H     1 <1>   0.0800 
 33 H       -6.6640     4.3210    -2.2490 H     1 <1>   0.0800 
 34 H       -6.5400     5.7970    -1.3210 H     1 <1>   0.0800 
 35 H       -7.6740     4.5450    -0.8440 H     1 <1>   0.0800 
 36 H       -4.8810     4.2310     1.5950 H     1 <1>   0.0800 
 37 H       -6.6040     3.9310     1.4870 H     1 <1>   0.0800 
 38 H       -5.9610     5.5290     1.1600 H     1 <1>   0.0800 
@<TRIPOS>BOND
  1   1   2  1   
  2   2   3  ar  
  3   2   4  ar  
  4   3   5  1   
  5   3   6  ar  
  6   4   7  ar  
  7   4  23  1   
  8   5   8  2   
  9   5   9  2   
 10   5  10  am  
 11   6  11  ar  
 12   6  24  1   
 13   7  11  ar  
 14   7  12  1   
 15  10  13  1   
 16  10  14  1   
 17  11  15  1   
 18  13  16  1   
 19  13  25  1   
 20  13  26  1   
 21  14  17  1   
 22  14  27  1   
 23  14  28  1   
 24  15  18  2   
 25  15  19  am  
 26  16  20  1   
 27  16  29  1   
 28  16  30  1   
 29  17  20  1   
 30  17  31  1   
 31  17  32  1   
 32  19  21  1   
 33  19  22  1   
 34  21  33  1   
 35  21  34  1   
 36  21  35  1   
 37  22  36  1   
 38  22  37  1   
 39  22  38  1   
@<TRIPOS>SUBSTRUCTURE
  1 ****   3 GROUP 4 **** **** 0

# MOE 2024.06 (io_trps.svl 2023.06)
