@<TRIPOS>MOLECULE
NONAME
44 46 1 0 0 
SMALL
USER_CHARGES


@<TRIPOS>ATOM
  1 S       -0.1760     0.3750     1.9120 S.3   1 <1>  -0.2860 
  2 C       -0.2560     1.3880     0.4240 C.2   1 <1>   0.2420 
  3 C        1.2510     1.0480     2.8990 C.3   1 <1>   0.1310 
  4 N        0.4700     2.4180     0.2280 N.2   1 <1>  -0.3380 
  5 N       -1.0780     1.1510    -0.5970 N.pl3 1 <1>   0.5930 
  6 C        2.3530     0.0040     3.0080 C.2   1 <1>   0.5690 
  7 N        0.1070     2.8570    -0.9720 N.2   1 <1>   0.0000 
  8 N       -0.8150     2.1150    -1.4760 N.2   1 <1>  -0.4180 
  9 C       -2.0600     0.1370    -0.8000 C.ar  1 <1>  -0.0230 
 10 O        2.3940    -0.6880     3.9940 O.2   1 <1>  -0.5700 
 11 N        3.2970    -0.1620     2.0500 N.am  1 <1>  -0.7300 
 12 C       -3.3270     0.4770    -1.2670 C.ar  1 <1>  -0.1500 
 13 C       -1.7830    -1.2060    -0.5510 C.ar  1 <1>  -0.1500 
 14 C        3.4780     0.5550     0.7720 C.3   1 <1>   0.2200 
 15 C       -4.2920    -0.4930    -1.4730 C.ar  1 <1>  -0.1500 
 16 C       -2.7480    -2.1760    -0.7550 C.ar  1 <1>  -0.1500 
 17 C        3.5620    -0.4430    -0.4020 C.3   1 <1>  -0.0800 
 18 C        4.7460     1.4080     0.8760 C.3   1 <1>  -0.1600 
 19 C       -4.0030    -1.8210    -1.2160 C.ar  1 <1>  -0.1500 
 20 C        3.8460     0.3070    -1.7170 C.3   1 <1>  -0.1600 
 21 C        2.2770    -1.2730    -0.5600 C.3   1 <1>  -0.2400 
 22 C        5.0220     2.1500    -0.4380 C.3   1 <1>  -0.1600 
 23 C        5.1110     1.1700    -1.6140 C.3   1 <1>  -0.1600 
 24 H        0.8670     1.2760     3.8770 H     1 <1>   0.0800 
 25 H        1.6080     1.9480     2.4390 H     1 <1>   0.0800 
 26 H        3.9810    -0.8970     2.2330 H     1 <1>   0.3700 
 27 H       -3.5630     1.5070    -1.4760 H     1 <1>   0.1500 
 28 H       -0.8130    -1.5080    -0.1960 H     1 <1>   0.1500 
 29 H        2.6470     1.2100     0.6000 H     1 <1>   0.0800 
 30 H       -5.2670    -0.2160    -1.8340 H     1 <1>   0.1500 
 31 H       -2.5230    -3.2110    -0.5560 H     1 <1>   0.1500 
 32 H        4.3830    -1.1140    -0.2180 H     1 <1>   0.0800 
 33 H        5.5870     0.7770     1.1070 H     1 <1>   0.0800 
 34 H        4.6320     2.1260     1.6690 H     1 <1>   0.0800 
 35 H       -4.7530    -2.5770    -1.3750 H     1 <1>   0.1500 
 36 H        3.0090     0.9400    -1.9590 H     1 <1>   0.0800 
 37 H        3.9660    -0.4000    -2.5200 H     1 <1>   0.0800 
 38 H        1.4440    -0.6330    -0.7810 H     1 <1>   0.0800 
 39 H        2.0640    -1.8230     0.3400 H     1 <1>   0.0800 
 40 H        2.3880    -1.9790    -1.3640 H     1 <1>   0.0800 
 41 H        5.9440     2.7010    -0.3570 H     1 <1>   0.0800 
 42 H        4.2310     2.8570    -0.6230 H     1 <1>   0.0800 
 43 H        5.2460     1.7190    -2.5300 H     1 <1>   0.0800 
 44 H        5.9690     0.5320    -1.4850 H     1 <1>   0.0800 
@<TRIPOS>BOND
  1   1   2  1   
  2   1   3  1   
  3   2   4  2   
  4   2   5  1   
  5   3   6  1   
  6   3  24  1   
  7   3  25  1   
  8   4   7  1   
  9   5   8  1   
 10   5   9  1   
 11   6  10  2   
 12   6  11  am  
 13   7   8  2   
 14   9  12  ar  
 15   9  13  ar  
 16  11  14  1   
 17  11  26  1   
 18  12  15  ar  
 19  12  27  1   
 20  13  16  ar  
 21  13  28  1   
 22  14  17  1   
 23  14  18  1   
 24  14  29  1   
 25  15  19  ar  
 26  15  30  1   
 27  16  19  ar  
 28  16  31  1   
 29  17  20  1   
 30  17  21  1   
 31  17  32  1   
 32  18  22  1   
 33  18  33  1   
 34  18  34  1   
 35  19  35  1   
 36  20  23  1   
 37  20  36  1   
 38  20  37  1   
 39  21  38  1   
 40  21  39  1   
 41  21  40  1   
 42  22  23  1   
 43  22  41  1   
 44  22  42  1   
 45  23  43  1   
 46  23  44  1   
@<TRIPOS>SUBSTRUCTURE
  1 ****   2 GROUP 4 **** **** 0

# MOE 2024.06 (io_trps.svl 2023.06)
