@<TRIPOS>MOLECULE
NONAME
57 60 1 0 0 
SMALL
USER_CHARGES


@<TRIPOS>ATOM
  1 O        1.7070     3.8460     0.4470 O.co2 1 <1>  -0.9000 
  2 C        2.1020     3.0650    -0.4280 C.2   1 <1>   0.9060 
  3 O        2.7180     3.4820    -1.4140 O.co2 1 <1>  -0.9000 
  4 C        2.0190     1.5620    -0.2080 C.3   1 <1>  -0.1860 
  5 C        2.5380     1.1290     1.2000 C.3   1 <1>  -0.0190 
  6 C        0.6130     0.9660    -0.4690 C.3   1 <1>  -0.0800 
  7 C        4.0640     0.9090     1.2190 C.2   1 <1>   0.5690 
  8 C        1.6840    -0.0720     1.6980 C.3   1 <1>  -0.0800 
  9 C        0.7880    -0.5580    -0.6320 C.3   1 <1>  -0.1600 
 10 C       -0.2940     1.2040     0.7590 C.3   1 <1>  -0.1600 
 11 O        4.4910    -0.2200     1.3050 O.2   1 <1>  -0.5700 
 12 N        4.9550     1.9590     1.1370 N.am  1 <1>  -0.6600 
 13 C        1.5380    -1.1410     0.5880 C.3   1 <1>  -0.1600 
 14 C        0.2680     0.4670     1.9980 C.3   1 <1>  -0.1600 
 15 C        4.5700     3.4060     1.2400 C.3   1 <1>   0.1400 
 16 C        6.3270     1.7130     0.5950 C.3   1 <1>   0.1400 
 17 C        5.6560     4.2640     1.8910 C.3   1 <1>   0.3430 
 18 C        7.3820     2.6230     1.2450 C.3   1 <1>   0.3430 
 19 N        6.9740     4.0710     1.2050 N.4   1 <1>  -0.9590 
 20 C        8.0200     4.9810     1.7320 C.3   1 <1>   0.4860 
 21 C        9.2700     4.8250     0.8900 C.ar  1 <1>  -0.1430 
 22 C        9.3140     5.3270    -0.4030 C.ar  1 <1>  -0.1500 
 23 C       10.3800     4.1710     1.4040 C.ar  1 <1>  -0.1500 
 24 C       10.4520     5.1670    -1.1730 C.ar  1 <1>  -0.1500 
 25 C       11.5160     4.0140     0.6310 C.ar  1 <1>  -0.1500 
 26 C       11.5580     4.5100    -0.6610 C.ar  1 <1>  -0.1430 
 27 C       12.8060     4.3380    -1.5090 C.3   1 <1>  -0.0970 
 28 H        2.6780     1.1370    -0.9430 H     1 <1>   0.0800 
 29 H        2.3370     1.9160     1.9000 H     1 <1>   0.0800 
 30 H        0.1800     1.3970    -1.3560 H     1 <1>   0.0800 
 31 H        2.1160    -0.5030     2.5860 H     1 <1>   0.0800 
 32 H        1.3400    -0.7690    -1.5320 H     1 <1>   0.0800 
 33 H       -0.1790    -1.0220    -0.7230 H     1 <1>   0.0800 
 34 H       -1.2920     0.8610     0.5510 H     1 <1>   0.0800 
 35 H       -0.3480     2.2610     0.9580 H     1 <1>   0.0800 
 36 H        1.0030    -1.9920     0.9690 H     1 <1>   0.0800 
 37 H        2.5110    -1.4820     0.2830 H     1 <1>   0.0800 
 38 H        0.2960     1.1440     2.8350 H     1 <1>   0.0800 
 39 H       -0.3800    -0.3500     2.2600 H     1 <1>   0.0800 
 40 H        3.6730     3.5250     1.8170 H     1 <1>   0.0800 
 41 H        4.3990     3.8000     0.2560 H     1 <1>   0.0800 
 42 H        6.3100     1.8830    -0.4680 H     1 <1>   0.0800 
 43 H        6.6140     0.6880     0.7510 H     1 <1>   0.0800 
 44 H        5.7340     3.9930     2.9300 H     1 <1>   0.0800 
 45 H        5.3540     5.2970     1.8320 H     1 <1>   0.0800 
 46 H        8.3180     2.4900     0.7270 H     1 <1>   0.0800 
 47 H        7.5210     2.3110     2.2660 H     1 <1>   0.0800 
 48 H        6.8320     4.3030     0.2120 H     1 <1>   0.4500 
 49 H        8.2370     4.7420     2.7600 H     1 <1>   0.0800 
 50 H        7.6820     6.0030     1.6810 H     1 <1>   0.0800 
 51 H        8.4720     5.8480    -0.8270 H     1 <1>   0.1500 
 52 H       10.3800     3.7800     2.4080 H     1 <1>   0.1500 
 53 H       10.4780     5.5590    -2.1760 H     1 <1>   0.1500 
 54 H       12.3740     3.5050     1.0370 H     1 <1>   0.1500 
 55 H       12.9110     5.1570    -2.1970 H     1 <1>   0.0800 
 56 H       12.7450     3.4210    -2.0680 H     1 <1>   0.0800 
 57 H       13.6830     4.3060    -0.8870 H     1 <1>   0.0800 
@<TRIPOS>BOND
  1   1   2  ar  
  2   2   3  ar  
  3   2   4  1   
  4   4   5  1   
  5   4   6  1   
  6   4  28  1   
  7   5   7  1   
  8   5   8  1   
  9   5  29  1   
 10   6   9  1   
 11   6  10  1   
 12   6  30  1   
 13   7  11  2   
 14   7  12  am  
 15   8  13  1   
 16   8  14  1   
 17   8  31  1   
 18   9  13  1   
 19   9  32  1   
 20   9  33  1   
 21  10  14  1   
 22  10  34  1   
 23  10  35  1   
 24  12  15  1   
 25  12  16  1   
 26  13  36  1   
 27  13  37  1   
 28  14  38  1   
 29  14  39  1   
 30  15  17  1   
 31  15  40  1   
 32  15  41  1   
 33  16  18  1   
 34  16  42  1   
 35  16  43  1   
 36  17  19  1   
 37  17  44  1   
 38  17  45  1   
 39  18  19  1   
 40  18  46  1   
 41  18  47  1   
 42  19  20  1   
 43  19  48  1   
 44  20  21  1   
 45  20  49  1   
 46  20  50  1   
 47  21  22  ar  
 48  21  23  ar  
 49  22  24  ar  
 50  22  51  1   
 51  23  25  ar  
 52  23  52  1   
 53  24  26  ar  
 54  24  53  1   
 55  25  26  ar  
 56  25  54  1   
 57  26  27  1   
 58  27  55  1   
 59  27  56  1   
 60  27  57  1   
@<TRIPOS>SUBSTRUCTURE
  1 ****  12 GROUP 4 **** **** 0

# MOE 2024.06 (io_trps.svl 2023.06)
