@<TRIPOS>MOLECULE
NONAME
28 28 1 0 0 
SMALL
USER_CHARGES


@<TRIPOS>ATOM
  1 CL      -1.5810    -1.5210     2.1560 Cl    1 <1>  -0.1770 
  2 C       -0.6750    -2.3400     0.9080 C.ar  1 <1>   0.1770 
  3 C       -1.1390    -2.4050    -0.4010 C.ar  1 <1>  -0.0090 
  4 C        0.5250    -2.9180     1.2950 C.ar  1 <1>  -0.1500 
  5 S       -2.7120    -1.6660    -0.8960 S.o2  1 <1>   1.4470 
  6 C       -0.3480    -3.0810    -1.3270 C.ar  1 <1>  -0.1500 
  7 C        1.2980    -3.5850     0.3610 C.ar  1 <1>  -0.1500 
  8 O       -2.7570    -0.2920    -0.4450 O.2   1 <1>  -0.6500 
  9 O       -2.9110    -1.9260    -2.3070 O.2   1 <1>  -0.6500 
 10 N       -3.8490    -2.5850    -0.0420 N.am  1 <1>  -0.8490 
 11 C        0.8480    -3.6590    -0.9430 C.ar  1 <1>   0.1770 
 12 C       -5.1530    -1.8470     0.1260 C.3   1 <1>   0.0900 
 13 C       -4.0590    -3.9240    -0.5950 C.3   1 <1>   0.1960 
 14 CL       1.8070    -4.5000    -2.1300 Cl    1 <1>  -0.1770 
 15 C       -6.3760    -2.5650     0.7280 C.2   1 <1>   0.9060 
 16 C       -4.0790    -4.9320     0.5500 C.3   1 <1>  -0.2400 
 17 O       -6.6560    -2.4030     1.9220 O.co2 1 <1>  -0.9000 
 18 O       -7.0760    -3.2710    -0.0130 O.co2 1 <1>  -0.9000 
 19 H        0.8430    -2.8420     2.3200 H     1 <1>   0.1500 
 20 H       -0.6630    -3.1620    -2.3540 H     1 <1>   0.1500 
 21 H        2.2330    -4.0410     0.6360 H     1 <1>   0.1500 
 22 H       -5.4700    -1.4890    -0.8370 H     1 <1>   0.0800 
 23 H       -4.9770    -0.9860     0.7430 H     1 <1>   0.0800 
 24 H       -3.2540    -4.1920    -1.2580 H     1 <1>   0.0800 
 25 H       -4.9740    -3.9690    -1.1650 H     1 <1>   0.0800 
 26 H       -3.1600    -4.8860     1.1040 H     1 <1>   0.0800 
 27 H       -4.2030    -5.9230     0.1560 H     1 <1>   0.0800 
 28 H       -4.9010    -4.7320     1.2140 H     1 <1>   0.0800 
@<TRIPOS>BOND
  1   1   2  1   
  2   2   3  ar  
  3   2   4  ar  
  4   3   5  1   
  5   3   6  ar  
  6   4   7  ar  
  7   4  19  1   
  8   5   8  2   
  9   5   9  2   
 10   5  10  am  
 11   6  11  ar  
 12   6  20  1   
 13   7  11  ar  
 14   7  21  1   
 15  10  12  1   
 16  10  13  1   
 17  11  14  1   
 18  12  15  1   
 19  12  22  1   
 20  12  23  1   
 21  13  16  1   
 22  13  24  1   
 23  13  25  1   
 24  15  17  ar  
 25  15  18  ar  
 26  16  26  1   
 27  16  27  1   
 28  16  28  1   
@<TRIPOS>SUBSTRUCTURE
  1 ****  10 GROUP 4 **** **** 0

# MOE 2024.06 (io_trps.svl 2023.06)
