@<TRIPOS>MOLECULE
NONAME
45 47 1 0 0 
SMALL
USER_CHARGES


@<TRIPOS>ATOM
  1 O       -0.8980    -3.3290    -2.8720 O.2   1 <1>  -0.5700 
  2 C       -1.1840    -2.6790    -1.8970 C.2   1 <1>   0.5690 
  3 N       -1.9400    -1.5620    -2.0480 N.am  1 <1>  -0.7300 
  4 C       -0.6850    -3.1530    -0.5220 C.3   1 <1>   0.1710 
  5 C       -2.3510    -0.5930    -1.0170 C.3   1 <1>   0.2200 
  6 N        0.2030    -2.2000     0.2020 N.3   1 <1>  -0.8100 
  7 C       -3.8890    -0.4840    -1.0060 C.3   1 <1>  -0.0800 
  8 C       -1.6730     0.7360    -1.3430 C.3   1 <1>  -0.2400 
  9 C        0.5650    -2.7180     1.5340 C.3   1 <1>   0.1100 
 10 C        1.4310    -1.9250    -0.5710 C.3   1 <1>   0.1100 
 11 C       -4.5040     0.5250    -0.0070 C.3   1 <1>  -0.0800 
 12 C       -4.6060    -1.8000    -0.6310 C.3   1 <1>  -0.1600 
 13 C        1.5330    -1.7600     2.2520 C.3   1 <1>   0.1200 
 14 C        2.3790    -0.9970     0.2100 C.3   1 <1>   0.1200 
 15 C       -5.9420     0.0350     0.0460 C.3   1 <1>  -0.1600 
 16 C       -4.0500     0.2270     1.4340 C.3   1 <1>  -0.1600 
 17 C       -5.5770    -1.3740     0.4810 C.3   1 <1>  -0.0800 
 18 O        2.6710    -1.5350     1.4690 O.3   1 <1>  -0.5600 
 19 C       -4.7590    -1.1000     1.7540 C.3   1 <1>  -0.1600 
 20 H       -2.2140    -1.3350    -3.0030 H     1 <1>   0.3700 
 21 H       -0.1670    -4.0850    -0.6610 H     1 <1>   0.0800 
 22 H       -1.5510    -3.3500     0.0840 H     1 <1>   0.0800 
 23 H       -2.0110    -0.9290    -0.0540 H     1 <1>   0.0800 
 24 H       -4.2070    -0.1920    -1.9930 H     1 <1>   0.0800 
 25 H       -2.0090     1.1140    -2.2910 H     1 <1>   0.0800 
 26 H       -0.6060     0.6010    -1.3690 H     1 <1>   0.0800 
 27 H       -1.8950     1.4620    -0.5830 H     1 <1>   0.0800 
 28 H        1.0350    -3.6830     1.4420 H     1 <1>   0.0800 
 29 H       -0.3240    -2.8300     2.1290 H     1 <1>   0.0800 
 30 H        1.1740    -1.4530    -1.5040 H     1 <1>   0.0800 
 31 H        1.9450    -2.8450    -0.7920 H     1 <1>   0.0800 
 32 H       -4.3950     1.5560    -0.2980 H     1 <1>   0.0800 
 33 H       -3.9280    -2.5620    -0.2870 H     1 <1>   0.0800 
 34 H       -5.1480    -2.1780    -1.4800 H     1 <1>   0.0800 
 35 H        1.8560    -2.1850     3.1850 H     1 <1>   0.0800 
 36 H        1.0550    -0.8160     2.4450 H     1 <1>   0.0800 
 37 H        1.9300    -0.0290     0.3440 H     1 <1>   0.0800 
 38 H        3.3070    -0.8800    -0.3210 H     1 <1>   0.0800 
 39 H       -6.4320     0.0610    -0.9140 H     1 <1>   0.0800 
 40 H       -6.5370     0.5560     0.7770 H     1 <1>   0.0800 
 41 H       -4.4080     0.9980     2.0940 H     1 <1>   0.0800 
 42 H       -2.9830     0.1590     1.5410 H     1 <1>   0.0800 
 43 H       -6.4070    -2.0450     0.6250 H     1 <1>   0.0800 
 44 H       -5.4120    -0.9770     2.6000 H     1 <1>   0.0800 
 45 H       -4.0590    -1.8920     1.9600 H     1 <1>   0.0800 
@<TRIPOS>BOND
  1   1   2  2   
  2   2   3  am  
  3   2   4  1   
  4   3   5  1   
  5   3  20  1   
  6   4   6  1   
  7   4  21  1   
  8   4  22  1   
  9   5   7  1   
 10   5   8  1   
 11   5  23  1   
 12   6   9  1   
 13   6  10  1   
 14   7  11  1   
 15   7  12  1   
 16   7  24  1   
 17   8  25  1   
 18   8  26  1   
 19   8  27  1   
 20   9  13  1   
 21   9  28  1   
 22   9  29  1   
 23  10  14  1   
 24  10  30  1   
 25  10  31  1   
 26  11  15  1   
 27  11  16  1   
 28  11  32  1   
 29  12  17  1   
 30  12  33  1   
 31  12  34  1   
 32  13  18  1   
 33  13  35  1   
 34  13  36  1   
 35  14  18  1   
 36  14  37  1   
 37  14  38  1   
 38  15  17  1   
 39  15  39  1   
 40  15  40  1   
 41  16  19  1   
 42  16  41  1   
 43  16  42  1   
 44  17  19  1   
 45  17  43  1   
 46  19  44  1   
 47  19  45  1   
@<TRIPOS>SUBSTRUCTURE
  1 ****   5 GROUP 4 **** **** 0

# MOE 2024.06 (io_trps.svl 2023.06)
