@<TRIPOS>MOLECULE
NONAME
26 26 1 0 0 
SMALL
USER_CHARGES


@<TRIPOS>ATOM
  1 S       -0.1420    -0.7040    -0.9380 S.2   1 <1>  -0.3800 
  2 C       -0.2400     0.7240    -0.1820 C.2   1 <1>   0.5900 
  3 O        0.8550     1.3990     0.0870 O.3   1 <1>  -0.4300 
  4 N       -1.3930     1.3030     0.1910 N.am  1 <1>  -0.5470 
  5 C        2.1670     0.9850    -0.2240 C.3   1 <1>   0.1200 
  6 C       -2.7270     0.8830     0.0850 C.ar  1 <1>   0.1170 
  7 C        3.1370     2.0600     0.2650 C.3   1 <1>  -0.1600 
  8 C       -3.1210    -0.4190     0.3740 C.ar  1 <1>  -0.1500 
  9 C       -3.6970     1.8030    -0.2930 C.ar  1 <1>  -0.1500 
 10 C        4.5900     1.6790    -0.0380 C.3   1 <1>  -0.2400 
 11 C       -4.4490    -0.7950     0.2770 C.ar  1 <1>  -0.1500 
 12 C       -5.0270     1.4320    -0.3900 C.ar  1 <1>  -0.1500 
 13 C       -5.4040     0.1310    -0.1050 C.ar  1 <1>  -0.1500 
 14 H       -1.2670     2.2300     0.5920 H     1 <1>   0.3700 
 15 H        2.2410     0.8590    -1.2910 H     1 <1>   0.0800 
 16 H        2.3550     0.0460     0.2690 H     1 <1>   0.0800 
 17 H        3.0190     2.1870     1.3280 H     1 <1>   0.0800 
 18 H        2.9070     2.9930    -0.2210 H     1 <1>   0.0800 
 19 H       -2.3880    -1.1430     0.6800 H     1 <1>   0.1500 
 20 H       -3.4110     2.8130    -0.5190 H     1 <1>   0.1500 
 21 H        4.8480     0.7560     0.4520 H     1 <1>   0.0800 
 22 H        5.2530     2.4500     0.3140 H     1 <1>   0.0800 
 23 H        4.7360     1.5620    -1.0980 H     1 <1>   0.0800 
 24 H       -4.7390    -1.8070     0.4990 H     1 <1>   0.1500 
 25 H       -5.7680     2.1530    -0.6870 H     1 <1>   0.1500 
 26 H       -6.4380    -0.1600    -0.1820 H     1 <1>   0.1500 
@<TRIPOS>BOND
  1   1   2  2   
  2   2   3  1   
  3   2   4  am  
  4   3   5  1   
  5   4   6  1   
  6   4  14  1   
  7   5   7  1   
  8   5  15  1   
  9   5  16  1   
 10   6   8  ar  
 11   6   9  ar  
 12   7  10  1   
 13   7  17  1   
 14   7  18  1   
 15   8  11  ar  
 16   8  19  1   
 17   9  12  ar  
 18   9  20  1   
 19  10  21  1   
 20  10  22  1   
 21  10  23  1   
 22  11  13  ar  
 23  11  24  1   
 24  12  13  ar  
 25  12  25  1   
 26  13  26  1   
@<TRIPOS>SUBSTRUCTURE
  1 ****   4 GROUP 4 **** **** 0

# MOE 2024.06 (io_trps.svl 2023.06)
