@<TRIPOS>MOLECULE
NONAME
45 46 1 0 0 
SMALL
USER_CHARGES


@<TRIPOS>ATOM
  1 O        2.0970    -2.1010    -1.2500 O.2   1 <1>  -0.5700 
  2 C        1.2470    -1.7030    -0.4850 C.2   1 <1>   0.5690 
  3 N        1.1610    -0.3870    -0.1320 N.am  1 <1>  -0.7300 
  4 C        0.2160    -2.6890     0.1280 C.3   1 <1>   0.2040 
  5 C        1.9700     0.7560    -0.5570 C.3   1 <1>   0.3000 
  6 C       -1.0400    -1.9010     0.5720 C.ar  1 <1>  -0.1440 
  7 C        0.8620    -3.4830     1.2790 C.3   1 <1>  -0.1600 
  8 C       -0.1560    -3.8240    -0.8500 C.3   1 <1>  -0.1600 
  9 C        3.4260     0.5390    -0.1490 C.3   1 <1>  -0.2400 
 10 C        1.4070     1.9750     0.1700 C.3   1 <1>  -0.2400 
 11 C        1.8330     0.9480    -2.0670 C.3   1 <1>  -0.2400 
 12 C       -1.2310    -1.4980     1.8910 C.ar  1 <1>  -0.1500 
 13 C       -1.9960    -1.5350    -0.3700 C.ar  1 <1>  -0.1500 
 14 C        1.6300    -4.6320     0.6250 C.3   1 <1>  -0.1600 
 15 C        0.8880    -4.9350    -0.6780 C.3   1 <1>  -0.1600 
 16 C       -2.3470    -0.7670     2.2540 C.ar  1 <1>  -0.1500 
 17 C       -3.1140    -0.8040    -0.0110 C.ar  1 <1>  -0.1500 
 18 C       -3.2970    -0.4150     1.3110 C.ar  1 <1>   0.0820 
 19 O       -4.3610     0.3020     1.7500 O.3   1 <1>  -0.3620 
 20 C       -5.4050     0.6720     0.8780 C.3   1 <1>   0.0400 
 21 H        0.3580    -0.1240     0.4430 H     1 <1>   0.3700 
 22 H        0.0910    -3.9080     1.8990 H     1 <1>   0.0800 
 23 H        1.5060    -2.8700     1.8840 H     1 <1>   0.0800 
 24 H       -0.1930    -3.4770    -1.8680 H     1 <1>   0.0800 
 25 H       -1.1200    -4.2200    -0.5830 H     1 <1>   0.0800 
 26 H        3.8460    -0.2990    -0.6750 H     1 <1>   0.0800 
 27 H        3.4980     0.3580     0.9080 H     1 <1>   0.0800 
 28 H        4.0120     1.4070    -0.3880 H     1 <1>   0.0800 
 29 H        1.4820     1.8470     1.2350 H     1 <1>   0.0800 
 30 H        0.3770     2.1320    -0.0950 H     1 <1>   0.0800 
 31 H        1.9610     2.8550    -0.1020 H     1 <1>   0.0800 
 32 H        2.2480     0.1080    -2.5940 H     1 <1>   0.0800 
 33 H        2.3630     1.8290    -2.3780 H     1 <1>   0.0800 
 34 H        0.7990     1.0550    -2.3400 H     1 <1>   0.0800 
 35 H       -0.5150    -1.7380     2.6560 H     1 <1>   0.1500 
 36 H       -1.8730    -1.8110    -1.4030 H     1 <1>   0.1500 
 37 H        1.6790    -5.4940     1.2690 H     1 <1>   0.0800 
 38 H        2.6320    -4.3090     0.3960 H     1 <1>   0.0800 
 39 H        1.5840    -4.9220    -1.5010 H     1 <1>   0.0800 
 40 H        0.4110    -5.8990    -0.6390 H     1 <1>   0.0800 
 41 H       -2.4900    -0.4620     3.2750 H     1 <1>   0.1500 
 42 H       -3.8270    -0.5460    -0.7710 H     1 <1>   0.1500 
 43 H       -6.1400     1.2110     1.4470 H     1 <1>   0.0800 
 44 H       -5.8440    -0.2180     0.4630 H     1 <1>   0.0800 
 45 H       -5.0060     1.3030     0.1040 H     1 <1>   0.0800 
@<TRIPOS>BOND
  1   1   2  2   
  2   2   3  am  
  3   2   4  1   
  4   3   5  1   
  5   3  21  1   
  6   4   6  1   
  7   4   7  1   
  8   4   8  1   
  9   5   9  1   
 10   5  10  1   
 11   5  11  1   
 12   6  12  ar  
 13   6  13  ar  
 14   7  14  1   
 15   7  22  1   
 16   7  23  1   
 17   8  15  1   
 18   8  24  1   
 19   8  25  1   
 20   9  26  1   
 21   9  27  1   
 22   9  28  1   
 23  10  29  1   
 24  10  30  1   
 25  10  31  1   
 26  11  32  1   
 27  11  33  1   
 28  11  34  1   
 29  12  16  ar  
 30  12  35  1   
 31  13  17  ar  
 32  13  36  1   
 33  14  15  1   
 34  14  37  1   
 35  14  38  1   
 36  15  39  1   
 37  15  40  1   
 38  16  18  ar  
 39  16  41  1   
 40  17  18  ar  
 41  17  42  1   
 42  18  19  1   
 43  19  20  1   
 44  20  43  1   
 45  20  44  1   
 46  20  45  1   
@<TRIPOS>SUBSTRUCTURE
  1 ****   6 GROUP 4 **** **** 0

# MOE 2024.06 (io_trps.svl 2023.06)
