@<TRIPOS>MOLECULE
NONAME
37 37 1 0 0 
SMALL
USER_CHARGES


@<TRIPOS>ATOM
  1 S       -0.5410    -0.4850    -0.6790 S.o2  1 <1>   1.4470 
  2 O        0.2040     0.6500    -1.1780 O.2   1 <1>  -0.6500 
  3 O       -1.6710    -0.9620    -1.4490 O.2   1 <1>  -0.6500 
  4 N       -1.1640    -0.0510     0.8410 N.am  1 <1>  -0.8490 
  5 C        0.5810    -1.8650    -0.3400 C.ar  1 <1>  -0.0090 
  6 C       -1.7630     1.3100     0.8210 C.3   1 <1>   0.2570 
  7 C       -2.0560    -1.0590     1.4230 C.3   1 <1>   0.1160 
  8 C        1.6960    -1.7130     0.4790 C.ar  1 <1>   0.0830 
  9 C        0.3550    -3.1200    -0.8940 C.ar  1 <1>  -0.1500 
 10 C       -2.9140     1.5750    -0.1660 C.2   1 <1>   0.6590 
 11 O        1.9620    -0.5240     1.0570 O.3   1 <1>  -0.3630 
 12 C        2.5460    -2.7780     0.7430 C.ar  1 <1>  -0.1500 
 13 C        1.1970    -4.1920    -0.6440 C.ar  1 <1>   0.0830 
 14 O       -2.8350     2.4240    -1.0170 O.2   1 <1>  -0.5700 
 15 O       -4.0170     0.8470    -0.0080 O.3   1 <1>  -0.4300 
 16 C        2.9820     0.2470     0.4630 C.3   1 <1>   0.0400 
 17 C        2.3020    -4.0180     0.1830 C.ar  1 <1>  -0.1500 
 18 O        0.8760    -5.3690    -1.2370 O.3   1 <1>  -0.3630 
 19 C       -5.1040     0.9540    -0.9030 C.3   1 <1>   0.0400 
 20 C        1.6740    -6.5180    -1.0610 C.3   1 <1>   0.0400 
 21 H       -0.9840     2.0170     0.5950 H     1 <1>   0.0800 
 22 H       -2.1180     1.5470     1.8070 H     1 <1>   0.0800 
 23 H       -1.5220    -1.9840     1.5590 H     1 <1>   0.0800 
 24 H       -2.9010    -1.2450     0.7820 H     1 <1>   0.0800 
 25 H       -2.4100    -0.7300     2.3850 H     1 <1>   0.0800 
 26 H       -0.4940    -3.2770    -1.5370 H     1 <1>   0.1500 
 27 H        3.3910    -2.6310     1.3910 H     1 <1>   0.1500 
 28 H        3.0380     1.1870     0.9820 H     1 <1>   0.0800 
 29 H        2.7370     0.4160    -0.5720 H     1 <1>   0.0800 
 30 H        3.9160    -0.2780     0.5470 H     1 <1>   0.0800 
 31 H        2.9740    -4.8260     0.4010 H     1 <1>   0.1500 
 32 H       -5.8760     0.2760    -0.5860 H     1 <1>   0.0800 
 33 H       -4.7630     0.6920    -1.8900 H     1 <1>   0.0800 
 34 H       -5.4680     1.9660    -0.8920 H     1 <1>   0.0800 
 35 H        1.2330    -7.3200    -1.6250 H     1 <1>   0.0800 
 36 H        1.6930    -6.7740    -0.0170 H     1 <1>   0.0800 
 37 H        2.6640    -6.3160    -1.4290 H     1 <1>   0.0800 
@<TRIPOS>BOND
  1   1   2  2   
  2   1   3  2   
  3   1   4  am  
  4   1   5  1   
  5   4   6  1   
  6   4   7  1   
  7   5   8  ar  
  8   5   9  ar  
  9   6  10  1   
 10   6  21  1   
 11   6  22  1   
 12   7  23  1   
 13   7  24  1   
 14   7  25  1   
 15   8  11  1   
 16   8  12  ar  
 17   9  13  ar  
 18   9  26  1   
 19  10  14  2   
 20  10  15  1   
 21  11  16  1   
 22  12  17  ar  
 23  12  27  1   
 24  13  17  ar  
 25  13  18  1   
 26  15  19  1   
 27  16  28  1   
 28  16  29  1   
 29  16  30  1   
 30  17  31  1   
 31  18  20  1   
 32  19  32  1   
 33  19  33  1   
 34  19  34  1   
 35  20  35  1   
 36  20  36  1   
 37  20  37  1   
@<TRIPOS>SUBSTRUCTURE
  1 ****   1 GROUP 4 **** **** 0

# MOE 2024.06 (io_trps.svl 2023.06)
