@<TRIPOS>MOLECULE
NONAME
45 47 1 0 0 
SMALL
USER_CHARGES


@<TRIPOS>ATOM
  1 O       -9.1690     3.0070     0.3130 O.3   1 <1>  -0.2800 
  2 C       -9.8990     3.8440    -0.4140 C.2   1 <1>   0.0870 
  3 C       -7.8950     3.1950     0.0450 C.2   1 <1>  -0.0400 
  4 C      -11.3430     3.8450    -0.3060 C.ar  1 <1>   0.0530 
  5 C       -9.0560     4.5930    -1.1740 C.2   1 <1>  -0.1500 
  6 C       -7.7570     4.1740    -0.8780 C.2   1 <1>  -0.1500 
  7 C       -6.8990     2.3230     0.7850 C.3   1 <1>   0.5230 
  8 C      -12.1240     4.7330    -1.0440 C.ar  1 <1>  -0.1500 
  9 C      -12.0130     2.9610     0.5380 C.ar  1 <1>  -0.1500 
 10 N       -5.5200     2.6830     0.3790 N.4   1 <1>  -0.9060 
 11 C      -13.5030     4.7390    -0.9430 C.ar  1 <1>  -0.1500 
 12 C      -13.3920     2.9620     0.6430 C.ar  1 <1>  -0.1500 
 13 C       -4.4660     1.8870     1.0310 C.3   1 <1>   0.4230 
 14 C      -14.1540     3.8520    -0.0980 C.ar  1 <1>  -0.1430 
 15 C       -3.1220     2.4930     0.6460 C.3   1 <1>  -0.1600 
 16 C       -4.4040     0.5020     0.3920 C.3   1 <1>  -0.1600 
 17 C      -15.6740     3.8460     0.0270 C.3   1 <1>   0.3440 
 18 C       -2.8090     1.9630    -0.7590 C.3   1 <1>  -0.1600 
 19 C       -3.6370     0.6820    -0.9240 C.3   1 <1>  -0.1600 
 20 O      -16.2080     3.7640    -1.2390 O.3   1 <1>  -0.6800 
 21 C      -16.2150     5.1120     0.6790 C.3   1 <1>  -0.2400 
 22 H       -9.3110     5.3670    -1.8760 H     1 <1>   0.1500 
 23 H       -6.8760     4.5910    -1.3330 H     1 <1>   0.1500 
 24 H       -7.1020     1.2900     0.5550 H     1 <1>   0.0800 
 25 H       -7.0260     2.4680     1.8450 H     1 <1>   0.0800 
 26 H      -11.6540     5.4340    -1.7080 H     1 <1>   0.1500 
 27 H      -11.4480     2.2600     1.1250 H     1 <1>   0.1500 
 28 H       -5.3760     3.6770     0.5770 H     1 <1>   0.4500 
 29 H       -5.4290     2.5570    -0.6340 H     1 <1>   0.4500 
 30 H      -14.0780     5.4380    -1.5270 H     1 <1>   0.1500 
 31 H      -13.8700     2.2640     1.3080 H     1 <1>   0.1500 
 32 H       -4.6030     1.8500     2.1010 H     1 <1>   0.0800 
 33 H       -2.3770     2.1140     1.3260 H     1 <1>   0.0800 
 34 H       -3.1050     3.5670     0.7000 H     1 <1>   0.0800 
 35 H       -5.3630     0.0380     0.2510 H     1 <1>   0.0800 
 36 H       -3.8220    -0.1360     1.0370 H     1 <1>   0.0800 
 37 H      -16.0020     2.9780     0.5740 H     1 <1>   0.0800 
 38 H       -1.7550     1.7610    -0.8640 H     1 <1>   0.0800 
 39 H       -3.0900     2.6840    -1.5090 H     1 <1>   0.0800 
 40 H       -4.3190     0.7870    -1.7510 H     1 <1>   0.0800 
 41 H       -3.0030    -0.1680    -1.1150 H     1 <1>   0.0800 
 42 H      -15.6520     3.1580    -1.7640 H     1 <1>   0.4000 
 43 H      -15.9390     5.9790     0.1060 H     1 <1>   0.0800 
 44 H      -15.8060     5.2110     1.6670 H     1 <1>   0.0800 
 45 H      -17.2860     5.0580     0.7530 H     1 <1>   0.0800 
@<TRIPOS>BOND
  1   1   2  1   
  2   1   3  1   
  3   2   4  1   
  4   2   5  2   
  5   3   6  2   
  6   3   7  1   
  7   4   8  ar  
  8   4   9  ar  
  9   5   6  1   
 10   5  22  1   
 11   6  23  1   
 12   7  10  1   
 13   7  24  1   
 14   7  25  1   
 15   8  11  ar  
 16   8  26  1   
 17   9  12  ar  
 18   9  27  1   
 19  10  13  1   
 20  10  28  1   
 21  10  29  1   
 22  11  14  ar  
 23  11  30  1   
 24  12  14  ar  
 25  12  31  1   
 26  13  15  1   
 27  13  16  1   
 28  13  32  1   
 29  14  17  1   
 30  15  18  1   
 31  15  33  1   
 32  15  34  1   
 33  16  19  1   
 34  16  35  1   
 35  16  36  1   
 36  17  20  1   
 37  17  21  1   
 38  17  37  1   
 39  18  19  1   
 40  18  38  1   
 41  18  39  1   
 42  19  40  1   
 43  19  41  1   
 44  20  42  1   
 45  21  43  1   
 46  21  44  1   
 47  21  45  1   
@<TRIPOS>SUBSTRUCTURE
  1 ****   1 GROUP 4 **** **** 0

# MOE 2024.06 (io_trps.svl 2023.06)
