@<TRIPOS>MOLECULE
NONAME
49 51 1 0 0 
SMALL
USER_CHARGES


@<TRIPOS>ATOM
  1 CL       0.0340    -1.0420     2.5200 Cl    1 <1>  -0.1770 
  2 C        0.4710    -2.3520     1.4510 C.ar  1 <1>   0.1770 
  3 C        1.6570    -3.0270     1.6570 C.ar  1 <1>  -0.1500 
  4 C       -0.3810    -2.6900     0.4160 C.ar  1 <1>  -0.1500 
  5 C        2.0180    -4.0700     0.8140 C.ar  1 <1>   0.1000 
  6 C       -0.0300    -3.7290    -0.4300 C.ar  1 <1>  -0.1500 
  7 N        3.2220    -4.7370     1.0330 N.pl3 1 <1>  -0.8380 
  8 C        1.1600    -4.4090    -0.2300 C.ar  1 <1>  -0.1500 
  9 C        4.4990    -4.0040     0.7890 C.3   1 <1>   0.2090 
 10 C        3.3310    -6.2200     0.8730 C.3   1 <1>   0.2090 
 11 C        5.1810    -4.4680    -0.5120 C.3   1 <1>   0.1100 
 12 C        4.0700    -6.6110    -0.4240 C.3   1 <1>   0.1100 
 13 N        5.3830    -5.9400    -0.5490 N.3   1 <1>  -0.8100 
 14 C        6.0740    -6.3490    -1.8110 C.3   1 <1>   0.1710 
 15 C        7.5670    -6.0140    -1.8290 C.2   1 <1>   0.5690 
 16 O        8.1310    -5.8930    -2.8890 O.2   1 <1>  -0.5700 
 17 N        8.1560    -5.8680    -0.6060 N.am  1 <1>  -0.5470 
 18 C        9.4490    -5.5430    -0.1690 C.ar  1 <1>   0.1170 
 19 C        9.6650    -5.2850     1.1860 C.ar  1 <1>  -0.1430 
 20 C       10.5310    -5.4720    -1.0410 C.ar  1 <1>  -0.1500 
 21 C       10.9360    -4.9620     1.6350 C.ar  1 <1>  -0.1500 
 22 C        8.5220    -5.3510     2.1930 C.3   1 <1>  -0.0970 
 23 C       11.7940    -5.1490    -0.5850 C.ar  1 <1>  -0.1500 
 24 C       12.0050    -4.8900     0.7580 C.ar  1 <1>  -0.1430 
 25 C       13.3910    -4.5370     1.2650 C.3   1 <1>  -0.0970 
 26 H        2.2990    -2.7540     2.4710 H     1 <1>   0.1500 
 27 H       -1.2990    -2.1490     0.2790 H     1 <1>   0.1500 
 28 H       -0.6820    -4.0050    -1.2410 H     1 <1>   0.1500 
 29 H        1.4280    -5.2070    -0.8940 H     1 <1>   0.1500 
 30 H        5.1630    -4.1730     1.6180 H     1 <1>   0.0800 
 31 H        4.3060    -2.9470     0.7290 H     1 <1>   0.0800 
 32 H        2.3480    -6.6580     0.8780 H     1 <1>   0.0800 
 33 H        3.8690    -6.6180     1.7140 H     1 <1>   0.0800 
 34 H        6.1290    -3.9660    -0.5980 H     1 <1>   0.0800 
 35 H        4.5690    -4.1620    -1.3440 H     1 <1>   0.0800 
 36 H        3.4510    -6.3580    -1.2670 H     1 <1>   0.0800 
 37 H        4.2130    -7.6770    -0.4250 H     1 <1>   0.0800 
 38 H        5.6020    -5.8850    -2.6600 H     1 <1>   0.0800 
 39 H        5.9930    -7.4150    -1.9310 H     1 <1>   0.0800 
 40 H        7.4590    -5.9580     0.1380 H     1 <1>   0.3700 
 41 H       10.3930    -5.6710    -2.0870 H     1 <1>   0.1500 
 42 H       11.1020    -4.7650     2.6790 H     1 <1>   0.1500 
 43 H        8.1020    -6.3410     2.2100 H     1 <1>   0.0800 
 44 H        7.7550    -4.6460     1.9270 H     1 <1>   0.0800 
 45 H        8.8660    -5.1150     3.1840 H     1 <1>   0.0800 
 46 H       12.6120    -5.1020    -1.2820 H     1 <1>   0.1500 
 47 H       13.8920    -5.4270     1.5990 H     1 <1>   0.0800 
 48 H       13.3250    -3.8440     2.0850 H     1 <1>   0.0800 
 49 H       13.9730    -4.0820     0.4840 H     1 <1>   0.0800 
@<TRIPOS>BOND
  1   1   2  1   
  2   2   3  ar  
  3   2   4  ar  
  4   3   5  ar  
  5   3  26  1   
  6   4   6  ar  
  7   4  27  1   
  8   5   7  1   
  9   5   8  ar  
 10   6   8  ar  
 11   6  28  1   
 12   7   9  1   
 13   7  10  1   
 14   8  29  1   
 15   9  11  1   
 16   9  30  1   
 17   9  31  1   
 18  10  12  1   
 19  10  32  1   
 20  10  33  1   
 21  11  13  1   
 22  11  34  1   
 23  11  35  1   
 24  12  13  1   
 25  12  36  1   
 26  12  37  1   
 27  13  14  1   
 28  14  15  1   
 29  14  38  1   
 30  14  39  1   
 31  15  16  2   
 32  15  17  am  
 33  17  18  1   
 34  17  40  1   
 35  18  19  ar  
 36  18  20  ar  
 37  19  21  ar  
 38  19  22  1   
 39  20  23  ar  
 40  20  41  1   
 41  21  24  ar  
 42  21  42  1   
 43  22  43  1   
 44  22  44  1   
 45  22  45  1   
 46  23  24  ar  
 47  23  46  1   
 48  24  25  1   
 49  25  47  1   
 50  25  48  1   
 51  25  49  1   
@<TRIPOS>SUBSTRUCTURE
  1 ****  11 GROUP 4 **** **** 0

# MOE 2024.06 (io_trps.svl 2023.06)
