@<TRIPOS>MOLECULE
NONAME
34 35 1 0 0 
SMALL
USER_CHARGES


@<TRIPOS>ATOM
  1 S        0.0400     0.0690     0.1260 S.3   1 <1>  -0.0800 
  2 C        1.5480    -0.3540     0.9030 C.2   1 <1>   0.1980 
  3 C       -0.2780    -1.6250    -0.1070 C.2   1 <1>  -0.1100 
  4 N        1.7710    -1.6030     0.9730 N.2   1 <1>  -0.5650 
  5 C        2.4140     0.7780     1.4020 C.3   1 <1>  -0.0600 
  6 C        0.7410    -2.3380     0.4010 C.2   1 <1>   0.0460 
  7 C        0.8920    -3.8570     0.4240 C.3   1 <1>   0.1010 
  8 C        2.0220    -4.3040    -0.5110 C.3   1 <1>  -0.1600 
  9 C       -0.3930    -4.5930     0.0240 C.3   1 <1>  -0.1600 
 10 C        2.1690    -5.8370    -0.5760 C.3   1 <1>   0.2800 
 11 C       -0.1580    -6.1040    -0.0140 C.3   1 <1>   0.1200 
 12 O        0.9190    -6.4000    -0.8550 O.3   1 <1>  -0.5600 
 13 C        2.7280    -6.4810     0.7200 C.3   1 <1>  -0.1600 
 14 C        3.0370    -6.2120    -1.7800 C.3   1 <1>  -0.2400 
 15 C        4.1710    -6.0940     1.0910 C.3   1 <1>  -0.2400 
 16 H       -1.1920    -1.8980    -0.5990 H     1 <1>   0.1500 
 17 H        1.8760     1.3530     2.1320 H     1 <1>   0.0800 
 18 H        2.6910     1.4130     0.5810 H     1 <1>   0.0800 
 19 H        3.3040     0.3810     1.8550 H     1 <1>   0.0800 
 20 H        1.1410    -4.1340     1.4330 H     1 <1>   0.0800 
 21 H        2.9460    -3.8540    -0.2010 H     1 <1>   0.0800 
 22 H        1.8110    -3.9320    -1.4980 H     1 <1>   0.0800 
 23 H       -0.7140    -4.2770    -0.9530 H     1 <1>   0.0800 
 24 H       -1.1760    -4.3690     0.7250 H     1 <1>   0.0800 
 25 H       -1.0240    -6.6040    -0.4110 H     1 <1>   0.0800 
 26 H        0.0400    -6.4980     0.9670 H     1 <1>   0.0800 
 27 H        2.6880    -7.5500     0.6070 H     1 <1>   0.0800 
 28 H        2.1090    -6.2220     1.5580 H     1 <1>   0.0800 
 29 H        2.5620    -5.8950    -2.6910 H     1 <1>   0.0800 
 30 H        3.1820    -7.2760    -1.8160 H     1 <1>   0.0800 
 31 H        3.9970    -5.7340    -1.7210 H     1 <1>   0.0800 
 32 H        4.8640    -6.4000     0.3270 H     1 <1>   0.0800 
 33 H        4.4510    -6.5840     2.0060 H     1 <1>   0.0800 
 34 H        4.2610    -5.0330     1.2410 H     1 <1>   0.0800 
@<TRIPOS>BOND
  1   1   2  1   
  2   1   3  1   
  3   2   4  2   
  4   2   5  1   
  5   3   6  2   
  6   3  16  1   
  7   4   6  1   
  8   5  17  1   
  9   5  18  1   
 10   5  19  1   
 11   6   7  1   
 12   7   8  1   
 13   7   9  1   
 14   7  20  1   
 15   8  10  1   
 16   8  21  1   
 17   8  22  1   
 18   9  11  1   
 19   9  23  1   
 20   9  24  1   
 21  10  12  1   
 22  10  13  1   
 23  10  14  1   
 24  11  12  1   
 25  11  25  1   
 26  11  26  1   
 27  13  15  1   
 28  13  27  1   
 29  13  28  1   
 30  14  29  1   
 31  14  30  1   
 32  14  31  1   
 33  15  32  1   
 34  15  33  1   
 35  15  34  1   
@<TRIPOS>SUBSTRUCTURE
  1 ****   7 GROUP 4 **** **** 0

# MOE 2024.06 (io_trps.svl 2023.06)
