@<TRIPOS>MOLECULE
NONAME
32 32 1 0 0 
SMALL
USER_CHARGES


@<TRIPOS>ATOM
  1 CL      -0.7980     0.5960    -1.4260 Cl    1 <1>  -0.1770 
  2 C        0.4090     1.5630    -0.6030 C.ar  1 <1>   0.1770 
  3 C        0.0850     2.8550    -0.1800 C.ar  1 <1>   0.1170 
  4 C        1.6580     1.0090    -0.4030 C.ar  1 <1>  -0.1500 
  5 N       -1.2080     3.3580    -0.4190 N.am  1 <1>  -0.5470 
  6 C        1.0840     3.5920     0.4560 C.ar  1 <1>  -0.1500 
  7 C        2.6180     1.7690     0.2360 C.ar  1 <1>   0.1770 
  8 C       -1.8870     4.4340     0.0680 C.2   1 <1>   0.6900 
  9 C        2.3440     3.0540     0.6660 C.ar  1 <1>  -0.1500 
 10 CL       4.2060     1.0940     0.5030 Cl    1 <1>  -0.1770 
 11 O       -1.4220     5.1590     0.9270 O.2   1 <1>  -0.5700 
 12 N       -3.1120     4.6600    -0.4500 N.am  1 <1>  -0.7300 
 13 C       -4.2050     5.4710     0.1840 C.3   1 <1>   0.1140 
 14 C       -5.4930     4.6150     0.2220 C.2   1 <1>   0.9060 
 15 C       -4.3870     6.8010    -0.5970 C.3   1 <1>  -0.0800 
 16 O       -5.5930     3.6930    -0.6090 O.co2 1 <1>  -0.9000 
 17 O       -6.3670     4.8230     1.0740 O.co2 1 <1>  -0.9000 
 18 C       -3.0760     7.6020    -0.7050 C.3   1 <1>  -0.2400 
 19 C       -5.4510     7.7010     0.0500 C.3   1 <1>  -0.2400 
 20 H        1.8800     0.0130    -0.7360 H     1 <1>   0.1500 
 21 H       -1.7960     2.7720    -1.0080 H     1 <1>   0.3700 
 22 H        0.8860     4.5950     0.7890 H     1 <1>   0.1500 
 23 H        3.1090     3.6270     1.1590 H     1 <1>   0.1500 
 24 H       -3.5830     3.9050    -0.9680 H     1 <1>   0.3700 
 25 H       -3.9370     5.6900     1.2010 H     1 <1>   0.0800 
 26 H       -4.7230     6.5540    -1.5900 H     1 <1>   0.0800 
 27 H       -2.6780     7.7950     0.2750 H     1 <1>   0.0800 
 28 H       -3.2440     8.5370    -1.2060 H     1 <1>   0.0800 
 29 H       -2.3420     7.0510    -1.2660 H     1 <1>   0.0800 
 30 H       -5.1880     7.9180     1.0700 H     1 <1>   0.0800 
 31 H       -6.4100     7.2130     0.0470 H     1 <1>   0.0800 
 32 H       -5.5470     8.6250    -0.4900 H     1 <1>   0.0800 
@<TRIPOS>BOND
  1   1   2  1   
  2   2   3  ar  
  3   2   4  ar  
  4   3   5  1   
  5   3   6  ar  
  6   4   7  ar  
  7   4  20  1   
  8   5   8  am  
  9   5  21  1   
 10   6   9  ar  
 11   6  22  1   
 12   7   9  ar  
 13   7  10  1   
 14   8  11  2   
 15   8  12  am  
 16   9  23  1   
 17  12  13  1   
 18  12  24  1   
 19  13  14  1   
 20  13  15  1   
 21  13  25  1   
 22  14  16  ar  
 23  14  17  ar  
 24  15  18  1   
 25  15  19  1   
 26  15  26  1   
 27  18  27  1   
 28  18  28  1   
 29  18  29  1   
 30  19  30  1   
 31  19  31  1   
 32  19  32  1   
@<TRIPOS>SUBSTRUCTURE
  1 ****   8 GROUP 4 **** **** 0

# MOE 2024.06 (io_trps.svl 2023.06)
