@<TRIPOS>MOLECULE
NONAME
43 45 1 0 0 
SMALL
USER_CHARGES


@<TRIPOS>ATOM
  1 S        0.5960    -0.3310    -1.0170 S.o2  1 <1>   1.4470 
  2 O        1.3250    -0.7550    -2.1950 O.2   1 <1>  -0.6500 
  3 O       -0.2320     0.8530    -1.1070 O.2   1 <1>  -0.6500 
  4 N        1.7660    -0.0170     0.1680 N.am  1 <1>  -0.8490 
  5 C       -0.3540    -1.7260    -0.3290 C.ar  1 <1>  -0.0090 
  6 C        2.7390    -1.1210     0.3040 C.3   1 <1>   0.1960 
  7 C        2.4810     1.2440    -0.1130 C.3   1 <1>   0.1960 
  8 C       -1.1240    -1.6340     0.8350 C.ar  1 <1>  -0.1440 
  9 C       -0.3020    -2.9580    -0.9760 C.ar  1 <1>  -0.1500 
 10 C        3.7650    -0.8480     1.4190 C.3   1 <1>   0.2090 
 11 C        3.5240     1.5840     0.9700 C.3   1 <1>   0.2090 
 12 C       -1.8030    -2.7450     1.3120 C.ar  1 <1>  -0.1500 
 13 C       -1.2510    -0.3290     1.6120 C.3   1 <1>  -0.0960 
 14 C       -0.9780    -4.0690    -0.5020 C.ar  1 <1>  -0.1440 
 15 N        4.4750     0.4450     1.1700 N.pl3 1 <1>  -0.8380 
 16 C       -1.7300    -3.9560     0.6510 C.ar  1 <1>  -0.1500 
 17 C       -0.8950    -5.3950    -1.2360 C.3   1 <1>  -0.0970 
 18 C        5.7920     0.5120     0.7680 C.ar  1 <1>   0.7200 
 19 N        6.3430     1.7230     0.7040 N.ar  1 <1>  -0.6200 
 20 N        6.4000    -0.6370     0.4730 N.ar  1 <1>  -0.6200 
 21 C        7.5970     1.7750     0.3260 C.ar  1 <1>   0.1600 
 22 C        7.6520    -0.5550     0.0960 C.ar  1 <1>   0.1600 
 23 C        8.3100     0.6470     0.0050 C.ar  1 <1>  -0.1500 
 24 H        3.2720    -1.2650    -0.6220 H     1 <1>   0.0800 
 25 H        2.2200    -2.0350     0.5360 H     1 <1>   0.0800 
 26 H        1.7740     2.0540    -0.1680 H     1 <1>   0.0800 
 27 H        2.9800     1.1760    -1.0660 H     1 <1>   0.0800 
 28 H        0.2840    -3.0500    -1.8740 H     1 <1>   0.1500 
 29 H        4.4550    -1.6700     1.4820 H     1 <1>   0.0800 
 30 H        3.2510    -0.7880     2.3620 H     1 <1>   0.0800 
 31 H        3.0180     1.7840     1.8980 H     1 <1>   0.0800 
 32 H        4.0410     2.4820     0.6830 H     1 <1>   0.0800 
 33 H       -2.3980    -2.6770     2.2060 H     1 <1>   0.1500 
 34 H       -1.7170     0.4240     1.0020 H     1 <1>   0.0800 
 35 H       -0.2830     0.0220     1.9210 H     1 <1>   0.0800 
 36 H       -1.8510    -0.4590     2.4940 H     1 <1>   0.0800 
 37 H       -2.2630    -4.8070     1.0370 H     1 <1>   0.1500 
 38 H       -0.6730    -5.2390    -2.2760 H     1 <1>   0.0800 
 39 H       -1.8310    -5.9210    -1.1650 H     1 <1>   0.0800 
 40 H       -0.1210    -6.0030    -0.8030 H     1 <1>   0.0800 
 41 H        8.0670     2.7420     0.2710 H     1 <1>   0.1500 
 42 H        8.1670    -1.4690    -0.1470 H     1 <1>   0.1500 
 43 H        9.3360     0.7010    -0.3040 H     1 <1>   0.1500 
@<TRIPOS>BOND
  1   1   2  2   
  2   1   3  2   
  3   1   4  am  
  4   1   5  1   
  5   4   6  1   
  6   4   7  1   
  7   5   8  ar  
  8   5   9  ar  
  9   6  10  1   
 10   6  24  1   
 11   6  25  1   
 12   7  11  1   
 13   7  26  1   
 14   7  27  1   
 15   8  12  ar  
 16   8  13  1   
 17   9  14  ar  
 18   9  28  1   
 19  10  15  1   
 20  10  29  1   
 21  10  30  1   
 22  11  15  1   
 23  11  31  1   
 24  11  32  1   
 25  12  16  ar  
 26  12  33  1   
 27  13  34  1   
 28  13  35  1   
 29  13  36  1   
 30  14  16  ar  
 31  14  17  1   
 32  15  18  1   
 33  16  37  1   
 34  17  38  1   
 35  17  39  1   
 36  17  40  1   
 37  18  19  ar  
 38  18  20  ar  
 39  19  21  ar  
 40  20  22  ar  
 41  21  23  ar  
 42  21  41  1   
 43  22  23  ar  
 44  22  42  1   
 45  23  43  1   
@<TRIPOS>SUBSTRUCTURE
  1 ****   6 GROUP 4 **** **** 0

# MOE 2024.06 (io_trps.svl 2023.06)
