@<TRIPOS>MOLECULE
NONAME
43 45 1 0 0 
SMALL
USER_CHARGES


@<TRIPOS>ATOM
  1 O       -5.5030     1.1410     0.1050 O.3   1 <1>  -0.3620 
  2 C       -6.8570     1.0660     0.1500 C.ar  1 <1>   0.0830 
  3 C       -4.8500     2.3380    -0.2600 C.3   1 <1>   0.1200 
  4 C       -7.7000     2.1480    -0.1050 C.ar  1 <1>  -0.1500 
  5 C       -7.4010    -0.1720     0.4690 C.ar  1 <1>  -0.1500 
  6 C       -3.3370     2.0910    -0.2340 C.3   1 <1>   0.2000 
  7 C       -9.0680     1.9620    -0.0340 C.ar  1 <1>  -0.1440 
  8 C       -8.7740    -0.3460     0.5380 C.ar  1 <1>  -0.1500 
  9 O       -2.9880     1.5350     0.9990 O.3   1 <1>  -0.6800 
 10 C       -2.5200     3.3830    -0.4500 C.3   1 <1>   0.3430 
 11 C       -9.5970     0.7350     0.2830 C.ar  1 <1>  -0.1440 
 12 C      -10.1550     2.9810    -0.2690 C.3   1 <1>  -0.0170 
 13 N       -1.1390     3.2220     0.0970 N.4   1 <1>  -0.9590 
 14 C      -11.1040     0.7750     0.3010 C.3   1 <1>  -0.0170 
 15 C      -11.4220     2.2800     0.2510 C.3   1 <1>  -0.1600 
 16 C       -0.4450     4.4790     0.4500 C.3   1 <1>   0.3430 
 17 C       -0.2160     2.4400    -0.7550 C.3   1 <1>   0.3430 
 18 C        1.0210     4.0810     0.5630 C.3   1 <1>  -0.1600 
 19 C        1.1640     2.7560    -0.1950 C.3   1 <1>  -0.1600 
 20 H       -5.1250     3.1030     0.4450 H     1 <1>   0.0800 
 21 H       -5.1750     2.6130    -1.2490 H     1 <1>   0.0800 
 22 H       -7.3260     3.1210    -0.3540 H     1 <1>   0.1500 
 23 H       -6.7470    -1.0010     0.6640 H     1 <1>   0.1500 
 24 H       -3.0880     1.3750    -0.9980 H     1 <1>   0.0800 
 25 H       -9.1940    -1.3040     0.7850 H     1 <1>   0.1500 
 26 H       -3.6750     0.8680     1.2410 H     1 <1>   0.4000 
 27 H       -3.0160     4.1810     0.0770 H     1 <1>   0.0800 
 28 H       -2.4930     3.6410    -1.4950 H     1 <1>   0.0800 
 29 H      -10.2380     3.1800    -1.3230 H     1 <1>   0.0800 
 30 H       -9.9640     3.8960     0.2640 H     1 <1>   0.0800 
 31 H       -1.2790     2.6630     0.9610 H     1 <1>   0.4500 
 32 H      -11.5020     0.3160     1.1880 H     1 <1>   0.0800 
 33 H      -11.4860     0.2760    -0.5730 H     1 <1>   0.0800 
 34 H      -12.2780     2.4880    -0.3670 H     1 <1>   0.0800 
 35 H      -11.6210     2.6230     1.2520 H     1 <1>   0.0800 
 36 H       -0.8180     4.8960     1.3720 H     1 <1>   0.0800 
 37 H       -0.5620     5.1980    -0.3450 H     1 <1>   0.0800 
 38 H       -0.2780     2.7820    -1.7750 H     1 <1>   0.0800 
 39 H       -0.4330     1.3840    -0.7110 H     1 <1>   0.0800 
 40 H        1.2840     3.9500     1.5990 H     1 <1>   0.0800 
 41 H        1.6500     4.8490     0.1470 H     1 <1>   0.0800 
 42 H        1.8870     2.8240    -0.9890 H     1 <1>   0.0800 
 43 H        1.4690     1.9720     0.4780 H     1 <1>   0.0800 
@<TRIPOS>BOND
  1   1   2  1   
  2   1   3  1   
  3   2   4  ar  
  4   2   5  ar  
  5   3   6  1   
  6   3  20  1   
  7   3  21  1   
  8   4   7  ar  
  9   4  22  1   
 10   5   8  ar  
 11   5  23  1   
 12   6   9  1   
 13   6  10  1   
 14   6  24  1   
 15   7  11  ar  
 16   7  12  1   
 17   8  11  ar  
 18   8  25  1   
 19   9  26  1   
 20  10  13  1   
 21  10  27  1   
 22  10  28  1   
 23  11  14  1   
 24  12  15  1   
 25  12  29  1   
 26  12  30  1   
 27  13  16  1   
 28  13  17  1   
 29  13  31  1   
 30  14  15  1   
 31  14  32  1   
 32  14  33  1   
 33  15  34  1   
 34  15  35  1   
 35  16  18  1   
 36  16  36  1   
 37  16  37  1   
 38  17  19  1   
 39  17  38  1   
 40  17  39  1   
 41  18  19  1   
 42  18  40  1   
 43  18  41  1   
 44  19  42  1   
 45  19  43  1   
@<TRIPOS>SUBSTRUCTURE
  1 ****   3 GROUP 4 **** **** 0

# MOE 2024.06 (io_trps.svl 2023.06)
