@<TRIPOS>MOLECULE
NONAME
45 47 1 0 0 
SMALL
USER_CHARGES


@<TRIPOS>ATOM
  1 O        0.5290     0.3970     1.4000 O.2   1 <1>  -0.5700 
  2 C        0.9130     1.4870     1.0180 C.2   1 <1>   0.6900 
  3 N        2.2530     1.7960     1.0440 N.am  1 <1>  -0.6600 
  4 N        0.0300     2.4270     0.5750 N.am  1 <1>  -0.5470 
  5 C        2.8780     2.9320     0.3060 C.3   1 <1>   0.1400 
  6 C        3.2360     0.9080     1.7270 C.3   1 <1>   0.1400 
  7 C       -1.3600     2.4350     0.3520 C.ar  1 <1>   0.1170 
  8 C        3.8410     2.3810    -0.7460 C.3   1 <1>  -0.1600 
  9 C        4.2020     0.3270     0.6950 C.3   1 <1>  -0.1600 
 10 C       -1.9910     3.6700     0.1640 C.ar  1 <1>   0.0830 
 11 C       -2.1260     1.2760     0.2970 C.ar  1 <1>  -0.1500 
 12 C        4.8640     1.4490    -0.1080 C.3   1 <1>   0.5600 
 13 O       -1.2050     4.7890     0.2120 O.3   1 <1>  -0.3630 
 14 C       -3.3620     3.7230    -0.0630 C.ar  1 <1>  -0.1500 
 15 C       -3.4900     1.3320     0.0710 C.ar  1 <1>  -0.1500 
 16 O        5.6800     0.9260    -1.0990 O.3   1 <1>  -0.5600 
 17 O        5.7080     2.1950     0.7070 O.3   1 <1>  -0.5600 
 18 C       -1.7710     6.0780     0.1150 C.3   1 <1>   0.0400 
 19 C       -4.1150     2.5620    -0.1080 C.ar  1 <1>   0.0830 
 20 C        6.9600     0.7820    -0.5990 C.3   1 <1>   0.1200 
 21 C        6.9920     1.6880     0.6170 C.3   1 <1>   0.1200 
 22 O       -5.4480     2.7080    -0.3330 O.3   1 <1>  -0.3630 
 23 C       -6.3010     1.5860    -0.3760 C.3   1 <1>   0.0400 
 24 H        0.4300     3.3580     0.5120 H     1 <1>   0.3700 
 25 H        3.4180     3.5490     1.0050 H     1 <1>   0.0800 
 26 H        2.1380     3.5420    -0.1800 H     1 <1>   0.0800 
 27 H        2.7360     0.1090     2.2480 H     1 <1>   0.0800 
 28 H        3.7820     1.4860     2.4540 H     1 <1>   0.0800 
 29 H        4.3510     3.1880    -1.2380 H     1 <1>   0.0800 
 30 H        3.2760     1.8360    -1.4810 H     1 <1>   0.0800 
 31 H        3.6460    -0.3050     0.0270 H     1 <1>   0.0800 
 32 H        4.9430    -0.2710     1.1890 H     1 <1>   0.0800 
 33 H       -1.6600     0.3170     0.4280 H     1 <1>   0.1500 
 34 H       -3.8780     4.6500    -0.2100 H     1 <1>   0.1500 
 35 H       -4.0410     0.4120     0.0400 H     1 <1>   0.1500 
 36 H       -0.9800     6.8000     0.2110 H     1 <1>   0.0800 
 37 H       -2.4820     6.2090     0.9120 H     1 <1>   0.0800 
 38 H       -2.2450     6.1820    -0.8450 H     1 <1>   0.0800 
 39 H        7.6680     1.0840    -1.3500 H     1 <1>   0.0800 
 40 H        7.1170    -0.2480    -0.3300 H     1 <1>   0.0800 
 41 H        7.2190     1.1400     1.5150 H     1 <1>   0.0800 
 42 H        7.6810     2.5040     0.4930 H     1 <1>   0.0800 
 43 H       -7.3020     1.9340    -0.5540 H     1 <1>   0.0800 
 44 H       -6.2540     1.0760     0.5700 H     1 <1>   0.0800 
 45 H       -5.9890     0.9410    -1.1780 H     1 <1>   0.0800 
@<TRIPOS>BOND
  1   1   2  2   
  2   2   3  am  
  3   2   4  am  
  4   3   5  1   
  5   3   6  1   
  6   4   7  1   
  7   4  24  1   
  8   5   8  1   
  9   5  25  1   
 10   5  26  1   
 11   6   9  1   
 12   6  27  1   
 13   6  28  1   
 14   7  10  ar  
 15   7  11  ar  
 16   8  12  1   
 17   8  29  1   
 18   8  30  1   
 19   9  12  1   
 20   9  31  1   
 21   9  32  1   
 22  10  13  1   
 23  10  14  ar  
 24  11  15  ar  
 25  11  33  1   
 26  12  16  1   
 27  12  17  1   
 28  13  18  1   
 29  14  19  ar  
 30  14  34  1   
 31  15  19  ar  
 32  15  35  1   
 33  16  20  1   
 34  17  21  1   
 35  18  36  1   
 36  18  37  1   
 37  18  38  1   
 38  19  22  1   
 39  20  21  1   
 40  20  39  1   
 41  20  40  1   
 42  21  41  1   
 43  21  42  1   
 44  22  23  1   
 45  23  43  1   
 46  23  44  1   
 47  23  45  1   
@<TRIPOS>SUBSTRUCTURE
  1 ****   4 GROUP 4 **** **** 0

# MOE 2024.06 (io_trps.svl 2023.06)
