@<TRIPOS>MOLECULE
NONAME
49 50 1 0 0 
SMALL
USER_CHARGES


@<TRIPOS>ATOM
  1 O        0.9610     1.2700     2.7780 O.2   1 <1>  -0.5700 
  2 C        0.7020     2.2460     2.1020 C.2   1 <1>   0.6900 
  3 N       -0.3210     2.2600     1.1660 N.am  1 <1>  -0.4690 
  4 N        1.4580     3.3390     2.2810 N.am  1 <1>  -0.7300 
  5 C       -0.5160     3.3590     0.3170 C.2   1 <1>  -0.0290 
  6 C       -1.1450     1.0180     1.0210 C.3   1 <1>   0.0600 
  7 C        1.4030     4.5240     1.4240 C.3   1 <1>   0.5020 
  8 C        0.2950     4.4560     0.3730 C.2   1 <1>  -0.1240 
  9 C       -1.6880     3.2500    -0.6630 C.3   1 <1>  -0.1020 
 10 C        2.8090     4.7790     0.8710 C.ar  1 <1>  -0.1440 
 11 C        0.2710     5.6310    -0.4480 C.2   1 <1>   0.7060 
 12 C        3.3680     4.0140    -0.1530 C.ar  1 <1>   0.0830 
 13 C        3.5430     5.8200     1.4230 C.ar  1 <1>  -0.1500 
 14 O       -0.1310     5.6650    -1.5960 O.2   1 <1>  -0.5700 
 15 O        0.7170     6.7770     0.0850 O.3   1 <1>  -0.4300 
 16 O        2.6080     2.9900    -0.6380 O.3   1 <1>  -0.3630 
 17 C        4.6490     4.3260    -0.6420 C.ar  1 <1>   0.0830 
 18 C        4.8130     6.1120     0.9640 C.ar  1 <1>  -0.1500 
 19 C        0.8070     7.9610    -0.6740 C.3   1 <1>   0.1200 
 20 C        3.1880     1.7600    -1.0060 C.3   1 <1>   0.1200 
 21 O        5.1730     3.6210    -1.6860 O.3   1 <1>  -0.3630 
 22 C        5.3630     5.3700    -0.0630 C.ar  1 <1>  -0.1500 
 23 C        1.4390     9.0360     0.2040 C.3   1 <1>  -0.2400 
 24 C        2.1230     0.6740    -0.8990 C.3   1 <1>  -0.2400 
 25 C        6.2030     4.1500    -2.4920 C.3   1 <1>   0.0400 
 26 H        2.3300     3.1940     2.7800 H     1 <1>   0.3700 
 27 H       -0.7570     0.2110     1.6150 H     1 <1>   0.0800 
 28 H       -1.1450     0.6990    -0.0060 H     1 <1>   0.0800 
 29 H       -2.1530     1.2160     1.3390 H     1 <1>   0.0800 
 30 H        1.1520     5.3430     2.0760 H     1 <1>   0.0800 
 31 H       -2.5770     2.9240    -0.1550 H     1 <1>   0.0800 
 32 H       -1.4480     2.5520    -1.4440 H     1 <1>   0.0800 
 33 H       -1.9370     4.1870    -1.1200 H     1 <1>   0.0800 
 34 H        3.1300     6.4180     2.2170 H     1 <1>   0.1500 
 35 H        5.3730     6.9180     1.4050 H     1 <1>   0.1500 
 36 H       -0.1840     8.2430    -0.9860 H     1 <1>   0.0800 
 37 H        1.4170     7.7640    -1.5410 H     1 <1>   0.0800 
 38 H        4.0140     1.5540    -0.3460 H     1 <1>   0.0800 
 39 H        3.5360     1.8430    -2.0200 H     1 <1>   0.0800 
 40 H        6.3510     5.6210    -0.3950 H     1 <1>   0.1500 
 41 H        0.8310     9.2100     1.0730 H     1 <1>   0.0800 
 42 H        1.5170     9.9540    -0.3490 H     1 <1>   0.0800 
 43 H        2.4260     8.7330     0.5060 H     1 <1>   0.0800 
 44 H        1.8310     0.5480     0.1270 H     1 <1>   0.0800 
 45 H        2.5190    -0.2590    -1.2560 H     1 <1>   0.0800 
 46 H        1.2660     0.9390    -1.4900 H     1 <1>   0.0800 
 47 H        6.3170     3.5110    -3.3490 H     1 <1>   0.0800 
 48 H        7.1180     4.1660    -1.9270 H     1 <1>   0.0800 
 49 H        5.9260     5.1400    -2.8090 H     1 <1>   0.0800 
@<TRIPOS>BOND
  1   1   2  2   
  2   2   3  am  
  3   2   4  am  
  4   3   5  1   
  5   3   6  1   
  6   4   7  1   
  7   4  26  1   
  8   5   8  2   
  9   5   9  1   
 10   6  27  1   
 11   6  28  1   
 12   6  29  1   
 13   7   8  1   
 14   7  10  1   
 15   7  30  1   
 16   8  11  1   
 17   9  31  1   
 18   9  32  1   
 19   9  33  1   
 20  10  12  ar  
 21  10  13  ar  
 22  11  14  2   
 23  11  15  1   
 24  12  16  1   
 25  12  17  ar  
 26  13  18  ar  
 27  13  34  1   
 28  15  19  1   
 29  16  20  1   
 30  17  21  1   
 31  17  22  ar  
 32  18  22  ar  
 33  18  35  1   
 34  19  23  1   
 35  19  36  1   
 36  19  37  1   
 37  20  24  1   
 38  20  38  1   
 39  20  39  1   
 40  21  25  1   
 41  22  40  1   
 42  23  41  1   
 43  23  42  1   
 44  23  43  1   
 45  24  44  1   
 46  24  45  1   
 47  24  46  1   
 48  25  47  1   
 49  25  48  1   
 50  25  49  1   
@<TRIPOS>SUBSTRUCTURE
  1 ****  10 GROUP 4 **** **** 0

# MOE 2024.06 (io_trps.svl 2023.06)
