@<TRIPOS>MOLECULE
NONAME
46 48 1 0 0 
SMALL
USER_CHARGES


@<TRIPOS>ATOM
  1 O       -1.6340     2.7590    -1.9000 O.2   1 <1>  -0.5700 
  2 C       -0.9270     2.4550    -0.9670 C.2   1 <1>   0.5690 
  3 N       -1.1620     1.3750    -0.1790 N.am  1 <1>  -0.5790 
  4 C        0.2980     3.3130    -0.6410 C.3   1 <1>   0.1710 
  5 C       -2.2570     0.4070    -0.3080 C.3   1 <1>   0.0490 
  6 N        1.3810     2.5780     0.0770 N.3   1 <1>  -0.8100 
  7 C       -2.7730    -0.2370     0.9350 C.3   1 <1>  -0.2000 
  8 C       -1.9560    -1.0300    -0.0400 C.3   1 <1>  -0.2000 
  9 C        2.3690     3.5250     0.6420 C.3   1 <1>   0.1100 
 10 C        2.0730     1.6330    -0.8360 C.3   1 <1>   0.1100 
 11 C        3.5080     2.8110     1.3980 C.3   1 <1>   0.2090 
 12 C        3.2050     0.8530    -0.1390 C.3   1 <1>   0.2090 
 13 N        4.1580     1.7530     0.5730 N.pl3 1 <1>  -0.8380 
 14 C        5.3810     2.0440    -0.0350 C.ar  1 <1>   0.1000 
 15 C        6.5770     1.5110     0.4560 C.ar  1 <1>  -0.1430 
 16 C        5.4150     2.8780    -1.1460 C.ar  1 <1>  -0.1500 
 17 C        7.7830     1.8240    -0.1670 C.ar  1 <1>  -0.1430 
 18 C        6.5050     0.5950     1.6790 C.3   1 <1>  -0.0970 
 19 C        6.6070     3.1850    -1.7650 C.ar  1 <1>  -0.1500 
 20 C        7.7870     2.6590    -1.2760 C.ar  1 <1>  -0.1500 
 21 C        9.1200     1.2830     0.3220 C.3   1 <1>  -0.0970 
 22 H       -0.4600     1.1930     0.5450 H     1 <1>   0.3700 
 23 H       -0.0460     4.1250    -0.0270 H     1 <1>   0.0800 
 24 H        0.6800     3.7310    -1.5560 H     1 <1>   0.0800 
 25 H       -2.9540     0.6550    -1.0940 H     1 <1>   0.1000 
 26 H       -3.8260    -0.4460     1.0060 H     1 <1>   0.1000 
 27 H       -2.3410     0.0410     1.8800 H     1 <1>   0.1000 
 28 H       -0.9520    -1.3100     0.2240 H     1 <1>   0.1000 
 29 H       -2.4550    -1.7790    -0.6300 H     1 <1>   0.1000 
 30 H        1.8730     4.1900     1.3270 H     1 <1>   0.0800 
 31 H        2.7980     4.1200    -0.1450 H     1 <1>   0.0800 
 32 H        2.4900     2.1700    -1.6700 H     1 <1>   0.0800 
 33 H        1.3670     0.9230    -1.2290 H     1 <1>   0.0800 
 34 H        3.1100     2.3590     2.2890 H     1 <1>   0.0800 
 35 H        4.2480     3.5330     1.6970 H     1 <1>   0.0800 
 36 H        3.7430     0.2730    -0.8690 H     1 <1>   0.0800 
 37 H        2.7770     0.1720     0.5730 H     1 <1>   0.0800 
 38 H        4.4990     3.2860    -1.5230 H     1 <1>   0.1500 
 39 H        6.1520     1.1590     2.5230 H     1 <1>   0.0800 
 40 H        7.4470     0.1540     1.9350 H     1 <1>   0.0800 
 41 H        5.8080    -0.2000     1.4890 H     1 <1>   0.0800 
 42 H        6.6210     3.8310    -2.6250 H     1 <1>   0.1500 
 43 H        8.7120     2.9060    -1.7670 H     1 <1>   0.1500 
 44 H        9.1310     0.2110     0.2460 H     1 <1>   0.0800 
 45 H        9.2790     1.5690     1.3460 H     1 <1>   0.0800 
 46 H        9.9340     1.6700    -0.2640 H     1 <1>   0.0800 
@<TRIPOS>BOND
  1   1   2  2   
  2   2   3  am  
  3   2   4  1   
  4   3   5  1   
  5   3  22  1   
  6   4   6  1   
  7   4  23  1   
  8   4  24  1   
  9   5   7  1   
 10   5   8  1   
 11   5  25  1   
 12   6   9  1   
 13   6  10  1   
 14   7   8  1   
 15   7  26  1   
 16   7  27  1   
 17   8  28  1   
 18   8  29  1   
 19   9  11  1   
 20   9  30  1   
 21   9  31  1   
 22  10  12  1   
 23  10  32  1   
 24  10  33  1   
 25  11  13  1   
 26  11  34  1   
 27  11  35  1   
 28  12  13  1   
 29  12  36  1   
 30  12  37  1   
 31  13  14  1   
 32  14  15  ar  
 33  14  16  ar  
 34  15  17  ar  
 35  15  18  1   
 36  16  19  ar  
 37  16  38  1   
 38  17  20  ar  
 39  17  21  1   
 40  18  39  1   
 41  18  40  1   
 42  18  41  1   
 43  19  20  ar  
 44  19  42  1   
 45  20  43  1   
 46  21  44  1   
 47  21  45  1   
 48  21  46  1   
@<TRIPOS>SUBSTRUCTURE
  1 ****  12 GROUP 4 **** **** 0

# MOE 2024.06 (io_trps.svl 2023.06)
