@<TRIPOS>MOLECULE
NONAME
52 53 1 0 0 
SMALL
USER_CHARGES


@<TRIPOS>ATOM
  1 O        7.1450    -5.5650    -0.0890 O.3   1 <1>  -0.3630 
  2 C        7.9990    -4.5090    -0.1730 C.ar  1 <1>   0.0830 
  3 C        5.7500    -5.4120    -0.1610 C.3   1 <1>   0.1200 
  4 C        9.3690    -4.7570    -0.0710 C.ar  1 <1>  -0.1440 
  5 C        7.5440    -3.2030    -0.3550 C.ar  1 <1>  -0.1500 
  6 C        5.1310    -6.8040    -0.0180 C.3   1 <1>  -0.1600 
  7 C       10.2490    -3.6860    -0.1520 C.ar  1 <1>  -0.1500 
  8 C        9.9250    -6.1730     0.1280 C.3   1 <1>   0.0640 
  9 C        8.4330    -2.1460    -0.4360 C.ar  1 <1>  -0.1430 
 10 C        3.5970    -6.7600    -0.0750 C.3   1 <1>  -0.1600 
 11 C        9.7890    -2.3950    -0.3320 C.ar  1 <1>  -0.1500 
 12 C       10.6840    -6.2820     1.4550 C.3   1 <1>  -0.2400 
 13 C       10.8240    -6.5800    -1.0450 C.3   1 <1>  -0.2400 
 14 C        7.9270    -0.7280    -0.6320 C.3   1 <1>  -0.0970 
 15 C        3.0210    -8.1720     0.0640 C.3   1 <1>   0.3430 
 16 N        1.5410    -8.1560    -0.0890 N.4   1 <1>  -0.9590 
 17 C        0.8460    -7.5200     1.0890 C.3   1 <1>   0.3430 
 18 C        1.0190    -9.5530    -0.3040 C.3   1 <1>   0.3430 
 19 C       -0.6910    -7.5690     0.9450 C.3   1 <1>   0.1100 
 20 C       -0.5200    -9.5780    -0.4350 C.3   1 <1>   0.1100 
 21 N       -1.1630    -8.9440     0.7250 N.3   1 <1>  -0.9000 
 22 H        5.5070    -4.9750    -1.1140 H     1 <1>   0.0800 
 23 H        5.4410    -4.7650     0.6420 H     1 <1>   0.0800 
 24 H        6.4970    -2.9870    -0.4350 H     1 <1>   0.1500 
 25 H        5.4480    -7.2220     0.9230 H     1 <1>   0.0800 
 26 H        5.5080    -7.4260    -0.8130 H     1 <1>   0.0800 
 27 H       11.3080    -3.8510    -0.0760 H     1 <1>   0.1500 
 28 H        9.1190    -6.8830     0.1670 H     1 <1>   0.0800 
 29 H        3.2960    -6.3370    -1.0180 H     1 <1>   0.0800 
 30 H        3.2420    -6.1320     0.7220 H     1 <1>   0.0800 
 31 H       10.4950    -1.5850    -0.3900 H     1 <1>   0.1500 
 32 H       11.5500    -5.6470     1.4580 H     1 <1>   0.0800 
 33 H       11.0010    -7.2960     1.6210 H     1 <1>   0.0800 
 34 H       10.0400    -5.9880     2.2650 H     1 <1>   0.0800 
 35 H       11.6940    -5.9520    -1.1010 H     1 <1>   0.0800 
 36 H       10.2770    -6.4910    -1.9670 H     1 <1>   0.0800 
 37 H       11.1420    -7.6010    -0.9330 H     1 <1>   0.0800 
 38 H        7.0420    -0.7260    -1.2420 H     1 <1>   0.0800 
 39 H        8.6730    -0.1260    -1.1180 H     1 <1>   0.0800 
 40 H        7.6950    -0.2900     0.3220 H     1 <1>   0.0800 
 41 H        3.2900    -8.5850     1.0230 H     1 <1>   0.0800 
 42 H        3.4550    -8.7960    -0.7010 H     1 <1>   0.0800 
 43 H        1.3000    -7.6100    -0.9250 H     1 <1>   0.4500 
 44 H        1.1550    -6.4940     1.1930 H     1 <1>   0.0800 
 45 H        1.1150    -8.0410     1.9930 H     1 <1>   0.0800 
 46 H        1.2940   -10.1750     0.5320 H     1 <1>   0.0800 
 47 H        1.4550    -9.9770    -1.1930 H     1 <1>   0.0800 
 48 H       -1.0020    -6.9390     0.1290 H     1 <1>   0.0800 
 49 H       -1.1410    -7.1860     1.8460 H     1 <1>   0.0800 
 50 H       -0.8500   -10.6010    -0.5020 H     1 <1>   0.0800 
 51 H       -0.8180    -9.0760    -1.3410 H     1 <1>   0.0800 
 52 H       -2.1900    -8.9490     0.6050 H     1 <1>   0.3600 
@<TRIPOS>BOND
  1   1   2  1   
  2   1   3  1   
  3   2   4  ar  
  4   2   5  ar  
  5   3   6  1   
  6   3  22  1   
  7   3  23  1   
  8   4   7  ar  
  9   4   8  1   
 10   5   9  ar  
 11   5  24  1   
 12   6  10  1   
 13   6  25  1   
 14   6  26  1   
 15   7  11  ar  
 16   7  27  1   
 17   8  12  1   
 18   8  13  1   
 19   8  28  1   
 20   9  11  ar  
 21   9  14  1   
 22  10  15  1   
 23  10  29  1   
 24  10  30  1   
 25  11  31  1   
 26  12  32  1   
 27  12  33  1   
 28  12  34  1   
 29  13  35  1   
 30  13  36  1   
 31  13  37  1   
 32  14  38  1   
 33  14  39  1   
 34  14  40  1   
 35  15  16  1   
 36  15  41  1   
 37  15  42  1   
 38  16  17  1   
 39  16  18  1   
 40  16  43  1   
 41  17  19  1   
 42  17  44  1   
 43  17  45  1   
 44  18  20  1   
 45  18  46  1   
 46  18  47  1   
 47  19  21  1   
 48  19  48  1   
 49  19  49  1   
 50  20  21  1   
 51  20  50  1   
 52  20  51  1   
 53  21  52  1   
@<TRIPOS>SUBSTRUCTURE
  1 ****   3 GROUP 4 **** **** 0

# MOE 2024.06 (io_trps.svl 2023.06)
