@<TRIPOS>MOLECULE
NONAME
44 45 1 0 0 
SMALL
USER_CHARGES


@<TRIPOS>ATOM
  1 O        0.6600     1.8280    -2.7610 O.2   1 <1>  -0.5700 
  2 C        0.8180     2.3840    -1.7020 C.2   1 <1>   0.5690 
  3 N        1.7410     1.9150    -0.8020 N.am  1 <1>  -0.6600 
  4 C       -0.0410     3.6090    -1.4250 C.3   1 <1>  -0.0990 
  5 C        2.1730     0.4860    -0.8610 C.3   1 <1>   0.1400 
  6 C        2.3960     2.7200     0.2670 C.3   1 <1>   0.1400 
  7 C       -0.8180     3.5600    -0.0920 C.3   1 <1>   0.0630 
  8 C        3.7040     0.3840    -0.9500 C.3   1 <1>   0.3430 
  9 C        3.9310     2.5740     0.1970 C.3   1 <1>   0.3430 
 10 C       -1.3430     2.1680     0.2620 C.ar  1 <1>  -0.1440 
 11 C       -1.9760     4.5640    -0.1010 C.3   1 <1>  -0.2400 
 12 N        4.3800     1.1330     0.1710 N.4   1 <1>  -0.9590 
 13 C       -1.9840     1.3730    -0.6790 C.ar  1 <1>  -0.1500 
 14 C       -1.1790     1.6800     1.5510 C.ar  1 <1>  -0.1500 
 15 C        5.8560     1.0010     0.0620 C.3   1 <1>   0.3430 
 16 C       -2.4380     0.1100    -0.3430 C.ar  1 <1>  -0.1500 
 17 C       -1.6340     0.4170     1.8900 C.ar  1 <1>  -0.1500 
 18 C        6.5090     1.4200     1.3740 C.3   1 <1>  -0.2400 
 19 C       -2.2620    -0.3700     0.9420 C.ar  1 <1>  -0.1500 
 20 H       -0.7490     3.6860    -2.2310 H     1 <1>   0.0800 
 21 H        0.5710     4.4890    -1.4640 H     1 <1>   0.0800 
 22 H        1.7390    -0.0090    -1.7140 H     1 <1>   0.0800 
 23 H        1.8190    -0.0260     0.0160 H     1 <1>   0.0800 
 24 H        2.0390     2.3910     1.2270 H     1 <1>   0.0800 
 25 H        2.1450     3.7600     0.1560 H     1 <1>   0.0800 
 26 H       -0.1440     3.8640     0.6890 H     1 <1>   0.0800 
 27 H        4.0140     0.7890    -1.8990 H     1 <1>   0.0800 
 28 H        3.9870    -0.6550    -0.9230 H     1 <1>   0.0800 
 29 H        4.3660     3.0790     1.0420 H     1 <1>   0.0800 
 30 H        4.2760     3.0710    -0.6950 H     1 <1>   0.0800 
 31 H       -2.6960     4.3010    -0.8550 H     1 <1>   0.0800 
 32 H       -1.6160     5.5580    -0.2950 H     1 <1>   0.0800 
 33 H       -2.4730     4.5590     0.8540 H     1 <1>   0.0800 
 34 H        4.0850     0.6940     1.0530 H     1 <1>   0.4500 
 35 H       -2.1320     1.7280    -1.6850 H     1 <1>   0.1500 
 36 H       -0.7030     2.2810     2.3040 H     1 <1>   0.1500 
 37 H        6.2270     1.6070    -0.7490 H     1 <1>   0.0800 
 38 H        6.1140    -0.0270    -0.1400 H     1 <1>   0.0800 
 39 H       -2.9290    -0.4970    -1.0830 H     1 <1>   0.1500 
 40 H       -1.5070     0.0490     2.8930 H     1 <1>   0.1500 
 41 H        6.3630     2.4670     1.5730 H     1 <1>   0.0800 
 42 H        7.5690     1.2480     1.3080 H     1 <1>   0.0800 
 43 H        6.1320     0.8370     2.1950 H     1 <1>   0.0800 
 44 H       -2.6190    -1.3510     1.2030 H     1 <1>   0.1500 
@<TRIPOS>BOND
  1   1   2  2   
  2   2   3  am  
  3   2   4  1   
  4   3   5  1   
  5   3   6  1   
  6   4   7  1   
  7   4  20  1   
  8   4  21  1   
  9   5   8  1   
 10   5  22  1   
 11   5  23  1   
 12   6   9  1   
 13   6  24  1   
 14   6  25  1   
 15   7  10  1   
 16   7  11  1   
 17   7  26  1   
 18   8  12  1   
 19   8  27  1   
 20   8  28  1   
 21   9  12  1   
 22   9  29  1   
 23   9  30  1   
 24  10  13  ar  
 25  10  14  ar  
 26  11  31  1   
 27  11  32  1   
 28  11  33  1   
 29  12  15  1   
 30  12  34  1   
 31  13  16  ar  
 32  13  35  1   
 33  14  17  ar  
 34  14  36  1   
 35  15  18  1   
 36  15  37  1   
 37  15  38  1   
 38  16  19  ar  
 39  16  39  1   
 40  17  19  ar  
 41  17  40  1   
 42  18  41  1   
 43  18  42  1   
 44  18  43  1   
 45  19  44  1   
@<TRIPOS>SUBSTRUCTURE
  1 ****   3 GROUP 4 **** **** 0

# MOE 2024.06 (io_trps.svl 2023.06)
