@<TRIPOS>MOLECULE
NONAME
35 36 1 0 0 
SMALL
USER_CHARGES


@<TRIPOS>ATOM
  1 O       -0.0230     0.8370    -1.2650 O.2   1 <1>  -0.5700 
  2 C        0.1400     1.7630    -0.5080 C.2   1 <1>   0.5690 
  3 N        1.3470     2.0780     0.0560 N.am  1 <1>  -0.5470 
  4 C       -1.0510     2.6570    -0.1600 C.3   1 <1>  -0.0190 
  5 C        2.6120     1.4730    -0.0390 C.ar  1 <1>   0.1170 
  6 C       -2.2180     1.8440     0.4350 C.3   1 <1>  -0.1600 
  7 C       -1.5230     3.4590    -1.3890 C.3   1 <1>  -0.1600 
  8 C        3.7570     2.2240     0.2430 C.ar  1 <1>  -0.1440 
  9 C        2.7630     0.1330    -0.3860 C.ar  1 <1>  -0.1500 
 10 C       -3.4150     2.7420     0.7750 C.3   1 <1>  -0.1600 
 11 C       -2.7210     4.3570    -1.0510 C.3   1 <1>  -0.1600 
 12 C        5.0080     1.6320     0.1700 C.ar  1 <1>  -0.1500 
 13 C        3.6650     3.6970     0.6270 C.3   1 <1>  -0.0970 
 14 C        4.0140    -0.4500    -0.4590 C.ar  1 <1>  -0.1500 
 15 C       -3.8740     3.5410    -0.4520 C.3   1 <1>  -0.1600 
 16 C        5.1400     0.3010    -0.1800 C.ar  1 <1>  -0.1500 
 17 H        1.3490     2.9310     0.6070 H     1 <1>   0.3700 
 18 H       -0.7350     3.3610     0.5880 H     1 <1>   0.0800 
 19 H       -1.8860     1.3330     1.3220 H     1 <1>   0.0800 
 20 H       -2.5280     1.0960    -0.2760 H     1 <1>   0.0800 
 21 H       -1.8040     2.7720    -2.1700 H     1 <1>   0.0800 
 22 H       -0.7140     4.0620    -1.7610 H     1 <1>   0.0800 
 23 H        1.8990    -0.4670    -0.6000 H     1 <1>   0.1500 
 24 H       -3.1420     3.4230     1.5630 H     1 <1>   0.0800 
 25 H       -4.2290     2.1350     1.1330 H     1 <1>   0.0800 
 26 H       -3.0600     4.8550    -1.9430 H     1 <1>   0.0800 
 27 H       -2.4170     5.1130    -0.3470 H     1 <1>   0.0800 
 28 H        5.8950     2.2030     0.3840 H     1 <1>   0.1500 
 29 H        3.1350     4.2440    -0.1330 H     1 <1>   0.0800 
 30 H        4.6440     4.1300     0.7270 H     1 <1>   0.0800 
 31 H        3.1530     3.8020     1.5660 H     1 <1>   0.0800 
 32 H        4.1080    -1.4860    -0.7320 H     1 <1>   0.1500 
 33 H       -4.6780     4.2010    -0.1740 H     1 <1>   0.0800 
 34 H       -4.2500     2.8600    -1.1970 H     1 <1>   0.0800 
 35 H        6.1160    -0.1500    -0.2350 H     1 <1>   0.1500 
@<TRIPOS>BOND
  1   1   2  2   
  2   2   3  am  
  3   2   4  1   
  4   3   5  1   
  5   3  17  1   
  6   4   6  1   
  7   4   7  1   
  8   4  18  1   
  9   5   8  ar  
 10   5   9  ar  
 11   6  10  1   
 12   6  19  1   
 13   6  20  1   
 14   7  11  1   
 15   7  21  1   
 16   7  22  1   
 17   8  12  ar  
 18   8  13  1   
 19   9  14  ar  
 20   9  23  1   
 21  10  15  1   
 22  10  24  1   
 23  10  25  1   
 24  11  15  1   
 25  11  26  1   
 26  11  27  1   
 27  12  16  ar  
 28  12  28  1   
 29  13  29  1   
 30  13  30  1   
 31  13  31  1   
 32  14  16  ar  
 33  14  32  1   
 34  15  33  1   
 35  15  34  1   
 36  16  35  1   
@<TRIPOS>SUBSTRUCTURE
  1 ****   3 GROUP 4 **** **** 0

# MOE 2024.06 (io_trps.svl 2023.06)
