@<TRIPOS>MOLECULE
NONAME
33 34 1 0 0 
SMALL
USER_CHARGES


@<TRIPOS>ATOM
  1 BR       1.2950    -2.2080     3.6820 Br    1 <1>  -0.1110 
  2 C        2.5040    -1.7390     2.2580 C.ar  1 <1>   0.1110 
  3 C        2.8730    -2.7130     1.3500 C.ar  1 <1>  -0.1500 
  4 C        2.9710    -0.4410     2.1820 C.ar  1 <1>  -0.1500 
  5 C        3.7420    -2.3750     0.3270 C.ar  1 <1>  -0.1500 
  6 C        3.8410    -0.1140     1.1560 C.ar  1 <1>  -0.1500 
  7 C        4.2320    -1.0710     0.2290 C.ar  1 <1>   0.0830 
  8 O        5.0920    -0.6510    -0.7350 O.3   1 <1>  -0.3630 
  9 C        5.6250    -1.5300    -1.7170 C.3   1 <1>   0.2610 
 10 C        6.5710    -2.5990    -1.1280 C.2   1 <1>   0.5690 
 11 C        6.3020    -0.6630    -2.7850 C.3   1 <1>  -0.2400 
 12 O        6.3910    -3.7400    -1.4950 O.2   1 <1>  -0.5700 
 13 N        7.5840    -2.3060    -0.2460 N.am  1 <1>  -0.6600 
 14 C        7.8880    -0.9900     0.3640 C.3   1 <1>   0.1400 
 15 C        8.5020    -3.3470     0.2630 C.3   1 <1>   0.1400 
 16 C        8.9330    -1.2850     1.4340 C.3   1 <1>  -0.1600 
 17 C        9.6050    -2.5770     0.9780 C.3   1 <1>  -0.1600 
 18 H        2.4880    -3.7130     1.4420 H     1 <1>   0.1500 
 19 H        2.6620     0.2910     2.9060 H     1 <1>   0.1500 
 20 H        4.0220    -3.1400    -0.3740 H     1 <1>   0.1500 
 21 H        4.2220     0.8880     1.0680 H     1 <1>   0.1500 
 22 H        4.7930    -2.0320    -2.1770 H     1 <1>   0.0800 
 23 H        7.1180    -0.1080    -2.3620 H     1 <1>   0.0800 
 24 H        5.5880     0.0170    -3.2120 H     1 <1>   0.0800 
 25 H        6.6860    -1.2930    -3.5670 H     1 <1>   0.0800 
 26 H        7.0120    -0.5470     0.8020 H     1 <1>   0.0800 
 27 H        8.2970    -0.3350    -0.3850 H     1 <1>   0.0800 
 28 H        8.8900    -3.9460    -0.5440 H     1 <1>   0.0800 
 29 H        7.9670    -3.9750     0.9540 H     1 <1>   0.0800 
 30 H        8.4330    -1.4470     2.3730 H     1 <1>   0.0800 
 31 H        9.6320    -0.4750     1.5460 H     1 <1>   0.0800 
 32 H       10.3880    -2.3550     0.2750 H     1 <1>   0.0800 
 33 H       10.0170    -3.1390     1.7980 H     1 <1>   0.0800 
@<TRIPOS>BOND
  1   1   2  1   
  2   2   3  ar  
  3   2   4  ar  
  4   3   5  ar  
  5   3  18  1   
  6   4   6  ar  
  7   4  19  1   
  8   5   7  ar  
  9   5  20  1   
 10   6   7  ar  
 11   6  21  1   
 12   7   8  1   
 13   8   9  1   
 14   9  10  1   
 15   9  11  1   
 16   9  22  1   
 17  10  12  2   
 18  10  13  am  
 19  11  23  1   
 20  11  24  1   
 21  11  25  1   
 22  13  14  1   
 23  13  15  1   
 24  14  16  1   
 25  14  26  1   
 26  14  27  1   
 27  15  17  1   
 28  15  28  1   
 29  15  29  1   
 30  16  17  1   
 31  16  30  1   
 32  16  31  1   
 33  17  32  1   
 34  17  33  1   
@<TRIPOS>SUBSTRUCTURE
  1 ****   7 GROUP 4 **** **** 0

# MOE 2024.06 (io_trps.svl 2023.06)
