@<TRIPOS>MOLECULE
NONAME
35 36 1 0 0 
SMALL
USER_CHARGES


@<TRIPOS>ATOM
  1 S       -0.6700    -2.4440     0.1170 S.3   1 <1>  -0.2860 
  2 C       -2.1150    -1.3970    -0.0600 C.2   1 <1>   0.2420 
  3 C        0.7320    -1.2580     0.3270 C.3   1 <1>   0.1500 
  4 N       -2.0610    -0.1130    -0.0420 N.2   1 <1>  -0.5650 
  5 N       -3.3500    -1.9400    -0.2080 N.pl3 1 <1>   0.0480 
  6 C        2.0010    -1.9720    -0.1610 C.3   1 <1>  -0.1600 
  7 C        0.7740    -0.8630     1.8070 C.3   1 <1>  -0.2400 
  8 C       -3.3660     0.2490    -0.1820 C.ar  1 <1>   0.2270 
  9 C       -4.1830    -0.8660    -0.2790 C.ar  1 <1>  -0.1520 
 10 C       -3.7220    -3.3650    -0.2640 C.3   1 <1>   0.1570 
 11 C        3.2400    -1.0650    -0.1590 C.3   1 <1>  -0.2400 
 12 C       -3.9240     1.5250    -0.2290 C.ar  1 <1>  -0.1500 
 13 C       -5.5680    -0.7370    -0.4100 C.ar  1 <1>  -0.1500 
 14 C       -3.9920    -3.8990     1.1280 C.2   1 <1>   0.5690 
 15 C       -5.2890     1.6600    -0.3650 C.ar  1 <1>  -0.1500 
 16 C       -6.1090     0.5290    -0.4530 C.ar  1 <1>  -0.1500 
 17 O       -5.0680    -4.3790     1.3740 O.2   1 <1>  -0.5700 
 18 N       -3.0380    -3.8580     2.0810 N.am  1 <1>  -0.8000 
 19 H        0.5180    -0.4050    -0.2940 H     1 <1>   0.0800 
 20 H        1.8320    -2.3150    -1.1670 H     1 <1>   0.0800 
 21 H        2.1890    -2.8340     0.4550 H     1 <1>   0.0800 
 22 H        0.9820    -1.7200     2.4200 H     1 <1>   0.0800 
 23 H       -0.1720    -0.4430     2.0990 H     1 <1>   0.0800 
 24 H        1.5320    -0.1200     1.9740 H     1 <1>   0.0800 
 25 H       -2.9280    -3.9280    -0.7170 H     1 <1>   0.0800 
 26 H       -4.6040    -3.4740    -0.8650 H     1 <1>   0.0800 
 27 H        3.0590    -0.1810    -0.7460 H     1 <1>   0.0800 
 28 H        4.0770    -1.5900    -0.5840 H     1 <1>   0.0800 
 29 H        3.5000    -0.7710     0.8420 H     1 <1>   0.0800 
 30 H       -3.2730     2.3760    -0.1560 H     1 <1>   0.1500 
 31 H       -6.1960    -1.6100    -0.4700 H     1 <1>   0.1500 
 32 H       -5.7360     2.6380    -0.4030 H     1 <1>   0.1500 
 33 H       -7.1730     0.6600    -0.5540 H     1 <1>   0.1500 
 34 H       -3.2470    -4.2030     3.0190 H     1 <1>   0.3700 
 35 H       -2.1180    -3.4280     1.9480 H     1 <1>   0.3700 
@<TRIPOS>BOND
  1   1   2  1   
  2   1   3  1   
  3   2   4  2   
  4   2   5  1   
  5   3   6  1   
  6   3   7  1   
  7   3  19  1   
  8   4   8  1   
  9   5   9  1   
 10   5  10  1   
 11   6  11  1   
 12   6  20  1   
 13   6  21  1   
 14   7  22  1   
 15   7  23  1   
 16   7  24  1   
 17   8   9  ar  
 18   8  12  ar  
 19   9  13  ar  
 20  10  14  1   
 21  10  25  1   
 22  10  26  1   
 23  11  27  1   
 24  11  28  1   
 25  11  29  1   
 26  12  15  ar  
 27  12  30  1   
 28  13  16  ar  
 29  13  31  1   
 30  14  17  2   
 31  14  18  am  
 32  15  16  ar  
 33  15  32  1   
 34  16  33  1   
 35  18  34  1   
 36  18  35  1   
@<TRIPOS>SUBSTRUCTURE
  1 ****   2 GROUP 4 **** **** 0

# MOE 2024.06 (io_trps.svl 2023.06)
