@<TRIPOS>MOLECULE
NONAME
45 47 1 0 0 
SMALL
USER_CHARGES


@<TRIPOS>ATOM
  1 S        0.0590     0.0770     0.0640 S.o2  1 <1>   1.4470 
  2 O       -0.0920    -0.4200     1.4150 O.2   1 <1>  -0.6500 
  3 O        0.2680    -0.8620    -1.0160 O.2   1 <1>  -0.6500 
  4 N       -1.3670     0.9200    -0.2960 N.am  1 <1>  -0.8490 
  5 C        1.3320     1.3680     0.0000 C.ar  1 <1>  -0.0090 
  6 C       -1.7640     1.8340     0.7900 C.3   1 <1>   0.1960 
  7 C       -2.4680    -0.0110    -0.5960 C.3   1 <1>   0.1960 
  8 C        1.5360     2.1110    -1.1570 C.ar  1 <1>  -0.1500 
  9 C        2.1270     1.6570     1.1030 C.ar  1 <1>  -0.1500 
 10 C       -3.0180     2.6440     0.4230 C.3   1 <1>   0.1400 
 11 C       -3.7620     0.7250    -0.9880 C.3   1 <1>   0.1400 
 12 C        2.4950     3.1070    -1.2120 C.ar  1 <1>  -0.1500 
 13 C        3.0880     2.6520     1.0550 C.ar  1 <1>  -0.1500 
 14 N       -4.1470     1.7420     0.0400 N.am  1 <1>  -0.6600 
 15 C        3.2780     3.3820    -0.1050 C.ar  1 <1>  -0.1430 
 16 C       -5.4150     1.9120     0.5510 C.2   1 <1>   0.5690 
 17 C        4.3310     4.4740    -0.1630 C.3   1 <1>  -0.0970 
 18 O       -5.6280     2.7760     1.3750 O.2   1 <1>  -0.5700 
 19 C       -6.5900     1.0000     0.1070 C.3   1 <1>   0.2610 
 20 O       -6.7790     1.0460    -1.2830 O.3   1 <1>  -0.5600 
 21 C       -7.9700     1.3830     0.6460 C.3   1 <1>  -0.1600 
 22 C       -7.6050     2.1180    -1.6130 C.3   1 <1>   0.1200 
 23 C       -8.4910     2.3630    -0.3940 C.3   1 <1>  -0.1600 
 24 H       -0.9620     2.5230     0.9960 H     1 <1>   0.0800 
 25 H       -1.9630     1.2780     1.6920 H     1 <1>   0.0800 
 26 H       -2.6610    -0.6360     0.2610 H     1 <1>   0.0800 
 27 H       -2.1850    -0.6530    -1.4130 H     1 <1>   0.0800 
 28 H        0.9330     1.9030    -2.0250 H     1 <1>   0.1500 
 29 H        1.9940     1.0960     2.0140 H     1 <1>   0.1500 
 30 H       -2.7910     3.2930    -0.4050 H     1 <1>   0.0800 
 31 H       -3.2930     3.2620     1.2600 H     1 <1>   0.0800 
 32 H       -4.5400    -0.0040    -1.1220 H     1 <1>   0.0800 
 33 H       -3.6130     1.2210    -1.9310 H     1 <1>   0.0800 
 34 H        2.6300     3.6650    -2.1230 H     1 <1>   0.1500 
 35 H        3.6880     2.8530     1.9260 H     1 <1>   0.1500 
 36 H        4.7360     4.5530    -1.1560 H     1 <1>   0.0800 
 37 H        5.1380     4.2560     0.5140 H     1 <1>   0.0800 
 38 H        3.8940     5.4170     0.1100 H     1 <1>   0.0800 
 39 H       -6.3550    -0.0130     0.3790 H     1 <1>   0.0800 
 40 H       -7.9350     1.8020     1.6360 H     1 <1>   0.0800 
 41 H       -8.5890     0.5040     0.6650 H     1 <1>   0.0800 
 42 H       -8.1760     1.8560    -2.4870 H     1 <1>   0.0800 
 43 H       -6.9810     2.9720    -1.8180 H     1 <1>   0.0800 
 44 H       -8.3690     3.3790    -0.0590 H     1 <1>   0.0800 
 45 H       -9.5280     2.1890    -0.6210 H     1 <1>   0.0800 
@<TRIPOS>BOND
  1   1   2  2   
  2   1   3  2   
  3   1   4  am  
  4   1   5  1   
  5   4   6  1   
  6   4   7  1   
  7   5   8  ar  
  8   5   9  ar  
  9   6  10  1   
 10   6  24  1   
 11   6  25  1   
 12   7  11  1   
 13   7  26  1   
 14   7  27  1   
 15   8  12  ar  
 16   8  28  1   
 17   9  13  ar  
 18   9  29  1   
 19  10  14  1   
 20  10  30  1   
 21  10  31  1   
 22  11  14  1   
 23  11  32  1   
 24  11  33  1   
 25  12  15  ar  
 26  12  34  1   
 27  13  15  ar  
 28  13  35  1   
 29  14  16  am  
 30  15  17  1   
 31  16  18  2   
 32  16  19  1   
 33  17  36  1   
 34  17  37  1   
 35  17  38  1   
 36  19  20  1   
 37  19  21  1   
 38  19  39  1   
 39  20  22  1   
 40  21  23  1   
 41  21  40  1   
 42  21  41  1   
 43  22  23  1   
 44  22  42  1   
 45  22  43  1   
 46  23  44  1   
 47  23  45  1   
@<TRIPOS>SUBSTRUCTURE
  1 ****   6 GROUP 4 **** **** 0

# MOE 2024.06 (io_trps.svl 2023.06)
