@<TRIPOS>MOLECULE
NONAME
52 54 1 0 0 
SMALL
USER_CHARGES


@<TRIPOS>ATOM
  1 S        0.0010     0.0070    -1.1350 S.o2  1 <1>   1.4470 
  2 O       -1.1970     0.6980    -0.7180 O.2   1 <1>  -0.6500 
  3 O        0.4170     0.0540    -2.5200 O.2   1 <1>  -0.6500 
  4 N        1.2740     0.7430    -0.2830 N.am  1 <1>  -0.8490 
  5 C        0.0130    -1.6920    -0.5020 C.ar  1 <1>  -0.0090 
  6 C        1.2160     2.2090    -0.4330 C.3   1 <1>   0.1960 
  7 C        2.5920     0.2150    -0.6850 C.3   1 <1>   0.1960 
  8 C        0.3960    -2.7600    -1.3050 C.ar  1 <1>  -0.1500 
  9 C       -0.3330    -1.9630     0.8160 C.ar  1 <1>  -0.1500 
 10 C        2.3380     2.9120     0.3570 C.3   1 <1>   0.3430 
 11 C        3.7380     0.8740     0.1140 C.3   1 <1>   0.3430 
 12 C        0.4410    -4.0510    -0.8080 C.ar  1 <1>  -0.1500 
 13 C       -0.2910    -3.2520     1.3190 C.ar  1 <1>  -0.1500 
 14 N        3.7050     2.3740     0.0130 N.4   1 <1>  -0.9590 
 15 C        0.0980    -4.3030     0.5090 C.ar  1 <1>  -0.1430 
 16 C        4.7670     3.0120     0.8380 C.3   1 <1>   0.4860 
 17 C        0.1450    -5.7180     1.0580 C.3   1 <1>  -0.0970 
 18 C        4.7690     4.4970     0.5400 C.ar  1 <1>  -0.1430 
 19 C        4.2440     5.3940     1.4590 C.ar  1 <1>  -0.1500 
 20 C        5.2860     4.9720    -0.6570 C.ar  1 <1>  -0.1500 
 21 C        4.2210     6.7480     1.1750 C.ar  1 <1>  -0.1500 
 22 C        5.2600     6.3270    -0.9360 C.ar  1 <1>  -0.1500 
 23 C        4.7250     7.2210    -0.0250 C.ar  1 <1>  -0.1430 
 24 C        4.7000     8.7100    -0.3340 C.3   1 <1>  -0.0170 
 25 C        5.9820     9.3820     0.1630 C.3   1 <1>  -0.2400 
 26 H        0.2700     2.5710    -0.0660 H     1 <1>   0.0800 
 27 H        1.2830     2.4770    -1.4760 H     1 <1>   0.0800 
 28 H        2.7560     0.3780    -1.7380 H     1 <1>   0.0800 
 29 H        2.6210    -0.8480    -0.5110 H     1 <1>   0.0800 
 30 H        0.6600    -2.5850    -2.3350 H     1 <1>   0.1500 
 31 H       -0.6430    -1.1550     1.4580 H     1 <1>   0.1500 
 32 H        2.1470     2.7720     1.4080 H     1 <1>   0.0800 
 33 H        2.2980     3.9710     0.1550 H     1 <1>   0.0800 
 34 H        4.6810     0.5010    -0.2510 H     1 <1>   0.0800 
 35 H        3.6400     0.5770     1.1450 H     1 <1>   0.0800 
 36 H        0.7410    -4.8600    -1.4520 H     1 <1>   0.1500 
 37 H       -0.5660    -3.4330     2.3450 H     1 <1>   0.1500 
 38 H        3.8910     2.6490    -0.9600 H     1 <1>   0.4500 
 39 H        5.7320     2.5990     0.5920 H     1 <1>   0.0800 
 40 H        4.5790     2.8470     1.8870 H     1 <1>   0.0800 
 41 H        1.1100    -5.9080     1.4930 H     1 <1>   0.0800 
 42 H       -0.0290    -6.4330     0.2740 H     1 <1>   0.0800 
 43 H       -0.6090    -5.8530     1.8120 H     1 <1>   0.0800 
 44 H        3.8510     5.0590     2.4040 H     1 <1>   0.1500 
 45 H        5.7180     4.3060    -1.3840 H     1 <1>   0.1500 
 46 H        3.8140     7.4390     1.8940 H     1 <1>   0.1500 
 47 H        5.6650     6.6900    -1.8660 H     1 <1>   0.1500 
 48 H        3.8480     9.1670     0.1390 H     1 <1>   0.0800 
 49 H        4.6020     8.8610    -1.3950 H     1 <1>   0.0800 
 50 H        6.0810     9.2550     1.2260 H     1 <1>   0.0800 
 51 H        5.9580    10.4340    -0.0590 H     1 <1>   0.0800 
 52 H        6.8400     8.9470    -0.3180 H     1 <1>   0.0800 
@<TRIPOS>BOND
  1   1   2  2   
  2   1   3  2   
  3   1   4  am  
  4   1   5  1   
  5   4   6  1   
  6   4   7  1   
  7   5   8  ar  
  8   5   9  ar  
  9   6  10  1   
 10   6  26  1   
 11   6  27  1   
 12   7  11  1   
 13   7  28  1   
 14   7  29  1   
 15   8  12  ar  
 16   8  30  1   
 17   9  13  ar  
 18   9  31  1   
 19  10  14  1   
 20  10  32  1   
 21  10  33  1   
 22  11  14  1   
 23  11  34  1   
 24  11  35  1   
 25  12  15  ar  
 26  12  36  1   
 27  13  15  ar  
 28  13  37  1   
 29  14  16  1   
 30  14  38  1   
 31  15  17  1   
 32  16  18  1   
 33  16  39  1   
 34  16  40  1   
 35  17  41  1   
 36  17  42  1   
 37  17  43  1   
 38  18  19  ar  
 39  18  20  ar  
 40  19  21  ar  
 41  19  44  1   
 42  20  22  ar  
 43  20  45  1   
 44  21  23  ar  
 45  21  46  1   
 46  22  23  ar  
 47  22  47  1   
 48  23  24  1   
 49  24  25  1   
 50  24  48  1   
 51  24  49  1   
 52  25  50  1   
 53  25  51  1   
 54  25  52  1   
@<TRIPOS>SUBSTRUCTURE
  1 ****   6 GROUP 4 **** **** 0

# MOE 2024.06 (io_trps.svl 2023.06)
