@<TRIPOS>MOLECULE
NONAME
46 49 1 0 0 
SMALL
USER_CHARGES


@<TRIPOS>ATOM
  1 O       -0.0130    -2.9630    -1.2730 O.2   1 <1>  -0.5700 
  2 C       -0.5150    -3.7820    -0.5390 C.2   1 <1>   0.5690 
  3 N       -1.6830    -3.5690     0.1300 N.am  1 <1>  -0.7300 
  4 C        0.2420    -5.1110    -0.3660 C.3   1 <1>   0.4040 
  5 C       -2.5380    -2.3640     0.0920 C.3   1 <1>   0.3000 
  6 N        1.7180    -4.9900    -0.6670 N.4   1 <1>  -0.9590 
  7 C       -3.7410    -2.6250     1.0200 C.3   1 <1>  -0.1600 
  8 C       -3.0590    -2.1040    -1.3350 C.3   1 <1>  -0.1600 
  9 C       -1.7740    -1.1290     0.6060 C.3   1 <1>  -0.1600 
 10 C        2.4560    -6.2670    -0.7820 C.3   1 <1>   0.3430 
 11 C        2.4540    -4.1490     0.3060 C.3   1 <1>   0.3430 
 12 C       -4.6830    -1.4060     1.0310 C.3   1 <1>  -0.0800 
 13 C       -3.9920    -0.8760    -1.3370 C.3   1 <1>  -0.0800 
 14 C       -2.7030     0.1010     0.6080 C.3   1 <1>  -0.0800 
 15 C        3.9180    -5.8710    -0.6180 C.3   1 <1>  -0.1600 
 16 C        3.9160    -4.4980     0.0630 C.3   1 <1>  -0.1600 
 17 C       -5.1850    -1.1430    -0.4010 C.3   1 <1>  -0.1600 
 18 C       -3.9060    -0.1730     1.5300 C.3   1 <1>  -0.1600 
 19 C       -3.2120     0.3510    -0.8250 C.3   1 <1>  -0.1600 
 20 H       -2.0910    -4.2930     0.7220 H     1 <1>   0.3700 
 21 H       -0.2000    -5.8260    -1.0380 H     1 <1>   0.0800 
 22 H        0.1030    -5.4630     0.6400 H     1 <1>   0.0800 
 23 H        1.7790    -4.4810    -1.5650 H     1 <1>   0.4500 
 24 H       -3.3990    -2.8120     2.0220 H     1 <1>   0.0800 
 25 H       -4.2890    -3.4860     0.6790 H     1 <1>   0.0800 
 26 H       -2.2390    -1.9130    -2.0020 H     1 <1>   0.0800 
 27 H       -3.5960    -2.9630    -1.6950 H     1 <1>   0.0800 
 28 H       -0.9320    -0.9210    -0.0280 H     1 <1>   0.0800 
 29 H       -1.4120    -1.3060     1.6030 H     1 <1>   0.0800 
 30 H        2.2770    -6.7490    -1.7310 H     1 <1>   0.0800 
 31 H        2.1710    -6.9300     0.0190 H     1 <1>   0.0800 
 32 H        2.1800    -4.4220     1.3120 H     1 <1>   0.0800 
 33 H        2.2590    -3.0990     0.1490 H     1 <1>   0.0800 
 34 H       -5.5210    -1.5960     1.6810 H     1 <1>   0.0800 
 35 H       -4.3470    -0.6900    -2.3370 H     1 <1>   0.0800 
 36 H       -2.1650     0.9650     0.9590 H     1 <1>   0.0800 
 37 H        4.3900    -5.8100    -1.5830 H     1 <1>   0.0800 
 38 H        4.4400    -6.6070    -0.0300 H     1 <1>   0.0800 
 39 H        4.4600    -4.5090     0.9920 H     1 <1>   0.0800 
 40 H        4.3600    -3.7590    -0.5820 H     1 <1>   0.0800 
 41 H       -5.8460    -0.2930    -0.4040 H     1 <1>   0.0800 
 42 H       -5.7450    -1.9910    -0.7550 H     1 <1>   0.0800 
 43 H       -4.5560     0.6850     1.5440 H     1 <1>   0.0800 
 44 H       -3.5650    -0.3370     2.5380 H     1 <1>   0.0800 
 45 H       -3.8510     1.2180    -0.8380 H     1 <1>   0.0800 
 46 H       -2.3800     0.5530    -1.4780 H     1 <1>   0.0800 
@<TRIPOS>BOND
  1   1   2  2   
  2   2   3  am  
  3   2   4  1   
  4   3   5  1   
  5   3  20  1   
  6   4   6  1   
  7   4  21  1   
  8   4  22  1   
  9   5   7  1   
 10   5   8  1   
 11   5   9  1   
 12   6  10  1   
 13   6  11  1   
 14   6  23  1   
 15   7  12  1   
 16   7  24  1   
 17   7  25  1   
 18   8  13  1   
 19   8  26  1   
 20   8  27  1   
 21   9  14  1   
 22   9  28  1   
 23   9  29  1   
 24  10  15  1   
 25  10  30  1   
 26  10  31  1   
 27  11  16  1   
 28  11  32  1   
 29  11  33  1   
 30  12  17  1   
 31  12  18  1   
 32  12  34  1   
 33  13  17  1   
 34  13  19  1   
 35  13  35  1   
 36  14  18  1   
 37  14  19  1   
 38  14  36  1   
 39  15  16  1   
 40  15  37  1   
 41  15  38  1   
 42  16  39  1   
 43  16  40  1   
 44  17  41  1   
 45  17  42  1   
 46  18  43  1   
 47  18  44  1   
 48  19  45  1   
 49  19  46  1   
@<TRIPOS>SUBSTRUCTURE
  1 ****   3 GROUP 4 **** **** 0

# MOE 2024.06 (io_trps.svl 2023.06)
