@<TRIPOS>MOLECULE
NONAME
42 43 1 0 0 
SMALL
USER_CHARGES


@<TRIPOS>ATOM
  1 O       -2.6940     0.5240    -1.6670 O.3   1 <1>  -0.5600 
  2 C       -2.5590    -0.0030    -0.3790 C.3   1 <1>   0.1200 
  3 C       -4.0070     0.5730    -2.1490 C.3   1 <1>   0.1200 
  4 C       -3.3650     0.8360     0.6320 C.3   1 <1>   0.3430 
  5 C       -4.8830     1.4400    -1.2260 C.3   1 <1>   0.3430 
  6 N       -4.7990     0.9770     0.2060 N.4   1 <1>  -0.9590 
  7 C       -5.5950     1.8650     1.1150 C.3   1 <1>   0.3430 
  8 C       -7.0500     1.3880     1.2600 C.3   1 <1>   0.1200 
  9 O       -7.5120     0.8690     0.0310 O.3   1 <1>  -0.3630 
 10 C       -8.8080     0.4890     0.0080 C.ar  1 <1>   0.0830 
 11 C       -9.1440    -0.8260     0.3170 C.ar  1 <1>  -0.1430 
 12 C       -9.7900     1.4150    -0.3340 C.ar  1 <1>  -0.1430 
 13 C      -10.4790    -1.1950     0.3160 C.ar  1 <1>  -0.1500 
 14 C       -8.0900    -1.8720     0.6500 C.3   1 <1>  -0.0970 
 15 C      -11.1170     1.0190    -0.3280 C.ar  1 <1>  -0.1500 
 16 C       -9.4510     2.8480    -0.7220 C.3   1 <1>  -0.0970 
 17 C      -11.4680    -0.2790     0.0010 C.ar  1 <1>  -0.1430 
 18 C      -12.9270    -0.6990     0.0040 C.3   1 <1>  -0.0970 
 19 H       -1.5120     0.0170    -0.1270 H     1 <1>   0.0800 
 20 H       -2.8890    -1.0280    -0.3870 H     1 <1>   0.0800 
 21 H       -4.3910    -0.4300    -2.2200 H     1 <1>   0.0800 
 22 H       -3.9770     0.9980    -3.1370 H     1 <1>   0.0800 
 23 H       -2.9080     1.8100     0.7020 H     1 <1>   0.0800 
 24 H       -3.3110     0.3720     1.6030 H     1 <1>   0.0800 
 25 H       -5.9040     1.4010    -1.5690 H     1 <1>   0.0800 
 26 H       -4.5470     2.4610    -1.3010 H     1 <1>   0.0800 
 27 H       -5.2490     0.0500     0.2260 H     1 <1>   0.4500 
 28 H       -5.5880     2.8730     0.7350 H     1 <1>   0.0800 
 29 H       -5.1480     1.8880     2.0950 H     1 <1>   0.0800 
 30 H       -7.6880     2.2020     1.5580 H     1 <1>   0.0800 
 31 H       -7.1190     0.6100     1.9990 H     1 <1>   0.0800 
 32 H      -10.7580    -2.2060     0.5590 H     1 <1>   0.1500 
 33 H       -7.7420    -1.7360     1.6570 H     1 <1>   0.0800 
 34 H       -7.2620    -1.7950    -0.0300 H     1 <1>   0.0800 
 35 H       -8.5000    -2.8630     0.5630 H     1 <1>   0.0800 
 36 H      -11.8890     1.7250    -0.5830 H     1 <1>   0.1500 
 37 H       -9.3020     3.4420     0.1610 H     1 <1>   0.0800 
 38 H      -10.2510     3.2830    -1.2950 H     1 <1>   0.0800 
 39 H       -8.5610     2.8740    -1.3230 H     1 <1>   0.0800 
 40 H      -13.0940    -1.4710     0.7330 H     1 <1>   0.0800 
 41 H      -13.1990    -1.0710    -0.9670 H     1 <1>   0.0800 
 42 H      -13.5590     0.1370     0.2460 H     1 <1>   0.0800 
@<TRIPOS>BOND
  1   1   2  1   
  2   1   3  1   
  3   2   4  1   
  4   2  19  1   
  5   2  20  1   
  6   3   5  1   
  7   3  21  1   
  8   3  22  1   
  9   4   6  1   
 10   4  23  1   
 11   4  24  1   
 12   5   6  1   
 13   5  25  1   
 14   5  26  1   
 15   6   7  1   
 16   6  27  1   
 17   7   8  1   
 18   7  28  1   
 19   7  29  1   
 20   8   9  1   
 21   8  30  1   
 22   8  31  1   
 23   9  10  1   
 24  10  11  ar  
 25  10  12  ar  
 26  11  13  ar  
 27  11  14  1   
 28  12  15  ar  
 29  12  16  1   
 30  13  17  ar  
 31  13  32  1   
 32  14  33  1   
 33  14  34  1   
 34  14  35  1   
 35  15  17  ar  
 36  15  36  1   
 37  16  37  1   
 38  16  38  1   
 39  16  39  1   
 40  17  18  1   
 41  18  40  1   
 42  18  41  1   
 43  18  42  1   
@<TRIPOS>SUBSTRUCTURE
  1 ****   9 GROUP 4 **** **** 0

# MOE 2024.06 (io_trps.svl 2023.06)
