@<TRIPOS>MOLECULE
NONAME
53 55 1 0 0 
SMALL
USER_CHARGES


@<TRIPOS>ATOM
  1 S        1.1610     1.0790     2.1870 S.o2  1 <1>   1.3330 
  2 O        0.1580     0.0530     2.3120 O.2   1 <1>  -0.6500 
  3 O        2.2870     1.1420     3.0910 O.2   1 <1>  -0.6500 
  4 N        1.8680     0.9060     0.6230 N.am  1 <1>  -0.6930 
  5 C        0.3870     2.6830     2.1400 C.3   1 <1>  -0.1350 
  6 C        1.3980     1.5810    -0.4960 C.ar  1 <1>   0.1990 
  7 C        2.6450    -0.3430     0.4400 C.3   1 <1>   0.3390 
  8 C        2.1940     2.5310    -1.1530 C.ar  1 <1>   0.0860 
  9 C        0.1220     1.3050    -0.9820 C.ar  1 <1>  -0.1500 
 10 C        2.0190    -1.2320    -0.6230 C.ar  1 <1>  -0.1440 
 11 C        3.5050     2.8660    -0.6580 C.2   1 <1>   0.5440 
 12 C        1.6880     3.1540    -2.2940 C.ar  1 <1>  -0.1500 
 13 C       -0.3660     1.9430    -2.1030 C.ar  1 <1>  -0.1500 
 14 C        0.9540    -2.0600    -0.2980 C.ar  1 <1>  -0.1500 
 15 C        2.4990    -1.2180    -1.9250 C.ar  1 <1>  -0.1500 
 16 O        4.5200     2.5270    -1.2430 O.2   1 <1>  -0.5700 
 17 N        3.6730     3.6160     0.4810 N.am  1 <1>  -0.6600 
 18 C        0.4210     2.8690    -2.7640 C.ar  1 <1>  -0.1500 
 19 C        0.3770    -2.8660    -1.2630 C.ar  1 <1>  -0.1500 
 20 C        1.9210    -2.0240    -2.8900 C.ar  1 <1>  -0.1500 
 21 C        4.0660     5.0500     0.3070 C.3   1 <1>   0.1400 
 22 C        4.3750     2.9630     1.6390 C.3   1 <1>   0.1400 
 23 C        0.8610    -2.8490    -2.5600 C.ar  1 <1>  -0.1500 
 24 C        5.6000     5.2170     0.1530 C.3   1 <1>   0.3430 
 25 C        5.8870     3.2910     1.6820 C.3   1 <1>   0.3430 
 26 N        6.3360     3.9300     0.4010 N.4   1 <1>  -0.9590 
 27 C        7.8150     4.0530     0.2750 C.3   1 <1>   0.2630 
 28 H       -0.0280     2.9150     3.1010 H     1 <1>   0.0800 
 29 H       -0.4060     2.6950     1.4180 H     1 <1>   0.0800 
 30 H        1.1040     3.4370     1.8840 H     1 <1>   0.0800 
 31 H        2.6980    -0.8870     1.3680 H     1 <1>   0.0800 
 32 H        3.6500    -0.0900     0.1520 H     1 <1>   0.0800 
 33 H       -0.4810     0.5670    -0.4810 H     1 <1>   0.1500 
 34 H        2.2990     3.8670    -2.8190 H     1 <1>   0.1500 
 35 H       -1.3530     1.7140    -2.4690 H     1 <1>   0.1500 
 36 H        0.5670    -2.0750     0.7070 H     1 <1>   0.1500 
 37 H        3.3190    -0.5760    -2.1960 H     1 <1>   0.1500 
 38 H        0.0440     3.3600    -3.6460 H     1 <1>   0.1500 
 39 H       -0.4490    -3.5050    -1.0040 H     1 <1>   0.1500 
 40 H        2.2970    -2.0080    -3.8980 H     1 <1>   0.1500 
 41 H        3.7280     5.6130     1.1590 H     1 <1>   0.0800 
 42 H        3.5760     5.4580    -0.5610 H     1 <1>   0.0800 
 43 H        4.2650     1.8950     1.5640 H     1 <1>   0.0800 
 44 H        3.9110     3.2630     2.5630 H     1 <1>   0.0800 
 45 H        0.4120    -3.4750    -3.3100 H     1 <1>   0.1500 
 46 H        5.9420     5.9770     0.8360 H     1 <1>   0.0800 
 47 H        5.8100     5.5600    -0.8470 H     1 <1>   0.0800 
 48 H        6.4350     2.3790     1.8550 H     1 <1>   0.0800 
 49 H        6.0830     3.9530     2.5090 H     1 <1>   0.0800 
 50 H        5.9700     3.2890    -0.3430 H     1 <1>   0.4500 
 51 H        8.2040     4.7120     1.0340 H     1 <1>   0.0800 
 52 H        8.0750     4.4490    -0.6940 H     1 <1>   0.0800 
 53 H        8.2790     3.0860     0.3830 H     1 <1>   0.0800 
@<TRIPOS>BOND
  1   1   2  2   
  2   1   3  2   
  3   1   4  am  
  4   1   5  1   
  5   4   6  1   
  6   4   7  1   
  7   5  28  1   
  8   5  29  1   
  9   5  30  1   
 10   6   8  ar  
 11   6   9  ar  
 12   7  10  1   
 13   7  31  1   
 14   7  32  1   
 15   8  11  1   
 16   8  12  ar  
 17   9  13  ar  
 18   9  33  1   
 19  10  14  ar  
 20  10  15  ar  
 21  11  16  2   
 22  11  17  am  
 23  12  18  ar  
 24  12  34  1   
 25  13  18  ar  
 26  13  35  1   
 27  14  19  ar  
 28  14  36  1   
 29  15  20  ar  
 30  15  37  1   
 31  17  21  1   
 32  17  22  1   
 33  18  38  1   
 34  19  23  ar  
 35  19  39  1   
 36  20  23  ar  
 37  20  40  1   
 38  21  24  1   
 39  21  41  1   
 40  21  42  1   
 41  22  25  1   
 42  22  43  1   
 43  22  44  1   
 44  23  45  1   
 45  24  26  1   
 46  24  46  1   
 47  24  47  1   
 48  25  26  1   
 49  25  48  1   
 50  25  49  1   
 51  26  27  1   
 52  26  50  1   
 53  27  51  1   
 54  27  52  1   
 55  27  53  1   
@<TRIPOS>SUBSTRUCTURE
  1 ****   6 GROUP 4 **** **** 0

# MOE 2024.06 (io_trps.svl 2023.06)
