@<TRIPOS>MOLECULE
NONAME
37 37 1 0 0 
SMALL
USER_CHARGES


@<TRIPOS>ATOM
  1 S        0.0830    -0.2560     2.2380 S.o2  1 <1>   1.4470 
  2 O        0.0910    -1.5320     2.9120 O.2   1 <1>  -0.6500 
  3 O        0.4840     0.9430     2.9400 O.2   1 <1>  -0.6500 
  4 N        1.1640    -0.4300     0.9670 N.am  1 <1>  -0.9140 
  5 C       -1.4980    -0.0010     1.3870 C.ar  1 <1>  -0.0090 
  6 C        1.5530     0.8330     0.3430 C.3   1 <1>   0.1960 
  7 C       -2.1530     1.2250     1.4270 C.ar  1 <1>  -0.1500 
  8 C       -2.0840    -1.0240     0.6510 C.ar  1 <1>  -0.1500 
  9 C        2.3940     0.6190    -0.9400 C.3   1 <1>   0.2760 
 10 C       -3.3460     1.4240     0.7540 C.ar  1 <1>  -0.1500 
 11 C       -3.2770    -0.8320    -0.0240 C.ar  1 <1>  -0.1500 
 12 N        3.8100     0.3230    -0.7360 N.am  1 <1>  -0.9140 
 13 C        2.3600     1.8800    -1.7990 C.3   1 <1>  -0.2400 
 14 C       -3.9130     0.3950     0.0210 C.ar  1 <1>  -0.1430 
 15 S        4.2990    -1.1000     0.0040 S.o2  1 <1>   1.3330 
 16 C       -5.2230     0.6080    -0.7160 C.3   1 <1>  -0.0970 
 17 O        3.7850    -1.0670     1.3520 O.2   1 <1>  -0.6500 
 18 O        5.7230    -1.1680    -0.2000 O.2   1 <1>  -0.6500 
 19 C        3.5180    -2.3970    -0.9330 C.3   1 <1>  -0.1350 
 20 H        2.0080    -0.7910     1.4410 H     1 <1>   0.4200 
 21 H        2.0990     1.4470     1.0410 H     1 <1>   0.0800 
 22 H        0.6540     1.3610     0.0710 H     1 <1>   0.0800 
 23 H       -1.7270     2.0350     1.9940 H     1 <1>   0.1500 
 24 H       -1.5970    -1.9840     0.6080 H     1 <1>   0.1500 
 25 H        1.9410    -0.1720    -1.5140 H     1 <1>   0.0800 
 26 H       -3.8320     2.3830     0.8050 H     1 <1>   0.1500 
 27 H       -3.7080    -1.6450    -0.5840 H     1 <1>   0.1500 
 28 H        4.2390     1.0620    -0.1830 H     1 <1>   0.4200 
 29 H        2.7760     2.7180    -1.2680 H     1 <1>   0.0800 
 30 H        1.3470     2.1170    -2.0710 H     1 <1>   0.0800 
 31 H        2.9180     1.7240    -2.7060 H     1 <1>   0.0800 
 32 H       -5.3370     1.6400    -0.9950 H     1 <1>   0.0800 
 33 H       -6.0460     0.3270    -0.0840 H     1 <1>   0.0800 
 34 H       -5.2520     0.0100    -1.6100 H     1 <1>   0.0800 
 35 H        2.4510    -2.3380    -0.8410 H     1 <1>   0.0800 
 36 H        3.8380    -3.3530    -0.5670 H     1 <1>   0.0800 
 37 H        3.7870    -2.3180    -1.9670 H     1 <1>   0.0800 
@<TRIPOS>BOND
  1   1   2  2   
  2   1   3  2   
  3   1   4  am  
  4   1   5  1   
  5   4   6  1   
  6   4  20  1   
  7   5   7  ar  
  8   5   8  ar  
  9   6   9  1   
 10   6  21  1   
 11   6  22  1   
 12   7  10  ar  
 13   7  23  1   
 14   8  11  ar  
 15   8  24  1   
 16   9  12  1   
 17   9  13  1   
 18   9  25  1   
 19  10  14  ar  
 20  10  26  1   
 21  11  14  ar  
 22  11  27  1   
 23  12  15  am  
 24  12  28  1   
 25  13  29  1   
 26  13  30  1   
 27  13  31  1   
 28  14  16  1   
 29  15  17  2   
 30  15  18  2   
 31  15  19  1   
 32  16  32  1   
 33  16  33  1   
 34  16  34  1   
 35  19  35  1   
 36  19  36  1   
 37  19  37  1   
@<TRIPOS>SUBSTRUCTURE
  1 ****   4 GROUP 4 **** **** 0

# MOE 2024.06 (io_trps.svl 2023.06)
