@<TRIPOS>MOLECULE
NONAME
41 42 1 0 0 
SMALL
USER_CHARGES


@<TRIPOS>ATOM
  1 CL       1.4890     0.3340    -2.8920 Cl    1 <1>  -0.1770 
  2 C        1.9460    -1.1170    -2.0410 C.ar  1 <1>   0.1770 
  3 C        3.2300    -1.2300    -1.5460 C.ar  1 <1>  -0.1500 
  4 C        1.0170    -2.1260    -1.8790 C.ar  1 <1>  -0.1500 
  5 C        3.6240    -2.3770    -0.8540 C.ar  1 <1>   0.0860 
  6 C        1.3910    -3.2760    -1.2060 C.ar  1 <1>  -0.1500 
  7 C        4.9610    -2.5220    -0.3060 C.2   1 <1>   0.5440 
  8 C        2.6770    -3.3930    -0.7060 C.ar  1 <1>  -0.1500 
  9 O        5.4810    -3.6200    -0.2600 O.2   1 <1>  -0.5700 
 10 N        5.6260    -1.4190     0.1620 N.am  1 <1>  -0.4930 
 11 C        6.9460    -1.2930     0.6640 C.2   1 <1>   0.0630 
 12 C        7.6470    -2.0980     1.5680 C.2   1 <1>   0.1080 
 13 C        7.8010    -0.2900     0.3640 C.2   1 <1>  -0.3320 
 14 N        8.8360    -1.6400     1.8100 N.2   1 <1>  -0.7070 
 15 C        7.1380    -3.3540     2.2390 C.3   1 <1>  -0.0590 
 16 N        8.9440    -0.5320     1.0580 N.pl3 1 <1>   0.3140 
 17 C        7.5930     0.8990    -0.5670 C.3   1 <1>  -0.0600 
 18 C       10.1650     0.2810     1.1140 C.3   1 <1>   0.1570 
 19 C       10.8580     0.2610    -0.2220 C.2   1 <1>   0.6590 
 20 O       10.8360     1.2240    -0.9480 O.2   1 <1>  -0.5700 
 21 O       11.5090    -0.8520    -0.5370 O.3   1 <1>  -0.4300 
 22 C       12.2060    -1.0200    -1.7520 C.3   1 <1>   0.1200 
 23 C       13.6200    -0.4660    -1.5900 C.3   1 <1>  -0.2400 
 24 H        3.9190    -0.4240    -1.7150 H     1 <1>   0.1500 
 25 H        0.0230    -2.0130    -2.2750 H     1 <1>   0.1500 
 26 H        0.6840    -4.0780    -1.0730 H     1 <1>   0.1500 
 27 H        2.9620    -4.2940    -0.1870 H     1 <1>   0.1500 
 28 H        5.1340    -0.5330     0.0930 H     1 <1>   0.3700 
 29 H        6.0810    -3.2840     2.4080 H     1 <1>   0.0800 
 30 H        7.6350    -3.4930     3.1810 H     1 <1>   0.0800 
 31 H        7.3400    -4.2010     1.6090 H     1 <1>   0.0800 
 32 H        6.5760     0.9420    -0.9110 H     1 <1>   0.0800 
 33 H        8.2310     0.8120    -1.4280 H     1 <1>   0.0800 
 34 H        7.8170     1.8200    -0.0590 H     1 <1>   0.0800 
 35 H       10.8180    -0.1220     1.8630 H     1 <1>   0.0800 
 36 H        9.9010     1.2860     1.3750 H     1 <1>   0.0800 
 37 H       11.6710    -0.5170    -2.5410 H     1 <1>   0.0800 
 38 H       12.2360    -2.0740    -1.9660 H     1 <1>   0.0800 
 39 H       13.5880     0.5910    -1.3940 H     1 <1>   0.0800 
 40 H       14.1750    -0.6240    -2.4980 H     1 <1>   0.0800 
 41 H       14.1270    -0.9700    -0.7870 H     1 <1>   0.0800 
@<TRIPOS>BOND
  1   1   2  1   
  2   2   3  ar  
  3   2   4  ar  
  4   3   5  ar  
  5   3  24  1   
  6   4   6  ar  
  7   4  25  1   
  8   5   7  1   
  9   5   8  ar  
 10   6   8  ar  
 11   6  26  1   
 12   7   9  2   
 13   7  10  am  
 14   8  27  1   
 15  10  11  1   
 16  10  28  1   
 17  11  12  1   
 18  11  13  2   
 19  12  14  2   
 20  12  15  1   
 21  13  16  1   
 22  13  17  1   
 23  14  16  1   
 24  15  29  1   
 25  15  30  1   
 26  15  31  1   
 27  16  18  1   
 28  17  32  1   
 29  17  33  1   
 30  17  34  1   
 31  18  19  1   
 32  18  35  1   
 33  18  36  1   
 34  19  20  2   
 35  19  21  1   
 36  21  22  1   
 37  22  23  1   
 38  22  37  1   
 39  22  38  1   
 40  23  39  1   
 41  23  40  1   
 42  23  41  1   
@<TRIPOS>SUBSTRUCTURE
  1 ****  11 GROUP 4 **** **** 0

# MOE 2024.06 (io_trps.svl 2023.06)
