@<TRIPOS>MOLECULE
NONAME
38 39 1 0 0 
SMALL
USER_CHARGES


@<TRIPOS>ATOM
  1 O        0.3530     1.3350    -1.6840 O.2   1 <1>  -0.5700 
  2 C        0.1850     1.9140    -0.6280 C.2   1 <1>   0.5440 
  3 N        1.1980     1.9390     0.2940 N.am  1 <1>  -0.7300 
  4 C       -1.0840     2.5590    -0.3370 C.ar  1 <1>   0.0860 
  5 C        2.5440     1.3280     0.1790 C.3   1 <1>   0.2200 
  6 C       -1.1660     3.6940     0.4730 C.ar  1 <1>  -0.1500 
  7 C       -2.2770     2.0600    -0.8610 C.ar  1 <1>  -0.1500 
  8 C        3.3240     1.9940    -0.9750 C.3   1 <1>  -0.1600 
  9 C        2.4020    -0.1970     0.0440 C.3   1 <1>  -0.1600 
 10 C       -2.3820     4.2920     0.7580 C.ar  1 <1>  -0.1500 
 11 C       -3.4950     2.6530    -0.5820 C.ar  1 <1>  -0.1500 
 12 C        4.6600     2.6140    -0.5360 C.3   1 <1>  -0.1600 
 13 C        3.5780    -1.0050     0.6170 C.3   1 <1>  -0.1600 
 14 C       -3.5490     3.7700     0.2310 C.ar  1 <1>  -0.1500 
 15 C        5.8420     1.6340    -0.4950 C.3   1 <1>  -0.1600 
 16 C        4.9340    -0.7460    -0.0570 C.3   1 <1>  -0.1600 
 17 C        5.6990     0.4710     0.5000 C.3   1 <1>  -0.1600 
 18 H        0.9950     2.3280     1.2130 H     1 <1>   0.3700 
 19 H        3.0500     1.5290     1.1070 H     1 <1>   0.0800 
 20 H       -0.2680     4.1220     0.8790 H     1 <1>   0.1500 
 21 H       -2.2390     1.1930    -1.4980 H     1 <1>   0.1500 
 22 H        2.7260     2.7860    -1.3890 H     1 <1>   0.0800 
 23 H        3.4940     1.2950    -1.7740 H     1 <1>   0.0800 
 24 H        2.2530    -0.4580    -0.9890 H     1 <1>   0.0800 
 25 H        1.5200    -0.5070     0.5760 H     1 <1>   0.0800 
 26 H       -2.4210     5.1650     1.3850 H     1 <1>   0.1500 
 27 H       -4.4000     2.2450    -0.9990 H     1 <1>   0.1500 
 28 H        4.5470     3.0970     0.4190 H     1 <1>   0.0800 
 29 H        4.9110     3.3850    -1.2450 H     1 <1>   0.0800 
 30 H        3.3390    -2.0460     0.4840 H     1 <1>   0.0800 
 31 H        3.6550    -0.8390     1.6780 H     1 <1>   0.0800 
 32 H       -4.4960     4.2330     0.4500 H     1 <1>   0.1500 
 33 H        6.7130     2.2000    -0.2130 H     1 <1>   0.0800 
 34 H        6.0320     1.2510    -1.4830 H     1 <1>   0.0800 
 35 H        4.8090    -0.6790    -1.1240 H     1 <1>   0.0800 
 36 H        5.5450    -1.6150     0.1210 H     1 <1>   0.0800 
 37 H        5.2720     0.8190     1.4240 H     1 <1>   0.0800 
 38 H        6.6950     0.1360     0.7360 H     1 <1>   0.0800 
@<TRIPOS>BOND
  1   1   2  2   
  2   2   3  am  
  3   2   4  1   
  4   3   5  1   
  5   3  18  1   
  6   4   6  ar  
  7   4   7  ar  
  8   5   8  1   
  9   5   9  1   
 10   5  19  1   
 11   6  10  ar  
 12   6  20  1   
 13   7  11  ar  
 14   7  21  1   
 15   8  12  1   
 16   8  22  1   
 17   8  23  1   
 18   9  13  1   
 19   9  24  1   
 20   9  25  1   
 21  10  14  ar  
 22  10  26  1   
 23  11  14  ar  
 24  11  27  1   
 25  12  15  1   
 26  12  28  1   
 27  12  29  1   
 28  13  16  1   
 29  13  30  1   
 30  13  31  1   
 31  14  32  1   
 32  15  17  1   
 33  15  33  1   
 34  15  34  1   
 35  16  17  1   
 36  16  35  1   
 37  16  36  1   
 38  17  37  1   
 39  17  38  1   
@<TRIPOS>SUBSTRUCTURE
  1 ****   3 GROUP 4 **** **** 0

# MOE 2024.06 (io_trps.svl 2023.06)
