@<TRIPOS>MOLECULE
NONAME
42 43 1 0 0 
SMALL
USER_CHARGES


@<TRIPOS>ATOM
  1 S       -0.3460     1.2990    -1.9070 S.3   1 <1>  -0.0800 
  2 C       -0.4920     1.6950    -0.2060 C.2   1 <1>  -0.1400 
  3 C        1.3740     1.6020    -1.8710 C.2   1 <1>  -0.1100 
  4 C        0.7090     2.0230     0.3020 C.2   1 <1>  -0.1500 
  5 C       -1.8730     1.6330     0.4210 C.3   1 <1>   0.0200 
  6 C        1.8010     1.9660    -0.6360 C.2   1 <1>  -0.0860 
  7 C       -2.3670     0.1850     0.5350 C.3   1 <1>  -0.1600 
  8 C        3.1620     2.2710    -0.2470 C.2   1 <1>   0.7160 
  9 C       -3.7430     0.1100     1.2060 C.3   1 <1>  -0.2400 
 10 O        3.4050     2.8970     0.7670 O.2   1 <1>  -0.5700 
 11 N        4.2350     1.8000    -0.9680 N.am  1 <1>  -0.6600 
 12 C        5.5480     2.5000    -0.8540 C.3   1 <1>   0.1400 
 13 C        4.3680     0.3340    -1.2060 C.3   1 <1>   0.1400 
 14 C        6.3700     1.8810     0.2910 C.3   1 <1>   0.3430 
 15 C        5.2130    -0.3080    -0.0840 C.3   1 <1>   0.3430 
 16 N        6.5360     0.3910     0.1210 N.4   1 <1>  -0.9590 
 17 C        7.2940    -0.1820     1.2540 C.3   1 <1>   0.4810 
 18 C        7.8030    -1.5330     0.8080 C.2   1 <1>  -0.2880 
 19 C        9.0610    -1.8000     0.4440 C.2   1 <1>  -0.3000 
 20 H        1.9100     1.4810    -2.7960 H     1 <1>   0.1500 
 21 H        0.8860     2.3170     1.3230 H     1 <1>   0.1500 
 22 H       -2.5580     2.2110    -0.1750 H     1 <1>   0.0800 
 23 H       -1.8300     2.0730     1.4010 H     1 <1>   0.0800 
 24 H       -1.6580    -0.3870     1.1080 H     1 <1>   0.0800 
 25 H       -2.4280    -0.2520    -0.4470 H     1 <1>   0.0800 
 26 H       -3.7000     0.5180     2.2010 H     1 <1>   0.0800 
 27 H       -4.0630    -0.9150     1.2720 H     1 <1>   0.0800 
 28 H       -4.4710     0.6590     0.6350 H     1 <1>   0.0800 
 29 H        5.3870     3.5470    -0.6530 H     1 <1>   0.0800 
 30 H        6.0840     2.4240    -1.7840 H     1 <1>   0.0800 
 31 H        4.8310     0.1650    -2.1630 H     1 <1>   0.0800 
 32 H        3.3980    -0.1320    -1.2240 H     1 <1>   0.0800 
 33 H        5.8580     2.0880     1.2180 H     1 <1>   0.0800 
 34 H        7.3350     2.3590     0.3320 H     1 <1>   0.0800 
 35 H        5.3790    -1.3460    -0.3210 H     1 <1>   0.0800 
 36 H        4.6420    -0.2670     0.8300 H     1 <1>   0.0800 
 37 H        7.1150     0.2210    -0.7120 H     1 <1>   0.4500 
 38 H        6.6770    -0.2710     2.1340 H     1 <1>   0.0800 
 39 H        8.1370     0.4490     1.4850 H     1 <1>   0.0800 
 40 H        7.0420    -2.2960     0.8170 H     1 <1>   0.1500 
 41 H        9.4010    -2.7770     0.1350 H     1 <1>   0.1500 
 42 H        9.8680    -1.0850     0.4220 H     1 <1>   0.1500 
@<TRIPOS>BOND
  1   1   2  1   
  2   1   3  1   
  3   2   4  2   
  4   2   5  1   
  5   3   6  2   
  6   3  20  1   
  7   4   6  1   
  8   4  21  1   
  9   5   7  1   
 10   5  22  1   
 11   5  23  1   
 12   6   8  1   
 13   7   9  1   
 14   7  24  1   
 15   7  25  1   
 16   8  10  2   
 17   8  11  am  
 18   9  26  1   
 19   9  27  1   
 20   9  28  1   
 21  11  12  1   
 22  11  13  1   
 23  12  14  1   
 24  12  29  1   
 25  12  30  1   
 26  13  15  1   
 27  13  31  1   
 28  13  32  1   
 29  14  16  1   
 30  14  33  1   
 31  14  34  1   
 32  15  16  1   
 33  15  35  1   
 34  15  36  1   
 35  16  17  1   
 36  16  37  1   
 37  17  18  1   
 38  17  38  1   
 39  17  39  1   
 40  18  19  2   
 41  18  40  1   
 42  19  41  1   
 43  19  42  1   
@<TRIPOS>SUBSTRUCTURE
  1 ****   8 GROUP 4 **** **** 0

# MOE 2024.06 (io_trps.svl 2023.06)
