@<TRIPOS>MOLECULE
NONAME
42 43 1 0 0 
SMALL
USER_CHARGES


@<TRIPOS>ATOM
  1 O       -0.1330    -0.4420     0.6530 O.2   1 <1>  -0.5700 
  2 C       -0.1430    -1.4260    -0.0450 C.2   1 <1>   0.5690 
  3 N        0.9610    -1.8030    -0.7450 N.am  1 <1>  -0.7300 
  4 C       -1.3720    -2.3110    -0.1350 C.3   1 <1>   0.2420 
  5 C        2.3200    -1.2790    -0.5290 C.3   1 <1>   0.2840 
  6 C       -2.5170    -1.8500     0.6930 C.1   1 <1>   0.3570 
  7 C       -0.9170    -3.7130     0.2280 C.2   1 <1>   0.3280 
  8 C        3.1710    -2.4430    -0.0540 C.ar  1 <1>  -0.1440 
  9 N       -3.4230    -1.5500     1.3140 N.1   1 <1>  -0.5570 
 10 N       -0.6370    -4.5170    -0.7170 N.2   1 <1>  -0.5030 
 11 C       -0.7560    -4.0090     1.7240 C.3   1 <1>  -0.1790 
 12 C        3.2280    -2.7550     1.2960 C.ar  1 <1>  -0.1500 
 13 C        3.8830    -3.2150    -0.9610 C.ar  1 <1>  -0.1500 
 14 N       -0.0800    -5.7410    -0.4900 N.pl3 1 <1>  -0.4870 
 15 C        3.9900    -3.8240     1.7360 C.ar  1 <1>  -0.1500 
 16 C        4.6440    -4.2840    -0.5220 C.ar  1 <1>  -0.1500 
 17 C       -0.4800    -6.7990    -1.4550 C.3   1 <1>   0.1100 
 18 C        1.3970    -5.7420    -0.2640 C.3   1 <1>   0.1100 
 19 C        4.6990    -4.5890     0.8260 C.ar  1 <1>  -0.1500 
 20 C        0.1100    -8.1590    -1.0500 C.3   1 <1>   0.1200 
 21 C        1.8990    -7.1510     0.0830 C.3   1 <1>   0.1200 
 22 O        1.4990    -8.0710    -0.8930 O.3   1 <1>  -0.5600 
 23 H        0.9520    -2.7100    -1.2270 H     1 <1>   0.3700 
 24 H       -1.6970    -2.3050    -1.1580 H     1 <1>   0.0800 
 25 H        2.3130    -0.4930     0.2080 H     1 <1>   0.0800 
 26 H        2.7050    -0.8790    -1.4510 H     1 <1>   0.0800 
 27 H       -0.0750    -3.3060     2.1690 H     1 <1>   0.0800 
 28 H       -0.3780    -4.9980     1.9000 H     1 <1>   0.0800 
 29 H       -1.7050    -3.9390     2.2240 H     1 <1>   0.0800 
 30 H        2.6780    -2.1640     2.0080 H     1 <1>   0.1500 
 31 H        3.8490    -2.9880    -2.0130 H     1 <1>   0.1500 
 32 H        4.0330    -4.0570     2.7860 H     1 <1>   0.1500 
 33 H        5.1970    -4.8790    -1.2300 H     1 <1>   0.1500 
 34 H       -0.1320    -6.5350    -2.4380 H     1 <1>   0.0800 
 35 H       -1.5530    -6.8630    -1.4820 H     1 <1>   0.0800 
 36 H        1.6430    -5.0670     0.5350 H     1 <1>   0.0800 
 37 H        1.8930    -5.4000    -1.1540 H     1 <1>   0.0800 
 38 H        5.2950    -5.4180     1.1680 H     1 <1>   0.1500 
 39 H       -0.0880    -8.8920    -1.8120 H     1 <1>   0.0800 
 40 H       -0.3210    -8.4960    -0.1230 H     1 <1>   0.0800 
 41 H        1.5120    -7.4660     1.0360 H     1 <1>   0.0800 
 42 H        2.9730    -7.1600     0.1240 H     1 <1>   0.0800 
@<TRIPOS>BOND
  1   1   2  2   
  2   2   3  am  
  3   2   4  1   
  4   3   5  1   
  5   3  23  1   
  6   4   6  1   
  7   4   7  1   
  8   4  24  1   
  9   5   8  1   
 10   5  25  1   
 11   5  26  1   
 12   6   9  3   
 13   7  10  2   
 14   7  11  1   
 15   8  12  ar  
 16   8  13  ar  
 17  10  14  1   
 18  11  27  1   
 19  11  28  1   
 20  11  29  1   
 21  12  15  ar  
 22  12  30  1   
 23  13  16  ar  
 24  13  31  1   
 25  14  17  1   
 26  14  18  1   
 27  15  19  ar  
 28  15  32  1   
 29  16  19  ar  
 30  16  33  1   
 31  17  20  1   
 32  17  34  1   
 33  17  35  1   
 34  18  21  1   
 35  18  36  1   
 36  18  37  1   
 37  19  38  1   
 38  20  22  1   
 39  20  39  1   
 40  20  40  1   
 41  21  22  1   
 42  21  41  1   
 43  21  42  1   
@<TRIPOS>SUBSTRUCTURE
  1 ****  10 GROUP 4 **** **** 0

# MOE 2024.06 (io_trps.svl 2023.06)
