@<TRIPOS>MOLECULE
NONAME
51 53 1 0 0 
SMALL
USER_CHARGES


@<TRIPOS>ATOM
  1 O       -3.0700     0.1240     1.9490 O.3   1 <1>  -0.3630 
  2 C       -3.1290     0.8080     0.7810 C.ar  1 <1>   0.0820 
  3 C       -2.7850    -1.2580     1.8890 C.3   1 <1>   0.1200 
  4 C       -2.1110     1.6850     0.4070 C.ar  1 <1>   0.0820 
  5 C       -4.2410     0.6560    -0.0300 C.ar  1 <1>  -0.1500 
  6 C       -1.2860    -1.4650     1.6720 C.3   1 <1>  -0.2400 
  7 O       -1.0280     1.8640     1.1900 O.3   1 <1>  -0.5320 
  8 C       -2.2070     2.3850    -0.7840 C.ar  1 <1>  -0.1500 
  9 C       -4.3470     1.3720    -1.2160 C.ar  1 <1>  -0.1430 
 10 C       -3.3200     2.2280    -1.5920 C.ar  1 <1>  -0.1500 
 11 C       -5.5890     1.2380    -2.0760 C.3   1 <1>   0.4860 
 12 N       -6.7360     1.8310    -1.3430 N.4   1 <1>  -0.9590 
 13 C       -8.0660     1.6470    -2.0080 C.3   1 <1>   0.3430 
 14 C       -6.5360     3.2580    -0.9190 C.3   1 <1>   0.3430 
 15 C       -9.2120     2.1630    -1.1040 C.3   1 <1>   0.1100 
 16 C       -7.6950     3.7300    -0.0050 C.3   1 <1>   0.1100 
 17 N       -8.7120     2.6730     0.2000 N.3   1 <1>  -0.8100 
 18 C       -9.8050     3.1270     1.0820 C.3   1 <1>   0.2530 
 19 C      -10.7500     1.9760     1.3960 C.ar  1 <1>  -0.1430 
 20 C      -12.0730     2.0140     0.9800 C.ar  1 <1>  -0.1500 
 21 C      -10.2910     0.8730     2.1000 C.ar  1 <1>  -0.1500 
 22 C      -12.9250     0.9600     1.2620 C.ar  1 <1>  -0.1500 
 23 C      -11.1420    -0.1820     2.3830 C.ar  1 <1>  -0.1500 
 24 C      -12.4590    -0.1390     1.9630 C.ar  1 <1>  -0.1500 
 25 H       -3.3600    -1.7050     1.0980 H     1 <1>   0.0800 
 26 H       -3.0840    -1.6870     2.8300 H     1 <1>   0.0800 
 27 H       -5.0150    -0.0180     0.2890 H     1 <1>   0.1500 
 28 H       -0.9870    -1.0760     0.7150 H     1 <1>   0.0800 
 29 H       -1.0540    -2.5130     1.7020 H     1 <1>   0.0800 
 30 H       -0.7310    -0.9670     2.4470 H     1 <1>   0.0800 
 31 H       -0.3940     2.5110     0.8390 H     1 <1>   0.4500 
 32 H       -1.4170     3.0520    -1.0830 H     1 <1>   0.1500 
 33 H       -3.3730     2.7830    -2.5140 H     1 <1>   0.1500 
 34 H       -5.7760     0.1950    -2.2750 H     1 <1>   0.0800 
 35 H       -5.4440     1.7470    -3.0140 H     1 <1>   0.0800 
 36 H       -6.8400     1.3430    -0.4400 H     1 <1>   0.4500 
 37 H       -8.2330     0.6020    -2.2120 H     1 <1>   0.0800 
 38 H       -8.0900     2.1740    -2.9470 H     1 <1>   0.0800 
 39 H       -6.4790     3.8980    -1.7840 H     1 <1>   0.0800 
 40 H       -5.6090     3.3550    -0.3770 H     1 <1>   0.0800 
 41 H       -9.8990     1.3500    -0.9380 H     1 <1>   0.0800 
 42 H       -9.7520     2.9390    -1.6190 H     1 <1>   0.0800 
 43 H       -8.1520     4.6040    -0.4360 H     1 <1>   0.0800 
 44 H       -7.2840     4.0170     0.9490 H     1 <1>   0.0800 
 45 H      -10.3450     3.9350     0.6180 H     1 <1>   0.0800 
 46 H       -9.3920     3.4890     2.0090 H     1 <1>   0.0800 
 47 H      -12.4510     2.8620     0.4380 H     1 <1>   0.1500 
 48 H       -9.2670     0.8350     2.4270 H     1 <1>   0.1500 
 49 H      -13.9510     0.9940     0.9400 H     1 <1>   0.1500 
 50 H      -10.7800    -1.0340     2.9310 H     1 <1>   0.1500 
 51 H      -13.1220    -0.9570     2.1840 H     1 <1>   0.1500 
@<TRIPOS>BOND
  1   1   2  1   
  2   1   3  1   
  3   2   4  ar  
  4   2   5  ar  
  5   3   6  1   
  6   3  25  1   
  7   3  26  1   
  8   4   7  1   
  9   4   8  ar  
 10   5   9  ar  
 11   5  27  1   
 12   6  28  1   
 13   6  29  1   
 14   6  30  1   
 15   7  31  1   
 16   8  10  ar  
 17   8  32  1   
 18   9  10  ar  
 19   9  11  1   
 20  10  33  1   
 21  11  12  1   
 22  11  34  1   
 23  11  35  1   
 24  12  13  1   
 25  12  14  1   
 26  12  36  1   
 27  13  15  1   
 28  13  37  1   
 29  13  38  1   
 30  14  16  1   
 31  14  39  1   
 32  14  40  1   
 33  15  17  1   
 34  15  41  1   
 35  15  42  1   
 36  16  17  1   
 37  16  43  1   
 38  16  44  1   
 39  17  18  1   
 40  18  19  1   
 41  18  45  1   
 42  18  46  1   
 43  19  20  ar  
 44  19  21  ar  
 45  20  22  ar  
 46  20  47  1   
 47  21  23  ar  
 48  21  48  1   
 49  22  24  ar  
 50  22  49  1   
 51  23  24  ar  
 52  23  50  1   
 53  24  51  1   
@<TRIPOS>SUBSTRUCTURE
  1 ****  12 GROUP 4 **** **** 0

# MOE 2024.06 (io_trps.svl 2023.06)
