@<TRIPOS>MOLECULE
NONAME
33 34 1 0 0 
SMALL
USER_CHARGES


@<TRIPOS>ATOM
  1 CL       3.0920    -3.1610     0.9970 Cl    1 <1>  -0.1770 
  2 C        3.6930    -1.5490     0.6990 C.ar  1 <1>   0.1770 
  3 C        4.2240    -1.2420    -0.5410 C.ar  1 <1>  -0.1500 
  4 C        3.6300    -0.6050     1.7060 C.ar  1 <1>  -0.1500 
  5 C        4.7020     0.0360    -0.7800 C.ar  1 <1>  -0.1500 
  6 C        4.1090     0.6710     1.4650 C.ar  1 <1>  -0.1500 
  7 C        4.6470     0.9990     0.2280 C.ar  1 <1>   0.0830 
  8 O        5.0990     2.2720     0.0890 O.3   1 <1>  -0.3630 
  9 C        5.6500     2.7580    -1.1320 C.3   1 <1>   0.2610 
 10 C        7.0320     2.1470    -1.3970 C.2   1 <1>   0.5690 
 11 C        5.7210     4.2930    -1.0460 C.3   1 <1>  -0.1600 
 12 O        7.4150     2.0530    -2.5410 O.2   1 <1>  -0.5700 
 13 N        7.7790     1.7170    -0.3430 N.am  1 <1>  -0.5790 
 14 C        4.3500     4.9520    -0.8270 C.3   1 <1>  -0.2400 
 15 C        9.0960     1.0740    -0.4150 C.3   1 <1>   0.0490 
 16 C        9.3520    -0.0890     0.4850 C.3   1 <1>  -0.2000 
 17 C       10.0170     1.2290     0.7490 C.3   1 <1>  -0.2000 
 18 H        4.2610    -1.9960    -1.3060 H     1 <1>   0.1500 
 19 H        3.2110    -0.8680     2.6610 H     1 <1>   0.1500 
 20 H        5.1110     0.2510    -1.7500 H     1 <1>   0.1500 
 21 H        4.0670     1.4210     2.2360 H     1 <1>   0.1500 
 22 H        4.9830     2.4860    -1.9300 H     1 <1>   0.0800 
 23 H        6.1390     4.6650    -1.9650 H     1 <1>   0.0800 
 24 H        6.3910     4.5730    -0.2510 H     1 <1>   0.0800 
 25 H        7.3520     1.7500     0.5860 H     1 <1>   0.3700 
 26 H        3.6730     4.6860    -1.6190 H     1 <1>   0.0800 
 27 H        3.9240     4.6400     0.1110 H     1 <1>   0.0800 
 28 H        4.4550     6.0230    -0.8110 H     1 <1>   0.0800 
 29 H        9.5120     1.0600    -1.4110 H     1 <1>   0.1000 
 30 H        9.9570    -0.8990     0.1180 H     1 <1>   0.1000 
 31 H        8.5650    -0.4220     1.1380 H     1 <1>   0.1000 
 32 H        9.6980     1.8180     1.5900 H     1 <1>   0.1000 
 33 H       11.0730     1.3120     0.5610 H     1 <1>   0.1000 
@<TRIPOS>BOND
  1   1   2  1   
  2   2   3  ar  
  3   2   4  ar  
  4   3   5  ar  
  5   3  18  1   
  6   4   6  ar  
  7   4  19  1   
  8   5   7  ar  
  9   5  20  1   
 10   6   7  ar  
 11   6  21  1   
 12   7   8  1   
 13   8   9  1   
 14   9  10  1   
 15   9  11  1   
 16   9  22  1   
 17  10  12  2   
 18  10  13  am  
 19  11  14  1   
 20  11  23  1   
 21  11  24  1   
 22  13  15  1   
 23  13  25  1   
 24  14  26  1   
 25  14  27  1   
 26  14  28  1   
 27  15  16  1   
 28  15  17  1   
 29  15  29  1   
 30  16  17  1   
 31  16  30  1   
 32  16  31  1   
 33  17  32  1   
 34  17  33  1   
@<TRIPOS>SUBSTRUCTURE
  1 ****   7 GROUP 4 **** **** 0

# MOE 2024.06 (io_trps.svl 2023.06)
