@<TRIPOS>MOLECULE
NONAME
50 52 1 0 0 
SMALL
USER_CHARGES


@<TRIPOS>ATOM
  1 O        0.2140    -0.7480    -0.3490 O.2   1 <1>  -0.5700 
  2 C       -0.3610    -1.6270     0.2580 C.2   1 <1>   0.6340 
  3 O        0.1540    -2.0590     1.4130 O.3   1 <1>  -0.4300 
  4 C       -1.5960    -2.2340    -0.2100 C.ar  1 <1>   0.0860 
  5 C        1.3510    -1.5240     1.9410 C.3   1 <1>   0.0400 
  6 C       -2.2620    -3.2240     0.5170 C.ar  1 <1>  -0.1500 
  7 C       -2.1730    -1.8460    -1.4200 C.ar  1 <1>  -0.1500 
  8 C       -3.4400    -3.7890     0.0650 C.ar  1 <1>  -0.1500 
  9 C       -3.3500    -2.4050    -1.8800 C.ar  1 <1>  -0.1500 
 10 C       -3.9990    -3.3780    -1.1350 C.ar  1 <1>  -0.1440 
 11 C       -5.3030    -3.9800    -1.6260 C.3   1 <1>   0.4860 
 12 N       -6.4200    -3.4180    -0.8210 N.4   1 <1>  -0.9590 
 13 C       -7.6920    -4.1480    -1.0760 C.3   1 <1>   0.3430 
 14 C       -6.5660    -1.9460    -1.0270 C.3   1 <1>   0.3430 
 15 C       -8.7760    -3.6370    -0.1300 C.3   1 <1>  -0.1600 
 16 C       -7.6330    -1.3950    -0.0810 C.3   1 <1>  -0.1600 
 17 C       -8.9790    -2.1160    -0.2590 C.3   1 <1>  -0.0800 
 18 C      -10.0220    -1.5860     0.7440 C.3   1 <1>  -0.0170 
 19 C      -11.3690    -2.2690     0.5580 C.ar  1 <1>  -0.1430 
 20 C      -12.1770    -1.9350    -0.5180 C.ar  1 <1>  -0.1500 
 21 C      -11.8000    -3.2340     1.4570 C.ar  1 <1>  -0.1500 
 22 C      -13.3960    -2.5650    -0.7010 C.ar  1 <1>  -0.1500 
 23 C      -13.0180    -3.8650     1.2750 C.ar  1 <1>  -0.1500 
 24 C      -13.8160    -3.5320     0.1950 C.ar  1 <1>  -0.1500 
 25 H        1.5690    -2.0220     2.8690 H     1 <1>   0.0800 
 26 H        1.2170    -0.4690     2.1090 H     1 <1>   0.0800 
 27 H        2.1470    -1.6880     1.2360 H     1 <1>   0.0800 
 28 H       -1.8440    -3.5580     1.4520 H     1 <1>   0.1500 
 29 H       -1.6790    -1.0890    -2.0100 H     1 <1>   0.1500 
 30 H       -3.9080    -4.5550     0.6620 H     1 <1>   0.1500 
 31 H       -3.7470    -2.0710    -2.8250 H     1 <1>   0.1500 
 32 H       -5.2630    -5.0510    -1.5090 H     1 <1>   0.0800 
 33 H       -5.4440    -3.7560    -2.6710 H     1 <1>   0.0800 
 34 H       -6.1680    -3.5510     0.1660 H     1 <1>   0.4500 
 35 H       -7.5530    -5.2060    -0.9200 H     1 <1>   0.0800 
 36 H       -8.0070    -3.9930    -2.0960 H     1 <1>   0.0800 
 37 H       -6.8510    -1.7460    -2.0480 H     1 <1>   0.0800 
 38 H       -5.6280    -1.4480    -0.8320 H     1 <1>   0.0800 
 39 H       -8.5230    -3.8960     0.8830 H     1 <1>   0.0800 
 40 H       -9.6950    -4.1450    -0.3700 H     1 <1>   0.0800 
 41 H       -7.7600    -0.3450    -0.2800 H     1 <1>   0.0800 
 42 H       -7.2880    -1.4900     0.9340 H     1 <1>   0.0800 
 43 H       -9.3450    -1.9090    -1.2520 H     1 <1>   0.0800 
 44 H      -10.1530    -0.5270     0.6070 H     1 <1>   0.0800 
 45 H       -9.6770    -1.7380     1.7520 H     1 <1>   0.0800 
 46 H      -11.8660    -1.1810    -1.2190 H     1 <1>   0.1500 
 47 H      -11.1930    -3.5010     2.3040 H     1 <1>   0.1500 
 48 H      -14.0190    -2.3020    -1.5380 H     1 <1>   0.1500 
 49 H      -13.3480    -4.6130     1.9750 H     1 <1>   0.1500 
 50 H      -14.7630    -4.0220     0.0540 H     1 <1>   0.1500 
@<TRIPOS>BOND
  1   1   2  2   
  2   2   3  1   
  3   2   4  1   
  4   3   5  1   
  5   4   6  ar  
  6   4   7  ar  
  7   5  25  1   
  8   5  26  1   
  9   5  27  1   
 10   6   8  ar  
 11   6  28  1   
 12   7   9  ar  
 13   7  29  1   
 14   8  10  ar  
 15   8  30  1   
 16   9  10  ar  
 17   9  31  1   
 18  10  11  1   
 19  11  12  1   
 20  11  32  1   
 21  11  33  1   
 22  12  13  1   
 23  12  14  1   
 24  12  34  1   
 25  13  15  1   
 26  13  35  1   
 27  13  36  1   
 28  14  16  1   
 29  14  37  1   
 30  14  38  1   
 31  15  17  1   
 32  15  39  1   
 33  15  40  1   
 34  16  17  1   
 35  16  41  1   
 36  16  42  1   
 37  17  18  1   
 38  17  43  1   
 39  18  19  1   
 40  18  44  1   
 41  18  45  1   
 42  19  20  ar  
 43  19  21  ar  
 44  20  22  ar  
 45  20  46  1   
 46  21  23  ar  
 47  21  47  1   
 48  22  24  ar  
 49  22  48  1   
 50  23  24  ar  
 51  23  49  1   
 52  24  50  1   
@<TRIPOS>SUBSTRUCTURE
  1 ****  12 GROUP 4 **** **** 0

# MOE 2024.06 (io_trps.svl 2023.06)
