@<TRIPOS>MOLECULE
NONAME
41 43 1 0 0 
SMALL
USER_CHARGES


@<TRIPOS>ATOM
  1 O        1.1120    -2.5750    -0.4470 O.2   1 <1>  -0.5700 
  2 C        0.1760    -2.1050     0.1780 C.2   1 <1>   0.5440 
  3 N        0.4370    -1.0840     1.0490 N.am  1 <1>  -0.7300 
  4 C       -1.1740    -2.6170     0.0230 C.ar  1 <1>   0.0860 
  5 C        1.7890    -0.5210     1.3300 C.3   1 <1>   0.1400 
  6 C       -1.4280    -3.9840    -0.2000 C.ar  1 <1>   0.1170 
  7 C       -2.2660    -1.7480     0.1030 C.ar  1 <1>  -0.1500 
  8 C        2.3430     0.2770     0.1400 C.3   1 <1>   0.2000 
  9 N       -0.3470    -4.8690    -0.3170 N.am  1 <1>  -0.5470 
 10 C       -2.7450    -4.4240    -0.3190 C.ar  1 <1>  -0.1500 
 11 C       -3.5650    -2.2000    -0.0140 C.ar  1 <1>  -0.1500 
 12 O        3.5000     0.9380     0.5320 O.3   1 <1>  -0.5600 
 13 C        1.4380     1.3930    -0.3680 C.3   1 <1>  -0.1600 
 14 C       -0.1890    -6.2250    -0.1680 C.2   1 <1>   0.7150 
 15 C       -3.8050    -3.5460    -0.2240 C.ar  1 <1>  -0.1500 
 16 C        3.7680     1.9840    -0.3450 C.3   1 <1>   0.1200 
 17 C        2.4230     2.4030    -0.9350 C.3   1 <1>  -0.1600 
 18 O       -1.1420    -6.9160     0.1410 O.2   1 <1>  -0.5700 
 19 C        1.1320    -6.7800    -0.3710 C.2   1 <1>   0.0550 
 20 O        1.3600    -8.0870    -0.2620 O.3   1 <1>  -0.2800 
 21 C        2.3120    -6.1680    -0.6820 C.2   1 <1>  -0.1500 
 22 C        2.6310    -8.3210    -0.4910 C.2   1 <1>  -0.0100 
 23 C        3.2810    -7.1690    -0.7590 C.2   1 <1>  -0.1500 
 24 H       -0.3080    -0.7560     1.6650 H     1 <1>   0.3700 
 25 H        2.4670    -1.3280     1.5510 H     1 <1>   0.0800 
 26 H        1.7290     0.1240     2.1880 H     1 <1>   0.0800 
 27 H       -2.0970    -0.6960     0.2530 H     1 <1>   0.1500 
 28 H        2.6090    -0.3890    -0.6640 H     1 <1>   0.0800 
 29 H        0.5400    -4.3770    -0.4840 H     1 <1>   0.3700 
 30 H       -2.9520    -5.4640    -0.4940 H     1 <1>   0.1500 
 31 H       -4.3920    -1.5130     0.0540 H     1 <1>   0.1500 
 32 H        0.8960     1.8250     0.4550 H     1 <1>   0.0800 
 33 H        0.7420     1.0310    -1.1040 H     1 <1>   0.0800 
 34 H       -4.8150    -3.9080    -0.3160 H     1 <1>   0.1500 
 35 H        4.4340     1.6190    -1.1080 H     1 <1>   0.0800 
 36 H        4.2390     2.7800     0.2060 H     1 <1>   0.0800 
 37 H        2.1690     3.4080    -0.6470 H     1 <1>   0.0800 
 38 H        2.4650     2.3440    -2.0080 H     1 <1>   0.0800 
 39 H        2.5010    -5.1210    -0.8440 H     1 <1>   0.1500 
 40 H        2.9920    -9.3340    -0.4430 H     1 <1>   0.1500 
 41 H        4.3220    -7.0230    -0.9870 H     1 <1>   0.1500 
@<TRIPOS>BOND
  1   1   2  2   
  2   2   3  am  
  3   2   4  1   
  4   3   5  1   
  5   3  24  1   
  6   4   6  ar  
  7   4   7  ar  
  8   5   8  1   
  9   5  25  1   
 10   5  26  1   
 11   6   9  1   
 12   6  10  ar  
 13   7  11  ar  
 14   7  27  1   
 15   8  12  1   
 16   8  13  1   
 17   8  28  1   
 18   9  14  am  
 19   9  29  1   
 20  10  15  ar  
 21  10  30  1   
 22  11  15  ar  
 23  11  31  1   
 24  12  16  1   
 25  13  17  1   
 26  13  32  1   
 27  13  33  1   
 28  14  18  2   
 29  14  19  1   
 30  15  34  1   
 31  16  17  1   
 32  16  35  1   
 33  16  36  1   
 34  17  37  1   
 35  17  38  1   
 36  19  20  1   
 37  19  21  2   
 38  20  22  1   
 39  21  23  1   
 40  21  39  1   
 41  22  23  2   
 42  22  40  1   
 43  23  41  1   
@<TRIPOS>SUBSTRUCTURE
  1 ****   1 GROUP 4 **** **** 0

# MOE 2024.06 (io_trps.svl 2023.06)
