@<TRIPOS>MOLECULE
NONAME
37 38 1 0 0 
SMALL
USER_CHARGES


@<TRIPOS>ATOM
  1 BR       0.7270     0.6360    -1.4270 Br    1 <1>  -0.1110 
  2 C        2.2890    -0.3210    -0.8350 C.ar  1 <1>   0.1110 
  3 C        3.2440    -0.6750    -1.7690 C.ar  1 <1>  -0.1500 
  4 C        2.4120    -0.6280     0.5080 C.ar  1 <1>  -0.1500 
  5 C        4.3580    -1.3590    -1.3230 C.ar  1 <1>   0.1770 
  6 C        3.5350    -1.3170     0.9390 C.ar  1 <1>  -0.1500 
  7 CL       5.5880    -1.7980    -2.4880 Cl    1 <1>  -0.1770 
  8 C        4.5200    -1.6850     0.0230 C.ar  1 <1>   0.0830 
  9 O        5.6350    -2.3580     0.4010 O.3   1 <1>  -0.3630 
 10 C        6.2580    -2.0440     1.6400 C.3   1 <1>   0.1810 
 11 C        7.6630    -2.6360     1.7250 C.2   1 <1>   0.5690 
 12 O        7.8700    -3.4030     2.6380 O.2   1 <1>  -0.5700 
 13 N        8.6550    -2.2940     0.8310 N.am  1 <1>  -0.6600 
 14 C        8.4640    -1.3910    -0.3410 C.3   1 <1>   0.1400 
 15 C       10.0120    -2.9030     0.9250 C.3   1 <1>   0.1400 
 16 C        9.5250    -0.2880    -0.3310 C.3   1 <1>  -0.1600 
 17 C       11.0780    -1.8050     0.9470 C.3   1 <1>  -0.1600 
 18 C       10.9500    -0.8660    -0.2660 C.3   1 <1>  -0.0190 
 19 C       11.9990     0.2420    -0.2240 C.2   1 <1>   0.5690 
 20 O       11.9740     1.0780     0.6420 O.2   1 <1>  -0.5700 
 21 N       12.9610     0.2850    -1.1640 N.am  1 <1>  -0.8000 
 22 H        3.1250    -0.4260    -2.8080 H     1 <1>   0.1500 
 23 H        1.6410    -0.3360     1.2000 H     1 <1>   0.1500 
 24 H        3.6270    -1.5710     1.9800 H     1 <1>   0.1500 
 25 H        5.6570    -2.4520     2.4310 H     1 <1>   0.0800 
 26 H        6.3140    -0.9760     1.7380 H     1 <1>   0.0800 
 27 H        7.4940    -0.9320    -0.3310 H     1 <1>   0.0800 
 28 H        8.5450    -1.9720    -1.2440 H     1 <1>   0.0800 
 29 H       10.1630    -3.5480     0.0760 H     1 <1>   0.0800 
 30 H       10.1010    -3.5030     1.8150 H     1 <1>   0.0800 
 31 H        9.3530     0.3510     0.5190 H     1 <1>   0.0800 
 32 H        9.4190     0.3140    -1.2150 H     1 <1>   0.0800 
 33 H       12.0530    -2.2570     0.9550 H     1 <1>   0.0800 
 34 H       10.9740    -1.2400     1.8580 H     1 <1>   0.0800 
 35 H       11.1120    -1.4480    -1.1550 H     1 <1>   0.0800 
 36 H       13.6550     1.0320    -1.1210 H     1 <1>   0.3700 
 37 H       13.0550    -0.3840    -1.9260 H     1 <1>   0.3700 
@<TRIPOS>BOND
  1   1   2  1   
  2   2   3  ar  
  3   2   4  ar  
  4   3   5  ar  
  5   3  22  1   
  6   4   6  ar  
  7   4  23  1   
  8   5   7  1   
  9   5   8  ar  
 10   6   8  ar  
 11   6  24  1   
 12   8   9  1   
 13   9  10  1   
 14  10  11  1   
 15  10  25  1   
 16  10  26  1   
 17  11  12  2   
 18  11  13  am  
 19  13  14  1   
 20  13  15  1   
 21  14  16  1   
 22  14  27  1   
 23  14  28  1   
 24  15  17  1   
 25  15  29  1   
 26  15  30  1   
 27  16  18  1   
 28  16  31  1   
 29  16  32  1   
 30  17  18  1   
 31  17  33  1   
 32  17  34  1   
 33  18  19  1   
 34  18  35  1   
 35  19  20  2   
 36  19  21  am  
 37  21  36  1   
 38  21  37  1   
@<TRIPOS>SUBSTRUCTURE
  1 ****  14 GROUP 4 **** **** 0

# MOE 2024.06 (io_trps.svl 2023.06)
