@<TRIPOS>MOLECULE
NONAME
33 34 1 0 0 
SMALL
USER_CHARGES


@<TRIPOS>ATOM
  1 O       -0.0480    -0.5310    -1.1520 O.2   1 <1>  -0.5700 
  2 C       -0.3940    -1.5650    -0.6280 C.2   1 <1>   0.5690 
  3 N        0.4220    -2.5290    -0.1060 N.am  1 <1>  -0.4770 
  4 C       -1.8450    -1.9310    -0.4720 C.3   1 <1>  -0.0990 
  5 C        1.8310    -2.5540    -0.0410 C.ar  1 <1>   0.1170 
  6 C       -0.3870    -3.6430     0.4400 C.3   1 <1>   0.1400 
  7 C       -1.8090    -3.0900     0.5390 C.3   1 <1>  -0.1860 
  8 C        2.5280    -3.7510    -0.1680 C.ar  1 <1>  -0.1500 
  9 C        2.5590    -1.3870     0.1620 C.ar  1 <1>  -0.1500 
 10 C       -2.8470    -4.1680     0.3150 C.2   1 <1>   0.9060 
 11 C        3.9160    -3.7920    -0.0880 C.ar  1 <1>   0.0820 
 12 C        3.9390    -1.4080     0.2400 C.ar  1 <1>  -0.1500 
 13 O       -3.9570    -3.8430    -0.1130 O.co2 1 <1>  -0.9000 
 14 O       -2.5480    -5.3370     0.5780 O.co2 1 <1>  -0.9000 
 15 O        4.6220    -4.9560    -0.2050 O.3   1 <1>  -0.3630 
 16 C        4.6310    -2.6090     0.1170 C.ar  1 <1>   0.0820 
 17 C        3.9790    -6.1950    -0.4020 C.3   1 <1>   0.0400 
 18 O        5.9950    -2.6830     0.1880 O.3   1 <1>  -0.3630 
 19 C        6.7870    -1.5210     0.2800 C.3   1 <1>   0.0400 
 20 H       -2.2280    -2.2590    -1.4210 H     1 <1>   0.0800 
 21 H       -2.4280    -1.1060    -0.1090 H     1 <1>   0.0800 
 22 H       -0.0250    -3.9570     1.4040 H     1 <1>   0.0800 
 23 H       -0.3530    -4.4720    -0.2470 H     1 <1>   0.0800 
 24 H       -1.9560    -2.7030     1.5290 H     1 <1>   0.0800 
 25 H        1.9650    -4.6450    -0.3370 H     1 <1>   0.1500 
 26 H        2.0370    -0.4530     0.2610 H     1 <1>   0.1500 
 27 H        4.4510    -0.4790     0.3980 H     1 <1>   0.1500 
 28 H        4.7360    -6.9570    -0.4550 H     1 <1>   0.0800 
 29 H        3.4300    -6.1610    -1.3260 H     1 <1>   0.0800 
 30 H        3.3260    -6.3860     0.4310 H     1 <1>   0.0800 
 31 H        7.8190    -1.8220     0.2750 H     1 <1>   0.0800 
 32 H        6.5590    -1.0150     1.2010 H     1 <1>   0.0800 
 33 H        6.5850    -0.8930    -0.5700 H     1 <1>   0.0800 
@<TRIPOS>BOND
  1   1   2  2   
  2   2   3  am  
  3   2   4  1   
  4   3   5  1   
  5   3   6  1   
  6   4   7  1   
  7   4  20  1   
  8   4  21  1   
  9   5   8  ar  
 10   5   9  ar  
 11   6   7  1   
 12   6  22  1   
 13   6  23  1   
 14   7  10  1   
 15   7  24  1   
 16   8  11  ar  
 17   8  25  1   
 18   9  12  ar  
 19   9  26  1   
 20  10  13  ar  
 21  10  14  ar  
 22  11  15  1   
 23  11  16  ar  
 24  12  16  ar  
 25  12  27  1   
 26  15  17  1   
 27  16  18  1   
 28  17  28  1   
 29  17  29  1   
 30  17  30  1   
 31  18  19  1   
 32  19  31  1   
 33  19  32  1   
 34  19  33  1   
@<TRIPOS>SUBSTRUCTURE
  1 ****   5 GROUP 4 **** **** 0

# MOE 2024.06 (io_trps.svl 2023.06)
