@<TRIPOS>MOLECULE
NONAME
42 42 1 0 0 
SMALL
USER_CHARGES


@<TRIPOS>ATOM
  1 F       -2.1990     1.4970     1.9120 F     1 <1>  -0.1900 
  2 C       -1.3000     2.1780     1.2490 C.ar  1 <1>   0.1900 
  3 C       -1.5510     2.5010    -0.0760 C.ar  1 <1>  -0.1440 
  4 C       -0.1460     2.5590     1.9050 C.ar  1 <1>  -0.1500 
  5 C       -0.5940     3.2380    -0.7600 C.ar  1 <1>  -0.1500 
  6 C       -2.8320     2.0510    -0.7470 C.3   1 <1>   0.4870 
  7 C        0.7960     3.2960     1.2090 C.ar  1 <1>  -0.1500 
  8 C        0.5700     3.6320    -0.1170 C.ar  1 <1>  -0.1500 
  9 N       -3.9930     2.6700    -0.0300 N.4   1 <1>  -0.9590 
 10 C       -5.2800     1.9600    -0.3640 C.3   1 <1>   0.3430 
 11 C       -4.0160     4.1530    -0.2780 C.3   1 <1>   0.2630 
 12 C       -6.4740     2.3360     0.5630 C.3   1 <1>   0.3430 
 13 N       -7.7720     1.6210     0.2660 N.4   1 <1>  -0.9590 
 14 C       -8.8710     2.2170     1.0840 C.3   1 <1>   0.3430 
 15 C       -7.7110     0.1440     0.4940 C.3   1 <1>   0.3430 
 16 C      -10.2130     1.9070     0.4320 C.3   1 <1>  -0.2400 
 17 C       -7.5620    -0.5570    -0.8490 C.3   1 <1>  -0.2400 
 18 H        0.0150     2.2880     2.9340 H     1 <1>   0.1500 
 19 H       -0.7310     3.5110    -1.7940 H     1 <1>   0.1500 
 20 H       -2.8880     0.9760    -0.6910 H     1 <1>   0.0800 
 21 H       -2.8290     2.3400    -1.7860 H     1 <1>   0.0800 
 22 H        1.7070     3.6060     1.6950 H     1 <1>   0.1500 
 23 H        1.3130     4.2030    -0.6520 H     1 <1>   0.1500 
 24 H       -3.7500     2.5200     0.9670 H     1 <1>   0.4500 
 25 H       -5.1150     0.8990    -0.2810 H     1 <1>   0.0800 
 26 H       -5.5470     2.1790    -1.3850 H     1 <1>   0.0800 
 27 H       -4.2000     4.3610    -1.3210 H     1 <1>   0.0800 
 28 H       -3.0660     4.5910    -0.0090 H     1 <1>   0.0800 
 29 H       -4.7810     4.6300     0.3120 H     1 <1>   0.0800 
 30 H       -6.6420     3.3970     0.4770 H     1 <1>   0.0800 
 31 H       -6.1940     2.1280     1.5840 H     1 <1>   0.0800 
 32 H       -8.0560     1.7690    -0.7150 H     1 <1>   0.4500 
 33 H       -8.7560     3.2890     1.1340 H     1 <1>   0.0800 
 34 H       -8.8470     1.8280     2.0910 H     1 <1>   0.0800 
 35 H       -8.6230    -0.1990     0.9600 H     1 <1>   0.0800 
 36 H       -6.8930    -0.1100     1.1490 H     1 <1>   0.0800 
 37 H      -10.2590     2.3040    -0.5660 H     1 <1>   0.0800 
 38 H      -10.9970     2.3730     1.0050 H     1 <1>   0.0800 
 39 H      -10.4150     0.8510     0.4110 H     1 <1>   0.0800 
 40 H       -8.4050    -0.3440    -1.4840 H     1 <1>   0.0800 
 41 H       -7.5430    -1.6210    -0.6860 H     1 <1>   0.0800 
 42 H       -6.6530    -0.2880    -1.3520 H     1 <1>   0.0800 
@<TRIPOS>BOND
  1   1   2  1   
  2   2   3  ar  
  3   2   4  ar  
  4   3   5  ar  
  5   3   6  1   
  6   4   7  ar  
  7   4  18  1   
  8   5   8  ar  
  9   5  19  1   
 10   6   9  1   
 11   6  20  1   
 12   6  21  1   
 13   7   8  ar  
 14   7  22  1   
 15   8  23  1   
 16   9  10  1   
 17   9  11  1   
 18   9  24  1   
 19  10  12  1   
 20  10  25  1   
 21  10  26  1   
 22  11  27  1   
 23  11  28  1   
 24  11  29  1   
 25  12  13  1   
 26  12  30  1   
 27  12  31  1   
 28  13  14  1   
 29  13  15  1   
 30  13  32  1   
 31  14  16  1   
 32  14  33  1   
 33  14  34  1   
 34  15  17  1   
 35  15  35  1   
 36  15  36  1   
 37  16  37  1   
 38  16  38  1   
 39  16  39  1   
 40  17  40  1   
 41  17  41  1   
 42  17  42  1   
@<TRIPOS>SUBSTRUCTURE
  1 ****   9 GROUP 4 **** **** 0

# MOE 2024.06 (io_trps.svl 2023.06)
