@<TRIPOS>MOLECULE
NONAME
35 35 1 0 0 
SMALL
USER_CHARGES


@<TRIPOS>ATOM
  1 S        0.0230    -0.0210    -0.5210 S.o2  1 <1>   1.4470 
  2 O        0.2200     1.1400     0.3240 O.2   1 <1>  -0.6500 
  3 O        0.2300     0.1470    -1.9450 O.2   1 <1>  -0.6500 
  4 N        1.2130    -1.1120     0.0210 N.am  1 <1>  -0.8490 
  5 C       -1.5880    -0.8710    -0.2270 C.ar  1 <1>  -0.0090 
  6 C        2.5570    -0.7050    -0.3950 C.3   1 <1>   0.1160 
  7 C        1.1740    -1.3200     1.4720 C.3   1 <1>   0.1160 
  8 C       -2.6770    -0.1940     0.3530 C.ar  1 <1>  -0.1440 
  9 C       -1.7650    -2.2240    -0.5740 C.ar  1 <1>  -0.1440 
 10 C       -3.8420    -0.8780     0.6920 C.ar  1 <1>  -0.1430 
 11 C       -2.6140     1.3150     0.6110 C.3   1 <1>  -0.0970 
 12 C       -2.9320    -2.9000    -0.2300 C.ar  1 <1>  -0.1430 
 13 C       -0.6900    -3.0000    -1.3460 C.3   1 <1>  -0.0970 
 14 C       -3.9500    -2.2220     0.4040 C.ar  1 <1>  -0.1500 
 15 C       -5.0320    -0.2170     1.3820 C.3   1 <1>  -0.0970 
 16 C       -3.1530    -4.3810    -0.5200 C.3   1 <1>  -0.0970 
 17 H        2.6040    -0.6410    -1.4690 H     1 <1>   0.0800 
 18 H        3.2830    -1.4290    -0.0680 H     1 <1>   0.0800 
 19 H        2.8020     0.2580     0.0200 H     1 <1>   0.0800 
 20 H        0.1950    -1.6570     1.7700 H     1 <1>   0.0800 
 21 H        1.3990    -0.4030     1.9930 H     1 <1>   0.0800 
 22 H        1.8900    -2.0700     1.7570 H     1 <1>   0.0800 
 23 H       -2.0650     1.5140     1.5140 H     1 <1>   0.0800 
 24 H       -3.5840     1.7630     0.7030 H     1 <1>   0.0800 
 25 H       -2.1400     1.8210    -0.2110 H     1 <1>   0.0800 
 26 H       -0.1220    -2.3630    -1.9960 H     1 <1>   0.0800 
 27 H       -1.1220    -3.7470    -1.9840 H     1 <1>   0.0800 
 28 H       -0.0190    -3.4830    -0.6590 H     1 <1>   0.0800 
 29 H       -4.8490    -2.7490     0.6700 H     1 <1>   0.1500 
 30 H       -5.5320     0.4440     0.6980 H     1 <1>   0.0800 
 31 H       -4.7030     0.3400     2.2400 H     1 <1>   0.0800 
 32 H       -5.7420    -0.9500     1.7200 H     1 <1>   0.0800 
 33 H       -2.2990    -4.9560    -0.2100 H     1 <1>   0.0800 
 34 H       -3.3180    -4.5290    -1.5720 H     1 <1>   0.0800 
 35 H       -4.0100    -4.7570     0.0100 H     1 <1>   0.0800 
@<TRIPOS>BOND
  1   1   2  2   
  2   1   3  2   
  3   1   4  am  
  4   1   5  1   
  5   4   6  1   
  6   4   7  1   
  7   5   8  ar  
  8   5   9  ar  
  9   6  17  1   
 10   6  18  1   
 11   6  19  1   
 12   7  20  1   
 13   7  21  1   
 14   7  22  1   
 15   8  10  ar  
 16   8  11  1   
 17   9  12  ar  
 18   9  13  1   
 19  10  14  ar  
 20  10  15  1   
 21  11  23  1   
 22  11  24  1   
 23  11  25  1   
 24  12  14  ar  
 25  12  16  1   
 26  13  26  1   
 27  13  27  1   
 28  13  28  1   
 29  14  29  1   
 30  15  30  1   
 31  15  31  1   
 32  15  32  1   
 33  16  33  1   
 34  16  34  1   
 35  16  35  1   
@<TRIPOS>SUBSTRUCTURE
  1 ****   5 GROUP 4 **** **** 0

# MOE 2024.06 (io_trps.svl 2023.06)
