@<TRIPOS>MOLECULE
NONAME
39 39 1 0 0 
SMALL
USER_CHARGES


@<TRIPOS>ATOM
  1 CL       0.9780    -0.1970    -1.0130 Cl    1 <1>  -0.1770 
  2 C       -0.3930    -1.2110    -0.6270 C.ar  1 <1>   0.1770 
  3 C       -0.2160    -2.3930     0.0900 C.ar  1 <1>   0.0860 
  4 C       -1.6390    -0.7930    -1.0560 C.ar  1 <1>  -0.1500 
  5 C        1.0850    -2.8440     0.5300 C.2   1 <1>   0.5440 
  6 C       -1.3590    -3.1380     0.3810 C.ar  1 <1>  -0.1500 
  7 C       -2.7550    -1.5570    -0.7640 C.ar  1 <1>  -0.1500 
  8 O        1.3120    -2.9130     1.7210 O.2   1 <1>  -0.5700 
  9 N        2.0650    -3.2520    -0.3530 N.am  1 <1>  -0.6600 
 10 C       -2.6120    -2.7290    -0.0420 C.ar  1 <1>  -0.1500 
 11 C        3.4870    -3.4880     0.1240 C.3   1 <1>   0.1400 
 12 C        1.8510    -3.4030    -1.8210 C.3   1 <1>   0.0600 
 13 P        4.0850    -5.1690     0.4010 P.3   1 <1>   1.2420 
 14 O        5.5220    -5.2410     0.6620 O.2   1 <1>  -0.7000 
 15 O        3.2080    -5.8310     1.5760 O.3   1 <1>  -0.5510 
 16 O        3.6620    -6.0130    -0.9040 O.3   1 <1>  -0.5510 
 17 C        1.9030    -6.2500     1.3860 C.3   1 <1>   0.1200 
 18 C        4.1530    -7.2920    -1.1090 C.3   1 <1>   0.1200 
 19 C        1.3290    -6.6040     2.7510 C.3   1 <1>  -0.2400 
 20 C        5.4000    -7.2080    -1.9850 C.3   1 <1>  -0.2400 
 21 H       -1.7340     0.1250    -1.6090 H     1 <1>   0.1500 
 22 H       -1.2550    -4.0450     0.9510 H     1 <1>   0.1500 
 23 H       -3.7310    -1.2390    -1.0930 H     1 <1>   0.1500 
 24 H       -3.4810    -3.3220     0.1940 H     1 <1>   0.1500 
 25 H        3.6260    -2.9270     1.0300 H     1 <1>   0.0800 
 26 H        4.1300    -3.0160    -0.5940 H     1 <1>   0.0800 
 27 H        2.3090    -2.5790    -2.3400 H     1 <1>   0.0800 
 28 H        0.8020    -3.4240    -2.0590 H     1 <1>   0.0800 
 29 H        2.2900    -4.3220    -2.1680 H     1 <1>   0.0800 
 30 H        1.9070    -7.1090     0.7370 H     1 <1>   0.0800 
 31 H        1.3360    -5.4580     0.9340 H     1 <1>   0.0800 
 32 H        3.3880    -7.8580    -1.6120 H     1 <1>   0.0800 
 33 H        4.3670    -7.7530    -0.1570 H     1 <1>   0.0800 
 34 H        1.9130    -7.3810     3.2100 H     1 <1>   0.0800 
 35 H        0.3170    -6.9480     2.6440 H     1 <1>   0.0800 
 36 H        1.3300    -5.7320     3.3830 H     1 <1>   0.0800 
 37 H        5.1690    -6.7240    -2.9160 H     1 <1>   0.0800 
 38 H        5.7620    -8.1980    -2.1930 H     1 <1>   0.0800 
 39 H        6.1810    -6.6660    -1.4800 H     1 <1>   0.0800 
@<TRIPOS>BOND
  1   1   2  1   
  2   2   3  ar  
  3   2   4  ar  
  4   3   5  1   
  5   3   6  ar  
  6   4   7  ar  
  7   4  21  1   
  8   5   8  2   
  9   5   9  am  
 10   6  10  ar  
 11   6  22  1   
 12   7  10  ar  
 13   7  23  1   
 14   9  11  1   
 15   9  12  1   
 16  10  24  1   
 17  11  13  1   
 18  11  25  1   
 19  11  26  1   
 20  12  27  1   
 21  12  28  1   
 22  12  29  1   
 23  13  14  2   
 24  13  15  1   
 25  13  16  1   
 26  15  17  1   
 27  16  18  1   
 28  17  19  1   
 29  17  30  1   
 30  17  31  1   
 31  18  20  1   
 32  18  32  1   
 33  18  33  1   
 34  19  34  1   
 35  19  35  1   
 36  19  36  1   
 37  20  37  1   
 38  20  38  1   
 39  20  39  1   
@<TRIPOS>SUBSTRUCTURE
  1 ****   9 GROUP 4 **** **** 0

# MOE 2024.06 (io_trps.svl 2023.06)
