@<TRIPOS>MOLECULE
NONAME
49 50 1 0 0 
SMALL
USER_CHARGES


@<TRIPOS>ATOM
  1 O       -0.1980     8.0440    -0.0260 O.3   1 <1>  -0.3630 
  2 C        1.0690     7.5490     0.0290 C.ar  1 <1>   0.0830 
  3 C       -1.3000     7.2490    -0.3710 C.3   1 <1>   0.1200 
  4 C        2.0860     8.4020     0.4620 C.ar  1 <1>   0.0830 
  5 C        1.3840     6.2420    -0.3260 C.ar  1 <1>  -0.1500 
  6 C       -2.5310     8.1480    -0.2610 C.3   1 <1>  -0.1600 
  7 O        1.7420     9.6790     0.8030 O.3   1 <1>  -0.3630 
  8 C        3.3930     7.9320     0.5330 C.ar  1 <1>  -0.1500 
  9 C        2.6890     5.7950    -0.2490 C.ar  1 <1>  -0.1500 
 10 C       -3.8030     7.3840    -0.5980 C.3   1 <1>   0.3430 
 11 C        2.7010    10.6120     1.2470 C.3   1 <1>   0.0400 
 12 C        3.7200     6.6250     0.1820 C.ar  1 <1>   0.0280 
 13 N       -4.9540     8.3070    -0.4580 N.4   1 <1>  -0.9060 
 14 C        5.0930     6.1740     0.2700 C.2   1 <1>  -0.1780 
 15 C       -6.2660     7.6920    -0.7330 C.3   1 <1>   0.4230 
 16 C        5.5740     4.9270     0.1330 C.2   1 <1>  -0.2880 
 17 C       -7.3100     8.8000    -0.7290 C.3   1 <1>  -0.1600 
 18 C       -6.6850     6.8330     0.4580 C.3   1 <1>  -0.1600 
 19 C        7.0410     4.5540     0.2420 C.3   1 <1>  -0.1020 
 20 C       -7.6210     9.0790     0.7470 C.3   1 <1>  -0.1600 
 21 C       -7.2180     7.8110     1.5120 C.3   1 <1>  -0.1600 
 22 H       -1.1570     6.8940    -1.3770 H     1 <1>   0.0800 
 23 H       -1.3490     6.4250     0.3210 H     1 <1>   0.0800 
 24 H        0.6330     5.5570    -0.6680 H     1 <1>   0.1500 
 25 H       -2.5860     8.5200     0.7470 H     1 <1>   0.0800 
 26 H       -2.4080     8.9730    -0.9410 H     1 <1>   0.0800 
 27 H        4.1850     8.5720     0.8650 H     1 <1>   0.1500 
 28 H        2.9080     4.7830    -0.5330 H     1 <1>   0.1500 
 29 H       -3.9120     6.5480     0.0740 H     1 <1>   0.0800 
 30 H       -3.7490     7.0100    -1.6080 H     1 <1>   0.0800 
 31 H        2.1950    11.5390     1.4500 H     1 <1>   0.0800 
 32 H        3.4310    10.7580     0.4710 H     1 <1>   0.0800 
 33 H        3.1590    10.2410     2.1470 H     1 <1>   0.0800 
 34 H       -4.8280     9.1110    -1.0820 H     1 <1>   0.4500 
 35 H       -4.9930     8.6810     0.4970 H     1 <1>   0.4500 
 36 H        5.7870     6.9710     0.4740 H     1 <1>   0.1500 
 37 H       -6.2570     7.1440    -1.6630 H     1 <1>   0.0800 
 38 H        4.9500     4.0740    -0.0650 H     1 <1>   0.1500 
 39 H       -7.0010     9.6820    -1.2630 H     1 <1>   0.0800 
 40 H       -8.2030     8.4230    -1.1990 H     1 <1>   0.0800 
 41 H       -7.4970     6.2000     0.1430 H     1 <1>   0.0800 
 42 H       -5.9030     6.2010     0.8390 H     1 <1>   0.0800 
 43 H        7.1820     3.8480     1.0410 H     1 <1>   0.0800 
 44 H        7.6440     5.4220     0.4410 H     1 <1>   0.0800 
 45 H        7.3750     4.1080    -0.6780 H     1 <1>   0.0800 
 46 H       -7.0520     9.9220     1.1030 H     1 <1>   0.0800 
 47 H       -8.6690     9.2980     0.8820 H     1 <1>   0.0800 
 48 H       -8.0610     7.3880     2.0330 H     1 <1>   0.0800 
 49 H       -6.4550     8.0440     2.2360 H     1 <1>   0.0800 
@<TRIPOS>BOND
  1   1   2  1   
  2   1   3  1   
  3   2   4  ar  
  4   2   5  ar  
  5   3   6  1   
  6   3  22  1   
  7   3  23  1   
  8   4   7  1   
  9   4   8  ar  
 10   5   9  ar  
 11   5  24  1   
 12   6  10  1   
 13   6  25  1   
 14   6  26  1   
 15   7  11  1   
 16   8  12  ar  
 17   8  27  1   
 18   9  12  ar  
 19   9  28  1   
 20  10  13  1   
 21  10  29  1   
 22  10  30  1   
 23  11  31  1   
 24  11  32  1   
 25  11  33  1   
 26  12  14  1   
 27  13  15  1   
 28  13  34  1   
 29  13  35  1   
 30  14  16  2   
 31  14  36  1   
 32  15  17  1   
 33  15  18  1   
 34  15  37  1   
 35  16  19  1   
 36  16  38  1   
 37  17  20  1   
 38  17  39  1   
 39  17  40  1   
 40  18  21  1   
 41  18  41  1   
 42  18  42  1   
 43  19  43  1   
 44  19  44  1   
 45  19  45  1   
 46  20  21  1   
 47  20  46  1   
 48  20  47  1   
 49  21  48  1   
 50  21  49  1   
@<TRIPOS>SUBSTRUCTURE
  1 ****   1 GROUP 4 **** **** 0

# MOE 2024.06 (io_trps.svl 2023.06)
