@<TRIPOS>MOLECULE
NONAME
36 37 1 0 0 
SMALL
USER_CHARGES


@<TRIPOS>ATOM
  1 S       -3.0290     0.4830    -2.1040 S.3   1 <1>  -0.0800 
  2 C       -2.9930     0.3500    -0.3760 C.2   1 <1>   0.4420 
  3 C       -1.7110     1.5920    -1.9700 C.2   1 <1>   0.2280 
  4 N       -2.0750     1.0800     0.1480 N.2   1 <1>  -0.3380 
  5 N       -3.9200    -0.4940     0.1940 N.am  1 <1>  -0.4940 
  6 N       -1.3450     1.7880    -0.7690 N.2   1 <1>  -0.3380 
  7 C       -4.1850    -0.7500     1.5080 C.2   1 <1>   0.5690 
  8 O       -3.6290    -0.1880     2.4180 O.2   1 <1>  -0.5700 
  9 C       -5.2760    -1.7860     1.8100 C.3   1 <1>  -0.0190 
 10 C       -6.6870    -1.1440     1.7460 C.3   1 <1>  -0.1600 
 11 C       -5.0660    -2.4960     3.1620 C.3   1 <1>  -0.2400 
 12 C       -7.6080    -1.7990     0.6930 C.3   1 <1>  -0.0190 
 13 C       -7.2190    -1.5450    -0.7500 C.2   1 <1>   0.6590 
 14 C       -9.0260    -1.2270     0.7230 C.3   1 <1>  -0.1600 
 15 O       -6.0990    -1.6070    -1.1880 O.2   1 <1>  -0.5700 
 16 O       -8.2660    -1.2240    -1.4780 O.3   1 <1>  -0.4300 
 17 C       -9.4640    -1.2220    -0.7510 C.3   1 <1>   0.2800 
 18 C      -10.2480     0.0320    -1.1340 C.3   1 <1>  -0.2400 
 19 C      -10.2280    -2.4920    -1.1300 C.3   1 <1>  -0.2400 
 20 H       -1.3140     2.0160    -2.8730 H     1 <1>   0.1500 
 21 H       -4.5380    -0.9650    -0.4780 H     1 <1>   0.3700 
 22 H       -5.1930    -2.5500     1.0580 H     1 <1>   0.0800 
 23 H       -6.5950    -0.0930     1.5250 H     1 <1>   0.0800 
 24 H       -7.1600    -1.2130     2.7100 H     1 <1>   0.0800 
 25 H       -5.1280    -1.7900     3.9720 H     1 <1>   0.0800 
 26 H       -4.0920    -2.9520     3.1890 H     1 <1>   0.0800 
 27 H       -5.8070    -3.2620     3.3090 H     1 <1>   0.0800 
 28 H       -7.6500    -2.8630     0.8440 H     1 <1>   0.0800 
 29 H       -9.0140    -0.2170     1.0950 H     1 <1>   0.0800 
 30 H       -9.6880    -1.8050     1.3440 H     1 <1>   0.0800 
 31 H       -9.6710     0.9160    -0.9290 H     1 <1>   0.0800 
 32 H      -11.1640     0.0820    -0.5730 H     1 <1>   0.0800 
 33 H      -10.4920     0.0110    -2.1820 H     1 <1>   0.0800 
 34 H       -9.6570    -3.3710    -0.8870 H     1 <1>   0.0800 
 35 H      -10.4410    -2.4950    -2.1840 H     1 <1>   0.0800 
 36 H      -11.1610    -2.5360    -0.5980 H     1 <1>   0.0800 
@<TRIPOS>BOND
  1   1   2  1   
  2   1   3  1   
  3   2   4  2   
  4   2   5  1   
  5   3   6  2   
  6   3  20  1   
  7   4   6  1   
  8   5   7  am  
  9   5  21  1   
 10   7   8  2   
 11   7   9  1   
 12   9  10  1   
 13   9  11  1   
 14   9  22  1   
 15  10  12  1   
 16  10  23  1   
 17  10  24  1   
 18  11  25  1   
 19  11  26  1   
 20  11  27  1   
 21  12  13  1   
 22  12  14  1   
 23  12  28  1   
 24  13  15  2   
 25  13  16  1   
 26  14  17  1   
 27  14  29  1   
 28  14  30  1   
 29  16  17  1   
 30  17  18  1   
 31  17  19  1   
 32  18  31  1   
 33  18  32  1   
 34  18  33  1   
 35  19  34  1   
 36  19  35  1   
 37  19  36  1   
@<TRIPOS>SUBSTRUCTURE
  1 ****  15 GROUP 4 **** **** 0

# MOE 2024.06 (io_trps.svl 2023.06)
