@<TRIPOS>MOLECULE
NONAME
50 52 1 0 0 
SMALL
USER_CHARGES


@<TRIPOS>ATOM
  1 F       -1.6990     0.1910     1.9050 F     1 <1>  -0.3400 
  2 C       -1.8520    -0.0830     0.6150 C.3   1 <1>   1.1640 
  3 F       -1.8910     1.0880    -0.0100 F     1 <1>  -0.3400 
  4 F       -0.7360    -0.6810     0.2230 F     1 <1>  -0.3400 
  5 C       -3.0950    -0.9460     0.3340 C.ar  1 <1>  -0.1440 
  6 C       -3.7580    -0.8610    -0.8860 C.ar  1 <1>  -0.1500 
  7 C       -3.5750    -1.8380     1.2870 C.ar  1 <1>  -0.1500 
  8 C       -4.8770    -1.6330    -1.1400 C.ar  1 <1>  -0.1500 
  9 C       -4.6940    -2.6120     1.0350 C.ar  1 <1>  -0.1500 
 10 C       -5.3590    -2.5070    -0.1770 C.ar  1 <1>  -0.1430 
 11 C       -6.6080    -3.3250    -0.4400 C.3   1 <1>   0.4870 
 12 N       -7.7770    -2.4140    -0.3480 N.4   1 <1>  -0.9590 
 13 C       -7.9460    -1.8450     1.0390 C.3   1 <1>   0.3430 
 14 C       -9.0570    -3.0580    -0.8070 C.3   1 <1>   0.3430 
 15 C       -9.1090    -0.8390     1.1140 C.3   1 <1>   0.2090 
 16 C      -10.2440    -2.0750    -0.7670 C.3   1 <1>   0.2090 
 17 N      -10.3750    -1.4190     0.5700 N.pl3 1 <1>  -0.8380 
 18 C      -11.4790    -0.5590     0.6700 C.ar  1 <1>   0.1000 
 19 C      -11.5970     0.6510    -0.0400 C.ar  1 <1>   0.0830 
 20 C      -12.5060    -0.9360     1.5230 C.ar  1 <1>  -0.1500 
 21 O      -10.5750     1.0140    -0.8780 O.3   1 <1>  -0.3630 
 22 C      -12.7350     1.4360     0.1250 C.ar  1 <1>  -0.1500 
 23 C      -13.6310    -0.1500     1.6810 C.ar  1 <1>  -0.1500 
 24 C      -10.5630     2.2720    -1.5150 C.3   1 <1>   0.1200 
 25 C      -13.7460     1.0370     0.9820 C.ar  1 <1>  -0.1500 
 26 C       -9.2590     2.3910    -2.2970 C.3   1 <1>  -0.2400 
 27 H       -3.3990    -0.1890    -1.6500 H     1 <1>   0.1500 
 28 H       -3.0730    -1.9370     2.2370 H     1 <1>   0.1500 
 29 H       -5.3590    -1.5420    -2.0990 H     1 <1>   0.1500 
 30 H       -5.0340    -3.2940     1.7970 H     1 <1>   0.1500 
 31 H       -6.6930    -4.1200     0.2820 H     1 <1>   0.0800 
 32 H       -6.5490    -3.7590    -1.4250 H     1 <1>   0.0800 
 33 H       -7.5890    -1.6120    -0.9630 H     1 <1>   0.4500 
 34 H       -7.0410    -1.3480     1.3480 H     1 <1>   0.0800 
 35 H       -8.1430    -2.6410     1.7370 H     1 <1>   0.0800 
 36 H       -9.2930    -3.8930    -0.1680 H     1 <1>   0.0800 
 37 H       -8.9460    -3.4280    -1.8120 H     1 <1>   0.0800 
 38 H       -8.8440     0.0500     0.5700 H     1 <1>   0.0800 
 39 H       -9.2680    -0.5550     2.1400 H     1 <1>   0.0800 
 40 H      -11.1540    -2.6070    -0.9830 H     1 <1>   0.0800 
 41 H      -10.1160    -1.3290    -1.5320 H     1 <1>   0.0800 
 42 H      -12.4170    -1.8590     2.0660 H     1 <1>   0.1500 
 43 H      -12.8630     2.3620    -0.4020 H     1 <1>   0.1500 
 44 H      -14.4170    -0.4610     2.3480 H     1 <1>   0.1500 
 45 H      -10.6250     3.0380    -0.7610 H     1 <1>   0.0800 
 46 H      -11.4100     2.3280    -2.1770 H     1 <1>   0.0800 
 47 H      -14.6220     1.6490     1.1040 H     1 <1>   0.1500 
 48 H       -8.4180     2.3200    -1.6320 H     1 <1>   0.0800 
 49 H       -9.2220     3.3440    -2.7930 H     1 <1>   0.0800 
 50 H       -9.2020     1.6180    -3.0430 H     1 <1>   0.0800 
@<TRIPOS>BOND
  1   1   2  1   
  2   2   3  1   
  3   2   4  1   
  4   2   5  1   
  5   5   6  ar  
  6   5   7  ar  
  7   6   8  ar  
  8   6  27  1   
  9   7   9  ar  
 10   7  28  1   
 11   8  10  ar  
 12   8  29  1   
 13   9  10  ar  
 14   9  30  1   
 15  10  11  1   
 16  11  12  1   
 17  11  31  1   
 18  11  32  1   
 19  12  13  1   
 20  12  14  1   
 21  12  33  1   
 22  13  15  1   
 23  13  34  1   
 24  13  35  1   
 25  14  16  1   
 26  14  36  1   
 27  14  37  1   
 28  15  17  1   
 29  15  38  1   
 30  15  39  1   
 31  16  17  1   
 32  16  40  1   
 33  16  41  1   
 34  17  18  1   
 35  18  19  ar  
 36  18  20  ar  
 37  19  21  1   
 38  19  22  ar  
 39  20  23  ar  
 40  20  42  1   
 41  21  24  1   
 42  22  25  ar  
 43  22  43  1   
 44  23  25  ar  
 45  23  44  1   
 46  24  26  1   
 47  24  45  1   
 48  24  46  1   
 49  25  47  1   
 50  26  48  1   
 51  26  49  1   
 52  26  50  1   
@<TRIPOS>SUBSTRUCTURE
  1 ****  13 GROUP 4 **** **** 0

# MOE 2024.06 (io_trps.svl 2023.06)
