@<TRIPOS>MOLECULE
NONAME
45 47 1 0 0 
SMALL
USER_CHARGES


@<TRIPOS>ATOM
  1 O        0.7030    -0.2630    -1.0700 O.2   1 <1>  -0.5700 
  2 C        1.0030    -1.4300    -1.2560 C.2   1 <1>   0.6900 
  3 N        2.3040    -1.7440    -1.5670 N.am  1 <1>  -0.6600 
  4 N        0.0460    -2.4270    -1.1720 N.am  1 <1>  -0.4770 
  5 C        2.9900    -2.9300    -0.9620 C.3   1 <1>   0.1400 
  6 C        3.2550    -0.6850    -2.0310 C.3   1 <1>   0.1400 
  7 C       -1.0580    -2.3910    -0.3050 C.ar  1 <1>   0.1170 
  8 C        0.0250    -3.4980    -2.2010 C.3   1 <1>   0.0600 
  9 C        3.9980    -2.5120     0.1240 C.3   1 <1>   0.2090 
 10 C        4.2330    -0.2830    -0.9150 C.3   1 <1>   0.2090 
 11 C       -1.9780    -1.3500    -0.3320 C.ar  1 <1>  -0.1500 
 12 C       -1.2660    -3.4290     0.5970 C.ar  1 <1>  -0.1500 
 13 N        4.9510    -1.4810    -0.3870 N.pl3 1 <1>  -0.8380 
 14 C       -3.0730    -1.3450     0.5140 C.ar  1 <1>  -0.1500 
 15 C       -2.3590    -3.4280     1.4440 C.ar  1 <1>  -0.1500 
 16 C        6.1210    -1.2580     0.3170 C.ar  1 <1>   0.4100 
 17 C       -3.2700    -2.3850     1.4080 C.ar  1 <1>  -0.1440 
 18 N        6.1130    -1.5240     1.6190 N.ar  1 <1>  -0.6200 
 19 C        7.2410    -0.7700    -0.3520 C.ar  1 <1>  -0.1500 
 20 C       -4.4710    -2.3790     2.3350 C.3   1 <1>  -0.0970 
 21 C        7.2430    -1.2880     2.2640 C.ar  1 <1>   0.1600 
 22 C        8.4100    -0.5290     0.3310 C.ar  1 <1>  -0.1500 
 23 C        8.4000    -0.7990     1.6840 C.ar  1 <1>  -0.1500 
 24 H        3.5120    -3.4660    -1.7350 H     1 <1>   0.0800 
 25 H        2.2710    -3.5950    -0.5200 H     1 <1>   0.0800 
 26 H        2.7130     0.1840    -2.3600 H     1 <1>   0.0800 
 27 H        3.8150    -1.0600    -2.8690 H     1 <1>   0.0800 
 28 H        0.6430    -3.2240    -3.0380 H     1 <1>   0.0800 
 29 H       -0.9820    -3.6420    -2.5500 H     1 <1>   0.0800 
 30 H        0.3870    -4.4170    -1.7770 H     1 <1>   0.0800 
 31 H        4.5480    -3.3760     0.4540 H     1 <1>   0.0800 
 32 H        3.4650    -2.1150     0.9720 H     1 <1>   0.0800 
 33 H        3.6840     0.1860    -0.1160 H     1 <1>   0.0800 
 34 H        4.9390     0.4320    -1.2980 H     1 <1>   0.0800 
 35 H       -1.8310    -0.5380    -1.0220 H     1 <1>   0.1500 
 36 H       -0.5630    -4.2390     0.6360 H     1 <1>   0.1500 
 37 H       -3.7680    -0.5260     0.4720 H     1 <1>   0.1500 
 38 H       -2.4980    -4.2420     2.1330 H     1 <1>   0.1500 
 39 H        7.1750    -0.5920    -1.4080 H     1 <1>   0.1500 
 40 H       -4.7380    -1.3700     2.5960 H     1 <1>   0.0800 
 41 H       -4.2520    -2.9160     3.2400 H     1 <1>   0.0800 
 42 H       -5.3090    -2.8450     1.8480 H     1 <1>   0.0800 
 43 H        7.2460    -1.4970     3.3200 H     1 <1>   0.1500 
 44 H        9.2880    -0.1520    -0.1620 H     1 <1>   0.1500 
 45 H        9.2780    -0.6350     2.2810 H     1 <1>   0.1500 
@<TRIPOS>BOND
  1   1   2  2   
  2   2   3  am  
  3   2   4  am  
  4   3   5  1   
  5   3   6  1   
  6   4   7  1   
  7   4   8  1   
  8   5   9  1   
  9   5  24  1   
 10   5  25  1   
 11   6  10  1   
 12   6  26  1   
 13   6  27  1   
 14   7  11  ar  
 15   7  12  ar  
 16   8  28  1   
 17   8  29  1   
 18   8  30  1   
 19   9  13  1   
 20   9  31  1   
 21   9  32  1   
 22  10  13  1   
 23  10  33  1   
 24  10  34  1   
 25  11  14  ar  
 26  11  35  1   
 27  12  15  ar  
 28  12  36  1   
 29  13  16  1   
 30  14  17  ar  
 31  14  37  1   
 32  15  17  ar  
 33  15  38  1   
 34  16  18  ar  
 35  16  19  ar  
 36  17  20  1   
 37  18  21  ar  
 38  19  22  ar  
 39  19  39  1   
 40  20  40  1   
 41  20  41  1   
 42  20  42  1   
 43  21  23  ar  
 44  21  43  1   
 45  22  23  ar  
 46  22  44  1   
 47  23  45  1   
@<TRIPOS>SUBSTRUCTURE
  1 ****   3 GROUP 4 **** **** 0

# MOE 2024.06 (io_trps.svl 2023.06)
