@<TRIPOS>MOLECULE
NONAME
44 45 1 0 0 
SMALL
USER_CHARGES


@<TRIPOS>ATOM
  1 CL       0.0090     0.0050    -0.1740 Cl    1 <1>  -0.1770 
  2 C        0.8810     1.5110    -0.0370 C.ar  1 <1>   0.1770 
  3 C        0.1780     2.6990    -0.0330 C.ar  1 <1>  -0.1500 
  4 C        2.2570     1.4920     0.0640 C.ar  1 <1>  -0.1500 
  5 C        0.8460     3.9140     0.0830 C.ar  1 <1>  -0.0090 
  6 C        2.9380     2.6900     0.1670 C.ar  1 <1>  -0.1500 
  7 S       -0.0420     5.4950     0.0860 S.o2  1 <1>   1.4470 
  8 C        2.2370     3.8970     0.1710 C.ar  1 <1>   0.0830 
  9 O       -0.0610     6.0840    -1.2340 O.2   1 <1>  -0.6500 
 10 O        0.2500     6.3010     1.2470 O.2   1 <1>  -0.6500 
 11 N       -1.6350     5.0670     0.4090 N.am  1 <1>  -0.9140 
 12 O        2.8630     5.0960     0.2560 O.3   1 <1>  -0.3630 
 13 C       -2.5750     6.0680    -0.0490 C.3   1 <1>   0.1960 
 14 C        4.2640     5.2160     0.3600 C.3   1 <1>   0.0400 
 15 C       -3.9830     5.6220     0.3330 C.3   1 <1>  -0.1600 
 16 C       -5.0120     6.5850    -0.2550 C.3   1 <1>   0.3430 
 17 N       -6.3880     6.1940     0.1570 N.4   1 <1>  -0.9590 
 18 C       -6.8730     4.8980    -0.4370 C.3   1 <1>   0.3430 
 19 C       -7.3970     7.2800    -0.0920 C.3   1 <1>   0.3430 
 20 C       -8.3250     4.5850    -0.0050 C.3   1 <1>   0.1200 
 21 C       -8.8070     6.8560     0.3850 C.3   1 <1>   0.1200 
 22 O       -8.8000     5.5500     0.8950 O.3   1 <1>  -0.5600 
 23 H       -0.8920     2.6620    -0.1240 H     1 <1>   0.1500 
 24 H        2.7810     0.5520     0.0590 H     1 <1>   0.1500 
 25 H        4.0090     2.6640     0.2400 H     1 <1>   0.1500 
 26 H       -1.6420     5.0840     1.4290 H     1 <1>   0.4200 
 27 H       -2.5050     6.1580    -1.1230 H     1 <1>   0.0800 
 28 H       -2.3390     7.0250     0.3930 H     1 <1>   0.0800 
 29 H        4.5040     6.2630     0.4170 H     1 <1>   0.0800 
 30 H        4.7190     4.7860    -0.5140 H     1 <1>   0.0800 
 31 H        4.5930     4.7190     1.2550 H     1 <1>   0.0800 
 32 H       -4.0670     5.6070     1.4050 H     1 <1>   0.0800 
 33 H       -4.1390     4.6330    -0.0580 H     1 <1>   0.0800 
 34 H       -4.9370     6.5910    -1.3310 H     1 <1>   0.0800 
 35 H       -4.8000     7.5810     0.1020 H     1 <1>   0.0800 
 36 H       -6.4170     6.0440     1.1780 H     1 <1>   0.4500 
 37 H       -6.2380     4.0860    -0.1230 H     1 <1>   0.0800 
 38 H       -6.8310     4.9440    -1.5130 H     1 <1>   0.0800 
 39 H       -7.4390     7.5100    -1.1430 H     1 <1>   0.0800 
 40 H       -7.1090     8.1800     0.4270 H     1 <1>   0.0800 
 41 H       -8.3700     3.6280     0.4840 H     1 <1>   0.0800 
 42 H       -8.9820     4.5570    -0.8590 H     1 <1>   0.0800 
 43 H       -9.5150     6.9080    -0.4240 H     1 <1>   0.0800 
 44 H       -9.1450     7.5110     1.1690 H     1 <1>   0.0800 
@<TRIPOS>BOND
  1   1   2  1   
  2   2   3  ar  
  3   2   4  ar  
  4   3   5  ar  
  5   3  23  1   
  6   4   6  ar  
  7   4  24  1   
  8   5   7  1   
  9   5   8  ar  
 10   6   8  ar  
 11   6  25  1   
 12   7   9  2   
 13   7  10  2   
 14   7  11  am  
 15   8  12  1   
 16  11  13  1   
 17  11  26  1   
 18  12  14  1   
 19  13  15  1   
 20  13  27  1   
 21  13  28  1   
 22  14  29  1   
 23  14  30  1   
 24  14  31  1   
 25  15  16  1   
 26  15  32  1   
 27  15  33  1   
 28  16  17  1   
 29  16  34  1   
 30  16  35  1   
 31  17  18  1   
 32  17  19  1   
 33  17  36  1   
 34  18  20  1   
 35  18  37  1   
 36  18  38  1   
 37  19  21  1   
 38  19  39  1   
 39  19  40  1   
 40  20  22  1   
 41  20  41  1   
 42  20  42  1   
 43  21  22  1   
 44  21  43  1   
 45  21  44  1   
@<TRIPOS>SUBSTRUCTURE
  1 ****  11 GROUP 4 **** **** 0

# MOE 2024.06 (io_trps.svl 2023.06)
