@<TRIPOS>MOLECULE
NONAME
42 43 1 0 0 
SMALL
USER_CHARGES


@<TRIPOS>ATOM
  1 BR      -0.6090    -0.4710     3.3460 Br    1 <1>  -0.1110 
  2 C       -2.0190    -0.7030     2.0560 C.ar  1 <1>   0.1110 
  3 C       -3.0710     0.1920     2.0580 C.ar  1 <1>  -0.1500 
  4 C       -1.9370    -1.7520     1.1620 C.ar  1 <1>  -0.1500 
  5 C       -4.0940     0.0440     1.1290 C.ar  1 <1>  -0.1440 
  6 C       -2.9540    -1.9040     0.2370 C.ar  1 <1>  -0.1500 
  7 C       -4.0270    -1.0180     0.2240 C.ar  1 <1>   0.0830 
  8 C       -5.2450     1.0510     1.1350 C.3   1 <1>   0.5020 
  9 O       -4.9990    -1.1830    -0.6970 O.3   1 <1>  -0.3630 
 10 N       -6.4280     0.3740     1.7000 N.am  1 <1>  -0.7300 
 11 C       -5.5120     1.7100    -0.2260 C.2   1 <1>  -0.1240 
 12 C       -5.7930    -2.3430    -0.6030 C.3   1 <1>   0.1200 
 13 C       -7.5780     0.2180     1.0290 C.2   1 <1>   0.6900 
 14 C       -6.7510     1.5920    -0.7830 C.2   1 <1>  -0.0290 
 15 C       -4.3650     2.3900    -0.7530 C.2   1 <1>   0.7060 
 16 C       -6.7740    -2.3400    -1.7710 C.3   1 <1>  -0.2400 
 17 O       -8.4460    -0.5100     1.4520 O.2   1 <1>  -0.5700 
 18 N       -7.7420     0.8730    -0.1460 N.am  1 <1>  -0.5390 
 19 C       -7.2050     2.1880    -2.1070 C.3   1 <1>  -0.1020 
 20 O       -4.2210     2.6900    -1.9220 O.2   1 <1>  -0.5700 
 21 O       -3.3890     2.7290     0.1000 O.3   1 <1>  -0.4300 
 22 C       -2.1930     3.3310    -0.3410 C.3   1 <1>   0.1200 
 23 C       -1.2660     3.4710     0.8620 C.3   1 <1>  -0.2400 
 24 H       -3.0750     0.9930     2.7750 H     1 <1>   0.1500 
 25 H       -1.1000    -2.4260     1.1880 H     1 <1>   0.1500 
 26 H       -2.9110    -2.7010    -0.4830 H     1 <1>   0.1500 
 27 H       -4.9960     1.8420     1.8210 H     1 <1>   0.0800 
 28 H       -6.2610    -0.2600     2.4760 H     1 <1>   0.3700 
 29 H       -6.3150    -2.3210     0.3380 H     1 <1>   0.0800 
 30 H       -5.1570    -3.2090    -0.6470 H     1 <1>   0.0800 
 31 H       -7.4020    -1.4700    -1.7230 H     1 <1>   0.0800 
 32 H       -7.3970    -3.2140    -1.7240 H     1 <1>   0.0800 
 33 H       -6.2390    -2.3470    -2.7030 H     1 <1>   0.0800 
 34 H       -8.6550     0.7260    -0.5740 H     1 <1>   0.3700 
 35 H       -7.2160     1.4230    -2.8630 H     1 <1>   0.0800 
 36 H       -6.5650     2.9840    -2.4360 H     1 <1>   0.0800 
 37 H       -8.1950     2.5950    -2.0110 H     1 <1>   0.0800 
 38 H       -2.4300     4.2920    -0.7660 H     1 <1>   0.0800 
 39 H       -1.7510     2.7000    -1.0950 H     1 <1>   0.0800 
 40 H       -1.7240     4.0860     1.6150 H     1 <1>   0.0800 
 41 H       -0.3440     3.9330     0.5560 H     1 <1>   0.0800 
 42 H       -1.0410     2.5020     1.2710 H     1 <1>   0.0800 
@<TRIPOS>BOND
  1   1   2  1   
  2   2   3  ar  
  3   2   4  ar  
  4   3   5  ar  
  5   3  24  1   
  6   4   6  ar  
  7   4  25  1   
  8   5   7  ar  
  9   5   8  1   
 10   6   7  ar  
 11   6  26  1   
 12   7   9  1   
 13   8  10  1   
 14   8  11  1   
 15   8  27  1   
 16   9  12  1   
 17  10  13  am  
 18  10  28  1   
 19  11  14  2   
 20  11  15  1   
 21  12  16  1   
 22  12  29  1   
 23  12  30  1   
 24  13  17  2   
 25  13  18  am  
 26  14  18  1   
 27  14  19  1   
 28  15  20  2   
 29  15  21  1   
 30  16  31  1   
 31  16  32  1   
 32  16  33  1   
 33  18  34  1   
 34  19  35  1   
 35  19  36  1   
 36  19  37  1   
 37  21  22  1   
 38  22  23  1   
 39  22  38  1   
 40  22  39  1   
 41  23  40  1   
 42  23  41  1   
 43  23  42  1   
@<TRIPOS>SUBSTRUCTURE
  1 ****   5 GROUP 4 **** **** 0

# MOE 2024.06 (io_trps.svl 2023.06)
