@<TRIPOS>MOLECULE
NONAME
36 36 1 0 0 
SMALL
USER_CHARGES


@<TRIPOS>ATOM
  1 O       -0.0120     0.0350    -0.3160 O.2   1 <1>  -0.5700 
  2 C       -0.5440     1.1030    -0.0790 C.2   1 <1>   0.6900 
  3 N       -1.9150     1.2210     0.0160 N.am  1 <1>  -0.3680 
  4 N        0.1970     2.2410     0.1020 N.am  1 <1>  -0.5470 
  5 N       -2.8840     0.2950    -0.3560 N.2   1 <1>  -0.5120 
  6 C        1.5790     2.4110     0.2700 C.ar  1 <1>   0.1170 
  7 C       -4.1200     0.4680    -0.1340 C.2   1 <1>   0.3280 
  8 C        2.1510     3.6340    -0.0630 C.ar  1 <1>  -0.1500 
  9 C        2.4050     1.4130     0.7800 C.ar  1 <1>  -0.1500 
 10 C       -4.7440     1.6610     0.5950 C.3   1 <1>  -0.0990 
 11 C       -5.1190    -0.5730    -0.5970 C.3   1 <1>  -0.1790 
 12 C        3.5060     3.8560     0.1040 C.ar  1 <1>  -0.1500 
 13 C        3.7610     1.6300     0.9480 C.ar  1 <1>  -0.1500 
 14 C       -5.3700     2.7040    -0.3520 C.3   1 <1>  -0.0800 
 15 C        4.3140     2.8530     0.6110 C.ar  1 <1>  -0.1500 
 16 C       -4.3230     3.3400    -1.2770 C.3   1 <1>  -0.2400 
 17 C       -6.0690     3.8000     0.4610 C.3   1 <1>  -0.2400 
 18 H       -2.2460     2.0930     0.4210 H     1 <1>   0.3700 
 19 H       -0.3160     3.1010    -0.0530 H     1 <1>   0.3700 
 20 H        1.5360     4.4200    -0.4600 H     1 <1>   0.1500 
 21 H        1.9890     0.4590     1.0490 H     1 <1>   0.1500 
 22 H       -5.5050     1.2840     1.2540 H     1 <1>   0.0800 
 23 H       -4.0150     2.1390     1.2210 H     1 <1>   0.0800 
 24 H       -5.8050    -0.1440    -1.3020 H     1 <1>   0.0800 
 25 H       -5.6650    -0.9610     0.2430 H     1 <1>   0.0800 
 26 H       -4.6050    -1.3880    -1.0740 H     1 <1>   0.0800 
 27 H        3.9350     4.8070    -0.1600 H     1 <1>   0.1500 
 28 H        4.3840     0.8460     1.3410 H     1 <1>   0.1500 
 29 H       -6.1120     2.2190    -0.9630 H     1 <1>   0.0800 
 30 H        5.3690     3.0220     0.7410 H     1 <1>   0.1500 
 31 H       -3.5650     3.8460    -0.7080 H     1 <1>   0.0800 
 32 H       -4.7930     4.0550    -1.9300 H     1 <1>   0.0800 
 33 H       -3.8540     2.5910    -1.8930 H     1 <1>   0.0800 
 34 H       -5.3660     4.3220     1.0860 H     1 <1>   0.0800 
 35 H       -6.8350     3.3750     1.0850 H     1 <1>   0.0800 
 36 H       -6.5340     4.5130    -0.1980 H     1 <1>   0.0800 
@<TRIPOS>BOND
  1   1   2  2   
  2   2   3  am  
  3   2   4  am  
  4   3   5  1   
  5   3  18  1   
  6   4   6  1   
  7   4  19  1   
  8   5   7  2   
  9   6   8  ar  
 10   6   9  ar  
 11   7  10  1   
 12   7  11  1   
 13   8  12  ar  
 14   8  20  1   
 15   9  13  ar  
 16   9  21  1   
 17  10  14  1   
 18  10  22  1   
 19  10  23  1   
 20  11  24  1   
 21  11  25  1   
 22  11  26  1   
 23  12  15  ar  
 24  12  27  1   
 25  13  15  ar  
 26  13  28  1   
 27  14  16  1   
 28  14  17  1   
 29  14  29  1   
 30  15  30  1   
 31  16  31  1   
 32  16  32  1   
 33  16  33  1   
 34  17  34  1   
 35  17  35  1   
 36  17  36  1   
@<TRIPOS>SUBSTRUCTURE
  1 ****   2 GROUP 4 **** **** 0

# MOE 2024.06 (io_trps.svl 2023.06)
