@<TRIPOS>MOLECULE
NONAME
45 47 1 0 0 
SMALL
USER_CHARGES


@<TRIPOS>ATOM
  1 O        1.0290     2.6240    -2.1830 O.2   1 <1>  -0.5700 
  2 C        1.2470     2.9150    -1.0300 C.2   1 <1>   0.5690 
  3 N        0.3710     3.5510    -0.2020 N.am  1 <1>  -0.2370 
  4 C        2.5890     2.6610    -0.3240 C.3   1 <1>   0.2510 
  5 C       -1.0120     3.6670    -0.4420 C.ar  1 <1>   0.1170 
  6 C        1.0010     3.9270     0.9470 C.2   1 <1>   0.5690 
  7 N        2.9030     1.2330    -0.0110 N.3   1 <1>  -0.8100 
  8 C        2.4300     3.4530     0.9840 C.3   1 <1>  -0.0990 
  9 C       -1.9500     2.8470     0.2000 C.ar  1 <1>   0.0830 
 10 C       -1.4700     4.6270    -1.3380 C.ar  1 <1>  -0.1500 
 11 O        0.5340     4.5910     1.8350 O.2   1 <1>  -0.5700 
 12 C        2.7410     0.3540    -1.1980 C.3   1 <1>   0.1100 
 13 C        4.2890     1.0860     0.4970 C.3   1 <1>   0.1100 
 14 O       -1.5980     1.8710     1.0760 O.3   1 <1>  -0.3630 
 15 C       -3.3030     3.0190    -0.0360 C.ar  1 <1>  -0.1500 
 16 C       -2.8230     4.7850    -1.5790 C.ar  1 <1>  -0.1500 
 17 C        3.1750    -1.0950    -0.9120 C.3   1 <1>   0.1200 
 18 C        4.6440    -0.3880     0.7550 C.3   1 <1>   0.1200 
 19 C       -0.7990     0.8040     0.6130 C.3   1 <1>   0.1200 
 20 C       -3.7420     3.9840    -0.9250 C.ar  1 <1>  -0.1500 
 21 O        4.4800    -1.1320    -0.4140 O.3   1 <1>  -0.5600 
 22 C       -1.2220    -0.4640     1.3520 C.3   1 <1>  -0.1600 
 23 C       -0.3200    -1.6470     0.9860 C.3   1 <1>  -0.2400 
 24 H        3.3730     3.0820    -0.9300 H     1 <1>   0.0800 
 25 H        3.0850     4.3030     1.0050 H     1 <1>   0.0800 
 26 H        2.5720     2.8490     1.8620 H     1 <1>   0.0800 
 27 H       -0.7620     5.2550    -1.8480 H     1 <1>   0.1500 
 28 H        3.3210     0.7340    -2.0220 H     1 <1>   0.0800 
 29 H        1.7090     0.3320    -1.5000 H     1 <1>   0.0800 
 30 H        4.4060     1.6280     1.4180 H     1 <1>   0.0800 
 31 H        4.9890     1.4860    -0.2180 H     1 <1>   0.0800 
 32 H       -4.0090     2.3930     0.4790 H     1 <1>   0.1500 
 33 H       -3.1620     5.5340    -2.2750 H     1 <1>   0.1500 
 34 H        3.1520    -1.6750    -1.8170 H     1 <1>   0.0800 
 35 H        2.5200    -1.5510    -0.1910 H     1 <1>   0.0800 
 36 H        4.0140    -0.8020     1.5230 H     1 <1>   0.0800 
 37 H        5.6710    -0.4780     1.0590 H     1 <1>   0.0800 
 38 H        0.2280     1.0350     0.8290 H     1 <1>   0.0800 
 39 H       -0.9380     0.6930    -0.4500 H     1 <1>   0.0800 
 40 H       -4.7950     4.1100    -1.1060 H     1 <1>   0.1500 
 41 H       -2.2410    -0.6980     1.0980 H     1 <1>   0.0800 
 42 H       -1.1630    -0.2910     2.4130 H     1 <1>   0.0800 
 43 H       -0.3510    -1.8320    -0.0740 H     1 <1>   0.0800 
 44 H       -0.6500    -2.5330     1.4980 H     1 <1>   0.0800 
 45 H        0.6950    -1.4430     1.2770 H     1 <1>   0.0800 
@<TRIPOS>BOND
  1   1   2  2   
  2   2   3  am  
  3   2   4  1   
  4   3   5  1   
  5   3   6  am  
  6   4   7  1   
  7   4   8  1   
  8   4  24  1   
  9   5   9  ar  
 10   5  10  ar  
 11   6   8  1   
 12   6  11  2   
 13   7  12  1   
 14   7  13  1   
 15   8  25  1   
 16   8  26  1   
 17   9  14  1   
 18   9  15  ar  
 19  10  16  ar  
 20  10  27  1   
 21  12  17  1   
 22  12  28  1   
 23  12  29  1   
 24  13  18  1   
 25  13  30  1   
 26  13  31  1   
 27  14  19  1   
 28  15  20  ar  
 29  15  32  1   
 30  16  20  ar  
 31  16  33  1   
 32  17  21  1   
 33  17  34  1   
 34  17  35  1   
 35  18  21  1   
 36  18  36  1   
 37  18  37  1   
 38  19  22  1   
 39  19  38  1   
 40  19  39  1   
 41  20  40  1   
 42  22  23  1   
 43  22  41  1   
 44  22  42  1   
 45  23  43  1   
 46  23  44  1   
 47  23  45  1   
@<TRIPOS>SUBSTRUCTURE
  1 ****   2 GROUP 4 **** **** 0

# MOE 2024.06 (io_trps.svl 2023.06)
