@<TRIPOS>MOLECULE
NONAME
50 52 1 0 0 
SMALL
USER_CHARGES


@<TRIPOS>ATOM
  1 CL      -4.0040     5.6150     0.5740 Cl    1 <1>  -0.1770 
  2 C       -2.4580     4.8360     0.3030 C.ar  1 <1>   0.1770 
  3 C       -2.4210     3.4790    -0.0150 C.ar  1 <1>   0.1170 
  4 C       -1.3100     5.5980     0.4090 C.ar  1 <1>  -0.1500 
  5 N       -3.6200     2.7500    -0.1030 N.am  1 <1>  -0.5470 
  6 C       -1.1710     2.9030    -0.2250 C.ar  1 <1>  -0.1500 
  7 C       -0.0780     5.0030     0.1940 C.ar  1 <1>  -0.1500 
  8 C       -3.9500     1.5590    -0.6800 C.2   1 <1>   0.5690 
  9 C       -0.0130     3.6560    -0.1230 C.ar  1 <1>  -0.1500 
 10 O       -3.1670     0.8360    -1.2480 O.2   1 <1>  -0.5700 
 11 C       -5.4220     1.1480    -0.5890 C.3   1 <1>   0.1710 
 12 N       -6.3420     2.2870    -0.2970 N.3   1 <1>  -0.8100 
 13 C       -6.5470     3.1390    -1.5000 C.3   1 <1>   0.1100 
 14 C       -7.6550     1.8000     0.1880 C.3   1 <1>   0.1100 
 15 C       -7.5110     4.3090    -1.2280 C.3   1 <1>   0.2090 
 16 C       -8.6340     2.9540     0.4790 C.3   1 <1>   0.2090 
 17 N       -8.8230     3.8040    -0.7310 N.pl3 1 <1>  -0.8380 
 18 C       -9.8440     4.7610    -0.6400 C.ar  1 <1>   0.1000 
 19 C       -9.8280     5.8610     0.2380 C.ar  1 <1>   0.0830 
 20 C      -10.9340     4.5990    -1.4820 C.ar  1 <1>  -0.1500 
 21 O       -8.7490     6.0190     1.0650 O.3   1 <1>  -0.3620 
 22 C      -10.8980     6.7510     0.2470 C.ar  1 <1>  -0.1500 
 23 C      -11.9930     5.4890    -1.4700 C.ar  1 <1>  -0.1500 
 24 C       -8.5590     7.1940     1.8160 C.3   1 <1>   0.1200 
 25 C      -11.9750     6.5660    -0.6040 C.ar  1 <1>  -0.1500 
 26 C       -7.2000     7.0970     2.5010 C.3   1 <1>  -0.2400 
 27 H       -1.3800     6.6420     0.6560 H     1 <1>   0.1500 
 28 H       -4.4600     3.2310     0.2480 H     1 <1>   0.3700 
 29 H       -1.0960     1.8580    -0.4680 H     1 <1>   0.1500 
 30 H        0.8260     5.5840     0.2730 H     1 <1>   0.1500 
 31 H        0.9430     3.1900    -0.2900 H     1 <1>   0.1500 
 32 H       -5.4940     0.4220     0.2010 H     1 <1>   0.0800 
 33 H       -5.7090     0.6660    -1.5070 H     1 <1>   0.0800 
 34 H       -6.9530     2.5470    -2.3020 H     1 <1>   0.0800 
 35 H       -5.6050     3.5420    -1.8280 H     1 <1>   0.0800 
 36 H       -7.5140     1.2350     1.0930 H     1 <1>   0.0800 
 37 H       -8.1010     1.1520    -0.5480 H     1 <1>   0.0800 
 38 H       -7.6670     4.8670    -2.1340 H     1 <1>   0.0800 
 39 H       -7.0710     4.9670    -0.4990 H     1 <1>   0.0800 
 40 H       -8.2460     3.5500     1.2870 H     1 <1>   0.0800 
 41 H       -9.5850     2.5550     0.7820 H     1 <1>   0.0800 
 42 H      -10.9410     3.7590    -2.1510 H     1 <1>   0.1500 
 43 H      -10.9190     7.5950     0.9080 H     1 <1>   0.1500 
 44 H      -12.8270     5.3410    -2.1330 H     1 <1>   0.1500 
 45 H       -9.3490     7.2650     2.5430 H     1 <1>   0.0800 
 46 H       -8.5880     8.0360     1.1450 H     1 <1>   0.0800 
 47 H      -12.7980     7.2590    -0.5920 H     1 <1>   0.1500 
 48 H       -7.1730     6.2380     3.1470 H     1 <1>   0.0800 
 49 H       -7.0240     7.9780     3.0910 H     1 <1>   0.0800 
 50 H       -6.4220     7.0160     1.7640 H     1 <1>   0.0800 
@<TRIPOS>BOND
  1   1   2  1   
  2   2   3  ar  
  3   2   4  ar  
  4   3   5  1   
  5   3   6  ar  
  6   4   7  ar  
  7   4  27  1   
  8   5   8  am  
  9   5  28  1   
 10   6   9  ar  
 11   6  29  1   
 12   7   9  ar  
 13   7  30  1   
 14   8  10  2   
 15   8  11  1   
 16   9  31  1   
 17  11  12  1   
 18  11  32  1   
 19  11  33  1   
 20  12  13  1   
 21  12  14  1   
 22  13  15  1   
 23  13  34  1   
 24  13  35  1   
 25  14  16  1   
 26  14  36  1   
 27  14  37  1   
 28  15  17  1   
 29  15  38  1   
 30  15  39  1   
 31  16  17  1   
 32  16  40  1   
 33  16  41  1   
 34  17  18  1   
 35  18  19  ar  
 36  18  20  ar  
 37  19  21  1   
 38  19  22  ar  
 39  20  23  ar  
 40  20  42  1   
 41  21  24  1   
 42  22  25  ar  
 43  22  43  1   
 44  23  25  ar  
 45  23  44  1   
 46  24  26  1   
 47  24  45  1   
 48  24  46  1   
 49  25  47  1   
 50  26  48  1   
 51  26  49  1   
 52  26  50  1   
@<TRIPOS>SUBSTRUCTURE
  1 ****  15 GROUP 4 **** **** 0

# MOE 2024.06 (io_trps.svl 2023.06)
