@<TRIPOS>MOLECULE
NONAME
39 39 1 0 0 
SMALL
USER_CHARGES


@<TRIPOS>ATOM
  1 S        0.3050    -0.0680     0.5040 S.o2  1 <1>   1.3330 
  2 O        1.0410    -1.2510     0.8790 O.2   1 <1>  -0.6500 
  3 O       -0.3620     0.7620     1.4780 O.2   1 <1>  -0.6500 
  4 N        1.3520     0.9290    -0.4590 N.am  1 <1>  -0.6930 
  5 C       -0.9100    -0.5680    -0.6960 C.3   1 <1>  -0.1350 
  6 C        1.3190     2.3230    -0.3490 C.ar  1 <1>   0.1990 
  7 C        2.5240     0.2410    -1.0590 C.3   1 <1>   0.1160 
  8 C        2.3840     3.0960     0.1550 C.ar  1 <1>   0.0860 
  9 C        0.1650     2.9800    -0.7750 C.ar  1 <1>  -0.1500 
 10 C        3.6280     2.5230     0.6030 C.2   1 <1>   0.5440 
 11 C        2.2380     4.4840     0.2110 C.ar  1 <1>  -0.1500 
 12 C        0.0430     4.3530    -0.7140 C.ar  1 <1>  -0.1500 
 13 O        3.6720     1.7900     1.5700 O.2   1 <1>  -0.5700 
 14 N        4.7770     2.8240    -0.0830 N.am  1 <1>  -0.7300 
 15 C        1.0860     5.1110    -0.2170 C.ar  1 <1>  -0.1500 
 16 C        6.1520     2.3770     0.1630 C.3   1 <1>   0.3000 
 17 C        7.0160     3.0270    -0.9160 C.3   1 <1>  -0.2400 
 18 C        6.2360     0.8560     0.0360 C.3   1 <1>  -0.2400 
 19 C        6.6150     2.8520     1.5410 C.3   1 <1>  -0.2400 
 20 H       -1.6150    -1.2350    -0.2420 H     1 <1>   0.0800 
 21 H       -0.4360    -1.0740    -1.5140 H     1 <1>   0.0800 
 22 H       -1.4400     0.2840    -1.0720 H     1 <1>   0.0800 
 23 H        2.1960    -0.5980    -1.6460 H     1 <1>   0.0800 
 24 H        3.1720    -0.1170    -0.2760 H     1 <1>   0.0800 
 25 H        3.0740     0.9170    -1.6910 H     1 <1>   0.0800 
 26 H       -0.6530     2.4050    -1.1620 H     1 <1>   0.1500 
 27 H        3.0450     5.0750     0.6080 H     1 <1>   0.1500 
 28 H       -0.8610     4.8340    -1.0460 H     1 <1>   0.1500 
 29 H        4.7000     3.4580    -0.8750 H     1 <1>   0.3700 
 30 H        0.9950     6.1830    -0.1600 H     1 <1>   0.1500 
 31 H        6.6990     2.7140    -1.8950 H     1 <1>   0.0800 
 32 H        8.0430     2.7370    -0.7900 H     1 <1>   0.0800 
 33 H        6.9620     4.0990    -0.8500 H     1 <1>   0.0800 
 34 H        7.2550     0.5320     0.1410 H     1 <1>   0.0800 
 35 H        5.8720     0.5360    -0.9220 H     1 <1>   0.0800 
 36 H        5.6590     0.3790     0.8080 H     1 <1>   0.0800 
 37 H        7.6480     2.6000     1.6920 H     1 <1>   0.0800 
 38 H        6.0430     2.3770     2.3170 H     1 <1>   0.0800 
 39 H        6.5050     3.9170     1.6300 H     1 <1>   0.0800 
@<TRIPOS>BOND
  1   1   2  2   
  2   1   3  2   
  3   1   4  am  
  4   1   5  1   
  5   4   6  1   
  6   4   7  1   
  7   5  20  1   
  8   5  21  1   
  9   5  22  1   
 10   6   8  ar  
 11   6   9  ar  
 12   7  23  1   
 13   7  24  1   
 14   7  25  1   
 15   8  10  1   
 16   8  11  ar  
 17   9  12  ar  
 18   9  26  1   
 19  10  13  2   
 20  10  14  am  
 21  11  15  ar  
 22  11  27  1   
 23  12  15  ar  
 24  12  28  1   
 25  14  16  1   
 26  14  29  1   
 27  15  30  1   
 28  16  17  1   
 29  16  18  1   
 30  16  19  1   
 31  17  31  1   
 32  17  32  1   
 33  17  33  1   
 34  18  34  1   
 35  18  35  1   
 36  18  36  1   
 37  19  37  1   
 38  19  38  1   
 39  19  39  1   
@<TRIPOS>SUBSTRUCTURE
  1 ****   8 GROUP 4 **** **** 0

# MOE 2024.06 (io_trps.svl 2023.06)
