@<TRIPOS>MOLECULE
NONAME
42 44 1 0 0 
SMALL
USER_CHARGES


@<TRIPOS>ATOM
  1 S        0.8330    -2.5970     2.3120 S.2   1 <1>  -0.6770 
  2 P        0.1200    -1.8780     0.6520 P.3   1 <1>   1.2200 
  3 O       -0.7550    -0.5630     0.8900 O.3   1 <1>  -0.5510 
  4 O       -1.0680    -2.7910     0.0940 O.3   1 <1>  -0.5510 
  5 C        1.1970    -1.5700    -0.7790 C.3   1 <1>   0.4330 
  6 C       -2.0870    -0.7420     0.5680 C.3   1 <1>   0.2000 
  7 C       -2.3040    -2.2660     0.4180 C.3   1 <1>   0.2000 
  8 N        1.8520    -2.7590    -1.4580 N.pl3 1 <1>  -0.8690 
  9 C        2.2250    -0.4470    -0.5860 C.ar  1 <1>  -0.1440 
 10 C       -2.3480     0.0290    -0.7280 C.3   1 <1>  -0.2400 
 11 C       -2.7850    -2.9400     1.7060 C.3   1 <1>  -0.2400 
 12 C        2.9980    -3.2980    -0.8930 C.ar  1 <1>   0.1000 
 13 C        2.3230     0.5640    -1.5340 C.ar  1 <1>  -0.1500 
 14 C        3.0670    -0.4100     0.5190 C.ar  1 <1>  -0.1500 
 15 C        4.2520    -2.8190    -1.2490 C.ar  1 <1>  -0.1500 
 16 C        2.9140    -4.3350     0.0290 C.ar  1 <1>  -0.1500 
 17 C        3.2300     1.5970    -1.3740 C.ar  1 <1>  -0.1500 
 18 C        3.9740     0.6230     0.6810 C.ar  1 <1>  -0.1500 
 19 C        5.3990    -3.3550    -0.6930 C.ar  1 <1>  -0.1500 
 20 C        4.0590    -4.8730     0.5890 C.ar  1 <1>  -0.1500 
 21 C        4.0550     1.6290    -0.2640 C.ar  1 <1>  -0.1500 
 22 C        5.3040    -4.3840     0.2290 C.ar  1 <1>  -0.1500 
 23 H        0.5340    -1.1890    -1.5320 H     1 <1>   0.0800 
 24 H       -2.6890    -0.3360     1.3630 H     1 <1>   0.0800 
 25 H       -2.9910    -2.4900    -0.3800 H     1 <1>   0.0800 
 26 H        1.1470    -3.4840    -1.6320 H     1 <1>   0.4000 
 27 H       -1.7700    -0.3700    -1.5420 H     1 <1>   0.0800 
 28 H       -2.1050     1.0680    -0.5910 H     1 <1>   0.0800 
 29 H       -3.3900    -0.0400    -0.9870 H     1 <1>   0.0800 
 30 H       -2.1330    -2.7160     2.5320 H     1 <1>   0.0800 
 31 H       -2.8280    -4.0060     1.5700 H     1 <1>   0.0800 
 32 H       -3.7720    -2.5910     1.9540 H     1 <1>   0.0800 
 33 H        1.6970     0.5550    -2.4090 H     1 <1>   0.1500 
 34 H        3.0390    -1.1900     1.2610 H     1 <1>   0.1500 
 35 H        4.3170    -2.0180    -1.9630 H     1 <1>   0.1500 
 36 H        1.9540    -4.7190     0.3180 H     1 <1>   0.1500 
 37 H        3.2960     2.3760    -2.1130 H     1 <1>   0.1500 
 38 H        4.6180     0.6370     1.5420 H     1 <1>   0.1500 
 39 H        6.3630    -2.9710    -0.9760 H     1 <1>   0.1500 
 40 H        3.9810    -5.6690     1.3080 H     1 <1>   0.1500 
 41 H        4.7600     2.4320    -0.1370 H     1 <1>   0.1500 
 42 H        6.1940    -4.8020     0.6650 H     1 <1>   0.1500 
@<TRIPOS>BOND
  1   1   2  2   
  2   2   3  1   
  3   2   4  1   
  4   2   5  1   
  5   3   6  1   
  6   4   7  1   
  7   5   8  1   
  8   5   9  1   
  9   5  23  1   
 10   6   7  1   
 11   6  10  1   
 12   6  24  1   
 13   7  11  1   
 14   7  25  1   
 15   8  12  1   
 16   8  26  1   
 17   9  13  ar  
 18   9  14  ar  
 19  10  27  1   
 20  10  28  1   
 21  10  29  1   
 22  11  30  1   
 23  11  31  1   
 24  11  32  1   
 25  12  15  ar  
 26  12  16  ar  
 27  13  17  ar  
 28  13  33  1   
 29  14  18  ar  
 30  14  34  1   
 31  15  19  ar  
 32  15  35  1   
 33  16  20  ar  
 34  16  36  1   
 35  17  21  ar  
 36  17  37  1   
 37  18  21  ar  
 38  18  38  1   
 39  19  22  ar  
 40  19  39  1   
 41  20  22  ar  
 42  20  40  1   
 43  21  41  1   
 44  22  42  1   
@<TRIPOS>SUBSTRUCTURE
  1 ****   5 GROUP 4 **** **** 0

# MOE 2024.06 (io_trps.svl 2023.06)
