@<TRIPOS>MOLECULE
NONAME
38 40 1 0 0 
SMALL
USER_CHARGES


@<TRIPOS>ATOM
  1 F       -1.4390     1.2140     0.1230 F     1 <1>  -0.3400 
  2 C       -1.3260     2.1490     1.0570 C.3   1 <1>   1.1640 
  3 F       -0.6680     1.6020     2.0680 F     1 <1>  -0.3400 
  4 F       -2.5640     2.3770     1.4860 F     1 <1>  -0.3400 
  5 C       -0.7000     3.4400     0.4960 C.ar  1 <1>  -0.1440 
  6 C       -1.2160     4.0850    -0.6380 C.ar  1 <1>  -0.1440 
  7 C        0.4110     3.9940     1.1290 C.ar  1 <1>  -0.1500 
  8 C       -0.6060     5.2390    -1.1120 C.ar  1 <1>  -0.1500 
  9 C       -2.4360     3.5780    -1.4050 C.3   1 <1>   0.4870 
 10 C        1.0020     5.1480     0.6520 C.ar  1 <1>  -0.1500 
 11 C        0.4950     5.7710    -0.4700 C.ar  1 <1>  -0.1500 
 12 N       -3.6810     3.9080    -0.6600 N.4   1 <1>  -0.9590 
 13 C       -4.8850     3.3550    -1.3380 C.3   1 <1>   0.4860 
 14 C       -3.8520     5.3700    -0.4040 C.3   1 <1>   0.3430 
 15 C       -6.1380     3.6750    -0.5410 C.ar  1 <1>  -0.1430 
 16 C       -4.9550     5.5920     0.6320 C.3   1 <1>  -0.0170 
 17 C       -6.1790     4.7270     0.3690 C.ar  1 <1>  -0.1430 
 18 C       -7.2720     2.9000    -0.7400 C.ar  1 <1>  -0.1500 
 19 C       -7.3490     4.9910     1.0640 C.ar  1 <1>  -0.1500 
 20 C       -8.4360     3.1690    -0.0430 C.ar  1 <1>  -0.1500 
 21 C       -8.4740     4.2150     0.8590 C.ar  1 <1>  -0.1500 
 22 H        0.8390     3.5340     2.0060 H     1 <1>   0.1500 
 23 H       -0.9740     5.7430    -1.9900 H     1 <1>   0.1500 
 24 H       -2.3600     2.5130    -1.5510 H     1 <1>   0.0800 
 25 H       -2.4600     4.0410    -2.3780 H     1 <1>   0.0800 
 26 H        1.8620     5.5610     1.1540 H     1 <1>   0.1500 
 27 H        0.9650     6.6670    -0.8430 H     1 <1>   0.1500 
 28 H       -3.6480     3.4510     0.2640 H     1 <1>   0.4500 
 29 H       -4.7930     2.2850    -1.4350 H     1 <1>   0.0800 
 30 H       -4.9810     3.7800    -2.3240 H     1 <1>   0.0800 
 31 H       -4.1180     5.8700    -1.3220 H     1 <1>   0.0800 
 32 H       -2.9350     5.8020    -0.0350 H     1 <1>   0.0800 
 33 H       -5.2350     6.6310     0.6250 H     1 <1>   0.0800 
 34 H       -4.5710     5.3670     1.6110 H     1 <1>   0.0800 
 35 H       -7.2680     2.0800    -1.4390 H     1 <1>   0.1500 
 36 H       -7.3940     5.8000     1.7740 H     1 <1>   0.1500 
 37 H       -9.3140     2.5650    -0.2010 H     1 <1>   0.1500 
 38 H       -9.3810     4.4240     1.4020 H     1 <1>   0.1500 
@<TRIPOS>BOND
  1   1   2  1   
  2   2   3  1   
  3   2   4  1   
  4   2   5  1   
  5   5   6  ar  
  6   5   7  ar  
  7   6   8  ar  
  8   6   9  1   
  9   7  10  ar  
 10   7  22  1   
 11   8  11  ar  
 12   8  23  1   
 13   9  12  1   
 14   9  24  1   
 15   9  25  1   
 16  10  11  ar  
 17  10  26  1   
 18  11  27  1   
 19  12  13  1   
 20  12  14  1   
 21  12  28  1   
 22  13  15  1   
 23  13  29  1   
 24  13  30  1   
 25  14  16  1   
 26  14  31  1   
 27  14  32  1   
 28  15  17  ar  
 29  15  18  ar  
 30  16  17  1   
 31  16  33  1   
 32  16  34  1   
 33  17  19  ar  
 34  18  20  ar  
 35  18  35  1   
 36  19  21  ar  
 37  19  36  1   
 38  20  21  ar  
 39  20  37  1   
 40  21  38  1   
@<TRIPOS>SUBSTRUCTURE
  1 ****  12 GROUP 4 **** **** 0

# MOE 2024.06 (io_trps.svl 2023.06)
