@<TRIPOS>MOLECULE
NONAME
54 58 1 0 0 
SMALL
USER_CHARGES


@<TRIPOS>ATOM
  1 O       -0.6730     1.4640    -2.0520 O.2   1 <1>  -0.5700 
  2 C       -0.3400     2.2560    -1.2200 C.2   1 <1>   0.4480 
  3 C        1.0450     2.3030    -0.6080 C.3   1 <1>   0.0610 
  4 C       -1.2280     3.3430    -0.6400 C.3   1 <1>   0.0610 
  5 C        2.0640     2.7420    -1.6700 C.3   1 <1>   0.1200 
  6 C        1.4880     0.9260    -0.0980 C.3   1 <1>   0.1200 
  7 C        0.9220     3.3370     0.5290 C.3   1 <1>  -0.1600 
  8 C       -2.0150     4.1030    -1.7330 C.3   1 <1>   0.1200 
  9 C       -2.2460     2.7000     0.3150 C.3   1 <1>   0.1200 
 10 C       -0.2370     4.2510     0.1240 C.3   1 <1>  -0.1600 
 11 O        3.3460     2.6600    -1.1280 O.3   1 <1>  -0.5600 
 12 O        2.8160     1.0110     0.3170 O.3   1 <1>  -0.5600 
 13 O       -3.3400     4.3210    -1.3430 O.3   1 <1>  -0.5600 
 14 O       -3.1160     3.6700     0.8320 O.3   1 <1>  -0.5600 
 15 C        3.7130     1.3760    -0.6970 C.3   1 <1>   0.6240 
 16 C       -3.5060     4.7240    -0.0140 C.3   1 <1>   0.6240 
 17 C        5.1490     1.3740    -0.1620 C.ar  1 <1>  -0.1430 
 18 C       -4.9670     5.0680     0.2480 C.ar  1 <1>  -0.1430 
 19 C        5.5460     0.4270     0.7770 C.ar  1 <1>  -0.1500 
 20 C        6.0860     2.2970    -0.6160 C.ar  1 <1>  -0.1500 
 21 C       -5.3090     6.2760     0.8450 C.ar  1 <1>  -0.1500 
 22 C       -5.9750     4.1790    -0.1060 C.ar  1 <1>  -0.1500 
 23 C        6.8460     0.4030     1.2530 C.ar  1 <1>  -0.1500 
 24 C        7.3880     2.2790    -0.1430 C.ar  1 <1>  -0.1500 
 25 C       -6.6360     6.5890     1.0830 C.ar  1 <1>  -0.1500 
 26 C       -7.3040     4.4870     0.1300 C.ar  1 <1>  -0.1500 
 27 C        7.7630     1.3290     0.7910 C.ar  1 <1>   0.0820 
 28 C       -7.6280     5.6950     0.7240 C.ar  1 <1>   0.0820 
 29 O        9.0200     1.2990     1.2580 O.3   1 <1>  -0.5330 
 30 O       -8.9110     6.0090     0.9590 O.3   1 <1>  -0.5330 
 31 H        1.8960     3.7600    -1.9730 H     1 <1>   0.0800 
 32 H        2.0190     2.1060    -2.5390 H     1 <1>   0.0800 
 33 H        1.4170     0.1800    -0.8730 H     1 <1>   0.0800 
 34 H        0.8950     0.6100     0.7430 H     1 <1>   0.0800 
 35 H        1.8370     3.8840     0.6860 H     1 <1>   0.0800 
 36 H        0.6710     2.8400     1.4510 H     1 <1>   0.0800 
 37 H       -2.0570     3.5250    -2.6410 H     1 <1>   0.0800 
 38 H       -1.5690     5.0550    -1.9590 H     1 <1>   0.0800 
 39 H       -1.7650     2.2090     1.1420 H     1 <1>   0.0800 
 40 H       -2.8460     1.9790    -0.2160 H     1 <1>   0.0800 
 41 H       -0.6810     4.7270     0.9820 H     1 <1>   0.0800 
 42 H        0.1480     5.0160    -0.5290 H     1 <1>   0.0800 
 43 H        3.6220     0.6850    -1.5190 H     1 <1>   0.0800 
 44 H       -2.8720     5.5730     0.1740 H     1 <1>   0.0800 
 45 H        4.8390    -0.2960     1.1460 H     1 <1>   0.1500 
 46 H        5.8030     3.0400    -1.3410 H     1 <1>   0.1500 
 47 H       -4.5450     6.9770     1.1310 H     1 <1>   0.1500 
 48 H       -5.7130     3.2420    -0.5680 H     1 <1>   0.1500 
 49 H        7.1510    -0.3260     1.9800 H     1 <1>   0.1500 
 50 H        8.0960     3.0020    -0.5030 H     1 <1>   0.1500 
 51 H       -6.9080     7.5210     1.5450 H     1 <1>   0.1500 
 52 H       -8.0700     3.7890    -0.1500 H     1 <1>   0.1500 
 53 H        9.5790     2.0020     0.8850 H     1 <1>   0.4500 
 54 H       -9.5280     5.3140     0.6730 H     1 <1>   0.4500 
@<TRIPOS>BOND
  1   1   2  2   
  2   2   3  1   
  3   2   4  1   
  4   3   5  1   
  5   3   6  1   
  6   3   7  1   
  7   4   8  1   
  8   4   9  1   
  9   4  10  1   
 10   5  11  1   
 11   5  31  1   
 12   5  32  1   
 13   6  12  1   
 14   6  33  1   
 15   6  34  1   
 16   7  10  1   
 17   7  35  1   
 18   7  36  1   
 19   8  13  1   
 20   8  37  1   
 21   8  38  1   
 22   9  14  1   
 23   9  39  1   
 24   9  40  1   
 25  10  41  1   
 26  10  42  1   
 27  11  15  1   
 28  12  15  1   
 29  13  16  1   
 30  14  16  1   
 31  15  17  1   
 32  15  43  1   
 33  16  18  1   
 34  16  44  1   
 35  17  19  ar  
 36  17  20  ar  
 37  18  21  ar  
 38  18  22  ar  
 39  19  23  ar  
 40  19  45  1   
 41  20  24  ar  
 42  20  46  1   
 43  21  25  ar  
 44  21  47  1   
 45  22  26  ar  
 46  22  48  1   
 47  23  27  ar  
 48  23  49  1   
 49  24  27  ar  
 50  24  50  1   
 51  25  28  ar  
 52  25  51  1   
 53  26  28  ar  
 54  26  52  1   
 55  27  29  1   
 56  28  30  1   
 57  29  53  1   
 58  30  54  1   
@<TRIPOS>SUBSTRUCTURE
  1 ****   7 GROUP 4 **** **** 0

# MOE 2024.06 (io_trps.svl 2023.06)
