@<TRIPOS>MOLECULE
NONAME
40 41 1 0 0 
SMALL
USER_CHARGES


@<TRIPOS>ATOM
  1 S       -0.1060    -0.0960     0.0880 S.o2  1 <1>   1.4470 
  2 O       -0.3370    -0.8960    -1.0930 O.2   1 <1>  -0.6500 
  3 O       -0.2820    -0.6660     1.4040 O.2   1 <1>  -0.6500 
  4 N       -1.2170     1.1500    -0.0600 N.am  1 <1>  -0.9140 
  5 C        1.4880     0.7600    -0.0140 C.ar  1 <1>  -0.0090 
  6 C       -2.5300     0.7910     0.4490 C.3   1 <1>   0.1960 
  7 C        1.8380     1.7300     0.9170 C.ar  1 <1>  -0.1500 
  8 C        2.4050     0.4770    -1.0200 C.ar  1 <1>  -0.1500 
  9 C       -3.5550     1.8790     0.0880 C.3   1 <1>  -0.0800 
 10 C        3.0520     2.3900     0.8480 C.ar  1 <1>  -0.1500 
 11 C        3.6190     1.1350    -1.0940 C.ar  1 <1>  -0.1500 
 12 C       -4.9180     1.5390     0.7040 C.3   1 <1>  -0.2400 
 13 C       -3.7100     2.0560    -1.4330 C.3   1 <1>  -0.2400 
 14 C        3.9660     2.1040    -0.1570 C.ar  1 <1>   0.1170 
 15 N        5.1800     2.8070    -0.1770 N.am  1 <1>  -0.5470 
 16 C        6.3330     2.6290    -0.8870 C.2   1 <1>   0.6300 
 17 O        6.5110     1.7510    -1.6930 O.2   1 <1>  -0.5700 
 18 C        7.4570     3.6200    -0.6270 C.3   1 <1>  -0.1000 
 19 C        8.7670     3.1570    -0.0570 C.3   1 <1>  -0.2000 
 20 C        7.8590     4.0150     0.7680 C.3   1 <1>  -0.2000 
 21 H       -1.3230     1.2520    -1.0660 H     1 <1>   0.4200 
 22 H       -2.4790     0.6840     1.5200 H     1 <1>   0.0800 
 23 H       -2.8420    -0.1530     0.0300 H     1 <1>   0.0800 
 24 H        1.1440     1.9680     1.7070 H     1 <1>   0.1500 
 25 H        2.1660    -0.2700    -1.7590 H     1 <1>   0.1500 
 26 H       -3.2210     2.8100     0.5150 H     1 <1>   0.0800 
 27 H        3.2870     3.1330     1.5890 H     1 <1>   0.1500 
 28 H        4.2940     0.8860    -1.8920 H     1 <1>   0.1500 
 29 H       -5.2970     0.6150     0.3050 H     1 <1>   0.0800 
 30 H       -5.6290     2.3200     0.4930 H     1 <1>   0.0800 
 31 H       -4.8330     1.4440     1.7720 H     1 <1>   0.0800 
 32 H       -3.9890     1.1260    -1.8970 H     1 <1>   0.0800 
 33 H       -2.7940     2.4040    -1.8740 H     1 <1>   0.0800 
 34 H       -4.4730     2.7840    -1.6450 H     1 <1>   0.0800 
 35 H        5.2320     3.5810     0.4800 H     1 <1>   0.3700 
 36 H        7.5080     4.3640    -1.4010 H     1 <1>   0.1000 
 37 H        9.6740     3.5800    -0.4520 H     1 <1>   0.1000 
 38 H        8.8720     2.1130     0.1870 H     1 <1>   0.1000 
 39 H        7.3900     3.5570     1.6210 H     1 <1>   0.1000 
 40 H        8.1500     5.0340     0.9560 H     1 <1>   0.1000 
@<TRIPOS>BOND
  1   1   2  2   
  2   1   3  2   
  3   1   4  am  
  4   1   5  1   
  5   4   6  1   
  6   4  21  1   
  7   5   7  ar  
  8   5   8  ar  
  9   6   9  1   
 10   6  22  1   
 11   6  23  1   
 12   7  10  ar  
 13   7  24  1   
 14   8  11  ar  
 15   8  25  1   
 16   9  12  1   
 17   9  13  1   
 18   9  26  1   
 19  10  14  ar  
 20  10  27  1   
 21  11  14  ar  
 22  11  28  1   
 23  12  29  1   
 24  12  30  1   
 25  12  31  1   
 26  13  32  1   
 27  13  33  1   
 28  13  34  1   
 29  14  15  1   
 30  15  16  am  
 31  15  35  1   
 32  16  17  2   
 33  16  18  1   
 34  18  19  1   
 35  18  20  1   
 36  18  36  1   
 37  19  20  1   
 38  19  37  1   
 39  19  38  1   
 40  20  39  1   
 41  20  40  1   
@<TRIPOS>SUBSTRUCTURE
  1 ****   5 GROUP 4 **** **** 0

# MOE 2024.06 (io_trps.svl 2023.06)
