@<TRIPOS>MOLECULE
NONAME
37 37 1 0 0 
SMALL
USER_CHARGES


@<TRIPOS>ATOM
  1 CL       0.0470    -0.7120     0.0090 Cl    1 <1>  -0.1770 
  2 C       -1.0800     0.6320    -0.0440 C.ar  1 <1>   0.1770 
  3 C       -0.6970     1.9840    -0.0770 C.ar  1 <1>   0.0830 
  4 C       -2.4160     0.2740    -0.0520 C.ar  1 <1>  -0.1500 
  5 O        0.5690     2.4930    -0.0750 O.3   1 <1>  -0.3630 
  6 C       -1.6940     2.9510    -0.1180 C.ar  1 <1>  -0.1500 
  7 C       -3.3790     1.2610    -0.0920 C.ar  1 <1>   0.1770 
  8 C        1.7360     1.7160    -0.0380 C.3   1 <1>   0.1200 
  9 C       -3.0330     2.5980    -0.1260 C.ar  1 <1>  -0.1500 
 10 CL      -5.0660     0.8120    -0.1020 Cl    1 <1>  -0.1770 
 11 C        2.9250     2.6740    -0.0490 C.3   1 <1>  -0.1600 
 12 C        4.2370     1.8990    -0.0100 C.3   1 <1>   0.3430 
 13 N        5.3630     2.8620    -0.0220 N.4   1 <1>  -0.9060 
 14 C        6.6850     2.1940     0.0150 C.3   1 <1>   0.3430 
 15 C        7.7780     3.2600    -0.0010 C.3   1 <1>  -0.1600 
 16 C        9.1690     2.6150     0.0360 C.3   1 <1>  -0.1600 
 17 C       10.2670     3.6820     0.0200 C.3   1 <1>  -0.2400 
 18 H       -2.7050    -0.7610    -0.0260 H     1 <1>   0.1500 
 19 H       -1.4160     3.9900    -0.1440 H     1 <1>   0.1500 
 20 H        1.7450     1.0800    -0.9070 H     1 <1>   0.0800 
 21 H        1.7220     1.1310     0.8670 H     1 <1>   0.0800 
 22 H       -3.8030     3.3500    -0.1570 H     1 <1>   0.1500 
 23 H        2.8530     3.3160     0.8120 H     1 <1>   0.0800 
 24 H        2.8760     3.2660    -0.9470 H     1 <1>   0.0800 
 25 H        4.2990     1.2460    -0.8670 H     1 <1>   0.0800 
 26 H        4.2750     1.2960     0.8840 H     1 <1>   0.0800 
 27 H        5.2830     3.4960     0.7830 H     1 <1>   0.4500 
 28 H        5.3040     3.4500    -0.8630 H     1 <1>   0.4500 
 29 H        6.8000     1.5480    -0.8420 H     1 <1>   0.0800 
 30 H        6.7760     1.5970     0.9090 H     1 <1>   0.0800 
 31 H        7.6720     3.9030     0.8560 H     1 <1>   0.0800 
 32 H        7.6950     3.8540    -0.8950 H     1 <1>   0.0800 
 33 H        9.3010     1.9690    -0.8170 H     1 <1>   0.0800 
 34 H        9.2780     2.0180     0.9270 H     1 <1>   0.0800 
 35 H       10.2070     4.2800    -0.8730 H     1 <1>   0.0800 
 36 H       11.2350     3.2130     0.0460 H     1 <1>   0.0800 
 37 H       10.1840     4.3290     0.8760 H     1 <1>   0.0800 
@<TRIPOS>BOND
  1   1   2  1   
  2   2   3  ar  
  3   2   4  ar  
  4   3   5  1   
  5   3   6  ar  
  6   4   7  ar  
  7   4  18  1   
  8   5   8  1   
  9   6   9  ar  
 10   6  19  1   
 11   7   9  ar  
 12   7  10  1   
 13   8  11  1   
 14   8  20  1   
 15   8  21  1   
 16   9  22  1   
 17  11  12  1   
 18  11  23  1   
 19  11  24  1   
 20  12  13  1   
 21  12  25  1   
 22  12  26  1   
 23  13  14  1   
 24  13  27  1   
 25  13  28  1   
 26  14  15  1   
 27  14  29  1   
 28  14  30  1   
 29  15  16  1   
 30  15  31  1   
 31  15  32  1   
 32  16  17  1   
 33  16  33  1   
 34  16  34  1   
 35  17  35  1   
 36  17  36  1   
 37  17  37  1   
@<TRIPOS>SUBSTRUCTURE
  1 ****   8 GROUP 4 **** **** 0

# MOE 2024.06 (io_trps.svl 2023.06)
