@<TRIPOS>MOLECULE
NONAME
32 32 1 0 0 
SMALL
USER_CHARGES


@<TRIPOS>ATOM
  1 S        0.1290    -0.7450    -1.0050 S.o2  1 <1>   1.3330 
  2 O        0.2260     0.6670    -0.7250 O.2   1 <1>  -0.6500 
  3 O       -1.1460    -1.4150    -0.9240 O.2   1 <1>  -0.6500 
  4 N        1.2330    -1.5550     0.0580 N.am  1 <1>  -0.6930 
  5 C        0.8280    -1.0540    -2.6140 C.3   1 <1>  -0.1350 
  6 C        2.5630    -1.1640     0.1460 C.ar  1 <1>   0.1990 
  7 C        0.8030    -2.8310     0.7110 C.3   1 <1>   0.3370 
  8 C        3.5740    -1.9870    -0.3480 C.ar  1 <1>  -0.1500 
  9 C        2.9030     0.0560     0.7260 C.ar  1 <1>  -0.1500 
 10 C        0.2520    -3.8940    -0.2690 C.2   1 <1>   0.6590 
 11 C       -0.1220    -2.4870     1.8900 C.3   1 <1>  -0.2400 
 12 C        4.9020    -1.6060    -0.2600 C.ar  1 <1>  -0.1500 
 13 C        4.2260     0.4520     0.8200 C.ar  1 <1>  -0.1500 
 14 O        0.7840    -4.1010    -1.3340 O.2   1 <1>  -0.5700 
 15 O       -0.8110    -4.5940     0.1210 O.3   1 <1>  -0.4300 
 16 C        5.2030    -0.3900     0.3240 C.ar  1 <1>   0.1900 
 17 C       -1.4220    -5.5520    -0.7180 C.3   1 <1>   0.0400 
 18 F        6.4560    -0.0240     0.4100 F     1 <1>  -0.1900 
 19 H        0.2360    -0.5720    -3.3660 H     1 <1>   0.0800 
 20 H        0.8520    -2.1040    -2.8210 H     1 <1>   0.0800 
 21 H        1.8260    -0.6670    -2.6640 H     1 <1>   0.0800 
 22 H        1.6790    -3.2800     1.1440 H     1 <1>   0.0800 
 23 H        3.3170    -2.9260    -0.8070 H     1 <1>   0.1500 
 24 H        2.1210     0.6940     1.1010 H     1 <1>   0.1500 
 25 H       -1.0630    -2.1020     1.5420 H     1 <1>   0.0800 
 26 H        0.3450    -1.7570     2.5260 H     1 <1>   0.0800 
 27 H       -0.3160    -3.3690     2.4720 H     1 <1>   0.0800 
 28 H        5.6920    -2.2320    -0.6370 H     1 <1>   0.1500 
 29 H        4.4960     1.3930     1.2650 H     1 <1>   0.1500 
 30 H       -2.2560    -5.9830    -0.1920 H     1 <1>   0.0800 
 31 H       -0.7020    -6.3140    -0.9630 H     1 <1>   0.0800 
 32 H       -1.7640    -5.0600    -1.6130 H     1 <1>   0.0800 
@<TRIPOS>BOND
  1   1   2  2   
  2   1   3  2   
  3   1   4  am  
  4   1   5  1   
  5   4   6  1   
  6   4   7  1   
  7   5  19  1   
  8   5  20  1   
  9   5  21  1   
 10   6   8  ar  
 11   6   9  ar  
 12   7  10  1   
 13   7  11  1   
 14   7  22  1   
 15   8  12  ar  
 16   8  23  1   
 17   9  13  ar  
 18   9  24  1   
 19  10  14  2   
 20  10  15  1   
 21  11  25  1   
 22  11  26  1   
 23  11  27  1   
 24  12  16  ar  
 25  12  28  1   
 26  13  16  ar  
 27  13  29  1   
 28  15  17  1   
 29  16  18  1   
 30  17  30  1   
 31  17  31  1   
 32  17  32  1   
@<TRIPOS>SUBSTRUCTURE
  1 ****   4 GROUP 4 **** **** 0

# MOE 2024.06 (io_trps.svl 2023.06)
