@<TRIPOS>MOLECULE
NONAME
37 37 1 0 0 
SMALL
USER_CHARGES


@<TRIPOS>ATOM
  1 F        0.9670    -0.2930     2.2420 F     1 <1>  -0.3400 
  2 C        1.2690    -1.2910     1.4120 C.3   1 <1>   0.6800 
  3 F        1.6720    -2.2660     2.2270 F     1 <1>  -0.3400 
  4 C       -0.0110    -1.7360     0.6660 C.3   1 <1>   0.6000 
  5 C        2.4430    -0.8300     0.5250 C.3   1 <1>   0.1200 
  6 F        0.2060    -2.7940    -0.1160 F     1 <1>  -0.3400 
  7 F       -0.4350    -0.7890    -0.1720 F     1 <1>  -0.3400 
  8 O        3.0150    -1.8960    -0.2280 O.3   1 <1>  -0.4300 
  9 C        4.0540    -2.6010     0.1970 C.2   1 <1>   0.6590 
 10 O        4.6130    -2.3570     1.2360 O.2   1 <1>  -0.5700 
 11 C        4.4870    -3.7400    -0.7090 C.3   1 <1>  -0.0990 
 12 C        5.9050    -4.2770    -0.4240 C.3   1 <1>  -0.0990 
 13 C        6.9890    -3.2610    -0.7310 C.2   1 <1>   0.5690 
 14 O        7.5720    -3.3580    -1.7820 O.2   1 <1>  -0.5700 
 15 N        7.2260    -2.2870     0.1950 N.am  1 <1>  -0.5470 
 16 C        8.1390    -1.2230     0.2310 C.ar  1 <1>   0.1170 
 17 C        9.2570    -1.1430    -0.5910 C.ar  1 <1>  -0.1500 
 18 C        7.9200    -0.1990     1.1450 C.ar  1 <1>  -0.1500 
 19 C       10.1250    -0.0680    -0.5070 C.ar  1 <1>  -0.1500 
 20 C        8.7860     0.8760     1.2330 C.ar  1 <1>  -0.1500 
 21 C        9.8940     0.9490     0.4050 C.ar  1 <1>  -0.1440 
 22 C       10.8480     2.1260     0.4970 C.3   1 <1>  -0.0970 
 23 H       -0.8170    -1.9760     1.3340 H     1 <1>   0.0800 
 24 H        3.2060    -0.3730     1.1290 H     1 <1>   0.0800 
 25 H        2.0880    -0.1020    -0.1830 H     1 <1>   0.0800 
 26 H        4.4390    -3.4020    -1.7290 H     1 <1>   0.0800 
 27 H        3.7770    -4.5380    -0.5940 H     1 <1>   0.0800 
 28 H        6.0780    -5.1440    -1.0360 H     1 <1>   0.0800 
 29 H        5.9870    -4.5860     0.6020 H     1 <1>   0.0800 
 30 H        6.5350    -2.2690     0.9550 H     1 <1>   0.3700 
 31 H        9.4600    -1.9210    -1.3030 H     1 <1>   0.1500 
 32 H        7.0640    -0.2420     1.7940 H     1 <1>   0.1500 
 33 H       10.9820    -0.0300    -1.1550 H     1 <1>   0.1500 
 34 H        8.5950     1.6550     1.9490 H     1 <1>   0.1500 
 35 H       10.3300     3.0060     0.8330 H     1 <1>   0.0800 
 36 H       11.2810     2.3340    -0.4650 H     1 <1>   0.0800 
 37 H       11.6370     1.9000     1.1920 H     1 <1>   0.0800 
@<TRIPOS>BOND
  1   1   2  1   
  2   2   3  1   
  3   2   4  1   
  4   2   5  1   
  5   4   6  1   
  6   4   7  1   
  7   4  23  1   
  8   5   8  1   
  9   5  24  1   
 10   5  25  1   
 11   8   9  1   
 12   9  10  2   
 13   9  11  1   
 14  11  12  1   
 15  11  26  1   
 16  11  27  1   
 17  12  13  1   
 18  12  28  1   
 19  12  29  1   
 20  13  14  2   
 21  13  15  am  
 22  15  16  1   
 23  15  30  1   
 24  16  17  ar  
 25  16  18  ar  
 26  17  19  ar  
 27  17  31  1   
 28  18  20  ar  
 29  18  32  1   
 30  19  21  ar  
 31  19  33  1   
 32  20  21  ar  
 33  20  34  1   
 34  21  22  1   
 35  22  35  1   
 36  22  36  1   
 37  22  37  1   
@<TRIPOS>SUBSTRUCTURE
  1 ****  10 GROUP 4 **** **** 0

# MOE 2024.06 (io_trps.svl 2023.06)
