@<TRIPOS>MOLECULE
NONAME
31 31 1 0 0 
SMALL
USER_CHARGES


@<TRIPOS>ATOM
  1 BR       0.9790    -0.4220    -1.8060 Br    1 <1>  -0.1110 
  2 C        0.4630    -1.9130    -0.6950 C.ar  1 <1>   0.1110 
  3 C        1.3250    -2.3480     0.3010 C.ar  1 <1>   0.0820 
  4 C       -0.7580    -2.5180    -0.9300 C.ar  1 <1>  -0.1500 
  5 O        2.5080    -1.7230     0.5180 O.3   1 <1>  -0.3630 
  6 C        0.9210    -3.4290     1.0750 C.ar  1 <1>   0.1770 
  7 C       -1.1440    -3.5970    -0.1470 C.ar  1 <1>  -0.1440 
  8 C        3.6420    -2.3140    -0.0610 C.3   1 <1>   0.1200 
  9 CL       1.9620    -4.0330     2.3470 Cl    1 <1>  -0.1770 
 10 C       -0.2970    -4.0500     0.8580 C.ar  1 <1>  -0.1500 
 11 C       -2.4800    -4.2770    -0.3860 C.3   1 <1>  -0.0960 
 12 C        4.8600    -1.5320     0.4350 C.3   1 <1>   0.3430 
 13 N        6.1370    -2.1020    -0.0920 N.4   1 <1>  -0.9060 
 14 C        7.3170    -1.3510     0.3870 C.3   1 <1>   0.3430 
 15 C        8.5610    -2.0030    -0.1970 C.3   1 <1>  -0.2400 
 16 H       -1.3940    -2.1480    -1.7150 H     1 <1>   0.1500 
 17 H        3.5400    -2.2490    -1.1300 H     1 <1>   0.0800 
 18 H        3.6880    -3.3420     0.2540 H     1 <1>   0.0800 
 19 H       -0.5790    -4.8850     1.4750 H     1 <1>   0.1500 
 20 H       -3.1940    -3.5790    -0.7850 H     1 <1>   0.0800 
 21 H       -2.8730    -4.6720     0.5340 H     1 <1>   0.0800 
 22 H       -2.3590    -5.0850    -1.0860 H     1 <1>   0.0800 
 23 H        4.8690    -1.5600     1.5130 H     1 <1>   0.0800 
 24 H        4.7620    -0.5050     0.1190 H     1 <1>   0.0800 
 25 H        6.1320    -2.0910    -1.1200 H     1 <1>   0.4500 
 26 H        6.2290    -3.0840     0.1990 H     1 <1>   0.4500 
 27 H        7.3640    -1.3750     1.4650 H     1 <1>   0.0800 
 28 H        7.2600    -0.3210     0.0690 H     1 <1>   0.0800 
 29 H        8.6530    -3.0240     0.1310 H     1 <1>   0.0800 
 30 H        9.4320    -1.4690     0.1420 H     1 <1>   0.0800 
 31 H        8.5500    -1.9650    -1.2720 H     1 <1>   0.0800 
@<TRIPOS>BOND
  1   1   2  1   
  2   2   3  ar  
  3   2   4  ar  
  4   3   5  1   
  5   3   6  ar  
  6   4   7  ar  
  7   4  16  1   
  8   5   8  1   
  9   6   9  1   
 10   6  10  ar  
 11   7  10  ar  
 12   7  11  1   
 13   8  12  1   
 14   8  17  1   
 15   8  18  1   
 16  10  19  1   
 17  11  20  1   
 18  11  21  1   
 19  11  22  1   
 20  12  13  1   
 21  12  23  1   
 22  12  24  1   
 23  13  14  1   
 24  13  25  1   
 25  13  26  1   
 26  14  15  1   
 27  14  27  1   
 28  14  28  1   
 29  15  29  1   
 30  15  30  1   
 31  15  31  1   
@<TRIPOS>SUBSTRUCTURE
  1 ****   5 GROUP 4 **** **** 0

# MOE 2024.06 (io_trps.svl 2023.06)
