@<TRIPOS>MOLECULE
NONAME
45 46 1 0 0 
SMALL
USER_CHARGES


@<TRIPOS>ATOM
  1 CL      -1.6390     0.1540    -2.4490 Cl    1 <1>  -0.1770 
  2 C       -1.9540     1.5050    -1.3880 C.ar  1 <1>   0.1770 
  3 C       -3.2550     1.8120    -1.0540 C.ar  1 <1>  -0.1500 
  4 C       -0.8920     2.2420    -0.9010 C.ar  1 <1>  -0.1500 
  5 C       -3.5210     2.8840    -0.2100 C.ar  1 <1>   0.1000 
  6 C       -1.1480     3.3110    -0.0600 C.ar  1 <1>  -0.1500 
  7 N       -4.8350     3.1970     0.1320 N.pl3 1 <1>  -0.8380 
  8 C       -2.4520     3.6350     0.2870 C.ar  1 <1>  -0.1430 
  9 C       -5.7090     3.8550    -0.8880 C.3   1 <1>   0.2090 
 10 C       -5.5570     2.3160     1.0980 C.3   1 <1>   0.2090 
 11 C       -2.7110     4.8160     1.2120 C.3   1 <1>  -0.0970 
 12 C       -6.6540     2.8550    -1.5750 C.3   1 <1>   0.1400 
 13 C       -6.5180     1.3350     0.3990 C.3   1 <1>   0.1400 
 14 N       -7.4090     2.0390    -0.5740 N.am  1 <1>  -0.6600 
 15 C       -8.7380     2.2680    -0.3470 C.2   1 <1>   0.6900 
 16 O       -9.2860     3.2570    -0.7990 O.2   1 <1>  -0.5700 
 17 N       -9.4460     1.3680     0.3790 N.am  1 <1>  -0.7300 
 18 C      -10.8930     1.4480     0.6670 C.3   1 <1>   0.1400 
 19 C      -11.5950     0.2490     0.0300 C.3   1 <1>  -0.1600 
 20 C      -13.1050     0.2840     0.3010 C.3   1 <1>  -0.1600 
 21 C      -13.8060    -0.9170    -0.3390 C.3   1 <1>  -0.2400 
 22 H       -4.0590     1.2240    -1.4480 H     1 <1>   0.1500 
 23 H        0.1140     1.9810    -1.1760 H     1 <1>   0.1500 
 24 H       -0.3250     3.8890     0.3230 H     1 <1>   0.1500 
 25 H       -5.0950     4.3350    -1.6300 H     1 <1>   0.0800 
 26 H       -6.2980     4.6160    -0.4060 H     1 <1>   0.0800 
 27 H       -6.1200     2.9360     1.7740 H     1 <1>   0.0800 
 28 H       -4.8410     1.7630     1.6800 H     1 <1>   0.0800 
 29 H       -3.3310     5.5370     0.7120 H     1 <1>   0.0800 
 30 H       -1.7940     5.2930     1.5050 H     1 <1>   0.0800 
 31 H       -3.2220     4.4770     2.0940 H     1 <1>   0.0800 
 32 H       -6.0790     2.1980    -2.2010 H     1 <1>   0.0800 
 33 H       -7.3350     3.3920    -2.2120 H     1 <1>   0.0800 
 34 H       -7.0960     0.8300     1.1500 H     1 <1>   0.0800 
 35 H       -5.9430     0.5940    -0.1260 H     1 <1>   0.0800 
 36 H       -9.0100     0.4640     0.5310 H     1 <1>   0.3700 
 37 H      -11.2990     2.3650     0.2710 H     1 <1>   0.0800 
 38 H      -11.0410     1.4450     1.7330 H     1 <1>   0.0800 
 39 H      -11.1840    -0.6610     0.4300 H     1 <1>   0.0800 
 40 H      -11.4250     0.2700    -1.0330 H     1 <1>   0.0800 
 41 H      -13.5220     1.1920    -0.1020 H     1 <1>   0.0800 
 42 H      -13.2850     0.2750     1.3620 H     1 <1>   0.0800 
 43 H      -13.6580    -0.9160    -1.4050 H     1 <1>   0.0800 
 44 H      -14.8630    -0.8740    -0.1420 H     1 <1>   0.0800 
 45 H      -13.4220    -1.8380     0.0640 H     1 <1>   0.0800 
@<TRIPOS>BOND
  1   1   2  1   
  2   2   3  ar  
  3   2   4  ar  
  4   3   5  ar  
  5   3  22  1   
  6   4   6  ar  
  7   4  23  1   
  8   5   7  1   
  9   5   8  ar  
 10   6   8  ar  
 11   6  24  1   
 12   7   9  1   
 13   7  10  1   
 14   8  11  1   
 15   9  12  1   
 16   9  25  1   
 17   9  26  1   
 18  10  13  1   
 19  10  27  1   
 20  10  28  1   
 21  11  29  1   
 22  11  30  1   
 23  11  31  1   
 24  12  14  1   
 25  12  32  1   
 26  12  33  1   
 27  13  14  1   
 28  13  34  1   
 29  13  35  1   
 30  14  15  am  
 31  15  16  2   
 32  15  17  am  
 33  17  18  1   
 34  17  36  1   
 35  18  19  1   
 36  18  37  1   
 37  18  38  1   
 38  19  20  1   
 39  19  39  1   
 40  19  40  1   
 41  20  21  1   
 42  20  41  1   
 43  20  42  1   
 44  21  43  1   
 45  21  44  1   
 46  21  45  1   
@<TRIPOS>SUBSTRUCTURE
  1 ****  13 GROUP 4 **** **** 0

# MOE 2024.06 (io_trps.svl 2023.06)
