@<TRIPOS>MOLECULE
NONAME
50 52 1 0 0 
SMALL
USER_CHARGES


@<TRIPOS>ATOM
  1 O       -1.1650     1.1850     0.7400 O.3   1 <1>  -0.3630 
  2 C       -2.1650     1.1020    -0.1690 C.ar  1 <1>   0.0830 
  3 C       -1.2500     0.5680     2.0060 C.3   1 <1>   0.0400 
  4 C       -3.4410     0.6310     0.1250 C.ar  1 <1>  -0.1500 
  5 C       -1.8700     1.5170    -1.4560 C.ar  1 <1>  -0.1500 
  6 C       -4.4130     0.5840    -0.8660 C.ar  1 <1>  -0.1430 
  7 C       -2.8300     1.4590    -2.4490 C.ar  1 <1>  -0.1500 
  8 C       -4.0990     0.9910    -2.1560 C.ar  1 <1>  -0.1500 
  9 C       -5.8150     0.1040    -0.5450 C.3   1 <1>   0.4860 
 10 N       -6.5190     1.1770     0.2080 N.4   1 <1>  -0.9590 
 11 C       -7.8690     0.7270     0.7050 C.3   1 <1>   0.3430 
 12 C       -6.6380     2.4490    -0.6010 C.3   1 <1>   0.3430 
 13 C       -8.6000     1.8200     1.5120 C.3   1 <1>   0.2090 
 14 C       -7.3460     3.5820     0.1700 C.3   1 <1>   0.2090 
 15 N       -8.6250     3.1200     0.7830 N.pl3 1 <1>  -0.8380 
 16 C       -9.8140     3.4780     0.1480 C.ar  1 <1>   0.1000 
 17 C      -10.6590     4.4360     0.7060 C.ar  1 <1>  -0.1430 
 18 C      -10.1750     2.8780    -1.0550 C.ar  1 <1>  -0.1500 
 19 C      -11.8370     4.7720     0.0600 C.ar  1 <1>  -0.1500 
 20 C      -10.3040     5.1200     2.0190 C.3   1 <1>  -0.0970 
 21 C      -11.3510     3.2140    -1.7000 C.ar  1 <1>  -0.1430 
 22 C      -12.1820     4.1660    -1.1350 C.ar  1 <1>  -0.1500 
 23 C      -11.7470     2.5610    -3.0120 C.3   1 <1>  -0.0970 
 24 H       -0.3010     0.6880     2.4980 H     1 <1>   0.0800 
 25 H       -1.4600    -0.4790     1.8720 H     1 <1>   0.0800 
 26 H       -2.0190     1.0500     2.5810 H     1 <1>   0.0800 
 27 H       -3.6720     0.3040     1.1210 H     1 <1>   0.1500 
 28 H       -0.8810     1.8810    -1.6750 H     1 <1>   0.1500 
 29 H       -2.5830     1.7760    -3.4490 H     1 <1>   0.1500 
 30 H       -4.8290     0.9500    -2.9470 H     1 <1>   0.1500 
 31 H       -5.7570    -0.7930     0.0500 H     1 <1>   0.0800 
 32 H       -6.3440    -0.1220    -1.4560 H     1 <1>   0.0800 
 33 H       -5.9360     1.4100     1.0210 H     1 <1>   0.4500 
 34 H       -7.7620    -0.1480     1.3250 H     1 <1>   0.0800 
 35 H       -8.4920     0.4630    -0.1330 H     1 <1>   0.0800 
 36 H       -7.2000     2.2550    -1.4990 H     1 <1>   0.0800 
 37 H       -5.6590     2.7920    -0.8950 H     1 <1>   0.0800 
 38 H       -8.1150     1.9610     2.4620 H     1 <1>   0.0800 
 39 H       -9.6110     1.5040     1.7080 H     1 <1>   0.0800 
 40 H       -7.5470     4.4000    -0.5030 H     1 <1>   0.0800 
 41 H       -6.6990     3.9550     0.9450 H     1 <1>   0.0800 
 42 H       -9.5300     2.1420    -1.4890 H     1 <1>   0.1500 
 43 H      -12.4960     5.5100     0.4820 H     1 <1>   0.1500 
 44 H      -10.2290     4.3880     2.8020 H     1 <1>   0.0800 
 45 H      -11.0500     5.8430     2.2960 H     1 <1>   0.0800 
 46 H       -9.3590     5.6230     1.9230 H     1 <1>   0.0800 
 47 H      -13.1020     4.4410    -1.6230 H     1 <1>   0.1500 
 48 H      -11.0110     1.8450    -3.3280 H     1 <1>   0.0800 
 49 H      -11.8460     3.3110    -3.7770 H     1 <1>   0.0800 
 50 H      -12.6900     2.0580    -2.8990 H     1 <1>   0.0800 
@<TRIPOS>BOND
  1   1   2  1   
  2   1   3  1   
  3   2   4  ar  
  4   2   5  ar  
  5   3  24  1   
  6   3  25  1   
  7   3  26  1   
  8   4   6  ar  
  9   4  27  1   
 10   5   7  ar  
 11   5  28  1   
 12   6   8  ar  
 13   6   9  1   
 14   7   8  ar  
 15   7  29  1   
 16   8  30  1   
 17   9  10  1   
 18   9  31  1   
 19   9  32  1   
 20  10  11  1   
 21  10  12  1   
 22  10  33  1   
 23  11  13  1   
 24  11  34  1   
 25  11  35  1   
 26  12  14  1   
 27  12  36  1   
 28  12  37  1   
 29  13  15  1   
 30  13  38  1   
 31  13  39  1   
 32  14  15  1   
 33  14  40  1   
 34  14  41  1   
 35  15  16  1   
 36  16  17  ar  
 37  16  18  ar  
 38  17  19  ar  
 39  17  20  1   
 40  18  21  ar  
 41  18  42  1   
 42  19  22  ar  
 43  19  43  1   
 44  20  44  1   
 45  20  45  1   
 46  20  46  1   
 47  21  22  ar  
 48  21  23  1   
 49  22  47  1   
 50  23  48  1   
 51  23  49  1   
 52  23  50  1   
@<TRIPOS>SUBSTRUCTURE
  1 ****  12 GROUP 4 **** **** 0

# MOE 2024.06 (io_trps.svl 2023.06)
