@<TRIPOS>MOLECULE
NONAME
58 60 1 0 0 
SMALL
USER_CHARGES


@<TRIPOS>ATOM
  1 O        4.2070     1.4230     1.7410 O.2   1 <1>  -0.5700 
  2 C        3.4680     1.6560     0.8130 C.2   1 <1>   0.5690 
  3 N        3.4920     2.8660     0.1680 N.am  1 <1>  -0.6600 
  4 C        2.4950     0.5690     0.3590 C.3   1 <1>  -0.0990 
  5 C        4.4430     3.9450     0.5850 C.3   1 <1>   0.1400 
  6 C        2.6750     3.2510    -1.0280 C.3   1 <1>   0.1400 
  7 C        2.5710    -0.7460     1.1560 C.3   1 <1>  -0.2400 
  8 C        3.7310     5.2900     0.7940 C.3   1 <1>   0.2090 
  9 C        1.9770     4.6070    -0.8210 C.3   1 <1>   0.2090 
 10 N        2.9530     5.6700    -0.4270 N.pl3 1 <1>  -0.8380 
 11 C        2.5180     7.0080    -0.4770 C.ar  1 <1>   0.1000 
 12 C        3.3430     8.0010    -1.0320 C.ar  1 <1>   0.1170 
 13 C        1.2740     7.3720     0.0260 C.ar  1 <1>  -0.1500 
 14 N        4.6100     7.6030    -1.5030 N.am  1 <1>  -0.5470 
 15 C        2.8860     9.3110    -1.0940 C.ar  1 <1>  -0.1500 
 16 C        0.8340     8.6820    -0.0350 C.ar  1 <1>  -0.1500 
 17 C        5.7380     8.2930    -1.8470 C.2   1 <1>   0.5690 
 18 C        1.6400     9.6530    -0.5990 C.ar  1 <1>  -0.1500 
 19 O        5.7990     9.4990    -1.8850 O.2   1 <1>  -0.5700 
 20 C        7.0110     7.5210    -2.1810 C.3   1 <1>   0.1810 
 21 O        7.0140     6.1940    -1.6680 O.3   1 <1>  -0.3630 
 22 C        7.2940     5.9130    -0.3660 C.ar  1 <1>   0.0820 
 23 C        7.6280     4.5980    -0.0310 C.ar  1 <1>  -0.1430 
 24 C        7.2310     6.8860     0.6290 C.ar  1 <1>  -0.1500 
 25 C        7.8620     4.2670     1.3010 C.ar  1 <1>  -0.1430 
 26 C        7.7290     3.5130    -1.1070 C.3   1 <1>  -0.0970 
 27 C        7.4740     6.5500     1.9460 C.ar  1 <1>  -0.1500 
 28 C        7.7820     5.2460     2.2790 C.ar  1 <1>  -0.1500 
 29 C        8.1950     2.8440     1.7310 C.3   1 <1>  -0.0970 
 30 H        2.6930     0.3520    -0.6740 H     1 <1>   0.0800 
 31 H        1.4970     0.9580     0.4410 H     1 <1>   0.0800 
 32 H        5.1670     4.0690    -0.1950 H     1 <1>   0.0800 
 33 H        4.9650     3.6780     1.4870 H     1 <1>   0.0800 
 34 H        1.9300     2.5080    -1.2450 H     1 <1>   0.0800 
 35 H        3.3250     3.3260    -1.8820 H     1 <1>   0.0800 
 36 H        3.5580    -1.1690     1.0800 H     1 <1>   0.0800 
 37 H        1.8590    -1.4570     0.7770 H     1 <1>   0.0800 
 38 H        2.3590    -0.5630     2.1950 H     1 <1>   0.0800 
 39 H        4.4630     6.0500     1.0070 H     1 <1>   0.0800 
 40 H        3.0700     5.2170     1.6390 H     1 <1>   0.0800 
 41 H        1.2310     4.4980    -0.0540 H     1 <1>   0.0800 
 42 H        1.4840     4.9000    -1.7320 H     1 <1>   0.0800 
 43 H        0.6430     6.6300     0.4750 H     1 <1>   0.1500 
 44 H        4.7110     6.5840    -1.4360 H     1 <1>   0.3700 
 45 H        3.4980    10.0790    -1.5290 H     1 <1>   0.1500 
 46 H       -0.1330     8.9460     0.3570 H     1 <1>   0.1500 
 47 H        1.3020    10.6730    -0.6530 H     1 <1>   0.1500 
 48 H        7.8720     8.0370    -1.7980 H     1 <1>   0.0800 
 49 H        7.1010     7.4520    -3.2480 H     1 <1>   0.0800 
 50 H        6.9890     7.9080     0.4120 H     1 <1>   0.1500 
 51 H        7.3500     3.8400    -2.0570 H     1 <1>   0.0800 
 52 H        7.1630     2.6470    -0.8180 H     1 <1>   0.0800 
 53 H        8.7570     3.2300    -1.2370 H     1 <1>   0.0800 
 54 H        7.4210     7.3030     2.7130 H     1 <1>   0.1500 
 55 H        7.9610     4.9980     3.3110 H     1 <1>   0.1500 
 56 H        9.0210     2.4630     1.1590 H     1 <1>   0.0800 
 57 H        7.3400     2.2070     1.5840 H     1 <1>   0.0800 
 58 H        8.4650     2.8060     2.7710 H     1 <1>   0.0800 
@<TRIPOS>BOND
  1   1   2  2   
  2   2   3  am  
  3   2   4  1   
  4   3   5  1   
  5   3   6  1   
  6   4   7  1   
  7   4  30  1   
  8   4  31  1   
  9   5   8  1   
 10   5  32  1   
 11   5  33  1   
 12   6   9  1   
 13   6  34  1   
 14   6  35  1   
 15   7  36  1   
 16   7  37  1   
 17   7  38  1   
 18   8  10  1   
 19   8  39  1   
 20   8  40  1   
 21   9  10  1   
 22   9  41  1   
 23   9  42  1   
 24  10  11  1   
 25  11  12  ar  
 26  11  13  ar  
 27  12  14  1   
 28  12  15  ar  
 29  13  16  ar  
 30  13  43  1   
 31  14  17  am  
 32  14  44  1   
 33  15  18  ar  
 34  15  45  1   
 35  16  18  ar  
 36  16  46  1   
 37  17  19  2   
 38  17  20  1   
 39  18  47  1   
 40  20  21  1   
 41  20  48  1   
 42  20  49  1   
 43  21  22  1   
 44  22  23  ar  
 45  22  24  ar  
 46  23  25  ar  
 47  23  26  1   
 48  24  27  ar  
 49  24  50  1   
 50  25  28  ar  
 51  25  29  1   
 52  26  51  1   
 53  26  52  1   
 54  26  53  1   
 55  27  28  ar  
 56  27  54  1   
 57  28  55  1   
 58  29  56  1   
 59  29  57  1   
 60  29  58  1   
@<TRIPOS>SUBSTRUCTURE
  1 ****   8 GROUP 4 **** **** 0

# MOE 2024.06 (io_trps.svl 2023.06)
