@<TRIPOS>MOLECULE
NONAME
49 51 1 0 0 
SMALL
USER_CHARGES


@<TRIPOS>ATOM
  1 O       -0.8160     1.8230    -1.8730 O.2   1 <1>  -0.5700 
  2 C       -0.7840     2.4840    -0.8620 C.2   1 <1>   0.5690 
  3 N       -1.7500     2.5090     0.1020 N.am  1 <1>  -0.2370 
  4 C        0.3360     3.4890    -0.5480 C.3   1 <1>   0.2510 
  5 C       -2.8210     1.5980     0.1890 C.ar  1 <1>   0.1170 
  6 C       -1.5110     3.5340     0.9710 C.2   1 <1>   0.5690 
  7 N        1.6410     2.9220    -0.0880 N.3   1 <1>  -0.8100 
  8 C       -0.2740     4.3090     0.5990 C.3   1 <1>  -0.0990 
  9 C       -4.1170     1.9430    -0.1970 C.ar  1 <1>  -0.1440 
 10 C       -2.5750     0.3180     0.6710 C.ar  1 <1>  -0.1500 
 11 O       -2.1910     3.8470     1.9130 O.2   1 <1>  -0.5700 
 12 C        2.6970     3.9510    -0.1160 C.3   1 <1>   0.1100 
 13 C        2.0550     1.7280    -0.8520 C.3   1 <1>   0.1100 
 14 C       -5.1320     1.0070    -0.0900 C.ar  1 <1>  -0.1500 
 15 C       -4.4400     3.3300    -0.7370 C.3   1 <1>  -0.0970 
 16 C       -3.5900    -0.6150     0.7780 C.ar  1 <1>  -0.1430 
 17 C        3.9710     3.4150     0.5370 C.3   1 <1>  -0.1600 
 18 C        3.3200     1.1220    -0.2400 C.3   1 <1>  -0.1600 
 19 C       -4.8720    -0.2640     0.3940 C.ar  1 <1>  -0.1500 
 20 C       -3.3060    -2.0100     1.3050 C.3   1 <1>  -0.0970 
 21 C        4.4680     2.1430    -0.1750 C.3   1 <1>  -0.0190 
 22 C        5.7150     1.5410     0.4740 C.2   1 <1>   0.6590 
 23 O        6.1560     1.9270     1.5260 O.2   1 <1>  -0.5700 
 24 O        6.2940     0.5600    -0.2090 O.3   1 <1>  -0.4300 
 25 C        7.4550    -0.0900     0.2680 C.3   1 <1>   0.0400 
 26 H        0.4910     4.1030    -1.4190 H     1 <1>   0.0800 
 27 H       -0.5610     5.2870     0.2620 H     1 <1>   0.0800 
 28 H        0.3720     4.3850     1.4540 H     1 <1>   0.0800 
 29 H       -1.5740     0.0540     0.9630 H     1 <1>   0.1500 
 30 H        2.3800     4.8260     0.4260 H     1 <1>   0.0800 
 31 H        2.9010     4.2400    -1.1340 H     1 <1>   0.0800 
 32 H        2.2250     1.9900    -1.8840 H     1 <1>   0.0800 
 33 H        1.2870     0.9750    -0.8160 H     1 <1>   0.0800 
 34 H       -6.1360     1.2590    -0.3820 H     1 <1>   0.1500 
 35 H       -3.7930     3.5660    -1.5620 H     1 <1>   0.0800 
 36 H       -4.3080     4.0640     0.0380 H     1 <1>   0.0800 
 37 H       -5.4570     3.3820    -1.0810 H     1 <1>   0.0800 
 38 H        3.7670     3.2000     1.5720 H     1 <1>   0.0800 
 39 H        4.7360     4.1700     0.5040 H     1 <1>   0.0800 
 40 H        3.6210     0.2730    -0.8280 H     1 <1>   0.0800 
 41 H        3.0900     0.7710     0.7510 H     1 <1>   0.0800 
 42 H       -5.6740    -0.9770     0.4680 H     1 <1>   0.1500 
 43 H       -2.4380    -2.0040     1.9400 H     1 <1>   0.0800 
 44 H       -3.1300    -2.6800     0.4830 H     1 <1>   0.0800 
 45 H       -4.1420    -2.3710     1.8760 H     1 <1>   0.0800 
 46 H        4.7390     2.4090    -1.1800 H     1 <1>   0.0800 
 47 H        7.7400    -0.8440    -0.4430 H     1 <1>   0.0800 
 48 H        7.2350    -0.5400     1.2200 H     1 <1>   0.0800 
 49 H        8.2410     0.6370     0.3750 H     1 <1>   0.0800 
@<TRIPOS>BOND
  1   1   2  2   
  2   2   3  am  
  3   2   4  1   
  4   3   5  1   
  5   3   6  am  
  6   4   7  1   
  7   4   8  1   
  8   4  26  1   
  9   5   9  ar  
 10   5  10  ar  
 11   6   8  1   
 12   6  11  2   
 13   7  12  1   
 14   7  13  1   
 15   8  27  1   
 16   8  28  1   
 17   9  14  ar  
 18   9  15  1   
 19  10  16  ar  
 20  10  29  1   
 21  12  17  1   
 22  12  30  1   
 23  12  31  1   
 24  13  18  1   
 25  13  32  1   
 26  13  33  1   
 27  14  19  ar  
 28  14  34  1   
 29  15  35  1   
 30  15  36  1   
 31  15  37  1   
 32  16  19  ar  
 33  16  20  1   
 34  17  21  1   
 35  17  38  1   
 36  17  39  1   
 37  18  21  1   
 38  18  40  1   
 39  18  41  1   
 40  19  42  1   
 41  20  43  1   
 42  20  44  1   
 43  20  45  1   
 44  21  22  1   
 45  21  46  1   
 46  22  23  2   
 47  22  24  1   
 48  24  25  1   
 49  25  47  1   
 50  25  48  1   
 51  25  49  1   
@<TRIPOS>SUBSTRUCTURE
  1 ****   2 GROUP 4 **** **** 0

# MOE 2024.06 (io_trps.svl 2023.06)
