@<TRIPOS>MOLECULE
NONAME
46 48 1 0 0 
SMALL
USER_CHARGES


@<TRIPOS>ATOM
  1 O        0.6430     0.2720    -0.6680 O.3   1 <1>  -0.3630 
  2 C        1.6190    -0.6300    -0.4730 C.ar  1 <1>   0.7020 
  3 C       -0.6970    -0.1100    -0.9170 C.3   1 <1>   0.0400 
  4 N        2.8010    -0.1200    -0.2650 N.ar  1 <1>  -0.6200 
  5 N        1.3090    -1.9000    -0.5050 N.ar  1 <1>  -0.6200 
  6 C        3.7300    -1.0190    -0.0850 C.ar  1 <1>   0.7200 
  7 C        2.3350    -2.6840    -0.3030 C.ar  1 <1>   0.7200 
  8 N        3.5610    -2.3140    -0.0870 N.ar  1 <1>  -0.6200 
  9 N        4.9690    -0.4950     0.1430 N.pl3 1 <1>  -0.6000 
 10 N        2.1440    -4.0190    -0.3030 N.pl3 1 <1>  -0.8690 
 11 C        6.2290    -1.0790     0.3180 C.ar  1 <1>   0.1000 
 12 C        0.8550    -4.7190    -0.2310 C.3   1 <1>   0.2890 
 13 C        7.1400    -0.4710     1.1740 C.ar  1 <1>  -0.1500 
 14 C        6.6210    -2.2340    -0.3490 C.ar  1 <1>  -0.1500 
 15 C        0.5410    -5.0300     1.2360 C.3   1 <1>  -0.1600 
 16 C        0.9480    -6.0020    -1.0620 C.3   1 <1>  -0.1600 
 17 C        8.4010    -1.0050     1.3650 C.ar  1 <1>  -0.1500 
 18 C        7.8820    -2.7710    -0.1590 C.ar  1 <1>  -0.1500 
 19 C       -0.7410    -5.8660     1.3670 C.3   1 <1>  -0.1600 
 20 C       -0.3330    -6.8410    -0.9390 C.3   1 <1>  -0.1600 
 21 C        8.7800    -2.1600     0.7020 C.ar  1 <1>  -0.1430 
 22 C       -0.6530    -7.1500     0.5300 C.3   1 <1>  -0.1600 
 23 C       10.1640    -2.7470     0.9110 C.3   1 <1>  -0.0970 
 24 H       -1.2840     0.7820    -1.0420 H     1 <1>   0.0800 
 25 H       -1.0600    -0.6770    -0.0780 H     1 <1>   0.0800 
 26 H       -0.7290    -0.7020    -1.8150 H     1 <1>   0.0800 
 27 H        4.9180     0.5140     0.2510 H     1 <1>   0.4000 
 28 H        2.9610    -4.5520    -0.0150 H     1 <1>   0.4000 
 29 H        0.0730    -4.0980    -0.6370 H     1 <1>   0.0800 
 30 H        6.8580     0.4230     1.6980 H     1 <1>   0.1500 
 31 H        5.9390    -2.7140    -1.0250 H     1 <1>   0.1500 
 32 H        0.4210    -4.1070     1.7750 H     1 <1>   0.0800 
 33 H        1.3610    -5.5740     1.6700 H     1 <1>   0.0800 
 34 H        1.7850    -6.5870    -0.7230 H     1 <1>   0.0800 
 35 H        1.1090    -5.7430    -2.0940 H     1 <1>   0.0800 
 36 H        9.0880    -0.5180     2.0340 H     1 <1>   0.1500 
 37 H        8.1600    -3.6660    -0.6860 H     1 <1>   0.1500 
 38 H       -1.5830    -5.2820     1.0360 H     1 <1>   0.0800 
 39 H       -0.9020    -6.1190     2.4010 H     1 <1>   0.0800 
 40 H       -0.2150    -7.7610    -1.4850 H     1 <1>   0.0800 
 41 H       -1.1550    -6.3010    -1.3770 H     1 <1>   0.0800 
 42 H       -1.5860    -7.6850     0.5910 H     1 <1>   0.0800 
 43 H        0.1160    -7.7860     0.9350 H     1 <1>   0.0800 
 44 H       10.8570    -2.2980     0.2230 H     1 <1>   0.0800 
 45 H       10.1510    -3.8100     0.7480 H     1 <1>   0.0800 
 46 H       10.5010    -2.5620     1.9150 H     1 <1>   0.0800 
@<TRIPOS>BOND
  1   1   2  1   
  2   1   3  1   
  3   2   4  ar  
  4   2   5  ar  
  5   3  24  1   
  6   3  25  1   
  7   3  26  1   
  8   4   6  ar  
  9   5   7  ar  
 10   6   8  ar  
 11   6   9  1   
 12   7   8  ar  
 13   7  10  1   
 14   9  11  1   
 15   9  27  1   
 16  10  12  1   
 17  10  28  1   
 18  11  13  ar  
 19  11  14  ar  
 20  12  15  1   
 21  12  16  1   
 22  12  29  1   
 23  13  17  ar  
 24  13  30  1   
 25  14  18  ar  
 26  14  31  1   
 27  15  19  1   
 28  15  32  1   
 29  15  33  1   
 30  16  20  1   
 31  16  34  1   
 32  16  35  1   
 33  17  21  ar  
 34  17  36  1   
 35  18  21  ar  
 36  18  37  1   
 37  19  22  1   
 38  19  38  1   
 39  19  39  1   
 40  20  22  1   
 41  20  40  1   
 42  20  41  1   
 43  21  23  1   
 44  22  42  1   
 45  22  43  1   
 46  23  44  1   
 47  23  45  1   
 48  23  46  1   
@<TRIPOS>SUBSTRUCTURE
  1 ****   8 GROUP 4 **** **** 0

# MOE 2024.06 (io_trps.svl 2023.06)
