@<TRIPOS>MOLECULE
NONAME
45 45 1 0 0 
SMALL
USER_CHARGES


@<TRIPOS>ATOM
  1 F       -2.9330    -0.8060    -1.9590 F     1 <1>  -0.3400 
  2 C       -1.6450    -0.7230    -1.6270 C.3   1 <1>   1.0200 
  3 F       -0.9610    -1.0800    -2.7120 F     1 <1>  -0.3400 
  4 F       -1.4060     0.5800    -1.4820 F     1 <1>  -0.3400 
  5 C       -1.2810    -1.5430    -0.3500 C.3   1 <1>   0.4850 
  6 O       -1.9320    -1.0300     0.8110 O.3   1 <1>  -0.6800 
  7 C        0.2380    -1.4830    -0.0580 C.ar  1 <1>  -0.1440 
  8 C       -1.7540    -2.9910    -0.5640 C.2   1 <1>   0.6590 
  9 C        0.7810    -0.4270     0.6690 C.ar  1 <1>  -0.1500 
 10 C        1.1080    -2.4630    -0.5310 C.ar  1 <1>  -0.1500 
 11 O       -1.8760    -3.5160    -1.6440 O.2   1 <1>  -0.5700 
 12 O       -1.9940    -3.6850     0.5500 O.3   1 <1>  -0.4300 
 13 C        2.1370    -0.3630     0.9300 C.ar  1 <1>  -0.1500 
 14 C        2.4630    -2.3960    -0.2660 C.ar  1 <1>  -0.1500 
 15 C       -2.4100    -5.0320     0.5160 C.3   1 <1>   0.1200 
 16 C        3.0000    -1.3500     0.4720 C.ar  1 <1>   0.1170 
 17 C       -2.5830    -5.5090     1.9540 C.3   1 <1>  -0.2400 
 18 N        4.3760    -1.2910     0.7530 N.am  1 <1>  -0.4770 
 19 C        5.3550    -1.3540    -0.2200 C.2   1 <1>   0.7800 
 20 C        4.7720    -1.1520     2.1810 C.3   1 <1>   0.0600 
 21 O        5.1100    -1.5010    -1.4030 O.2   1 <1>  -0.5700 
 22 O        6.6240    -1.2440     0.1820 O.3   1 <1>  -0.4300 
 23 C        7.7090    -1.3050    -0.7130 C.3   1 <1>   0.2000 
 24 C        8.0670    -2.7740    -0.9420 C.3   1 <1>  -0.2400 
 25 C        8.8650    -0.5430    -0.0720 C.3   1 <1>  -0.2400 
 26 H       -1.7780    -1.6530     1.5510 H     1 <1>   0.4000 
 27 H        0.1520     0.3680     1.0360 H     1 <1>   0.1500 
 28 H        0.7600    -3.2920    -1.1240 H     1 <1>   0.1500 
 29 H        2.5330     0.4660     1.4870 H     1 <1>   0.1500 
 30 H        3.1190    -3.1600    -0.6430 H     1 <1>   0.1500 
 31 H       -1.6590    -5.6110     0.0040 H     1 <1>   0.0800 
 32 H       -3.3400    -5.0890    -0.0250 H     1 <1>   0.0800 
 33 H       -2.9030    -6.5350     1.9590 H     1 <1>   0.0800 
 34 H       -3.3290    -4.9170     2.4550 H     1 <1>   0.0800 
 35 H       -1.6500    -5.4400     2.4840 H     1 <1>   0.0800 
 36 H        3.9290    -1.3370     2.8230 H     1 <1>   0.0800 
 37 H        5.1410    -0.1570     2.3560 H     1 <1>   0.0800 
 38 H        5.5460    -1.8620     2.4170 H     1 <1>   0.0800 
 39 H        7.4290    -0.8290    -1.6400 H     1 <1>   0.0800 
 40 H        8.3070    -3.2530    -0.0100 H     1 <1>   0.0800 
 41 H        8.9180    -2.8450    -1.5950 H     1 <1>   0.0800 
 42 H        7.2450    -3.2870    -1.4070 H     1 <1>   0.0800 
 43 H        9.1370    -0.9920     0.8660 H     1 <1>   0.0800 
 44 H        8.5830     0.4810     0.0890 H     1 <1>   0.0800 
 45 H        9.7210    -0.5600    -0.7230 H     1 <1>   0.0800 
@<TRIPOS>BOND
  1   1   2  1   
  2   2   3  1   
  3   2   4  1   
  4   2   5  1   
  5   5   6  1   
  6   5   7  1   
  7   5   8  1   
  8   6  26  1   
  9   7   9  ar  
 10   7  10  ar  
 11   8  11  2   
 12   8  12  1   
 13   9  13  ar  
 14   9  27  1   
 15  10  14  ar  
 16  10  28  1   
 17  12  15  1   
 18  13  16  ar  
 19  13  29  1   
 20  14  16  ar  
 21  14  30  1   
 22  15  17  1   
 23  15  31  1   
 24  15  32  1   
 25  16  18  1   
 26  17  33  1   
 27  17  34  1   
 28  17  35  1   
 29  18  19  am  
 30  18  20  1   
 31  19  21  2   
 32  19  22  1   
 33  20  36  1   
 34  20  37  1   
 35  20  38  1   
 36  22  23  1   
 37  23  24  1   
 38  23  25  1   
 39  23  39  1   
 40  24  40  1   
 41  24  41  1   
 42  24  42  1   
 43  25  43  1   
 44  25  44  1   
 45  25  45  1   
@<TRIPOS>SUBSTRUCTURE
  1 ****  10 GROUP 4 **** **** 0

# MOE 2024.06 (io_trps.svl 2023.06)
