@<TRIPOS>MOLECULE
NONAME
36 39 1 0 0 
SMALL
USER_CHARGES


@<TRIPOS>ATOM
  1 S        0.2570     2.1740    -1.7120 S.3   1 <1>  -0.3710 
  2 C       -1.4380     2.2380    -1.1330 C.2   1 <1>   0.6760 
  3 C        1.1370     1.0420    -0.5470 C.3   1 <1>   0.1500 
  4 N       -1.7540     1.5110    -0.1190 N.2   1 <1>  -0.6290 
  5 C       -2.3370     3.0940    -1.8360 C.2   1 <1>   0.1010 
  6 C        1.5180     1.8370     0.7080 C.3   1 <1>  -0.1600 
  7 C        2.3720     0.4980    -1.2730 C.3   1 <1>  -0.1600 
  8 C       -3.0610     1.5660     0.3250 C.ar  1 <1>   0.1790 
  9 N       -2.1790     3.8850    -2.8700 N.2   1 <1>  -0.3380 
 10 N       -3.6010     3.1340    -1.3940 N.pl3 1 <1>   0.3260 
 11 C        2.3810     0.9870     1.6530 C.3   1 <1>  -0.1600 
 12 C        3.2350    -0.3510    -0.3280 C.3   1 <1>  -0.1600 
 13 C       -4.0250     2.3750    -0.2940 C.ar  1 <1>  -0.0230 
 14 C       -3.4380     0.7960     1.4200 C.ar  1 <1>  -0.1500 
 15 N       -3.3540     4.4520    -3.1100 N.2   1 <1>  -0.3380 
 16 C       -4.1790     3.9970    -2.2290 C.2   1 <1>   0.0370 
 17 C        3.6210     0.4380     0.9310 C.3   1 <1>  -0.1600 
 18 C       -5.3330     2.3970     0.1900 C.ar  1 <1>  -0.1500 
 19 C       -4.7330     0.8220     1.8950 C.ar  1 <1>  -0.1500 
 20 C       -5.6830     1.6250     1.2780 C.ar  1 <1>  -0.1500 
 21 H        0.4680     0.2340    -0.3030 H     1 <1>   0.0800 
 22 H        0.6290     2.1530     1.2230 H     1 <1>   0.0800 
 23 H        2.0690     2.7140     0.4180 H     1 <1>   0.0800 
 24 H        2.9580     1.3230    -1.6420 H     1 <1>   0.0800 
 25 H        2.0620    -0.0960    -2.1140 H     1 <1>   0.0800 
 26 H        1.7950     0.1660     2.0280 H     1 <1>   0.0800 
 27 H        2.6880     1.5840     2.4940 H     1 <1>   0.0800 
 28 H        4.1260    -0.6700    -0.8410 H     1 <1>   0.0800 
 29 H        2.6870    -1.2330    -0.0410 H     1 <1>   0.0800 
 30 H       -2.6970     0.1760     1.8930 H     1 <1>   0.1500 
 31 H       -5.2150     4.2710    -2.1640 H     1 <1>   0.1500 
 32 H        4.1740    -0.1980     1.6000 H     1 <1>   0.0800 
 33 H        4.2610     1.2580     0.6530 H     1 <1>   0.0800 
 34 H       -6.0790     3.0150    -0.2790 H     1 <1>   0.1500 
 35 H       -5.0100     0.2210     2.7440 H     1 <1>   0.1500 
 36 H       -6.6920     1.6390     1.6550 H     1 <1>   0.1500 
@<TRIPOS>BOND
  1   1   2  1   
  2   1   3  1   
  3   2   4  2   
  4   2   5  1   
  5   3   6  1   
  6   3   7  1   
  7   3  21  1   
  8   4   8  1   
  9   5   9  2   
 10   5  10  1   
 11   6  11  1   
 12   6  22  1   
 13   6  23  1   
 14   7  12  1   
 15   7  24  1   
 16   7  25  1   
 17   8  13  ar  
 18   8  14  ar  
 19   9  15  1   
 20  10  13  1   
 21  10  16  1   
 22  11  17  1   
 23  11  26  1   
 24  11  27  1   
 25  12  17  1   
 26  12  28  1   
 27  12  29  1   
 28  13  18  ar  
 29  14  19  ar  
 30  14  30  1   
 31  15  16  2   
 32  16  31  1   
 33  17  32  1   
 34  17  33  1   
 35  18  20  ar  
 36  18  34  1   
 37  19  20  ar  
 38  19  35  1   
 39  20  36  1   
@<TRIPOS>SUBSTRUCTURE
  1 ****   4 GROUP 4 **** **** 0

# MOE 2024.06 (io_trps.svl 2023.06)
