@<TRIPOS>MOLECULE
NONAME
39 42 1 0 0 
SMALL
USER_CHARGES


@<TRIPOS>ATOM
  1 CL      -0.0250    -0.2720    -1.3930 Cl    1 <1>  -0.1770 
  2 C       -1.4030     0.6670    -0.8810 C.ar  1 <1>   0.1770 
  3 C       -2.3250     1.0860    -1.8210 C.ar  1 <1>  -0.1500 
  4 C       -1.5500     0.9800     0.4570 C.ar  1 <1>  -0.1500 
  5 C       -3.4180     1.8310    -1.4110 C.ar  1 <1>  -0.1500 
  6 C       -2.6450     1.7260     0.8610 C.ar  1 <1>  -0.1500 
  7 C       -3.5830     2.1500    -0.0700 C.ar  1 <1>  -0.1430 
  8 C       -4.7840     2.9770     0.3720 C.3   1 <1>   0.2390 
  9 N       -4.5230     4.4120     0.1660 N.pl3 1 <1>   0.3140 
 10 N       -4.9340     5.0890    -0.9410 N.2   1 <1>  -0.7070 
 11 C       -3.8290     5.2180     1.0140 C.ar  1 <1>   0.1050 
 12 C       -4.4780     6.2880    -0.7750 C.2   1 <1>   0.1390 
 13 N       -3.2590     4.9420     2.1980 N.ar  1 <1>  -0.5670 
 14 C       -3.7830     6.4500     0.4320 C.ar  1 <1>   0.0000 
 15 C       -2.6360     5.9610     2.7360 C.ar  1 <1>   0.4700 
 16 C       -3.1040     7.4660     1.1200 C.ar  1 <1>   0.4100 
 17 N       -2.5170     7.2120     2.2660 N.ar  1 <1>  -0.6200 
 18 N       -3.0340     8.7470     0.6200 N.pl3 1 <1>  -0.8380 
 19 C       -1.8830     9.6300     0.9730 C.3   1 <1>   0.2090 
 20 C       -4.2780     9.5230     0.3500 C.3   1 <1>   0.2090 
 21 C       -1.7320    10.7640    -0.0570 C.3   1 <1>   0.1200 
 22 C       -4.0000    10.6560    -0.6560 C.3   1 <1>   0.1200 
 23 O       -2.9380    11.4620    -0.2250 O.3   1 <1>  -0.5600 
 24 H       -2.1860     0.8340    -2.8560 H     1 <1>   0.1500 
 25 H       -0.8160     0.6470     1.1680 H     1 <1>   0.1500 
 26 H       -4.1350     2.1700    -2.1420 H     1 <1>   0.1500 
 27 H       -2.7570     1.9810     1.9020 H     1 <1>   0.1500 
 28 H       -4.9920     2.8120     1.4120 H     1 <1>   0.0800 
 29 H       -5.6520     2.7040    -0.1990 H     1 <1>   0.0800 
 30 H       -4.6080     7.0830    -1.4890 H     1 <1>   0.1500 
 31 H       -2.1530     5.7850     3.6820 H     1 <1>   0.1500 
 32 H       -0.9780     9.0480     1.0030 H     1 <1>   0.0800 
 33 H       -2.0420    10.0510     1.9510 H     1 <1>   0.0800 
 34 H       -4.6320     9.9520     1.2710 H     1 <1>   0.0800 
 35 H       -5.0480     8.8800    -0.0330 H     1 <1>   0.0800 
 36 H       -1.4310    10.3640    -1.0090 H     1 <1>   0.0800 
 37 H       -0.9890    11.4670     0.2740 H     1 <1>   0.0800 
 38 H       -4.8670    11.2830    -0.7570 H     1 <1>   0.0800 
 39 H       -3.7520    10.2480    -1.6200 H     1 <1>   0.0800 
@<TRIPOS>BOND
  1   1   2  1   
  2   2   3  ar  
  3   2   4  ar  
  4   3   5  ar  
  5   3  24  1   
  6   4   6  ar  
  7   4  25  1   
  8   5   7  ar  
  9   5  26  1   
 10   6   7  ar  
 11   6  27  1   
 12   7   8  1   
 13   8   9  1   
 14   8  28  1   
 15   8  29  1   
 16   9  10  1   
 17   9  11  1   
 18  10  12  2   
 19  11  13  ar  
 20  11  14  ar  
 21  12  14  1   
 22  12  30  1   
 23  13  15  ar  
 24  14  16  ar  
 25  15  17  ar  
 26  15  31  1   
 27  16  17  ar  
 28  16  18  1   
 29  18  19  1   
 30  18  20  1   
 31  19  21  1   
 32  19  32  1   
 33  19  33  1   
 34  20  22  1   
 35  20  34  1   
 36  20  35  1   
 37  21  23  1   
 38  21  36  1   
 39  21  37  1   
 40  22  23  1   
 41  22  38  1   
 42  22  39  1   
@<TRIPOS>SUBSTRUCTURE
  1 ****  11 GROUP 4 **** **** 0

# MOE 2024.06 (io_trps.svl 2023.06)
