@<TRIPOS>MOLECULE
NONAME
25 26 1 0 0 
SMALL
USER_CHARGES


@<TRIPOS>ATOM
  1 S        1.3390     7.4770    -0.5330 S.3   1 <1>  -0.0800 
  2 C       -0.1770     6.6930    -0.2640 C.ar  1 <1>   0.6310 
  3 C        2.1610     5.9510    -0.2750 C.2   1 <1>   0.1980 
  4 N        0.0410     5.3880    -0.0120 N.ar  1 <1>   0.2320 
  5 N       -1.3430     7.3210    -0.3110 N.ar  1 <1>  -0.5670 
  6 N        1.3790     4.9810    -0.0230 N.2   1 <1>  -0.2910 
  7 C        3.6780     5.9480    -0.3780 C.3   1 <1>   0.0200 
  8 C       -1.0330     4.5960     0.2280 C.ar  1 <1>   0.2440 
  9 C       -2.3850     6.5510    -0.0780 C.ar  1 <1>   0.1670 
 10 C        4.3310     6.6340     0.8280 C.3   1 <1>  -0.2400 
 11 C       -2.2740     5.1860     0.1950 C.ar  1 <1>  -0.1500 
 12 C       -0.8440     3.1120     0.5200 C.3   1 <1>  -0.0960 
 13 C       -3.7470     7.2180    -0.1190 C.3   1 <1>  -0.0970 
 14 H        3.9760     6.4470    -1.2840 H     1 <1>   0.0800 
 15 H        4.0250     4.9310    -0.4340 H     1 <1>   0.0800 
 16 H        4.0380     7.6670     0.8860 H     1 <1>   0.0800 
 17 H        5.4030     6.5920     0.7370 H     1 <1>   0.0800 
 18 H        4.0490     6.1400     1.7420 H     1 <1>   0.0800 
 19 H       -3.1640     4.6070     0.3770 H     1 <1>   0.1500 
 20 H       -0.2380     2.9800     1.3990 H     1 <1>   0.0800 
 21 H       -0.3600     2.6280    -0.3100 H     1 <1>   0.0800 
 22 H       -1.7910     2.6300     0.6870 H     1 <1>   0.0800 
 23 H       -3.7910     8.0010     0.6170 H     1 <1>   0.0800 
 24 H       -4.5360     6.5160     0.0810 H     1 <1>   0.0800 
 25 H       -3.9110     7.6520    -1.0890 H     1 <1>   0.0800 
@<TRIPOS>BOND
  1   1   2  1   
  2   1   3  1   
  3   2   4  ar  
  4   2   5  ar  
  5   3   6  2   
  6   3   7  1   
  7   4   6  1   
  8   4   8  ar  
  9   5   9  ar  
 10   7  10  1   
 11   7  14  1   
 12   7  15  1   
 13   8  11  ar  
 14   8  12  1   
 15   9  11  ar  
 16   9  13  1   
 17  10  16  1   
 18  10  17  1   
 19  10  18  1   
 20  11  19  1   
 21  12  20  1   
 22  12  21  1   
 23  12  22  1   
 24  13  23  1   
 25  13  24  1   
 26  13  25  1   
@<TRIPOS>SUBSTRUCTURE
  1 ****   4 GROUP 4 **** **** 0

# MOE 2024.06 (io_trps.svl 2023.06)
