@<TRIPOS>MOLECULE
NONAME
49 50 1 0 0 
SMALL
USER_CHARGES


@<TRIPOS>ATOM
  1 O       -0.0580    -1.0390     2.9350 O.2   1 <1>  -0.5700 
  2 C        0.6730    -0.5170     2.1260 C.2   1 <1>   0.5690 
  3 N        0.5690    -0.7320     0.7810 N.am  1 <1>  -0.5470 
  4 C        1.7860     0.3950     2.6350 C.3   1 <1>   0.1810 
  5 C       -0.3740    -1.4850     0.0650 C.ar  1 <1>   0.1170 
  6 O        1.5450     1.7720     2.3690 O.3   1 <1>  -0.3630 
  7 C       -1.2180    -0.8330    -0.8390 C.ar  1 <1>  -0.1430 
  8 C       -0.4710    -2.8730     0.2110 C.ar  1 <1>  -0.1430 
  9 C        1.4580     2.3340     1.1280 C.ar  1 <1>   0.0830 
 10 C       -2.1310    -1.5600    -1.5830 C.ar  1 <1>  -0.1500 
 11 C       -1.1670     0.6780    -1.0260 C.3   1 <1>  -0.0970 
 12 C       -1.3950    -3.5810    -0.5390 C.ar  1 <1>  -0.1500 
 13 C        0.4130    -3.6530     1.1770 C.3   1 <1>  -0.0970 
 14 C        2.1280     1.9050    -0.0310 C.ar  1 <1>   0.0830 
 15 C        0.6280     3.4410     1.0620 C.ar  1 <1>  -0.1500 
 16 C       -2.2220    -2.9310    -1.4350 C.ar  1 <1>  -0.1500 
 17 O        2.9450     0.8140     0.0230 O.3   1 <1>  -0.3630 
 18 C        1.9390     2.6080    -1.2200 C.ar  1 <1>  -0.1500 
 19 C        0.4450     4.1270    -0.1250 C.ar  1 <1>  -0.1500 
 20 C        3.7170     0.3990    -1.0870 C.3   1 <1>   0.1200 
 21 C        1.1020     3.7090    -1.2660 C.ar  1 <1>  -0.1500 
 22 C        4.5990    -0.7950    -0.6910 C.3   1 <1>  -0.0800 
 23 C        5.4570    -1.2280    -1.8870 C.3   1 <1>  -0.2400 
 24 C        3.7690    -1.9880    -0.1960 C.3   1 <1>  -0.2400 
 25 H        1.1760    -0.1360     0.2130 H     1 <1>   0.3700 
 26 H        2.7400     0.1120     2.2390 H     1 <1>   0.0800 
 27 H        1.8380     0.2950     3.7030 H     1 <1>   0.0800 
 28 H       -2.7820    -1.0650    -2.2810 H     1 <1>   0.1500 
 29 H       -0.2870     0.9460    -1.5790 H     1 <1>   0.0800 
 30 H       -1.1490     1.1730    -0.0710 H     1 <1>   0.0800 
 31 H       -2.0280     1.0290    -1.5630 H     1 <1>   0.0800 
 32 H       -1.4800    -4.6480    -0.4280 H     1 <1>   0.1500 
 33 H        0.0240    -3.5600     2.1750 H     1 <1>   0.0800 
 34 H        1.4180    -3.2780     1.1600 H     1 <1>   0.0800 
 35 H        0.4410    -4.6950     0.9170 H     1 <1>   0.0800 
 36 H        0.1220     3.7670     1.9530 H     1 <1>   0.1500 
 37 H       -2.9360    -3.4900    -2.0130 H     1 <1>   0.1500 
 38 H        2.4290     2.3210    -2.1300 H     1 <1>   0.1500 
 39 H       -0.2050     4.9840    -0.1570 H     1 <1>   0.1500 
 40 H        4.3320     1.2260    -1.3960 H     1 <1>   0.0800 
 41 H        3.0460     0.1210    -1.8810 H     1 <1>   0.0800 
 42 H        0.9640     4.2440    -2.1900 H     1 <1>   0.1500 
 43 H        5.2610    -0.4780     0.0970 H     1 <1>   0.0800 
 44 H        4.8370    -1.5600    -2.7010 H     1 <1>   0.0800 
 45 H        6.1100    -2.0350    -1.6040 H     1 <1>   0.0800 
 46 H        6.0660    -0.4090    -2.2290 H     1 <1>   0.0800 
 47 H        3.0450    -2.2840    -0.9350 H     1 <1>   0.0800 
 48 H        3.2520    -1.7320     0.7090 H     1 <1>   0.0800 
 49 H        4.4080    -2.8280     0.0150 H     1 <1>   0.0800 
@<TRIPOS>BOND
  1   1   2  2   
  2   2   3  am  
  3   2   4  1   
  4   3   5  1   
  5   3  25  1   
  6   4   6  1   
  7   4  26  1   
  8   4  27  1   
  9   5   7  ar  
 10   5   8  ar  
 11   6   9  1   
 12   7  10  ar  
 13   7  11  1   
 14   8  12  ar  
 15   8  13  1   
 16   9  14  ar  
 17   9  15  ar  
 18  10  16  ar  
 19  10  28  1   
 20  11  29  1   
 21  11  30  1   
 22  11  31  1   
 23  12  16  ar  
 24  12  32  1   
 25  13  33  1   
 26  13  34  1   
 27  13  35  1   
 28  14  17  1   
 29  14  18  ar  
 30  15  19  ar  
 31  15  36  1   
 32  16  37  1   
 33  17  20  1   
 34  18  21  ar  
 35  18  38  1   
 36  19  21  ar  
 37  19  39  1   
 38  20  22  1   
 39  20  40  1   
 40  20  41  1   
 41  21  42  1   
 42  22  23  1   
 43  22  24  1   
 44  22  43  1   
 45  23  44  1   
 46  23  45  1   
 47  23  46  1   
 48  24  47  1   
 49  24  48  1   
 50  24  49  1   
@<TRIPOS>SUBSTRUCTURE
  1 ****   3 GROUP 4 **** **** 0

# MOE 2024.06 (io_trps.svl 2023.06)
