@<TRIPOS>MOLECULE
NONAME
31 32 1 0 0 
SMALL
USER_CHARGES


@<TRIPOS>ATOM
  1 F        0.5900     0.8440     0.4080 F     1 <1>  -0.3400 
  2 C        1.3460     1.8690     0.0370 C.3   1 <1>   0.9600 
  3 F        0.7410     2.3960    -1.0200 F     1 <1>  -0.3400 
  4 O        2.5450     1.3530    -0.4390 O.3   1 <1>  -0.5600 
  5 C        1.5870     2.9130     1.1500 C.3   1 <1>   0.6800 
  6 C        3.5920     1.9960     0.2430 C.3   1 <1>   0.6200 
  7 F        0.7390     3.9520     1.1330 F     1 <1>  -0.3400 
  8 F        1.4650     2.3980     2.3820 F     1 <1>  -0.3400 
  9 C        3.0200     3.2940     0.8320 C.3   1 <1>   0.6800 
 10 F        3.8400     1.1570     1.2520 F     1 <1>  -0.3400 
 11 C        4.8720     2.1940    -0.6170 C.3   1 <1>   0.7410 
 12 F        3.0640     4.2900    -0.0580 F     1 <1>  -0.3400 
 13 F        3.6990     3.7630     1.8820 F     1 <1>  -0.3400 
 14 F        4.5340     2.7190    -1.8000 F     1 <1>  -0.3400 
 15 F        5.3640     1.0020    -0.9730 F     1 <1>  -0.3400 
 16 C        5.9750     3.0170     0.1120 C.2   1 <1>   0.5690 
 17 O        6.4480     2.4920     1.0970 O.2   1 <1>  -0.5700 
 18 N        6.4310     4.2840    -0.2410 N.am  1 <1>  -0.6600 
 19 C        7.6290     4.8760     0.4480 C.3   1 <1>   0.1400 
 20 C        5.8810     5.2320    -1.2700 C.3   1 <1>   0.1400 
 21 C        7.3280     6.2940     0.9570 C.3   1 <1>   0.1200 
 22 C        5.6870     6.6390    -0.6780 C.3   1 <1>   0.1200 
 23 O        6.8680     7.0980    -0.0900 O.3   1 <1>  -0.5600 
 24 H        8.4480     4.9220    -0.2470 H     1 <1>   0.0800 
 25 H        7.9450     4.2720     1.2800 H     1 <1>   0.0800 
 26 H        4.9330     4.9180    -1.6530 H     1 <1>   0.0800 
 27 H        6.5680     5.2920    -2.0970 H     1 <1>   0.0800 
 28 H        8.2220     6.7450     1.3500 H     1 <1>   0.0800 
 29 H        6.5820     6.2700     1.7330 H     1 <1>   0.0800 
 30 H        4.9100     6.6350     0.0670 H     1 <1>   0.0800 
 31 H        5.4180     7.3340    -1.4530 H     1 <1>   0.0800 
@<TRIPOS>BOND
  1   1   2  1   
  2   2   3  1   
  3   2   4  1   
  4   2   5  1   
  5   4   6  1   
  6   5   7  1   
  7   5   8  1   
  8   5   9  1   
  9   6   9  1   
 10   6  10  1   
 11   6  11  1   
 12   9  12  1   
 13   9  13  1   
 14  11  14  1   
 15  11  15  1   
 16  11  16  1   
 17  16  17  2   
 18  16  18  am  
 19  18  19  1   
 20  18  20  1   
 21  19  21  1   
 22  19  24  1   
 23  19  25  1   
 24  20  22  1   
 25  20  26  1   
 26  20  27  1   
 27  21  23  1   
 28  21  28  1   
 29  21  29  1   
 30  22  23  1   
 31  22  30  1   
 32  22  31  1   
@<TRIPOS>SUBSTRUCTURE
  1 ****   9 GROUP 4 **** **** 0

# MOE 2024.06 (io_trps.svl 2023.06)
