@<TRIPOS>MOLECULE
NONAME
41 42 1 0 0 
SMALL
USER_CHARGES


@<TRIPOS>ATOM
  1 O        0.5830    -1.6600     0.9510 O.2   1 <1>  -0.5700 
  2 C        0.7760    -2.6430     0.2810 C.2   1 <1>   0.5690 
  3 N        2.0030    -3.0460    -0.1640 N.am  1 <1>  -0.5470 
  4 C       -0.4230    -3.4930    -0.0820 C.3   1 <1>  -0.0990 
  5 C        3.2730    -2.4640    -0.0080 C.ar  1 <1>   0.1170 
  6 C       -1.7070    -2.7330     0.2630 C.3   1 <1>   0.3430 
  7 C        4.3950    -3.2640    -0.1940 C.ar  1 <1>  -0.1500 
  8 C        3.4650    -1.1220     0.3050 C.ar  1 <1>  -0.1500 
  9 N       -2.9360    -3.4990    -0.1100 N.4   1 <1>  -0.9590 
 10 C        5.6750    -2.7510    -0.0670 C.ar  1 <1>  -0.1430 
 11 C        4.7390    -0.6010     0.4330 C.ar  1 <1>  -0.1500 
 12 C       -4.1180    -2.5860    -0.0910 C.3   1 <1>   0.3430 
 13 C       -3.1590    -4.6810     0.7770 C.3   1 <1>   0.3430 
 14 C        5.8430    -1.4140     0.2470 C.ar  1 <1>  -0.1500 
 15 C        6.8930    -3.6350    -0.2710 C.3   1 <1>  -0.0970 
 16 C       -5.3530    -3.3280    -0.6040 C.3   1 <1>  -0.1600 
 17 C       -4.3720    -5.4740     0.2850 C.3   1 <1>  -0.1600 
 18 C       -5.6300    -4.5990     0.2100 C.3   1 <1>  -0.1600 
 19 H        2.0320    -3.9350    -0.6590 H     1 <1>   0.3700 
 20 H       -0.3610    -4.4080     0.4770 H     1 <1>   0.0800 
 21 H       -0.3920    -3.7040    -1.1340 H     1 <1>   0.0800 
 22 H       -1.6920    -1.7930    -0.2660 H     1 <1>   0.0800 
 23 H       -1.7180    -2.5090     1.3180 H     1 <1>   0.0800 
 24 H        4.2680    -4.3020    -0.4370 H     1 <1>   0.1500 
 25 H        2.6250    -0.4690     0.4480 H     1 <1>   0.1500 
 26 H       -2.8410    -3.8400    -1.0750 H     1 <1>   0.4500 
 27 H        4.8720     0.4380     0.6780 H     1 <1>   0.1500 
 28 H       -3.9330    -1.7260    -0.7150 H     1 <1>   0.0800 
 29 H       -4.2970    -2.2420     0.9160 H     1 <1>   0.0800 
 30 H       -3.3330    -4.3500     1.7890 H     1 <1>   0.0800 
 31 H       -2.2930    -5.3220     0.7740 H     1 <1>   0.0800 
 32 H        6.8320    -1.0000     0.3480 H     1 <1>   0.1500 
 33 H        6.6200    -4.6750    -0.2570 H     1 <1>   0.0800 
 34 H        7.6080    -3.4630     0.5130 H     1 <1>   0.0800 
 35 H        7.3520    -3.4100    -1.2160 H     1 <1>   0.0800 
 36 H       -5.2160    -3.5790    -1.6420 H     1 <1>   0.0800 
 37 H       -6.2060    -2.6750    -0.5420 H     1 <1>   0.0800 
 38 H       -4.5520    -6.2950     0.9580 H     1 <1>   0.0800 
 39 H       -4.1580    -5.8940    -0.6820 H     1 <1>   0.0800 
 40 H       -6.4370    -5.1540    -0.2390 H     1 <1>   0.0800 
 41 H       -5.9370    -4.3260     1.2070 H     1 <1>   0.0800 
@<TRIPOS>BOND
  1   1   2  2   
  2   2   3  am  
  3   2   4  1   
  4   3   5  1   
  5   3  19  1   
  6   4   6  1   
  7   4  20  1   
  8   4  21  1   
  9   5   7  ar  
 10   5   8  ar  
 11   6   9  1   
 12   6  22  1   
 13   6  23  1   
 14   7  10  ar  
 15   7  24  1   
 16   8  11  ar  
 17   8  25  1   
 18   9  12  1   
 19   9  13  1   
 20   9  26  1   
 21  10  14  ar  
 22  10  15  1   
 23  11  14  ar  
 24  11  27  1   
 25  12  16  1   
 26  12  28  1   
 27  12  29  1   
 28  13  17  1   
 29  13  30  1   
 30  13  31  1   
 31  14  32  1   
 32  15  33  1   
 33  15  34  1   
 34  15  35  1   
 35  16  18  1   
 36  16  36  1   
 37  16  37  1   
 38  17  18  1   
 39  17  38  1   
 40  17  39  1   
 41  18  40  1   
 42  18  41  1   
@<TRIPOS>SUBSTRUCTURE
  1 ****   2 GROUP 4 **** **** 0

# MOE 2024.06 (io_trps.svl 2023.06)
