@<TRIPOS>MOLECULE
NONAME
41 41 1 0 0 
SMALL
USER_CHARGES


@<TRIPOS>ATOM
  1 O        0.1460     0.0970    -0.5060 O.2   1 <1>  -0.5700 
  2 C        0.7490     1.1030    -0.1890 C.2   1 <1>   0.5440 
  3 N        0.0580     2.2070     0.2400 N.am  1 <1>  -0.7300 
  4 C        2.1990     1.1330    -0.2450 C.ar  1 <1>   0.0860 
  5 C       -1.3900     2.4150     0.3590 C.3   1 <1>   0.3000 
  6 C        2.9470    -0.0320    -0.0610 C.ar  1 <1>  -0.1500 
  7 C        2.9080     2.3140    -0.4810 C.ar  1 <1>  -0.1500 
  8 C       -1.5790     3.8470     0.8560 C.3   1 <1>  -0.2400 
  9 C       -2.0550     2.2580    -1.0080 C.3   1 <1>  -0.2400 
 10 C       -1.9720     1.4390     1.3820 C.3   1 <1>  -0.2400 
 11 C        4.3300    -0.0240    -0.0950 C.ar  1 <1>  -0.1500 
 12 C        4.2900     2.3310    -0.5150 C.ar  1 <1>  -0.1500 
 13 C        5.0140     1.1660    -0.3200 C.ar  1 <1>   0.0820 
 14 O        6.3600     1.2680    -0.3640 O.3   1 <1>  -0.3630 
 15 C        7.1970     0.1470    -0.1750 C.3   1 <1>   0.1200 
 16 C        8.6670     0.5870    -0.2550 C.3   1 <1>  -0.0800 
 17 C        9.5920    -0.6300    -0.1360 C.3   1 <1>  -0.2400 
 18 C        9.0150     1.6100     0.8370 C.3   1 <1>  -0.2400 
 19 H        0.5990     2.9810     0.6160 H     1 <1>   0.3700 
 20 H        2.4240    -0.9570     0.1110 H     1 <1>   0.1500 
 21 H        2.3720     3.2310    -0.6500 H     1 <1>   0.1500 
 22 H       -1.1120     3.9810     1.8150 H     1 <1>   0.0800 
 23 H       -2.6270     4.0640     0.9630 H     1 <1>   0.0800 
 24 H       -1.1630     4.5490     0.1550 H     1 <1>   0.0800 
 25 H       -1.6000     2.9150    -1.7260 H     1 <1>   0.0800 
 26 H       -3.1010     2.4950    -0.9410 H     1 <1>   0.0800 
 27 H       -1.9680     1.2460    -1.3590 H     1 <1>   0.0800 
 28 H       -1.4640     1.5330     2.3250 H     1 <1>   0.0800 
 29 H       -1.8770     0.4260     1.0350 H     1 <1>   0.0800 
 30 H       -3.0160     1.6400     1.5340 H     1 <1>   0.0800 
 31 H        4.8540    -0.9490     0.0540 H     1 <1>   0.1500 
 32 H        4.8220     3.2470    -0.6960 H     1 <1>   0.1500 
 33 H        6.9770    -0.5690    -0.9480 H     1 <1>   0.0800 
 34 H        6.9840    -0.2760     0.7910 H     1 <1>   0.0800 
 35 H        8.8290     1.0390    -1.2200 H     1 <1>   0.0800 
 36 H        9.4630    -1.1150     0.8160 H     1 <1>   0.0800 
 37 H       10.6200    -0.3270    -0.2290 H     1 <1>   0.0800 
 38 H        9.3790    -1.3400    -0.9160 H     1 <1>   0.0800 
 39 H        8.8520     1.1920     1.8150 H     1 <1>   0.0800 
 40 H        8.4030     2.4890     0.7350 H     1 <1>   0.0800 
 41 H       10.0450     1.9080     0.7570 H     1 <1>   0.0800 
@<TRIPOS>BOND
  1   1   2  2   
  2   2   3  am  
  3   2   4  1   
  4   3   5  1   
  5   3  19  1   
  6   4   6  ar  
  7   4   7  ar  
  8   5   8  1   
  9   5   9  1   
 10   5  10  1   
 11   6  11  ar  
 12   6  20  1   
 13   7  12  ar  
 14   7  21  1   
 15   8  22  1   
 16   8  23  1   
 17   8  24  1   
 18   9  25  1   
 19   9  26  1   
 20   9  27  1   
 21  10  28  1   
 22  10  29  1   
 23  10  30  1   
 24  11  13  ar  
 25  11  31  1   
 26  12  13  ar  
 27  12  32  1   
 28  13  14  1   
 29  14  15  1   
 30  15  16  1   
 31  15  33  1   
 32  15  34  1   
 33  16  17  1   
 34  16  18  1   
 35  16  35  1   
 36  17  36  1   
 37  17  37  1   
 38  17  38  1   
 39  18  39  1   
 40  18  40  1   
 41  18  41  1   
@<TRIPOS>SUBSTRUCTURE
  1 ****   4 GROUP 4 **** **** 0

# MOE 2024.06 (io_trps.svl 2023.06)
