@<TRIPOS>MOLECULE
NONAME
42 44 1 0 0 
SMALL
USER_CHARGES


@<TRIPOS>ATOM
  1 O        0.3960    -0.3900     1.2770 O.2   1 <1>  -0.5700 
  2 C        1.4340    -0.6640     0.7190 C.2   1 <1>   0.5690 
  3 N        2.4880     0.2240     0.6590 N.am  1 <1>  -0.2980 
  4 C        1.6070    -2.0380     0.0750 C.3   1 <1>  -0.0990 
  5 N        3.7590    -0.0310     0.2010 N.2   1 <1>  -0.5120 
  6 C        2.3750     1.5820     1.2280 C.3   1 <1>   0.4000 
  7 C        0.3090    -2.8510    -0.0740 C.3   1 <1>  -0.2400 
  8 C        4.5310     0.9490     0.4610 C.2   1 <1>   0.3030 
  9 C        1.4860     2.4970     0.3860 C.2   1 <1>  -0.0400 
 10 C        3.8220     2.0620     1.2030 C.3   1 <1>  -0.0990 
 11 C        5.9360     1.0480     0.1270 C.ar  1 <1>   0.0860 
 12 O        1.3120     3.7430     0.7890 O.3   1 <1>  -0.2800 
 13 C        0.8020     2.2780    -0.7590 C.2   1 <1>  -0.1500 
 14 C        6.7250     2.1470     0.4790 C.ar  1 <1>  -0.1500 
 15 C        6.5700     0.0210    -0.5770 C.ar  1 <1>  -0.1500 
 16 C        0.5190     4.3390    -0.0790 C.2   1 <1>  -0.0100 
 17 C        0.1670     3.4870    -1.0650 C.2   1 <1>  -0.1500 
 18 C        8.0660     2.2150     0.1480 C.ar  1 <1>  -0.1500 
 19 C        7.9100     0.0840    -0.9100 C.ar  1 <1>  -0.1500 
 20 C        8.6700     1.1840    -0.5510 C.ar  1 <1>  -0.1440 
 21 C       10.1440     1.2560    -0.9170 C.3   1 <1>  -0.0170 
 22 C       11.0040     0.6540     0.1970 C.3   1 <1>  -0.2400 
 23 H        2.3080    -2.5950     0.6690 H     1 <1>   0.0800 
 24 H        2.0410    -1.8990    -0.8980 H     1 <1>   0.0800 
 25 H        1.9990     1.5240     2.2340 H     1 <1>   0.0800 
 26 H       -0.1260    -3.0350     0.8930 H     1 <1>   0.0800 
 27 H        0.5120    -3.7940    -0.5480 H     1 <1>   0.0800 
 28 H       -0.4020    -2.3070    -0.6710 H     1 <1>   0.0800 
 29 H        4.2000     2.1540     2.2040 H     1 <1>   0.0800 
 30 H        3.9170     2.9990     0.6860 H     1 <1>   0.0800 
 31 H        0.7360     1.3740    -1.3390 H     1 <1>   0.1500 
 32 H        6.2990     2.9700     1.0230 H     1 <1>   0.1500 
 33 H        6.0000    -0.8440    -0.8680 H     1 <1>   0.1500 
 34 H        0.2540     5.3690     0.0800 H     1 <1>   0.1500 
 35 H       -0.4660     3.6630    -1.9160 H     1 <1>   0.1500 
 36 H        8.6440     3.0750     0.4370 H     1 <1>   0.1500 
 37 H        8.3610    -0.7300    -1.4510 H     1 <1>   0.1500 
 38 H       10.4280     2.2820    -1.0780 H     1 <1>   0.0800 
 39 H       10.3170     0.7220    -1.8350 H     1 <1>   0.0800 
 40 H       10.8510     1.1910     1.1160 H     1 <1>   0.0800 
 41 H       12.0440     0.7080    -0.0680 H     1 <1>   0.0800 
 42 H       10.7390    -0.3770     0.3530 H     1 <1>   0.0800 
@<TRIPOS>BOND
  1   1   2  2   
  2   2   3  am  
  3   2   4  1   
  4   3   5  1   
  5   3   6  1   
  6   4   7  1   
  7   4  23  1   
  8   4  24  1   
  9   5   8  2   
 10   6   9  1   
 11   6  10  1   
 12   6  25  1   
 13   7  26  1   
 14   7  27  1   
 15   7  28  1   
 16   8  10  1   
 17   8  11  1   
 18   9  12  1   
 19   9  13  2   
 20  10  29  1   
 21  10  30  1   
 22  11  14  ar  
 23  11  15  ar  
 24  12  16  1   
 25  13  17  1   
 26  13  31  1   
 27  14  18  ar  
 28  14  32  1   
 29  15  19  ar  
 30  15  33  1   
 31  16  17  2   
 32  16  34  1   
 33  17  35  1   
 34  18  20  ar  
 35  18  36  1   
 36  19  20  ar  
 37  19  37  1   
 38  20  21  1   
 39  21  22  1   
 40  21  38  1   
 41  21  39  1   
 42  22  40  1   
 43  22  41  1   
 44  22  42  1   
@<TRIPOS>SUBSTRUCTURE
  1 ****   8 GROUP 4 **** **** 0

# MOE 2024.06 (io_trps.svl 2023.06)
