@<TRIPOS>MOLECULE
NONAME
34 35 1 0 0 
SMALL
USER_CHARGES


@<TRIPOS>ATOM
  1 F        0.3550     0.0400    -0.2640 F     1 <1>  -0.3400 
  2 C        0.8370    -1.1680    -0.5350 C.3   1 <1>   1.1640 
  3 F        0.0930    -2.0280     0.1470 F     1 <1>  -0.3400 
  4 F        0.5800    -1.3880    -1.8190 F     1 <1>  -0.3400 
  5 C        2.3310    -1.3040    -0.1930 C.ar  1 <1>  -0.1440 
  6 C        3.1570    -2.1590    -0.9140 C.ar  1 <1>  -0.1500 
  7 C        2.8930    -0.5820     0.8540 C.ar  1 <1>  -0.1500 
  8 C        4.4990    -2.2810    -0.6000 C.ar  1 <1>  -0.1500 
  9 C        4.2360    -0.7090     1.1620 C.ar  1 <1>  -0.1500 
 10 C        5.0770    -1.5600     0.4450 C.ar  1 <1>   0.0540 
 11 C        6.4890    -1.6880     0.7750 C.2   1 <1>   0.4620 
 12 N        7.0880    -1.0530     1.7260 N.2   1 <1>  -0.4100 
 13 N        7.3180    -2.5030     0.0960 N.2   1 <1>  -0.5650 
 14 O        8.2960    -1.4590     1.6610 O.3   1 <1>  -0.0190 
 15 C        8.4470    -2.3210     0.6960 C.2   1 <1>   0.3930 
 16 C        9.7640    -2.9000     0.4590 C.2   1 <1>   0.7150 
 17 O        9.9580    -3.7120    -0.4290 O.2   1 <1>  -0.5700 
 18 N       10.8450    -2.5390     1.2290 N.am  1 <1>  -0.7300 
 19 C       12.2100    -3.1200     1.1210 C.3   1 <1>   0.1400 
 20 C       12.9630    -2.5160    -0.0650 C.3   1 <1>   0.1200 
 21 O       14.2910    -2.9290     0.0050 O.3   1 <1>  -0.5600 
 22 C       15.0670    -2.5140    -1.0720 C.3   1 <1>   0.0400 
 23 H        2.7600    -2.7410    -1.7310 H     1 <1>   0.1500 
 24 H        2.2860     0.0880     1.4410 H     1 <1>   0.1500 
 25 H        5.1100    -2.9520    -1.1800 H     1 <1>   0.1500 
 26 H        4.6390    -0.1350     1.9790 H     1 <1>   0.1500 
 27 H       10.7150    -1.8480     1.9720 H     1 <1>   0.3700 
 28 H       12.1370    -4.1860     0.9850 H     1 <1>   0.0800 
 29 H       12.7520    -2.9210     2.0290 H     1 <1>   0.0800 
 30 H       12.9410    -1.4420    -0.0210 H     1 <1>   0.0800 
 31 H       12.5370    -2.8650    -0.9910 H     1 <1>   0.0800 
 32 H       16.0690    -2.8760    -0.9220 H     1 <1>   0.0800 
 33 H       15.0710    -1.4390    -1.1150 H     1 <1>   0.0800 
 34 H       14.6640    -2.9290    -1.9800 H     1 <1>   0.0800 
@<TRIPOS>BOND
  1   1   2  1   
  2   2   3  1   
  3   2   4  1   
  4   2   5  1   
  5   5   6  ar  
  6   5   7  ar  
  7   6   8  ar  
  8   6  23  1   
  9   7   9  ar  
 10   7  24  1   
 11   8  10  ar  
 12   8  25  1   
 13   9  10  ar  
 14   9  26  1   
 15  10  11  1   
 16  11  12  2   
 17  11  13  1   
 18  12  14  1   
 19  13  15  2   
 20  14  15  1   
 21  15  16  1   
 22  16  17  2   
 23  16  18  am  
 24  18  19  1   
 25  18  27  1   
 26  19  20  1   
 27  19  28  1   
 28  19  29  1   
 29  20  21  1   
 30  20  30  1   
 31  20  31  1   
 32  21  22  1   
 33  22  32  1   
 34  22  33  1   
 35  22  34  1   
@<TRIPOS>SUBSTRUCTURE
  1 ****  11 GROUP 4 **** **** 0

# MOE 2024.06 (io_trps.svl 2023.06)
