@<TRIPOS>MOLECULE
NONAME
43 45 1 0 0 
SMALL
USER_CHARGES


@<TRIPOS>ATOM
  1 I        0.0010     0.9010     1.5900 I     1 <1>  -0.0810 
  2 C       -1.3530     2.3180     0.7570 C.ar  1 <1>   0.0810 
  3 C       -2.4320     2.7310     1.5170 C.ar  1 <1>  -0.1500 
  4 C       -1.1160     2.7890    -0.5210 C.ar  1 <1>  -0.1500 
  5 C       -3.3110     3.6530     0.9730 C.ar  1 <1>  -0.1500 
  6 C       -2.0020     3.7100    -1.0530 C.ar  1 <1>  -0.1500 
  7 C       -3.0970     4.1450    -0.3160 C.ar  1 <1>   0.0830 
  8 O       -3.9070     5.0490    -0.9220 O.3   1 <1>  -0.3630 
  9 C       -5.0390     5.5760    -0.2610 C.3   1 <1>   0.3000 
 10 C       -5.7490     6.5610    -1.1720 C.2   1 <1>  -0.0400 
 11 O       -6.8180     7.1830    -0.7240 O.3   1 <1>  -0.2800 
 12 C       -5.4840     6.9490    -2.4380 C.2   1 <1>  -0.1500 
 13 C       -7.2850     7.9950    -1.6730 C.2   1 <1>   0.0550 
 14 C       -6.4780     7.8720    -2.7640 C.2   1 <1>  -0.1500 
 15 C       -8.4720     8.8130    -1.5050 C.2   1 <1>   0.7150 
 16 O       -9.0640     9.1780    -2.5090 O.2   1 <1>  -0.5700 
 17 N       -8.9700     9.2080    -0.2720 N.am  1 <1>  -0.6600 
 18 C       -8.1580     9.1190     0.9760 C.3   1 <1>   0.1400 
 19 C      -10.3560     9.7460    -0.1650 C.3   1 <1>   0.1400 
 20 C       -8.4590    10.2030     2.0200 C.3   1 <1>  -0.1600 
 21 C      -10.3500    11.2720    -0.3080 C.3   1 <1>  -0.1600 
 22 C       -8.4990    11.6320     1.4550 C.3   1 <1>  -0.1600 
 23 C       -9.8920    12.0290     0.9470 C.3   1 <1>  -0.1600 
 24 H       -2.5830     2.3410     2.5080 H     1 <1>   0.1500 
 25 H       -0.2670     2.4480    -1.0860 H     1 <1>   0.1500 
 26 H       -4.1480     3.9690     1.5660 H     1 <1>   0.1500 
 27 H       -1.8500     4.0980    -2.0440 H     1 <1>   0.1500 
 28 H       -4.7100     6.0740     0.6320 H     1 <1>   0.0800 
 29 H       -5.7000     4.7640    -0.0160 H     1 <1>   0.0800 
 30 H       -4.6840     6.6270    -3.0810 H     1 <1>   0.1500 
 31 H       -6.5810     8.3800    -3.7070 H     1 <1>   0.1500 
 32 H       -7.1170     9.2050     0.7140 H     1 <1>   0.0800 
 33 H       -8.3070     8.1480     1.4170 H     1 <1>   0.0800 
 34 H      -10.8030     9.4500     0.7680 H     1 <1>   0.0800 
 35 H      -10.9560     9.3260    -0.9540 H     1 <1>   0.0800 
 36 H       -7.6760    10.1550     2.7570 H     1 <1>   0.0800 
 37 H       -9.3750     9.9750     2.5360 H     1 <1>   0.0800 
 38 H      -11.3530    11.5870    -0.5370 H     1 <1>   0.0800 
 39 H       -9.7350    11.5440    -1.1490 H     1 <1>   0.0800 
 40 H       -7.7700    11.7470     0.6710 H     1 <1>   0.0800 
 41 H       -8.2330    12.3140     2.2450 H     1 <1>   0.0800 
 42 H      -10.6120    11.8810     1.7340 H     1 <1>   0.0800 
 43 H       -9.8840    13.0810     0.7190 H     1 <1>   0.0800 
@<TRIPOS>BOND
  1   1   2  1   
  2   2   3  ar  
  3   2   4  ar  
  4   3   5  ar  
  5   3  24  1   
  6   4   6  ar  
  7   4  25  1   
  8   5   7  ar  
  9   5  26  1   
 10   6   7  ar  
 11   6  27  1   
 12   7   8  1   
 13   8   9  1   
 14   9  10  1   
 15   9  28  1   
 16   9  29  1   
 17  10  11  1   
 18  10  12  2   
 19  11  13  1   
 20  12  14  1   
 21  12  30  1   
 22  13  14  2   
 23  13  15  1   
 24  14  31  1   
 25  15  16  2   
 26  15  17  am  
 27  17  18  1   
 28  17  19  1   
 29  18  20  1   
 30  18  32  1   
 31  18  33  1   
 32  19  21  1   
 33  19  34  1   
 34  19  35  1   
 35  20  22  1   
 36  20  36  1   
 37  20  37  1   
 38  21  23  1   
 39  21  38  1   
 40  21  39  1   
 41  22  23  1   
 42  22  40  1   
 43  22  41  1   
 44  23  42  1   
 45  23  43  1   
@<TRIPOS>SUBSTRUCTURE
  1 ****  10 GROUP 4 **** **** 0

# MOE 2024.06 (io_trps.svl 2023.06)
