@<TRIPOS>MOLECULE
NONAME
48 50 1 0 0 
SMALL
USER_CHARGES


@<TRIPOS>ATOM
  1 S       -0.4900    -0.0660    -0.6450 S.3   1 <1>  -0.0800 
  2 C       -2.1970     0.0220    -0.9300 C.2   1 <1>   0.4420 
  3 C       -0.4210     1.6360    -0.9500 C.2   1 <1>   0.1980 
  4 N       -2.5800     1.2140    -1.2070 N.2   1 <1>  -0.3380 
  5 N       -2.9050    -1.1570    -0.8110 N.am  1 <1>  -0.4940 
  6 N       -1.5620     2.1280    -1.2170 N.2   1 <1>  -0.3380 
  7 C        0.9410     2.3070    -0.8630 C.3   1 <1>   0.0200 
  8 C       -4.2260    -1.3930    -1.0820 C.2   1 <1>   0.5690 
  9 C        0.8860     3.8130    -1.1490 C.3   1 <1>  -0.2400 
 10 O       -4.9470    -0.5720    -1.5940 O.2   1 <1>  -0.5700 
 11 C       -4.8010    -2.7750    -0.7100 C.3   1 <1>   0.1710 
 12 N       -6.2650    -2.7990    -0.4250 N.3   1 <1>  -0.8100 
 13 C       -6.8500    -4.1510    -0.2970 C.3   1 <1>   0.1100 
 14 C       -6.6680    -1.9240     0.7080 C.3   1 <1>   0.1100 
 15 C       -8.3990    -4.0870    -0.2310 C.3   1 <1>   0.3430 
 16 C       -8.2040    -1.8940     0.8970 C.3   1 <1>   0.3430 
 17 N       -8.8770    -2.6650    -0.2020 N.4   1 <1>  -0.9590 
 18 C      -10.3510    -2.4970    -0.2690 C.3   1 <1>   0.4860 
 19 C      -10.6830    -1.0160    -0.3350 C.ar  1 <1>  -0.1440 
 20 C      -10.2810    -0.2510    -1.4260 C.ar  1 <1>  -0.1500 
 21 C      -11.3860    -0.4200     0.7080 C.ar  1 <1>  -0.1500 
 22 C      -10.5680     1.1030    -1.4730 C.ar  1 <1>  -0.1500 
 23 C      -11.6790     0.9330     0.6680 C.ar  1 <1>  -0.1500 
 24 C      -11.2620     1.6700    -0.4230 C.ar  1 <1>   0.1900 
 25 F      -11.5330     2.9460    -0.4620 F     1 <1>  -0.1900 
 26 H       -2.3510    -1.9420    -0.4850 H     1 <1>   0.3700 
 27 H        1.6010     1.8370    -1.5710 H     1 <1>   0.0800 
 28 H        1.3410     2.1490     0.1220 H     1 <1>   0.0800 
 29 H        0.5020     3.9900    -2.1380 H     1 <1>   0.0800 
 30 H        1.8690     4.2430    -1.0770 H     1 <1>   0.0800 
 31 H        0.2410     4.3020    -0.4400 H     1 <1>   0.0800 
 32 H       -4.2710    -3.1540     0.1460 H     1 <1>   0.0800 
 33 H       -4.6030    -3.4300    -1.5400 H     1 <1>   0.0800 
 34 H       -6.4700    -4.6340     0.5870 H     1 <1>   0.0800 
 35 H       -6.5640    -4.7500    -1.1460 H     1 <1>   0.0800 
 36 H       -6.3370    -0.9150     0.5220 H     1 <1>   0.0800 
 37 H       -6.2010    -2.2550     1.6190 H     1 <1>   0.0800 
 38 H       -8.7400    -4.6130     0.6450 H     1 <1>   0.0800 
 39 H       -8.8030    -4.5890    -1.0950 H     1 <1>   0.0800 
 40 H       -8.5310    -0.8660     0.8870 H     1 <1>   0.0800 
 41 H       -8.4590    -2.3120     1.8560 H     1 <1>   0.0800 
 42 H       -8.4560    -2.2420    -1.0450 H     1 <1>   0.4500 
 43 H      -10.8120    -2.9350     0.6010 H     1 <1>   0.0800 
 44 H      -10.7390    -2.9880    -1.1460 H     1 <1>   0.0800 
 45 H       -9.7420    -0.6920    -2.2490 H     1 <1>   0.1500 
 46 H      -11.7130    -0.9950     1.5580 H     1 <1>   0.1500 
 47 H      -10.2620     1.7130    -2.3060 H     1 <1>   0.1500 
 48 H      -12.2220     1.4150     1.4630 H     1 <1>   0.1500 
@<TRIPOS>BOND
  1   1   2  1   
  2   1   3  1   
  3   2   4  2   
  4   2   5  1   
  5   3   6  2   
  6   3   7  1   
  7   4   6  1   
  8   5   8  am  
  9   5  26  1   
 10   7   9  1   
 11   7  27  1   
 12   7  28  1   
 13   8  10  2   
 14   8  11  1   
 15   9  29  1   
 16   9  30  1   
 17   9  31  1   
 18  11  12  1   
 19  11  32  1   
 20  11  33  1   
 21  12  13  1   
 22  12  14  1   
 23  13  15  1   
 24  13  34  1   
 25  13  35  1   
 26  14  16  1   
 27  14  36  1   
 28  14  37  1   
 29  15  17  1   
 30  15  38  1   
 31  15  39  1   
 32  16  17  1   
 33  16  40  1   
 34  16  41  1   
 35  17  18  1   
 36  17  42  1   
 37  18  19  1   
 38  18  43  1   
 39  18  44  1   
 40  19  20  ar  
 41  19  21  ar  
 42  20  22  ar  
 43  20  45  1   
 44  21  23  ar  
 45  21  46  1   
 46  22  24  ar  
 47  22  47  1   
 48  23  24  ar  
 49  23  48  1   
 50  24  25  1   
@<TRIPOS>SUBSTRUCTURE
  1 ****  10 GROUP 4 **** **** 0

# MOE 2024.06 (io_trps.svl 2023.06)
