@<TRIPOS>MOLECULE
NONAME
46 47 1 0 0 
SMALL
USER_CHARGES


@<TRIPOS>ATOM
  1 O       -0.4980    -0.3530    -0.0350 O.3   1 <1>  -0.3630 
  2 C       -1.6940    -0.8220    -0.4810 C.ar  1 <1>   0.0830 
  3 C       -0.5730     0.5270     1.0630 C.3   1 <1>   0.0400 
  4 C       -2.4830    -0.0420    -1.3340 C.ar  1 <1>   0.0830 
  5 C       -2.1700    -2.0720    -0.0670 C.ar  1 <1>   0.0830 
  6 O       -2.1080     1.1690    -1.8220 O.3   1 <1>  -0.3630 
  7 C       -3.7390    -0.4830    -1.7140 C.ar  1 <1>  -0.1500 
  8 O       -1.4940    -2.9400     0.7350 O.3   1 <1>  -0.3630 
  9 C       -3.4280    -2.4950    -0.4620 C.ar  1 <1>  -0.1500 
 10 C       -0.8510     1.2770    -2.4590 C.3   1 <1>   0.0400 
 11 C       -4.2250    -1.7040    -1.2750 C.ar  1 <1>  -0.1430 
 12 C       -0.1030    -3.1200     0.5660 C.3   1 <1>   0.0400 
 13 C       -5.6120    -2.1670    -1.6700 C.3   1 <1>   0.4860 
 14 N       -6.5000    -2.0630    -0.4810 N.4   1 <1>  -0.9590 
 15 C       -7.7690    -2.8100    -0.7040 C.3   1 <1>   0.3430 
 16 C       -6.6820    -0.6360    -0.0810 C.3   1 <1>   0.3430 
 17 C       -8.3160    -3.3140     0.6310 C.3   1 <1>  -0.1600 
 18 C       -7.3910    -0.4930     1.2660 C.3   1 <1>  -0.1600 
 19 C       -9.2110    -2.3190     1.3880 C.3   1 <1>  -0.1600 
 20 C       -8.8880    -0.8300     1.2030 C.3   1 <1>  -0.1600 
 21 H        0.4260     0.8220     1.3290 H     1 <1>   0.0800 
 22 H       -1.1500     1.3910     0.7820 H     1 <1>   0.0800 
 23 H       -1.0380     0.0150     1.8880 H     1 <1>   0.0800 
 24 H       -4.3210     0.1510    -2.3610 H     1 <1>   0.1500 
 25 H       -3.7620    -3.4580    -0.1180 H     1 <1>   0.1500 
 26 H       -0.8740     2.1370    -3.1040 H     1 <1>   0.0800 
 27 H       -0.6680     0.3880    -3.0370 H     1 <1>   0.0800 
 28 H       -0.0860     1.4060    -1.7150 H     1 <1>   0.0800 
 29 H        0.4170    -2.3500     1.1070 H     1 <1>   0.0800 
 30 H        0.1620    -4.0820     0.9640 H     1 <1>   0.0800 
 31 H        0.1370    -3.0750    -0.4820 H     1 <1>   0.0800 
 32 H       -5.5580    -3.1910    -2.0050 H     1 <1>   0.0800 
 33 H       -5.9920    -1.5620    -2.4770 H     1 <1>   0.0800 
 34 H       -5.9960    -2.5170     0.2900 H     1 <1>   0.4500 
 35 H       -7.5700    -3.6670    -1.3270 H     1 <1>   0.0800 
 36 H       -8.4980    -2.1920    -1.2040 H     1 <1>   0.0800 
 37 H       -7.2400    -0.1090    -0.8380 H     1 <1>   0.0800 
 38 H       -5.7150    -0.1650     0.0010 H     1 <1>   0.0800 
 39 H       -7.5020    -3.6280     1.2620 H     1 <1>   0.0800 
 40 H       -8.9060    -4.1930     0.4380 H     1 <1>   0.0800 
 41 H       -7.3070     0.5420     1.5510 H     1 <1>   0.0800 
 42 H       -6.8930    -1.0650     2.0290 H     1 <1>   0.0800 
 43 H       -9.1650    -2.5580     2.4380 H     1 <1>   0.0800 
 44 H      -10.2340    -2.4710     1.0860 H     1 <1>   0.0800 
 45 H       -9.3020    -0.4770     0.2730 H     1 <1>   0.0800 
 46 H       -9.3940    -0.2900     1.9870 H     1 <1>   0.0800 
@<TRIPOS>BOND
  1   1   2  1   
  2   1   3  1   
  3   2   4  ar  
  4   2   5  ar  
  5   3  21  1   
  6   3  22  1   
  7   3  23  1   
  8   4   6  1   
  9   4   7  ar  
 10   5   8  1   
 11   5   9  ar  
 12   6  10  1   
 13   7  11  ar  
 14   7  24  1   
 15   8  12  1   
 16   9  11  ar  
 17   9  25  1   
 18  10  26  1   
 19  10  27  1   
 20  10  28  1   
 21  11  13  1   
 22  12  29  1   
 23  12  30  1   
 24  12  31  1   
 25  13  14  1   
 26  13  32  1   
 27  13  33  1   
 28  14  15  1   
 29  14  16  1   
 30  14  34  1   
 31  15  17  1   
 32  15  35  1   
 33  15  36  1   
 34  16  18  1   
 35  16  37  1   
 36  16  38  1   
 37  17  19  1   
 38  17  39  1   
 39  17  40  1   
 40  18  20  1   
 41  18  41  1   
 42  18  42  1   
 43  19  20  1   
 44  19  43  1   
 45  19  44  1   
 46  20  45  1   
 47  20  46  1   
@<TRIPOS>SUBSTRUCTURE
  1 ****  11 GROUP 4 **** **** 0

# MOE 2024.06 (io_trps.svl 2023.06)
