@<TRIPOS>MOLECULE
NONAME
31 31 1 0 0 
SMALL
USER_CHARGES


@<TRIPOS>ATOM
  1 CL       1.4380     1.5180     2.7710 Cl    1 <1>  -0.1770 
  2 C        2.1630     1.4950     1.1800 C.ar  1 <1>   0.1770 
  3 C        1.5000     2.0650     0.1030 C.ar  1 <1>  -0.1440 
  4 C        3.4000     0.9000     1.0360 C.ar  1 <1>  -0.1500 
  5 C        2.1100     2.0210    -1.1410 C.ar  1 <1>  -0.1500 
  6 C        0.1370     2.7200     0.2710 C.3   1 <1>  -0.0960 
  7 C        4.0280     0.8630    -0.2060 C.ar  1 <1>   0.0860 
  8 C        3.3510     1.4260    -1.2890 C.ar  1 <1>  -0.1500 
  9 C        5.3320     0.2490    -0.3580 C.2   1 <1>   0.5440 
 10 O        5.4420    -0.9440    -0.1460 O.2   1 <1>  -0.5700 
 11 N        6.4500     0.9770    -0.7230 N.am  1 <1>  -0.6600 
 12 C        6.4700     2.4630    -0.8100 C.3   1 <1>   0.1400 
 13 C        7.7180     0.2880    -1.0950 C.3   1 <1>   0.1400 
 14 C        6.4660     3.0800     0.5890 C.3   1 <1>  -0.2400 
 15 C        8.7050     0.3340     0.0690 C.3   1 <1>  -0.2400 
 16 H        3.8850     0.4580     1.8870 H     1 <1>   0.1500 
 17 H        1.6210     2.4470    -2.0000 H     1 <1>   0.1500 
 18 H       -0.2240     3.1090    -0.6630 H     1 <1>   0.0800 
 19 H        0.2020     3.5300     0.9760 H     1 <1>   0.0800 
 20 H       -0.5730     1.9990     0.6380 H     1 <1>   0.0800 
 21 H        3.8110     1.3890    -2.2610 H     1 <1>   0.1500 
 22 H        5.6170     2.8120    -1.3650 H     1 <1>   0.0800 
 23 H        7.3530     2.7830    -1.3370 H     1 <1>   0.0800 
 24 H        8.1450     0.7560    -1.9650 H     1 <1>   0.0800 
 25 H        7.5160    -0.7400    -1.3470 H     1 <1>   0.0800 
 26 H        5.5590     2.8390     1.1100 H     1 <1>   0.0800 
 27 H        6.5330     4.1490     0.5110 H     1 <1>   0.0800 
 28 H        7.3050     2.7280     1.1600 H     1 <1>   0.0800 
 29 H        9.0080     1.3440     0.2710 H     1 <1>   0.0800 
 30 H        9.5790    -0.2390    -0.1790 H     1 <1>   0.0800 
 31 H        8.2540    -0.0930     0.9470 H     1 <1>   0.0800 
@<TRIPOS>BOND
  1   1   2  1   
  2   2   3  ar  
  3   2   4  ar  
  4   3   5  ar  
  5   3   6  1   
  6   4   7  ar  
  7   4  16  1   
  8   5   8  ar  
  9   5  17  1   
 10   6  18  1   
 11   6  19  1   
 12   6  20  1   
 13   7   8  ar  
 14   7   9  1   
 15   8  21  1   
 16   9  10  2   
 17   9  11  am  
 18  11  12  1   
 19  11  13  1   
 20  12  14  1   
 21  12  22  1   
 22  12  23  1   
 23  13  15  1   
 24  13  24  1   
 25  13  25  1   
 26  14  26  1   
 27  14  27  1   
 28  14  28  1   
 29  15  29  1   
 30  15  30  1   
 31  15  31  1   
@<TRIPOS>SUBSTRUCTURE
  1 ****   7 GROUP 4 **** **** 0

# MOE 2024.06 (io_trps.svl 2023.06)
