@<TRIPOS>MOLECULE
NONAME
38 39 1 0 0 
SMALL
USER_CHARGES


@<TRIPOS>ATOM
  1 CL      -1.2310    -1.5380    -2.2430 Cl    1 <1>  -0.1770 
  2 C       -0.0710    -2.3280    -1.1970 C.ar  1 <1>   0.1770 
  3 C       -0.4090    -3.2690    -0.2280 C.ar  1 <1>   0.3960 
  4 C        1.2540    -1.9990    -1.3640 C.ar  1 <1>   0.1600 
  5 N        0.5660    -3.8340     0.4940 N.ar  1 <1>  -0.6200 
  6 C       -1.7840    -3.6900     0.0540 C.2   1 <1>   0.5440 
  7 N        2.2130    -2.5450    -0.6490 N.ar  1 <1>  -0.6200 
  8 C        1.7940    -3.4330     0.2360 C.ar  1 <1>   0.7220 
  9 O       -2.7650    -3.0980    -0.3550 O.2   1 <1>  -0.5700 
 10 N       -2.0240    -4.7950     0.8320 N.am  1 <1>  -0.7300 
 11 S        3.0540    -4.2130     1.2290 S.3   1 <1>  -0.3310 
 12 C       -3.3450    -5.2170     1.3690 C.3   1 <1>   0.1400 
 13 C        4.6500    -3.4680     0.6630 C.3   1 <1>  -0.0100 
 14 C       -4.3100    -5.6300     0.2360 C.3   1 <1>   0.3430 
 15 N       -5.6620    -4.9820     0.3410 N.4   1 <1>  -0.9590 
 16 C       -6.6600    -5.6630    -0.5530 C.3   1 <1>   0.3430 
 17 C       -5.5860    -3.5180    -0.0200 C.3   1 <1>   0.3430 
 18 C       -8.0160    -4.9330    -0.5420 C.3   1 <1>   0.1200 
 19 C       -6.9820    -2.8660    -0.0530 C.3   1 <1>   0.1200 
 20 O       -7.8460    -3.5880    -0.8840 O.3   1 <1>  -0.5600 
 21 H        1.5260    -1.2700    -2.1090 H     1 <1>   0.1500 
 22 H       -1.1920    -5.2170     1.2700 H     1 <1>   0.3700 
 23 H       -3.7560    -4.4010     1.9380 H     1 <1>   0.0800 
 24 H       -3.1980    -6.0520     2.0320 H     1 <1>   0.0800 
 25 H        5.4420    -3.9100     1.2390 H     1 <1>   0.0800 
 26 H        4.5980    -2.4070     0.8300 H     1 <1>   0.0800 
 27 H        4.7650    -3.6870    -0.3830 H     1 <1>   0.0800 
 28 H       -4.4220    -6.7010     0.2610 H     1 <1>   0.0800 
 29 H       -3.8650    -5.3650    -0.7100 H     1 <1>   0.0800 
 30 H       -6.0040    -5.0500     1.3070 H     1 <1>   0.4500 
 31 H       -6.8030    -6.6840    -0.2380 H     1 <1>   0.0800 
 32 H       -6.2920    -5.6770    -1.5670 H     1 <1>   0.0800 
 33 H       -5.1340    -3.4060    -0.9930 H     1 <1>   0.0800 
 34 H       -4.9620    -2.9920     0.6840 H     1 <1>   0.0800 
 35 H       -8.4830    -4.9880     0.4260 H     1 <1>   0.0800 
 36 H       -8.6790    -5.3710    -1.2680 H     1 <1>   0.0800 
 37 H       -6.9110    -1.8660    -0.4460 H     1 <1>   0.0800 
 38 H       -7.4110    -2.8150     0.9320 H     1 <1>   0.0800 
@<TRIPOS>BOND
  1   1   2  1   
  2   2   3  ar  
  3   2   4  ar  
  4   3   5  ar  
  5   3   6  1   
  6   4   7  ar  
  7   4  21  1   
  8   5   8  ar  
  9   6   9  2   
 10   6  10  am  
 11   7   8  ar  
 12   8  11  1   
 13  10  12  1   
 14  10  22  1   
 15  11  13  1   
 16  12  14  1   
 17  12  23  1   
 18  12  24  1   
 19  13  25  1   
 20  13  26  1   
 21  13  27  1   
 22  14  15  1   
 23  14  28  1   
 24  14  29  1   
 25  15  16  1   
 26  15  17  1   
 27  15  30  1   
 28  16  18  1   
 29  16  31  1   
 30  16  32  1   
 31  17  19  1   
 32  17  33  1   
 33  17  34  1   
 34  18  20  1   
 35  18  35  1   
 36  18  36  1   
 37  19  20  1   
 38  19  37  1   
 39  19  38  1   
@<TRIPOS>SUBSTRUCTURE
  1 ****   6 GROUP 4 **** **** 0

# MOE 2024.06 (io_trps.svl 2023.06)
