@<TRIPOS>MOLECULE
NONAME
32 33 1 0 0 
SMALL
USER_CHARGES


@<TRIPOS>ATOM
  1 O        0.3930     0.5920    -0.1120 O.co2 1 <1>  -0.9000 
  2 C       -0.1450     1.6180    -0.5480 C.2   1 <1>   0.9060 
  3 O       -0.0730     1.9360    -1.7370 O.co2 1 <1>  -0.9000 
  4 C       -0.9610     2.4480     0.4350 C.3   1 <1>  -0.1860 
  5 C       -2.5750     1.9760     0.6320 C.3   1 <1>  -0.0190 
  6 C       -0.9520     4.0490     0.0670 C.3   1 <1>  -0.0800 
  7 C       -3.0430     0.6260     0.0560 C.2   1 <1>   0.5690 
  8 C       -3.5040     3.2560     0.1830 C.3   1 <1>  -0.0800 
  9 C       -2.2270     3.6580     0.1500 C.3   1 <1>  -0.1600 
 10 C       -1.8960     5.3230    -0.3310 C.3   1 <1>  -0.1600 
 11 O       -4.2110     0.4790    -0.2280 O.2   1 <1>  -0.5700 
 12 N       -2.1760    -0.4070    -0.0580 N.am  1 <1>  -0.7300 
 13 C       -3.4890     4.8570    -0.1380 C.3   1 <1>  -0.1600 
 14 C       -2.4560    -1.6810    -0.7160 C.3   1 <1>   0.2780 
 15 C       -1.6010    -2.7450    -0.0600 C.2   1 <1>  -0.2880 
 16 C       -2.0540    -3.8570     0.5280 C.2   1 <1>  -0.3000 
 17 H       -0.4650     2.3100     1.3810 H     1 <1>   0.0800 
 18 H       -2.7210     1.8400     1.6930 H     1 <1>   0.0800 
 19 H       -0.4190     4.4470     0.9190 H     1 <1>   0.0800 
 20 H       -3.9920     2.8840    -0.7090 H     1 <1>   0.0800 
 21 H       -2.1870     3.3580    -0.9880 H     1 <1>   0.0800 
 22 H       -2.2480     3.9470     1.2880 H     1 <1>   0.0800 
 23 H       -1.7120     5.5980    -1.3590 H     1 <1>   0.0800 
 24 H       -1.6720     6.1800     0.2820 H     1 <1>   0.0800 
 25 H       -1.1590    -0.2070     0.0360 H     1 <1>   0.3700 
 26 H       -3.9410     5.4030     0.6770 H     1 <1>   0.0800 
 27 H       -4.0540     5.0750    -1.0300 H     1 <1>   0.0800 
 28 H       -2.2030    -1.5960    -1.7590 H     1 <1>   0.0800 
 29 H       -3.5010    -1.9200    -0.6270 H     1 <1>   0.0800 
 30 H       -0.5520    -2.4970    -0.1170 H     1 <1>   0.1500 
 31 H       -1.4170    -4.5910     0.9880 H     1 <1>   0.1500 
 32 H       -3.0950    -4.1200     0.6000 H     1 <1>   0.1500 
@<TRIPOS>BOND
  1   1   2  ar  
  2   2   3  ar  
  3   2   4  1   
  4   4   5  1   
  5   4   6  1   
  6   4  17  1   
  7   5   7  1   
  8   5   8  1   
  9   5  18  1   
 10   6   9  1   
 11   6  10  1   
 12   6  19  1   
 13   7  11  2   
 14   7  12  am  
 15   8   9  1   
 16   8  13  1   
 17   8  20  1   
 18   9  21  1   
 19   9  22  1   
 20  10  13  1   
 21  10  23  1   
 22  10  24  1   
 23  12  14  1   
 24  12  25  1   
 25  13  26  1   
 26  13  27  1   
 27  14  15  1   
 28  14  28  1   
 29  14  29  1   
 30  15  16  2   
 31  15  30  1   
 32  16  31  1   
 33  16  32  1   
@<TRIPOS>SUBSTRUCTURE
  1 ****   5 GROUP 4 **** **** 0

# MOE 2024.06 (io_trps.svl 2023.06)
