@<TRIPOS>MOLECULE
NONAME
36 36 1 0 0 
SMALL
USER_CHARGES


@<TRIPOS>ATOM
  1 O        0.1250     1.4150    -0.9020 O.2   1 <1>  -0.5700 
  2 C        0.1250     2.0420     0.1400 C.2   1 <1>   0.5440 
  3 N       -0.9710     1.9530     0.9530 N.am  1 <1>  -0.7300 
  4 C        1.2690     2.8550     0.5180 C.ar  1 <1>   0.0860 
  5 C       -2.1540     1.0900     0.6940 C.3   1 <1>   0.1400 
  6 C        2.5480     2.5310     0.0680 C.ar  1 <1>  -0.1500 
  7 C        1.1380     3.9790     1.3370 C.ar  1 <1>  -0.1500 
  8 C       -3.0150     1.6740    -0.4270 C.3   1 <1>   0.1200 
  9 C        3.6590     3.2840     0.4280 C.ar  1 <1>   0.0830 
 10 C        2.2370     4.7360     1.7020 C.ar  1 <1>  -0.1500 
 11 O       -4.2170     0.9700    -0.4730 O.3   1 <1>  -0.5600 
 12 O        4.9280     3.0170     0.0250 O.3   1 <1>  -0.3630 
 13 C        3.4950     4.3860     1.2500 C.ar  1 <1>  -0.1500 
 14 C       -5.0490     1.3530    -1.5190 C.3   1 <1>   0.0400 
 15 C        5.2630     1.9350    -0.8160 C.3   1 <1>   0.2000 
 16 C        5.3610     0.6620     0.0290 C.3   1 <1>  -0.2400 
 17 C        6.6050     2.2700    -1.4610 C.3   1 <1>  -0.2400 
 18 H       -0.9330     2.3770     1.8800 H     1 <1>   0.3700 
 19 H       -2.7400     1.0160     1.5930 H     1 <1>   0.0800 
 20 H       -1.8230     0.1060     0.4080 H     1 <1>   0.0800 
 21 H        2.6450     1.6720    -0.5690 H     1 <1>   0.1500 
 22 H        0.1650     4.2730     1.6870 H     1 <1>   0.1500 
 23 H       -2.5100     1.5690    -1.3720 H     1 <1>   0.0800 
 24 H       -3.2350     2.7090    -0.2310 H     1 <1>   0.0800 
 25 H        2.1160     5.5980     2.3350 H     1 <1>   0.1500 
 26 H        4.3570     4.9660     1.5270 H     1 <1>   0.1500 
 27 H       -5.9460     0.7620    -1.4670 H     1 <1>   0.0800 
 28 H       -4.5490     1.1710    -2.4550 H     1 <1>   0.0800 
 29 H       -5.2940     2.3960    -1.4160 H     1 <1>   0.0800 
 30 H        4.5160     1.8450    -1.5860 H     1 <1>   0.0800 
 31 H        6.1030     0.7830     0.7980 H     1 <1>   0.0800 
 32 H        5.6430    -0.1680    -0.5920 H     1 <1>   0.0800 
 33 H        4.4160     0.4340     0.4850 H     1 <1>   0.0800 
 34 H        7.3610     2.3990    -0.7070 H     1 <1>   0.0800 
 35 H        6.5180     3.1740    -2.0360 H     1 <1>   0.0800 
 36 H        6.9060     1.4750    -2.1190 H     1 <1>   0.0800 
@<TRIPOS>BOND
  1   1   2  2   
  2   2   3  am  
  3   2   4  1   
  4   3   5  1   
  5   3  18  1   
  6   4   6  ar  
  7   4   7  ar  
  8   5   8  1   
  9   5  19  1   
 10   5  20  1   
 11   6   9  ar  
 12   6  21  1   
 13   7  10  ar  
 14   7  22  1   
 15   8  11  1   
 16   8  23  1   
 17   8  24  1   
 18   9  12  1   
 19   9  13  ar  
 20  10  13  ar  
 21  10  25  1   
 22  11  14  1   
 23  12  15  1   
 24  13  26  1   
 25  14  27  1   
 26  14  28  1   
 27  14  29  1   
 28  15  16  1   
 29  15  17  1   
 30  15  30  1   
 31  16  31  1   
 32  16  32  1   
 33  16  33  1   
 34  17  34  1   
 35  17  35  1   
 36  17  36  1   
@<TRIPOS>SUBSTRUCTURE
  1 ****   4 GROUP 4 **** **** 0

# MOE 2024.06 (io_trps.svl 2023.06)
