@<TRIPOS>MOLECULE
NONAME
37 37 1 0 0 
SMALL
USER_CHARGES


@<TRIPOS>ATOM
  1 O       -8.1430     4.1530     0.5970 O.3   1 <1>  -0.3630 
  2 C       -9.3760     3.6110     0.4260 C.ar  1 <1>   0.0830 
  3 C       -7.0030     3.5650     0.0260 C.3   1 <1>   0.1200 
  4 C       -9.6230     2.4550    -0.3090 C.ar  1 <1>  -0.1500 
  5 C      -10.4340     4.2690     1.0310 C.ar  1 <1>  -0.1500 
  6 C       -5.8080     4.4350     0.4220 C.3   1 <1>   0.3430 
  7 C      -10.9150     1.9760    -0.4290 C.ar  1 <1>  -0.1500 
  8 C      -11.7230     3.7840     0.9070 C.ar  1 <1>  -0.1500 
  9 N       -4.5240     3.9070    -0.1320 N.4   1 <1>  -0.9060 
 10 C      -11.9780     2.6330     0.1770 C.ar  1 <1>  -0.1430 
 11 C       -3.3690     4.7480     0.2510 C.3   1 <1>   0.3430 
 12 C      -13.4080     2.1130     0.0510 C.3   1 <1>   0.0630 
 13 C       -2.1170     4.1350    -0.3550 C.3   1 <1>  -0.2400 
 14 C      -13.5390     0.7160     0.6670 C.3   1 <1>  -0.2400 
 15 C      -13.8620     2.1070    -1.4120 C.3   1 <1>  -0.2400 
 16 H       -7.1360     3.5490    -1.0420 H     1 <1>   0.0800 
 17 H       -6.9080     2.5690     0.4220 H     1 <1>   0.0800 
 18 H       -8.8360     1.9120    -0.7950 H     1 <1>   0.1500 
 19 H      -10.2470     5.1610     1.5990 H     1 <1>   0.1500 
 20 H       -5.7510     4.4700     1.4980 H     1 <1>   0.0800 
 21 H       -5.9760     5.4350     0.0560 H     1 <1>   0.0800 
 22 H      -11.0950     1.0820    -0.9990 H     1 <1>   0.1500 
 23 H      -12.5300     4.3120     1.3860 H     1 <1>   0.1500 
 24 H       -4.5730     3.8610    -1.1580 H     1 <1>   0.4500 
 25 H       -4.3610     2.9490     0.2050 H     1 <1>   0.4500 
 26 H       -3.2750     4.7870     1.3250 H     1 <1>   0.0800 
 27 H       -3.5000     5.7530    -0.1190 H     1 <1>   0.0800 
 28 H      -14.0650     2.7720     0.5940 H     1 <1>   0.0800 
 29 H       -1.9510     3.1410     0.0220 H     1 <1>   0.0800 
 30 H       -1.2640     4.7350    -0.0870 H     1 <1>   0.0800 
 31 H       -2.1770     4.1120    -1.4290 H     1 <1>   0.0800 
 32 H      -12.9420     0.0020     0.1290 H     1 <1>   0.0800 
 33 H      -14.5640     0.3940     0.6440 H     1 <1>   0.0800 
 34 H      -13.2100     0.7370     1.6900 H     1 <1>   0.0800 
 35 H      -13.2720     1.4230    -1.9950 H     1 <1>   0.0800 
 36 H      -13.7570     3.0920    -1.8300 H     1 <1>   0.0800 
 37 H      -14.8950     1.8150    -1.4810 H     1 <1>   0.0800 
@<TRIPOS>BOND
  1   1   2  1   
  2   1   3  1   
  3   2   4  ar  
  4   2   5  ar  
  5   3   6  1   
  6   3  16  1   
  7   3  17  1   
  8   4   7  ar  
  9   4  18  1   
 10   5   8  ar  
 11   5  19  1   
 12   6   9  1   
 13   6  20  1   
 14   6  21  1   
 15   7  10  ar  
 16   7  22  1   
 17   8  10  ar  
 18   8  23  1   
 19   9  11  1   
 20   9  24  1   
 21   9  25  1   
 22  10  12  1   
 23  11  13  1   
 24  11  26  1   
 25  11  27  1   
 26  12  14  1   
 27  12  15  1   
 28  12  28  1   
 29  13  29  1   
 30  13  30  1   
 31  13  31  1   
 32  14  32  1   
 33  14  33  1   
 34  14  34  1   
 35  15  35  1   
 36  15  36  1   
 37  15  37  1   
@<TRIPOS>SUBSTRUCTURE
  1 ****   2 GROUP 4 **** **** 0

# MOE 2024.06 (io_trps.svl 2023.06)
