@<TRIPOS>MOLECULE
NONAME
52 55 1 0 0 
SMALL
USER_CHARGES


@<TRIPOS>ATOM
  1 O       -0.8450    -2.3540     0.7730 O.2   1 <1>  -0.5700 
  2 C       -0.7280    -1.9410    -0.3540 C.2   1 <1>   0.5690 
  3 N        0.4950    -1.7020    -0.9040 N.am  1 <1>  -0.7300 
  4 C       -1.9730    -1.7010    -1.1900 C.3   1 <1>   0.1570 
  5 C        1.7750    -1.8560    -0.1920 C.3   1 <1>   0.2200 
  6 N       -2.8480    -0.6620    -0.5920 N.pl3 1 <1>   0.0480 
  7 C        2.3540    -0.4660     0.0900 C.3   1 <1>  -0.1600 
  8 C        2.7240    -2.6920    -1.0560 C.3   1 <1>  -0.1600 
  9 C       -2.4670     0.6100    -0.2720 C.ar  1 <1>  -0.1520 
 10 C       -4.1850    -0.7230    -0.2980 C.2   1 <1>   0.0060 
 11 C        3.7430    -0.5650     0.7360 C.3   1 <1>  -0.1600 
 12 C        4.1140    -2.7950    -0.4100 C.3   1 <1>  -0.1600 
 13 C       -3.6000     1.2270     0.2230 C.ar  1 <1>   0.2270 
 14 C       -1.2580     1.3100    -0.3530 C.ar  1 <1>  -0.1500 
 15 N       -4.6580     0.3780     0.1940 N.2   1 <1>  -0.5650 
 16 C       -5.0540    -1.9640    -0.5550 C.3   1 <1>   0.5230 
 17 C        4.6970    -1.4040    -0.1230 C.3   1 <1>  -0.1600 
 18 C       -3.5530     2.5510     0.6550 C.ar  1 <1>  -0.1500 
 19 C       -1.2170     2.6190     0.0730 C.ar  1 <1>  -0.1500 
 20 O       -6.3230    -1.6740    -0.1100 O.3   1 <1>  -0.6800 
 21 C       -4.5870    -3.2460     0.1330 C.ar  1 <1>  -0.1440 
 22 C       -2.3640     3.2420     0.5790 C.ar  1 <1>  -0.1500 
 23 C       -3.8760    -3.2200     1.3260 C.ar  1 <1>  -0.1500 
 24 C       -4.8690    -4.4740    -0.4530 C.ar  1 <1>  -0.1500 
 25 C       -3.4360    -4.3950     1.9080 C.ar  1 <1>  -0.1500 
 26 C       -4.4340    -5.6510     0.1320 C.ar  1 <1>  -0.1500 
 27 C       -3.7130    -5.6120     1.3110 C.ar  1 <1>  -0.1500 
 28 H        0.5870    -1.3580    -1.8590 H     1 <1>   0.3700 
 29 H       -2.5030    -2.6280    -1.2720 H     1 <1>   0.0800 
 30 H       -1.6920    -1.3810    -2.1740 H     1 <1>   0.0800 
 31 H        1.6140    -2.3650     0.7450 H     1 <1>   0.0800 
 32 H        1.6930     0.0640     0.7540 H     1 <1>   0.0800 
 33 H        2.4350     0.0870    -0.8290 H     1 <1>   0.0800 
 34 H        2.8260    -2.2400    -2.0260 H     1 <1>   0.0800 
 35 H        2.3170    -3.6800    -1.1770 H     1 <1>   0.0800 
 36 H        3.6500    -1.0170     1.7100 H     1 <1>   0.0800 
 37 H        4.1510     0.4230     0.8700 H     1 <1>   0.0800 
 38 H        4.7770    -3.3380    -1.0610 H     1 <1>   0.0800 
 39 H        4.0380    -3.3450     0.5130 H     1 <1>   0.0800 
 40 H       -0.3730     0.8400    -0.7370 H     1 <1>   0.1500 
 41 H       -5.1250    -2.1260    -1.6150 H     1 <1>   0.0800 
 42 H        5.6410    -1.5080     0.3840 H     1 <1>   0.0800 
 43 H        4.8800    -0.8960    -1.0550 H     1 <1>   0.0800 
 44 H       -4.4500     3.0000     1.0360 H     1 <1>   0.1500 
 45 H       -0.2980     3.1780     0.0240 H     1 <1>   0.1500 
 46 H       -6.2340    -0.7830     0.3000 H     1 <1>   0.4000 
 47 H       -2.3080     4.2650     0.9070 H     1 <1>   0.1500 
 48 H       -3.6510    -2.2840     1.8110 H     1 <1>   0.1500 
 49 H       -5.4360    -4.5190    -1.3660 H     1 <1>   0.1500 
 50 H       -2.8740    -4.3570     2.8250 H     1 <1>   0.1500 
 51 H       -4.6580    -6.5970    -0.3290 H     1 <1>   0.1500 
 52 H       -3.3700    -6.5240     1.7670 H     1 <1>   0.1500 
@<TRIPOS>BOND
  1   1   2  2   
  2   2   3  am  
  3   2   4  1   
  4   3   5  1   
  5   3  28  1   
  6   4   6  1   
  7   4  29  1   
  8   4  30  1   
  9   5   7  1   
 10   5   8  1   
 11   5  31  1   
 12   6   9  1   
 13   6  10  1   
 14   7  11  1   
 15   7  32  1   
 16   7  33  1   
 17   8  12  1   
 18   8  34  1   
 19   8  35  1   
 20   9  13  ar  
 21   9  14  ar  
 22  10  15  2   
 23  10  16  1   
 24  11  17  1   
 25  11  36  1   
 26  11  37  1   
 27  12  17  1   
 28  12  38  1   
 29  12  39  1   
 30  13  15  1   
 31  13  18  ar  
 32  14  19  ar  
 33  14  40  1   
 34  16  20  1   
 35  16  21  1   
 36  16  41  1   
 37  17  42  1   
 38  17  43  1   
 39  18  22  ar  
 40  18  44  1   
 41  19  22  ar  
 42  19  45  1   
 43  20  46  1   
 44  21  23  ar  
 45  21  24  ar  
 46  22  47  1   
 47  23  25  ar  
 48  23  48  1   
 49  24  26  ar  
 50  24  49  1   
 51  25  27  ar  
 52  25  50  1   
 53  26  27  ar  
 54  26  51  1   
 55  27  52  1   
@<TRIPOS>SUBSTRUCTURE
  1 ****   2 GROUP 4 **** **** 0

# MOE 2024.06 (io_trps.svl 2023.06)
