@<TRIPOS>MOLECULE
NONAME
41 42 1 0 0 
SMALL
USER_CHARGES


@<TRIPOS>ATOM
  1 CL      -3.3410     2.9580    -2.4870 Cl    1 <1>  -0.1770 
  2 C       -1.8920     2.9250    -1.4940 C.ar  1 <1>   0.1770 
  3 C       -0.6600     3.1960    -2.0630 C.ar  1 <1>   0.1770 
  4 C       -2.0100     2.6230    -0.1380 C.ar  1 <1>   0.1170 
  5 CL      -0.5250     3.5760    -3.7650 Cl    1 <1>  -0.1770 
  6 C        0.4910     3.1710    -1.2970 C.ar  1 <1>  -0.1500 
  7 N       -3.2870     2.3540     0.3940 N.am  1 <1>  -0.5470 
  8 C       -0.8400     2.5970     0.6200 C.ar  1 <1>  -0.1500 
  9 C        0.3940     2.8690     0.0510 C.ar  1 <1>  -0.1500 
 10 C       -3.7530     2.1960     1.6730 C.2   1 <1>   0.5690 
 11 O       -3.0490     2.2720     2.6490 O.2   1 <1>  -0.5700 
 12 C       -5.2320     1.9050     1.8820 C.3   1 <1>   0.1310 
 13 S       -6.2310     2.3030     0.3620 S.3   1 <1>  -0.2860 
 14 C       -7.8830     1.7830     0.8330 C.2   1 <1>   0.2430 
 15 N       -8.1620     1.2590     1.9730 N.2   1 <1>  -0.3380 
 16 N       -8.9350     1.9020     0.0250 N.pl3 1 <1>   0.0480 
 17 N       -9.4740     1.0050     1.9390 N.2   1 <1>  -0.3380 
 18 C       -9.9140     1.3850     0.7840 C.2   1 <1>   0.0060 
 19 C       -8.9730     2.4600    -1.3420 C.3   1 <1>   0.0160 
 20 C      -11.3700     1.2560     0.3560 C.3   1 <1>   0.0200 
 21 C      -11.5880     0.1760    -0.7220 C.3   1 <1>  -0.0800 
 22 C      -13.0570     0.1530    -1.1630 C.3   1 <1>  -0.2400 
 23 C      -11.1790    -1.2160    -0.2180 C.3   1 <1>  -0.2400 
 24 H        1.4430     3.3830    -1.7500 H     1 <1>   0.1500 
 25 H       -4.0290     2.3270    -0.3120 H     1 <1>   0.3700 
 26 H       -0.8800     2.3630     1.6690 H     1 <1>   0.1500 
 27 H        1.2820     2.8440     0.6620 H     1 <1>   0.1500 
 28 H       -5.6230     2.5020     2.6850 H     1 <1>   0.0800 
 29 H       -5.3810     0.8640     2.0990 H     1 <1>   0.0800 
 30 H       -8.6300     1.7150    -2.0370 H     1 <1>   0.0800 
 31 H       -8.3320     3.3210    -1.3960 H     1 <1>   0.0800 
 32 H       -9.9750     2.7520    -1.5920 H     1 <1>   0.0800 
 33 H      -11.7120     2.2100    -0.0040 H     1 <1>   0.0800 
 34 H      -11.9600     1.0140     1.2230 H     1 <1>   0.0800 
 35 H      -10.9860     0.4130    -1.5820 H     1 <1>   0.0800 
 36 H      -13.6980    -0.0920    -0.3330 H     1 <1>   0.0800 
 37 H      -13.2030    -0.5810    -1.9350 H     1 <1>   0.0800 
 38 H      -13.3500     1.1130    -1.5510 H     1 <1>   0.0800 
 39 H      -11.7480    -1.4850     0.6550 H     1 <1>   0.0800 
 40 H      -10.1350    -1.2350     0.0400 H     1 <1>   0.0800 
 41 H      -11.3490    -1.9560    -0.9800 H     1 <1>   0.0800 
@<TRIPOS>BOND
  1   1   2  1   
  2   2   3  ar  
  3   2   4  ar  
  4   3   5  1   
  5   3   6  ar  
  6   4   7  1   
  7   4   8  ar  
  8   6   9  ar  
  9   6  24  1   
 10   7  10  am  
 11   7  25  1   
 12   8   9  ar  
 13   8  26  1   
 14   9  27  1   
 15  10  11  2   
 16  10  12  1   
 17  12  13  1   
 18  12  28  1   
 19  12  29  1   
 20  13  14  1   
 21  14  15  2   
 22  14  16  1   
 23  15  17  1   
 24  16  18  1   
 25  16  19  1   
 26  17  18  2   
 27  18  20  1   
 28  19  30  1   
 29  19  31  1   
 30  19  32  1   
 31  20  21  1   
 32  20  33  1   
 33  20  34  1   
 34  21  22  1   
 35  21  23  1   
 36  21  35  1   
 37  22  36  1   
 38  22  37  1   
 39  22  38  1   
 40  23  39  1   
 41  23  40  1   
 42  23  41  1   
@<TRIPOS>SUBSTRUCTURE
  1 ****  13 GROUP 4 **** **** 0

# MOE 2024.06 (io_trps.svl 2023.06)
