@<TRIPOS>MOLECULE
NONAME
31 31 1 0 0 
SMALL
USER_CHARGES


@<TRIPOS>ATOM
  1 S        1.2790    -1.5040     0.5990 S.3   1 <1>  -0.4600 
  2 C        1.1140    -0.0090    -0.4520 C.3   1 <1>   0.1310 
  3 C       -0.3960    -2.1970     0.6070 C.3   1 <1>  -0.0100 
  4 C        2.4310     0.7400    -0.6110 C.2   1 <1>   0.5690 
  5 O        2.4390     1.7050    -1.3350 O.2   1 <1>  -0.5700 
  6 N        3.5280     0.2810     0.0660 N.am  1 <1>  -0.5470 
  7 C        4.8580     0.7260     0.1420 C.ar  1 <1>   0.1170 
  8 C        5.7970    -0.1120     0.7270 C.ar  1 <1>  -0.1500 
  9 C        5.2840     1.9640    -0.3260 C.ar  1 <1>  -0.1500 
 10 C        7.1240     0.2600     0.8440 C.ar  1 <1>   0.0820 
 11 C        6.6080     2.3550    -0.2180 C.ar  1 <1>   0.0820 
 12 O        7.9550    -0.6380     1.4320 O.3   1 <1>  -0.3630 
 13 C        7.5360     1.5010     0.3690 C.ar  1 <1>  -0.1500 
 14 O        6.9210     3.5840    -0.7060 O.3   1 <1>  -0.3630 
 15 C        9.3290    -0.3700     1.5990 C.3   1 <1>   0.0400 
 16 C        8.2410     4.0770    -0.6760 C.3   1 <1>   0.0400 
 17 H        0.3840     0.6290     0.0100 H     1 <1>   0.0800 
 18 H        0.7600    -0.3310    -1.4140 H     1 <1>   0.0800 
 19 H       -0.3790    -3.0870     1.2110 H     1 <1>   0.0800 
 20 H       -0.6680    -2.4300    -0.4070 H     1 <1>   0.0800 
 21 H       -1.0610    -1.4640     1.0280 H     1 <1>   0.0800 
 22 H        3.3320    -0.5730     0.5960 H     1 <1>   0.3700 
 23 H        5.5000    -1.0750     1.0990 H     1 <1>   0.1500 
 24 H        4.5900     2.6450    -0.7800 H     1 <1>   0.1500 
 25 H        8.5600     1.7970     0.4560 H     1 <1>   0.1500 
 26 H        9.7780    -1.2200     2.0800 H     1 <1>   0.0800 
 27 H        9.4420     0.5020     2.2170 H     1 <1>   0.0800 
 28 H        9.7750    -0.2210     0.6310 H     1 <1>   0.0800 
 29 H        8.2410     5.0540    -1.1250 H     1 <1>   0.0800 
 30 H        8.8740     3.4160    -1.2410 H     1 <1>   0.0800 
 31 H        8.5660     4.1450     0.3470 H     1 <1>   0.0800 
@<TRIPOS>BOND
  1   1   2  1   
  2   1   3  1   
  3   2   4  1   
  4   2  17  1   
  5   2  18  1   
  6   3  19  1   
  7   3  20  1   
  8   3  21  1   
  9   4   5  2   
 10   4   6  am  
 11   6   7  1   
 12   6  22  1   
 13   7   8  ar  
 14   7   9  ar  
 15   8  10  ar  
 16   8  23  1   
 17   9  11  ar  
 18   9  24  1   
 19  10  12  1   
 20  10  13  ar  
 21  11  13  ar  
 22  11  14  1   
 23  12  15  1   
 24  13  25  1   
 25  14  16  1   
 26  15  26  1   
 27  15  27  1   
 28  15  28  1   
 29  16  29  1   
 30  16  30  1   
 31  16  31  1   
@<TRIPOS>SUBSTRUCTURE
  1 ****   7 GROUP 4 **** **** 0

# MOE 2024.06 (io_trps.svl 2023.06)
