@<TRIPOS>MOLECULE
NONAME
58 61 1 0 0 
SMALL
USER_CHARGES


@<TRIPOS>ATOM
  1 O        8.1950    -0.7820     0.8260 O.2   1 <1>  -0.5700 
  2 C        7.9720    -1.1670    -0.2980 C.2   1 <1>   0.5690 
  3 N        6.7890    -0.9400    -0.9280 N.am  1 <1>  -0.7300 
  4 C        9.1050    -1.9340    -0.9950 C.3   1 <1>   0.4040 
  5 C        5.6320    -0.2400    -0.3220 C.3   1 <1>   0.2200 
  6 N       10.4290    -1.6970    -0.3160 N.4   1 <1>  -0.9060 
  7 C        4.4370    -1.2190    -0.1030 C.3   1 <1>   0.0000 
  8 C        5.3430     0.9680    -1.2200 C.3   1 <1>  -0.2400 
  9 C       11.4910    -2.6760    -0.5990 C.3   1 <1>   0.4230 
 10 C        3.2330    -0.4790     0.5390 C.3   1 <1>  -0.1600 
 11 C        4.8640    -2.3490     0.8730 C.3   1 <1>  -0.1600 
 12 C        3.9440    -1.8790    -1.4200 C.3   1 <1>  -0.1600 
 13 C       11.1530    -4.0230     0.0550 C.3   1 <1>  -0.1600 
 14 C       12.8090    -2.1150    -0.0560 C.3   1 <1>  -0.1600 
 15 C        2.0650    -1.4430     0.8170 C.3   1 <1>  -0.0800 
 16 C        3.7050    -3.3230     1.1500 C.3   1 <1>  -0.0800 
 17 C        2.7800    -2.8520    -1.1480 C.3   1 <1>  -0.0800 
 18 C       12.2990    -5.0300    -0.1270 C.3   1 <1>  -0.1600 
 19 C       13.9570    -3.1170    -0.2440 C.3   1 <1>  -0.1600 
 20 C        2.5340    -2.5480     1.7780 C.3   1 <1>  -0.1600 
 21 C        1.6110    -2.0800    -0.5090 C.3   1 <1>  -0.1600 
 22 C        3.2480    -3.9520    -0.1780 C.3   1 <1>  -0.1600 
 23 C       13.6240    -4.4680     0.4010 C.3   1 <1>  -0.1600 
 24 H        6.5840    -1.2950    -1.8640 H     1 <1>   0.3700 
 25 H        9.1580    -1.6320    -2.0260 H     1 <1>   0.0800 
 26 H        8.8570    -2.9800    -0.9580 H     1 <1>   0.0800 
 27 H        5.9220     0.1410     0.6450 H     1 <1>   0.0800 
 28 H       10.2270    -1.6750     0.6970 H     1 <1>   0.4500 
 29 H       10.7520    -0.7480    -0.5290 H     1 <1>   0.4500 
 30 H        5.0250     0.6650    -2.2000 H     1 <1>   0.0800 
 31 H        6.2270     1.5730    -1.3110 H     1 <1>   0.0800 
 32 H        4.5790     1.5860    -0.7870 H     1 <1>   0.0800 
 33 H       11.5900    -2.8140    -1.6650 H     1 <1>   0.0800 
 34 H        2.8760     0.2960    -0.1130 H     1 <1>   0.0800 
 35 H        3.5380    -0.0150     1.4620 H     1 <1>   0.0800 
 36 H        5.1970    -1.9190     1.8030 H     1 <1>   0.0800 
 37 H        5.6860    -2.9070     0.4650 H     1 <1>   0.0800 
 38 H        4.7420    -2.4230    -1.8890 H     1 <1>   0.0800 
 39 H        3.6060    -1.1270    -2.1100 H     1 <1>   0.0800 
 40 H       10.2660    -4.4450    -0.3810 H     1 <1>   0.0800 
 41 H       10.9850    -3.8860     1.1100 H     1 <1>   0.0800 
 42 H       12.7130    -1.9010     0.9950 H     1 <1>   0.0800 
 43 H       13.0620    -1.2050    -0.5710 H     1 <1>   0.0800 
 44 H        1.2450    -0.9030     1.2600 H     1 <1>   0.0800 
 45 H        4.0310    -4.0960     1.8250 H     1 <1>   0.0800 
 46 H        2.4540    -3.2980    -2.0720 H     1 <1>   0.0800 
 47 H       12.4080    -5.2740    -1.1710 H     1 <1>   0.0800 
 48 H       12.0660    -5.9430     0.3960 H     1 <1>   0.0800 
 49 H       14.8580    -2.7230     0.1980 H     1 <1>   0.0800 
 50 H       14.1480    -3.2610    -1.2950 H     1 <1>   0.0800 
 51 H        2.8430    -2.1130     2.7130 H     1 <1>   0.0800 
 52 H        1.7210    -3.2220     1.9840 H     1 <1>   0.0800 
 53 H        1.2660    -1.3150    -1.1820 H     1 <1>   0.0800 
 54 H        0.7880    -2.7490    -0.3270 H     1 <1>   0.0800 
 55 H        2.4420    -4.6410     0.0060 H     1 <1>   0.0800 
 56 H        4.0570    -4.5080    -0.6180 H     1 <1>   0.0800 
 57 H       14.4180    -5.1680     0.1990 H     1 <1>   0.0800 
 58 H       13.5640    -4.3500     1.4710 H     1 <1>   0.0800 
@<TRIPOS>BOND
  1   1   2  2   
  2   2   3  am  
  3   2   4  1   
  4   3   5  1   
  5   3  24  1   
  6   4   6  1   
  7   4  25  1   
  8   4  26  1   
  9   5   7  1   
 10   5   8  1   
 11   5  27  1   
 12   6   9  1   
 13   6  28  1   
 14   6  29  1   
 15   7  10  1   
 16   7  11  1   
 17   7  12  1   
 18   8  30  1   
 19   8  31  1   
 20   8  32  1   
 21   9  13  1   
 22   9  14  1   
 23   9  33  1   
 24  10  15  1   
 25  10  34  1   
 26  10  35  1   
 27  11  16  1   
 28  11  36  1   
 29  11  37  1   
 30  12  17  1   
 31  12  38  1   
 32  12  39  1   
 33  13  18  1   
 34  13  40  1   
 35  13  41  1   
 36  14  19  1   
 37  14  42  1   
 38  14  43  1   
 39  15  20  1   
 40  15  21  1   
 41  15  44  1   
 42  16  20  1   
 43  16  22  1   
 44  16  45  1   
 45  17  21  1   
 46  17  22  1   
 47  17  46  1   
 48  18  23  1   
 49  18  47  1   
 50  18  48  1   
 51  19  23  1   
 52  19  49  1   
 53  19  50  1   
 54  20  51  1   
 55  20  52  1   
 56  21  53  1   
 57  21  54  1   
 58  22  55  1   
 59  22  56  1   
 60  23  57  1   
 61  23  58  1   
@<TRIPOS>SUBSTRUCTURE
  1 ****   2 GROUP 4 **** **** 0

# MOE 2024.06 (io_trps.svl 2023.06)
