@<TRIPOS>MOLECULE
NONAME
28 27 1 0 0 
SMALL
USER_CHARGES


@<TRIPOS>ATOM
  1 O       -0.0380    -1.1150    -1.4400 O.2   1 <1>  -0.5700 
  2 C        0.0210    -1.5960    -0.3270 C.2   1 <1>   0.7800 
  3 O       -1.0210    -2.2310     0.2010 O.3   1 <1>  -0.4300 
  4 N        1.1220    -1.5280     0.4430 N.am  1 <1>  -0.7300 
  5 C       -2.2300    -2.3620    -0.5200 C.3   1 <1>   0.0400 
  6 C        2.4460    -0.9950     0.0040 C.3   1 <1>   0.2810 
  7 C        3.5430    -2.0650     0.1330 C.2   1 <1>   0.6590 
  8 C        2.7850     0.2870     0.8080 C.3   1 <1>  -0.0800 
  9 O        3.6520    -2.7520     1.1200 O.2   1 <1>  -0.5700 
 10 O        4.3690    -2.1940    -0.9030 O.3   1 <1>  -0.4300 
 11 C        1.6940     1.3660     0.6710 C.3   1 <1>  -0.2400 
 12 C        4.1300     0.8960     0.3730 C.3   1 <1>  -0.2400 
 13 C        5.4100    -3.1480    -0.9090 C.3   1 <1>   0.0400 
 14 H        1.1240    -2.0530     1.3170 H     1 <1>   0.3700 
 15 H       -2.9310    -2.9050     0.0880 H     1 <1>   0.0800 
 16 H       -2.0340    -2.9000    -1.4310 H     1 <1>   0.0800 
 17 H       -2.6110    -1.3800    -0.7410 H     1 <1>   0.0800 
 18 H        2.3810    -0.7300    -1.0370 H     1 <1>   0.0800 
 19 H        2.8690     0.0170     1.8480 H     1 <1>   0.0800 
 20 H        1.5430     1.6210    -0.3640 H     1 <1>   0.0800 
 21 H        1.9730     2.2550     1.2080 H     1 <1>   0.0800 
 22 H        0.7590     1.0190     1.0740 H     1 <1>   0.0800 
 23 H        4.1130     1.1430    -0.6750 H     1 <1>   0.0800 
 24 H        4.9420     0.2140     0.5530 H     1 <1>   0.0800 
 25 H        4.3300     1.7940     0.9300 H     1 <1>   0.0800 
 26 H        5.9400    -3.0690    -1.8410 H     1 <1>   0.0800 
 27 H        4.9820    -4.1300    -0.8070 H     1 <1>   0.0800 
 28 H        6.0740    -2.9450    -0.0860 H     1 <1>   0.0800 
@<TRIPOS>BOND
  1   1   2  2   
  2   2   3  1   
  3   2   4  am  
  4   3   5  1   
  5   4   6  1   
  6   4  14  1   
  7   5  15  1   
  8   5  16  1   
  9   5  17  1   
 10   6   7  1   
 11   6   8  1   
 12   6  18  1   
 13   7   9  2   
 14   7  10  1   
 15   8  11  1   
 16   8  12  1   
 17   8  19  1   
 18  10  13  1   
 19  11  20  1   
 20  11  21  1   
 21  11  22  1   
 22  12  23  1   
 23  12  24  1   
 24  12  25  1   
 25  13  26  1   
 26  13  27  1   
 27  13  28  1   
@<TRIPOS>SUBSTRUCTURE
  1 ****   6 GROUP 4 **** **** 0

# MOE 2024.06 (io_trps.svl 2023.06)
