@<TRIPOS>MOLECULE
NONAME
48 49 1 0 0 
SMALL
USER_CHARGES


@<TRIPOS>ATOM
  1 O        1.3290     0.8920    -0.2090 O.2   1 <1>  -0.5700 
  2 C        0.6740     1.5260     0.5960 C.2   1 <1>   0.5440 
  3 N        1.0940     1.5260     1.8950 N.am  1 <1>  -0.7300 
  4 C       -0.5020     2.2720     0.1850 C.ar  1 <1>   0.0860 
  5 C        2.3090     0.8050     2.3990 C.3   1 <1>   0.2010 
  6 C       -1.2880     1.8390    -0.8800 C.ar  1 <1>  -0.1500 
  7 C       -0.8970     3.4470     0.8220 C.ar  1 <1>  -0.1500 
  8 C        3.6220     1.5160     2.0660 C.2   1 <1>   0.5690 
  9 C       -2.4130     2.5340    -1.2790 C.ar  1 <1>  -0.1500 
 10 C       -2.0230     4.1440     0.4240 C.ar  1 <1>  -0.1500 
 11 O        4.3430     1.8420     2.9790 O.2   1 <1>  -0.5700 
 12 N        3.8960     1.7460     0.7450 N.am  1 <1>  -0.5470 
 13 C       -2.8090     3.7020    -0.6360 C.ar  1 <1>  -0.1430 
 14 C        4.9690     2.3680     0.0850 C.ar  1 <1>   0.1170 
 15 C       -4.0750     4.4440    -1.1180 C.3   1 <1>   0.1430 
 16 C        4.8100     2.7900    -1.2380 C.ar  1 <1>  -0.1430 
 17 C        6.2000     2.5690     0.7040 C.ar  1 <1>  -0.1500 
 18 C       -4.3790     5.7140    -0.3040 C.3   1 <1>  -0.2400 
 19 C       -3.8960     4.8660    -2.5840 C.3   1 <1>  -0.2400 
 20 C       -5.2920     3.5160    -0.9990 C.3   1 <1>  -0.2400 
 21 C        5.8630     3.3970    -1.9040 C.ar  1 <1>  -0.1500 
 22 C        3.4890     2.5980    -1.9760 C.3   1 <1>  -0.0970 
 23 C        7.2460     3.1770     0.0350 C.ar  1 <1>  -0.1500 
 24 C        7.0780     3.5930    -1.2720 C.ar  1 <1>  -0.1500 
 25 H        0.5830     2.0720     2.5900 H     1 <1>   0.3700 
 26 H        2.3410    -0.1790     1.9660 H     1 <1>   0.0800 
 27 H        2.2370     0.6940     3.4660 H     1 <1>   0.0800 
 28 H       -1.0070     0.9390    -1.4010 H     1 <1>   0.1500 
 29 H       -0.3110     3.8330     1.6360 H     1 <1>   0.1500 
 30 H       -2.9830     2.1510    -2.1060 H     1 <1>   0.1500 
 31 H       -2.2670     5.0420     0.9620 H     1 <1>   0.1500 
 32 H        3.1240     1.4660     0.1240 H     1 <1>   0.3700 
 33 H        6.3520     2.2480     1.7160 H     1 <1>   0.1500 
 34 H       -4.5400     5.4710     0.7310 H     1 <1>   0.0800 
 35 H       -5.2670     6.1960    -0.6740 H     1 <1>   0.0800 
 36 H       -3.5670     6.4150    -0.3790 H     1 <1>   0.0800 
 37 H       -3.0250     5.4900    -2.6830 H     1 <1>   0.0800 
 38 H       -4.7530     5.4160    -2.9290 H     1 <1>   0.0800 
 39 H       -3.7710     4.0100    -3.2220 H     1 <1>   0.0800 
 40 H       -5.4070     3.1880     0.0190 H     1 <1>   0.0800 
 41 H       -5.1820     2.6480    -1.6220 H     1 <1>   0.0800 
 42 H       -6.1900     4.0270    -1.2970 H     1 <1>   0.0800 
 43 H        5.7460     3.7250    -2.9220 H     1 <1>   0.1500 
 44 H        3.2680     1.5500    -2.0700 H     1 <1>   0.0800 
 45 H        3.5310     3.0230    -2.9630 H     1 <1>   0.0800 
 46 H        2.6920     3.0790    -1.4380 H     1 <1>   0.0800 
 47 H        8.1880     3.3240     0.5320 H     1 <1>   0.1500 
 48 H        7.8900     4.0660    -1.7960 H     1 <1>   0.1500 
@<TRIPOS>BOND
  1   1   2  2   
  2   2   3  am  
  3   2   4  1   
  4   3   5  1   
  5   3  25  1   
  6   4   6  ar  
  7   4   7  ar  
  8   5   8  1   
  9   5  26  1   
 10   5  27  1   
 11   6   9  ar  
 12   6  28  1   
 13   7  10  ar  
 14   7  29  1   
 15   8  11  2   
 16   8  12  am  
 17   9  13  ar  
 18   9  30  1   
 19  10  13  ar  
 20  10  31  1   
 21  12  14  1   
 22  12  32  1   
 23  13  15  1   
 24  14  16  ar  
 25  14  17  ar  
 26  15  18  1   
 27  15  19  1   
 28  15  20  1   
 29  16  21  ar  
 30  16  22  1   
 31  17  23  ar  
 32  17  33  1   
 33  18  34  1   
 34  18  35  1   
 35  18  36  1   
 36  19  37  1   
 37  19  38  1   
 38  19  39  1   
 39  20  40  1   
 40  20  41  1   
 41  20  42  1   
 42  21  24  ar  
 43  21  43  1   
 44  22  44  1   
 45  22  45  1   
 46  22  46  1   
 47  23  24  ar  
 48  23  47  1   
 49  24  48  1   
@<TRIPOS>SUBSTRUCTURE
  1 ****   2 GROUP 4 **** **** 0

# MOE 2024.06 (io_trps.svl 2023.06)
