@<TRIPOS>MOLECULE
NONAME
32 31 1 0 0 
SMALL
USER_CHARGES


@<TRIPOS>ATOM
  1 O        0.7460     2.9520    -1.3730 O.2   1 <1>  -0.5700 
  2 C        0.8040     2.2480    -0.3880 C.2   1 <1>   0.5690 
  3 N        1.7710     1.3040    -0.2540 N.am  1 <1>  -0.7300 
  4 C       -0.2370     2.4320     0.7310 C.3   1 <1>   0.2610 
  5 C        2.8160     1.0210    -1.2440 C.3   1 <1>   0.2780 
  6 O       -1.4480     1.8040     0.4020 O.3   1 <1>  -0.6800 
  7 C       -0.4970     3.9240     1.0140 C.3   1 <1>   0.2610 
  8 C        3.0520    -0.4730    -1.2270 C.2   1 <1>  -0.2880 
  9 O       -1.1180     4.5250    -0.1050 O.3   1 <1>  -0.6800 
 10 C        0.8150     4.6270     1.3970 C.2   1 <1>   0.5690 
 11 C        4.1860    -1.0750    -0.8520 C.2   1 <1>  -0.3000 
 12 O        1.5880     4.0640     2.1370 O.2   1 <1>  -0.5700 
 13 N        1.0810     5.8630     0.9030 N.am  1 <1>  -0.7300 
 14 C        2.3140     6.6270     1.1170 C.3   1 <1>   0.2780 
 15 C        2.6630     7.2900    -0.1970 C.2   1 <1>  -0.2880 
 16 C        2.7050     8.6090    -0.4140 C.2   1 <1>  -0.3000 
 17 H        1.8080     0.7050     0.5720 H     1 <1>   0.3700 
 18 H        0.1290     1.9610     1.6250 H     1 <1>   0.0800 
 19 H        3.7150     1.5500    -0.9740 H     1 <1>   0.0800 
 20 H        2.5050     1.3420    -2.2250 H     1 <1>   0.0800 
 21 H       -1.8830     2.3200    -0.3100 H     1 <1>   0.4000 
 22 H       -1.1730     4.0130     1.8440 H     1 <1>   0.0800 
 23 H        2.1860    -1.0210    -1.5580 H     1 <1>   0.1500 
 24 H       -0.5660     4.3260    -0.9020 H     1 <1>   0.4000 
 25 H        4.3250    -2.1420    -0.8500 H     1 <1>   0.1500 
 26 H        5.0680    -0.5570    -0.5150 H     1 <1>   0.1500 
 27 H        0.3960     6.3040     0.2820 H     1 <1>   0.3700 
 28 H        2.1480     7.3670     1.8820 H     1 <1>   0.0800 
 29 H        3.1110     5.9740     1.4320 H     1 <1>   0.0800 
 30 H        2.8800     6.5680    -0.9670 H     1 <1>   0.1500 
 31 H        2.4940     9.3560     0.3310 H     1 <1>   0.1500 
 32 H        2.9570     9.0520    -1.3630 H     1 <1>   0.1500 
@<TRIPOS>BOND
  1   1   2  2   
  2   2   3  am  
  3   2   4  1   
  4   3   5  1   
  5   3  17  1   
  6   4   6  1   
  7   4   7  1   
  8   4  18  1   
  9   5   8  1   
 10   5  19  1   
 11   5  20  1   
 12   6  21  1   
 13   7   9  1   
 14   7  10  1   
 15   7  22  1   
 16   8  11  2   
 17   8  23  1   
 18   9  24  1   
 19  10  12  2   
 20  10  13  am  
 21  11  25  1   
 22  11  26  1   
 23  13  14  1   
 24  13  27  1   
 25  14  15  1   
 26  14  28  1   
 27  14  29  1   
 28  15  16  2   
 29  15  30  1   
 30  16  31  1   
 31  16  32  1   
@<TRIPOS>SUBSTRUCTURE
  1 ****   2 GROUP 4 **** **** 0

# MOE 2024.06 (io_trps.svl 2023.06)
