@<TRIPOS>MOLECULE
NONAME
49 49 1 0 0 
SMALL
USER_CHARGES


@<TRIPOS>ATOM
  1 O        1.1200    -0.3140     0.5300 O.3   1 <1>  -0.6800 
  2 C        1.6970    -0.7900    -0.6180 C.3   1 <1>   0.2800 
  3 C        3.1550    -1.1710    -0.2970 C.3   1 <1>  -0.1600 
  4 C        0.8920    -2.0190    -1.0360 C.3   1 <1>  -0.2400 
  5 C        1.5790     0.3150    -1.6670 C.3   1 <1>  -0.2400 
  6 C        4.0180    -0.0320     0.2820 C.3   1 <1>  -0.1600 
  7 C        5.4080    -0.5440     0.6910 C.3   1 <1>  -0.1600 
  8 C        6.3280     0.5740     1.2080 C.3   1 <1>   0.4230 
  9 N        7.6720     0.0260     1.4610 N.4   1 <1>  -0.9060 
 10 C        5.8470     1.1660     2.5290 C.3   1 <1>  -0.2400 
 11 C        8.4790    -0.2610     0.2580 C.3   1 <1>   0.4230 
 12 C        9.6650    -1.1520     0.6650 C.3   1 <1>  -0.1600 
 13 C        8.9540     1.0410    -0.3950 C.3   1 <1>  -0.1600 
 14 C       10.8950    -0.9950    -0.2540 C.3   1 <1>  -0.0800 
 15 C        9.7340     0.7540    -1.6930 C.3   1 <1>  -0.1600 
 16 C       10.4740    -0.5970    -1.6750 C.3   1 <1>  -0.1600 
 17 C       11.7300    -2.2800    -0.2700 C.3   1 <1>  -0.2400 
 18 H        0.1800    -0.1230     0.3620 H     1 <1>   0.4000 
 19 H        3.6150    -1.5400    -1.1970 H     1 <1>   0.0800 
 20 H        3.1360    -1.9860     0.4060 H     1 <1>   0.0800 
 21 H        1.3090    -2.4430    -1.9320 H     1 <1>   0.0800 
 22 H       -0.1320    -1.7590    -1.2340 H     1 <1>   0.0800 
 23 H        0.9220    -2.7680    -0.2640 H     1 <1>   0.0800 
 24 H        2.0770     0.0150    -2.5710 H     1 <1>   0.0800 
 25 H        2.0260     1.2270    -1.3170 H     1 <1>   0.0800 
 26 H        0.5480     0.5060    -1.9030 H     1 <1>   0.0800 
 27 H        3.5120     0.3770     1.1400 H     1 <1>   0.0800 
 28 H        4.1200     0.7500    -0.4500 H     1 <1>   0.0800 
 29 H        5.8470    -1.0050    -0.1760 H     1 <1>   0.0800 
 30 H        5.2880    -1.2980     1.4500 H     1 <1>   0.0800 
 31 H        6.3840     1.3610     0.4720 H     1 <1>   0.0800 
 32 H        7.5670    -0.8350     2.0060 H     1 <1>   0.4500 
 33 H        8.1930     0.6860     2.0460 H     1 <1>   0.4500 
 34 H        5.7090     0.4010     3.2730 H     1 <1>   0.0800 
 35 H        4.9040     1.6640     2.3880 H     1 <1>   0.0800 
 36 H        6.5400     1.9030     2.8940 H     1 <1>   0.0800 
 37 H        7.8880    -0.8020    -0.4630 H     1 <1>   0.0800 
 38 H        9.3270    -2.1730     0.6350 H     1 <1>   0.0800 
 39 H        9.9820    -0.9360     1.6710 H     1 <1>   0.0800 
 40 H        9.6030     1.5630     0.2870 H     1 <1>   0.0800 
 41 H        8.1270     1.6850    -0.6360 H     1 <1>   0.0800 
 42 H       11.5190    -0.2060     0.1350 H     1 <1>   0.0800 
 43 H       10.4470     1.5480    -1.8480 H     1 <1>   0.0800 
 44 H        9.0630     0.7640    -2.5350 H     1 <1>   0.0800 
 45 H        9.8370    -1.3630    -2.0840 H     1 <1>   0.0800 
 46 H       11.3410    -0.5310    -2.3130 H     1 <1>   0.0800 
 47 H       11.1710    -3.1000    -0.6860 H     1 <1>   0.0800 
 48 H       12.0380    -2.5430     0.7270 H     1 <1>   0.0800 
 49 H       12.6160    -2.1400    -0.8650 H     1 <1>   0.0800 
@<TRIPOS>BOND
  1   1   2  1   
  2   1  18  1   
  3   2   3  1   
  4   2   4  1   
  5   2   5  1   
  6   3   6  1   
  7   3  19  1   
  8   3  20  1   
  9   4  21  1   
 10   4  22  1   
 11   4  23  1   
 12   5  24  1   
 13   5  25  1   
 14   5  26  1   
 15   6   7  1   
 16   6  27  1   
 17   6  28  1   
 18   7   8  1   
 19   7  29  1   
 20   7  30  1   
 21   8   9  1   
 22   8  10  1   
 23   8  31  1   
 24   9  11  1   
 25   9  32  1   
 26   9  33  1   
 27  10  34  1   
 28  10  35  1   
 29  10  36  1   
 30  11  12  1   
 31  11  13  1   
 32  11  37  1   
 33  12  14  1   
 34  12  38  1   
 35  12  39  1   
 36  13  15  1   
 37  13  40  1   
 38  13  41  1   
 39  14  16  1   
 40  14  17  1   
 41  14  42  1   
 42  15  16  1   
 43  15  43  1   
 44  15  44  1   
 45  16  45  1   
 46  16  46  1   
 47  17  47  1   
 48  17  48  1   
 49  17  49  1   
@<TRIPOS>SUBSTRUCTURE
  1 ****   7 GROUP 4 **** **** 0

# MOE 2024.06 (io_trps.svl 2023.06)
