@<TRIPOS>MOLECULE
NONAME
53 55 1 0 0 
SMALL
USER_CHARGES


@<TRIPOS>ATOM
  1 O        0.0190    -0.1960     1.0310 O.2   1 <1>  -0.5700 
  2 C       -0.0950    -0.9540     0.0890 C.2   1 <1>   0.6900 
  3 N        0.9720    -1.4830    -0.5700 N.am  1 <1>  -0.5470 
  4 N       -1.3350    -1.3040    -0.3370 N.am  1 <1>  -0.7300 
  5 C        2.3510    -1.2420    -0.4510 C.ar  1 <1>   0.1170 
  6 C       -2.5630    -0.8410     0.3200 C.3   1 <1>   0.2200 
  7 C        3.2670    -2.2260    -0.8410 C.ar  1 <1>  -0.1440 
  8 C        2.8390    -0.0310     0.0330 C.ar  1 <1>  -0.1500 
  9 C       -3.6810    -1.8590     0.1150 C.3   1 <1>  -0.1600 
 10 C       -2.9590     0.5210    -0.2460 C.3   1 <1>  -0.1600 
 11 C        4.6270    -1.9840    -0.7260 C.ar  1 <1>  -0.1500 
 12 C        2.8230    -3.5790    -1.3930 C.3   1 <1>  -0.0170 
 13 C        4.1970     0.2020     0.1420 C.ar  1 <1>  -0.1500 
 14 C       -4.9750    -1.3540     0.7490 C.3   1 <1>   0.3430 
 15 C       -4.2540     1.0030     0.3990 C.3   1 <1>   0.3430 
 16 C        5.0950    -0.7770    -0.2370 C.ar  1 <1>  -0.1500 
 17 C        2.4160    -4.5250    -0.2600 C.3   1 <1>  -0.2400 
 18 N       -5.3280    -0.0110     0.1920 N.4   1 <1>  -0.9590 
 19 C       -6.6340     0.4710     0.7230 C.3   1 <1>   0.4860 
 20 C       -7.7200    -0.4750     0.2530 C.ar  1 <1>  -0.1440 
 21 C       -8.1400    -0.4580    -1.0700 C.ar  1 <1>  -0.1500 
 22 C       -8.2980    -1.3720     1.1410 C.ar  1 <1>  -0.1500 
 23 C       -9.1160    -1.3380    -1.5020 C.ar  1 <1>  -0.1500 
 24 C       -9.2750    -2.2500     0.7070 C.ar  1 <1>  -0.1500 
 25 C       -9.6820    -2.2360    -0.6150 C.ar  1 <1>  -0.1500 
 26 H        0.7510    -2.3060    -1.1170 H     1 <1>   0.3700 
 27 H       -1.4290    -1.7500    -1.2470 H     1 <1>   0.3700 
 28 H       -2.3710    -0.7400     1.3780 H     1 <1>   0.0800 
 29 H        2.1570     0.7440     0.3280 H     1 <1>   0.1500 
 30 H       -3.4060    -2.7880     0.5840 H     1 <1>   0.0800 
 31 H       -3.8420    -2.0420    -0.9320 H     1 <1>   0.0800 
 32 H       -3.0800     0.4690    -1.3130 H     1 <1>   0.0800 
 33 H       -2.1810     1.2320    -0.0300 H     1 <1>   0.0800 
 34 H        5.3390    -2.7370    -1.0150 H     1 <1>   0.1500 
 35 H        3.6300    -4.0260    -1.9470 H     1 <1>   0.0800 
 36 H        2.0070    -3.4520    -2.0820 H     1 <1>   0.0800 
 37 H        4.5520     1.1430     0.5230 H     1 <1>   0.1500 
 38 H       -4.8490    -1.2840     1.8170 H     1 <1>   0.0800 
 39 H       -5.7680    -2.0580     0.5480 H     1 <1>   0.0800 
 40 H       -4.5410     1.9470    -0.0380 H     1 <1>   0.0800 
 41 H       -4.0900     1.1540     1.4550 H     1 <1>   0.0800 
 42 H        6.1530    -0.6020    -0.1510 H     1 <1>   0.1500 
 43 H        3.2480    -4.6780     0.4050 H     1 <1>   0.0800 
 44 H        2.1170    -5.4780    -0.6600 H     1 <1>   0.0800 
 45 H        1.6010    -4.1140     0.3080 H     1 <1>   0.0800 
 46 H       -5.4680    -0.1380    -0.8190 H     1 <1>   0.4500 
 47 H       -6.8450     1.4610     0.3530 H     1 <1>   0.0800 
 48 H       -6.6120     0.5050     1.8000 H     1 <1>   0.0800 
 49 H       -7.7230     0.2360    -1.7800 H     1 <1>   0.1500 
 50 H       -8.0030    -1.3990     2.1770 H     1 <1>   0.1500 
 51 H       -9.4430    -1.3260    -2.5290 H     1 <1>   0.1500 
 52 H       -9.7240    -2.9470     1.3960 H     1 <1>   0.1500 
 53 H      -10.4430    -2.9190    -0.9520 H     1 <1>   0.1500 
@<TRIPOS>BOND
  1   1   2  2   
  2   2   3  am  
  3   2   4  am  
  4   3   5  1   
  5   3  26  1   
  6   4   6  1   
  7   4  27  1   
  8   5   7  ar  
  9   5   8  ar  
 10   6   9  1   
 11   6  10  1   
 12   6  28  1   
 13   7  11  ar  
 14   7  12  1   
 15   8  13  ar  
 16   8  29  1   
 17   9  14  1   
 18   9  30  1   
 19   9  31  1   
 20  10  15  1   
 21  10  32  1   
 22  10  33  1   
 23  11  16  ar  
 24  11  34  1   
 25  12  17  1   
 26  12  35  1   
 27  12  36  1   
 28  13  16  ar  
 29  13  37  1   
 30  14  18  1   
 31  14  38  1   
 32  14  39  1   
 33  15  18  1   
 34  15  40  1   
 35  15  41  1   
 36  16  42  1   
 37  17  43  1   
 38  17  44  1   
 39  17  45  1   
 40  18  19  1   
 41  18  46  1   
 42  19  20  1   
 43  19  47  1   
 44  19  48  1   
 45  20  21  ar  
 46  20  22  ar  
 47  21  23  ar  
 48  21  49  1   
 49  22  24  ar  
 50  22  50  1   
 51  23  25  ar  
 52  23  51  1   
 53  24  25  ar  
 54  24  52  1   
 55  25  53  1   
@<TRIPOS>SUBSTRUCTURE
  1 ****   6 GROUP 4 **** **** 0

# MOE 2024.06 (io_trps.svl 2023.06)
