@<TRIPOS>MOLECULE
NONAME
26 26 1 0 0 
SMALL
USER_CHARGES


@<TRIPOS>ATOM
  1 S        0.1470     0.1360    -0.9750 S.3   1 <1>  -0.4100 
  2 C        1.4750    -0.8230    -0.1890 C.3   1 <1>   0.0700 
  3 C        2.7630     0.0170    -0.1440 C.3   1 <1>  -0.0190 
  4 C        3.9560    -0.8620     0.2230 C.2   1 <1>   0.5690 
  5 C        2.6380     1.1990     0.8390 C.3   1 <1>  -0.2400 
  6 O        3.7800    -1.8260     0.9290 O.2   1 <1>  -0.5700 
  7 N        5.1800    -0.4910    -0.2640 N.am  1 <1>  -0.5470 
  8 C        6.4500    -1.0750    -0.1330 C.ar  1 <1>   0.1170 
  9 C        7.5700    -0.2920    -0.3940 C.ar  1 <1>  -0.1500 
 10 C        6.6470    -2.4040     0.2320 C.ar  1 <1>  -0.1500 
 11 C        8.8470    -0.8150    -0.2920 C.ar  1 <1>  -0.1500 
 12 C        7.9220    -2.9310     0.3360 C.ar  1 <1>  -0.1500 
 13 C        9.0250    -2.1370     0.0750 C.ar  1 <1>  -0.1500 
 14 H       -0.9140    -0.7230    -0.9070 H     1 <1>   0.1800 
 15 H        1.6110    -1.7110    -0.7820 H     1 <1>   0.0800 
 16 H        1.1460    -1.0950     0.7990 H     1 <1>   0.0800 
 17 H        2.9320     0.4030    -1.1330 H     1 <1>   0.0800 
 18 H        2.4440     0.8360     1.8330 H     1 <1>   0.0800 
 19 H        1.8360     1.8540     0.5500 H     1 <1>   0.0800 
 20 H        3.5490     1.7700     0.8580 H     1 <1>   0.0800 
 21 H        5.1810     0.3880    -0.7760 H     1 <1>   0.3700 
 22 H        7.4480     0.7370    -0.6770 H     1 <1>   0.1500 
 23 H        5.8050    -3.0390     0.4340 H     1 <1>   0.1500 
 24 H        9.7030    -0.1960    -0.4960 H     1 <1>   0.1500 
 25 H        8.0540    -3.9600     0.6220 H     1 <1>   0.1500 
 26 H       10.0160    -2.5480     0.1560 H     1 <1>   0.1500 
@<TRIPOS>BOND
  1   1   2  1   
  2   1  14  1   
  3   2   3  1   
  4   2  15  1   
  5   2  16  1   
  6   3   4  1   
  7   3   5  1   
  8   3  17  1   
  9   4   6  2   
 10   4   7  am  
 11   5  18  1   
 12   5  19  1   
 13   5  20  1   
 14   7   8  1   
 15   7  21  1   
 16   8   9  ar  
 17   8  10  ar  
 18   9  11  ar  
 19   9  22  1   
 20  10  12  ar  
 21  10  23  1   
 22  11  13  ar  
 23  11  24  1   
 24  12  13  ar  
 25  12  25  1   
 26  13  26  1   
@<TRIPOS>SUBSTRUCTURE
  1 ****   7 GROUP 4 **** **** 0

# MOE 2024.06 (io_trps.svl 2023.06)
