@<TRIPOS>MOLECULE
NONAME
37 38 1 0 0 
SMALL
USER_CHARGES


@<TRIPOS>ATOM
  1 CL      -0.4290    -0.5170     1.9260 Cl    1 <1>  -0.1770 
  2 C       -1.7100     0.0510     0.8880 C.ar  1 <1>   0.1770 
  3 C       -2.8330     0.6230     1.4520 C.ar  1 <1>  -0.1500 
  4 C       -1.5780    -0.0830    -0.4820 C.ar  1 <1>  -0.1500 
  5 C       -3.8610     1.0750     0.6350 C.ar  1 <1>   0.1170 
  6 C       -2.5970     0.3710    -1.3030 C.ar  1 <1>  -0.1500 
  7 N       -4.9940     1.6560     1.2160 N.am  1 <1>  -0.5470 
  8 C       -3.7260     0.9460    -0.7450 C.ar  1 <1>  -0.1500 
  9 C       -6.2590     1.8030     0.7370 C.2   1 <1>   0.6900 
 10 O       -6.8340     2.8310     1.0330 O.2   1 <1>  -0.5700 
 11 N       -6.8780     0.8480    -0.0340 N.am  1 <1>  -0.6600 
 12 C       -6.5540    -0.6030     0.0470 C.3   1 <1>   0.1400 
 13 C       -8.0970     1.1740    -0.8210 C.3   1 <1>   0.1400 
 14 C       -7.7520    -1.3690     0.6140 C.3   1 <1>  -0.1600 
 15 C       -9.3010     0.4270    -0.2430 C.3   1 <1>  -0.1600 
 16 C       -9.0470    -1.0920    -0.1770 C.3   1 <1>  -0.0190 
 17 C      -10.2600    -1.8300     0.3890 C.2   1 <1>   0.6590 
 18 O      -10.2490    -2.3760     1.4630 O.2   1 <1>  -0.5700 
 19 O      -11.3370    -1.8380    -0.3880 O.3   1 <1>  -0.4300 
 20 C      -12.5320    -2.4780     0.0090 C.3   1 <1>   0.0400 
 21 H       -2.9060     0.7110     2.5190 H     1 <1>   0.1500 
 22 H       -0.6920    -0.5320    -0.8940 H     1 <1>   0.1500 
 23 H       -2.5080     0.2800    -2.3730 H     1 <1>   0.1500 
 24 H       -4.8170     2.3330     1.9550 H     1 <1>   0.3700 
 25 H       -4.5110     1.3050    -1.3880 H     1 <1>   0.1500 
 26 H       -5.7030    -0.7710     0.6830 H     1 <1>   0.0800 
 27 H       -6.3140    -0.9650    -0.9380 H     1 <1>   0.0800 
 28 H       -7.9400     0.8830    -1.8450 H     1 <1>   0.0800 
 29 H       -8.2850     2.2340    -0.8040 H     1 <1>   0.0800 
 30 H       -7.8870    -1.0810     1.6430 H     1 <1>   0.0800 
 31 H       -7.5380    -2.4230     0.6000 H     1 <1>   0.0800 
 32 H      -10.1630     0.6270    -0.8550 H     1 <1>   0.0800 
 33 H       -9.5030     0.8070     0.7430 H     1 <1>   0.0800 
 34 H       -8.9060    -1.4530    -1.1800 H     1 <1>   0.0800 
 35 H      -13.2620    -2.3550    -0.7710 H     1 <1>   0.0800 
 36 H      -12.8820    -2.0250     0.9200 H     1 <1>   0.0800 
 37 H      -12.3310    -3.5230     0.1680 H     1 <1>   0.0800 
@<TRIPOS>BOND
  1   1   2  1   
  2   2   3  ar  
  3   2   4  ar  
  4   3   5  ar  
  5   3  21  1   
  6   4   6  ar  
  7   4  22  1   
  8   5   7  1   
  9   5   8  ar  
 10   6   8  ar  
 11   6  23  1   
 12   7   9  am  
 13   7  24  1   
 14   8  25  1   
 15   9  10  2   
 16   9  11  am  
 17  11  12  1   
 18  11  13  1   
 19  12  14  1   
 20  12  26  1   
 21  12  27  1   
 22  13  15  1   
 23  13  28  1   
 24  13  29  1   
 25  14  16  1   
 26  14  30  1   
 27  14  31  1   
 28  15  16  1   
 29  15  32  1   
 30  15  33  1   
 31  16  17  1   
 32  16  34  1   
 33  17  18  2   
 34  17  19  1   
 35  19  20  1   
 36  20  35  1   
 37  20  36  1   
 38  20  37  1   
@<TRIPOS>SUBSTRUCTURE
  1 ****  12 GROUP 4 **** **** 0

# MOE 2024.06 (io_trps.svl 2023.06)
