@<TRIPOS>MOLECULE
NONAME
30 31 1 0 0 
SMALL
USER_CHARGES


@<TRIPOS>ATOM
  1 O       -0.1120     0.4990    -0.8200 O.2   1 <1>  -0.5700 
  2 C       -0.7190     1.5040    -0.4820 C.2   1 <1>   0.6160 
  3 N       -2.0800     1.4880    -0.6200 N.am  1 <1>  -0.5390 
  4 C       -0.1050     2.6830     0.0400 C.2   1 <1>   0.0790 
  5 C       -2.8650     2.5610    -0.2750 C.2   1 <1>  -0.0290 
  6 C        1.3140     2.6960     0.1810 C.1   1 <1>   0.4920 
  7 C       -0.8870     3.7520     0.3870 C.2   1 <1>  -0.1500 
  8 C       -2.2950     3.6890     0.2300 C.2   1 <1>  -0.1380 
  9 C       -4.3670     2.4530    -0.4560 C.3   1 <1>  -0.0220 
 10 N        2.4440     2.7750     0.3180 N.1   1 <1>  -0.5570 
 11 C       -3.1540     4.8870     0.6280 C.3   1 <1>   0.2580 
 12 C       -5.0120     3.8490    -0.3870 C.3   1 <1>   0.2000 
 13 O       -4.5010     4.5230     0.7270 O.3   1 <1>  -0.5600 
 14 C       -6.5580     3.8310    -0.3220 C.3   1 <1>  -0.0800 
 15 C       -7.1210     5.2530    -0.4770 C.3   1 <1>  -0.2400 
 16 C       -7.1210     3.2040     0.9660 C.3   1 <1>  -0.2400 
 17 H       -2.4650     0.6160    -0.9860 H     1 <1>   0.3700 
 18 H       -0.4510     4.6530     0.7850 H     1 <1>   0.1500 
 19 H       -4.7600     1.8160     0.3130 H     1 <1>   0.0800 
 20 H       -4.5940     2.0110    -1.4100 H     1 <1>   0.0800 
 21 H       -3.0690     5.6760    -0.0990 H     1 <1>   0.0800 
 22 H       -2.8550     5.2630     1.5900 H     1 <1>   0.0800 
 23 H       -4.7190     4.4040    -1.2630 H     1 <1>   0.0800 
 24 H       -6.9150     3.2520    -1.1570 H     1 <1>   0.0800 
 25 H       -6.8060     5.8720     0.3450 H     1 <1>   0.0800 
 26 H       -8.1960     5.2320    -0.4980 H     1 <1>   0.0800 
 27 H       -6.7740     5.6980    -1.3930 H     1 <1>   0.0800 
 28 H       -6.7570     3.7300     1.8310 H     1 <1>   0.0800 
 29 H       -6.8430     2.1700     1.0510 H     1 <1>   0.0800 
 30 H       -8.1960     3.2560     0.9670 H     1 <1>   0.0800 
@<TRIPOS>BOND
  1   1   2  2   
  2   2   3  am  
  3   2   4  1   
  4   3   5  1   
  5   3  17  1   
  6   4   6  1   
  7   4   7  2   
  8   5   8  2   
  9   5   9  1   
 10   6  10  3   
 11   7   8  1   
 12   7  18  1   
 13   8  11  1   
 14   9  12  1   
 15   9  19  1   
 16   9  20  1   
 17  11  13  1   
 18  11  21  1   
 19  11  22  1   
 20  12  13  1   
 21  12  14  1   
 22  12  23  1   
 23  14  15  1   
 24  14  16  1   
 25  14  24  1   
 26  15  25  1   
 27  15  26  1   
 28  15  27  1   
 29  16  28  1   
 30  16  29  1   
 31  16  30  1   
@<TRIPOS>SUBSTRUCTURE
  1 ****   5 GROUP 4 **** **** 0

# MOE 2024.06 (io_trps.svl 2023.06)
