@<TRIPOS>MOLECULE
NONAME
32 31 1 0 0 
SMALL
USER_CHARGES


@<TRIPOS>ATOM
  1 S       -0.3300    -0.8110     0.2710 S.3   1 <1>   1.1120 
  2 C        1.3610    -0.3880    -0.0010 C.2   1 <1>   0.0770 
  3 C       -0.7590    -2.0840    -0.9220 C.3   1 <1>  -0.1520 
  4 C       -1.3240     0.6470    -0.0830 C.3   1 <1>  -0.1520 
  5 N        1.6580     0.1070    -1.2340 N.pl3 1 <1>   0.8360 
  6 C        2.1140    -0.6350     1.1100 C.2   1 <1>  -0.0730 
  7 C       -2.1970    -2.6030    -0.7830 C.3   1 <1>  -0.1600 
  8 C       -0.9400     1.8890     0.7360 C.3   1 <1>  -0.1600 
  9 O        2.7870     0.5390    -1.5640 O.2   1 <1>  -0.5200 
 10 O        0.7630     0.1630    -2.1190 O.2   1 <1>  -0.5200 
 11 O        1.5670    -1.1020     2.1230 O.3   1 <1>  -0.8500 
 12 O        3.4360    -0.3930     1.1520 O.3   1 <1>  -0.3570 
 13 C       -2.4640    -3.6900    -1.8240 C.3   1 <1>  -0.2400 
 14 C       -1.1210     1.6660     2.2410 C.3   1 <1>  -0.2400 
 15 C        4.1390    -0.6700     2.3440 C.3   1 <1>   0.0400 
 16 H       -0.0880    -2.9150    -0.8040 H     1 <1>   0.0800 
 17 H       -0.6290    -1.7070    -1.9200 H     1 <1>   0.0800 
 18 H       -2.3590     0.4270     0.1050 H     1 <1>   0.0800 
 19 H       -1.2360     0.8950    -1.1260 H     1 <1>   0.0800 
 20 H       -2.9010    -1.8010    -0.9270 H     1 <1>   0.0800 
 21 H       -2.3470    -3.0160     0.2020 H     1 <1>   0.0800 
 22 H       -1.5650     2.7110     0.4300 H     1 <1>   0.0800 
 23 H        0.0810     2.1710     0.5370 H     1 <1>   0.0800 
 24 H       -2.3390    -3.3020    -2.8210 H     1 <1>   0.0800 
 25 H       -3.4710    -4.0560    -1.7270 H     1 <1>   0.0800 
 26 H       -1.7890    -4.5190    -1.6910 H     1 <1>   0.0800 
 27 H       -2.1250     1.3510     2.4670 H     1 <1>   0.0800 
 28 H       -0.9330     2.5870     2.7660 H     1 <1>   0.0800 
 29 H       -0.4260     0.9330     2.6180 H     1 <1>   0.0800 
 30 H        5.1720    -0.4150     2.1970 H     1 <1>   0.0800 
 31 H        4.0340    -1.7170     2.5650 H     1 <1>   0.0800 
 32 H        3.7120    -0.0810     3.1350 H     1 <1>   0.0800 
@<TRIPOS>BOND
  1   1   2  1   
  2   1   3  1   
  3   1   4  1   
  4   2   5  1   
  5   2   6  2   
  6   3   7  1   
  7   3  16  1   
  8   3  17  1   
  9   4   8  1   
 10   4  18  1   
 11   4  19  1   
 12   5   9  2   
 13   5  10  2   
 14   6  11  1   
 15   6  12  1   
 16   7  13  1   
 17   7  20  1   
 18   7  21  1   
 19   8  14  1   
 20   8  22  1   
 21   8  23  1   
 22  12  15  1   
 23  13  24  1   
 24  13  25  1   
 25  13  26  1   
 26  14  27  1   
 27  14  28  1   
 28  14  29  1   
 29  15  30  1   
 30  15  31  1   
 31  15  32  1   
@<TRIPOS>SUBSTRUCTURE
  1 ****   2 GROUP 4 **** **** 0

# MOE 2024.06 (io_trps.svl 2023.06)
