@<TRIPOS>MOLECULE
NONAME
29 29 1 0 0 
SMALL
USER_CHARGES


@<TRIPOS>ATOM
  1 S        1.7180    -1.9520    -0.2810 S.3   1 <1>  -0.4600 
  2 C        1.3980    -0.2860     0.4210 C.3   1 <1>   0.1310 
  3 C        0.0770    -2.7230    -0.2890 C.3   1 <1>  -0.0100 
  4 C        2.6650     0.5570     0.5170 C.2   1 <1>   0.5690 
  5 O        2.5490     1.7010     0.8840 O.2   1 <1>  -0.5700 
  6 N        3.8550    -0.0250     0.1790 N.am  1 <1>  -0.5470 
  7 C        5.1820     0.4340     0.1450 C.ar  1 <1>   0.1170 
  8 C        6.1410    -0.2930    -0.5680 C.ar  1 <1>  -0.1430 
  9 C        5.5800     1.5860     0.8180 C.ar  1 <1>  -0.1500 
 10 C        7.4580     0.1400    -0.5880 C.ar  1 <1>  -0.1500 
 11 C        5.7850    -1.5620    -1.3400 C.3   1 <1>  -0.0170 
 12 C        6.8940     2.0120     0.7880 C.ar  1 <1>  -0.1500 
 13 C        7.8370     1.2870     0.0850 C.ar  1 <1>  -0.1500 
 14 C        5.7480    -2.7790    -0.4110 C.3   1 <1>  -0.2400 
 15 H        0.9770    -0.4250     1.3990 H     1 <1>   0.0800 
 16 H        0.6850     0.1990    -0.2180 H     1 <1>   0.0800 
 17 H        0.1830    -3.7140    -0.6930 H     1 <1>   0.0800 
 18 H       -0.5700    -2.1270    -0.9080 H     1 <1>   0.0800 
 19 H       -0.2810    -2.7600     0.7240 H     1 <1>   0.0800 
 20 H        3.7440    -0.9870    -0.1500 H     1 <1>   0.3700 
 21 H        4.8630     2.1580     1.3760 H     1 <1>   0.1500 
 22 H        8.2020    -0.4160    -1.1310 H     1 <1>   0.1500 
 23 H        6.5160    -1.7330    -2.1110 H     1 <1>   0.0800 
 24 H        4.8360    -1.4450    -1.8340 H     1 <1>   0.0800 
 25 H        7.1800     2.9060     1.3140 H     1 <1>   0.1500 
 26 H        8.8620     1.6150     0.0610 H     1 <1>   0.1500 
 27 H        6.7080    -2.9170     0.0530 H     1 <1>   0.0800 
 28 H        5.5030    -3.6640    -0.9710 H     1 <1>   0.0800 
 29 H        5.0120    -2.6460     0.3610 H     1 <1>   0.0800 
@<TRIPOS>BOND
  1   1   2  1   
  2   1   3  1   
  3   2   4  1   
  4   2  15  1   
  5   2  16  1   
  6   3  17  1   
  7   3  18  1   
  8   3  19  1   
  9   4   5  2   
 10   4   6  am  
 11   6   7  1   
 12   6  20  1   
 13   7   8  ar  
 14   7   9  ar  
 15   8  10  ar  
 16   8  11  1   
 17   9  12  ar  
 18   9  21  1   
 19  10  13  ar  
 20  10  22  1   
 21  11  14  1   
 22  11  23  1   
 23  11  24  1   
 24  12  13  ar  
 25  12  25  1   
 26  13  26  1   
 27  14  27  1   
 28  14  28  1   
 29  14  29  1   
@<TRIPOS>SUBSTRUCTURE
  1 ****   6 GROUP 4 **** **** 0

# MOE 2024.06 (io_trps.svl 2023.06)
