@<TRIPOS>MOLECULE
NONAME
34 36 1 0 0 
SMALL
USER_CHARGES


@<TRIPOS>ATOM
  1 S       -0.1510     0.9460    -1.0860 S.3   1 <1>  -0.0800 
  2 C       -1.6890     0.1520    -1.0230 C.2   1 <1>   0.4420 
  3 C       -0.5910     1.7500     0.3840 C.2   1 <1>   0.1980 
  4 N       -2.3710     0.4900     0.0090 N.2   1 <1>  -0.3380 
  5 N       -1.9850    -0.7230    -2.0440 N.am  1 <1>  -0.4940 
  6 N       -1.7410     1.4040     0.8060 N.2   1 <1>  -0.3380 
  7 C        0.3960     2.7260     1.0000 C.3   1 <1>   0.3000 
  8 C       -3.0890    -1.4860    -2.2930 C.2   1 <1>   0.5440 
  9 O        0.8100     3.6600     0.0460 O.3   1 <1>  -0.5600 
 10 O       -2.9350    -2.3540    -3.1250 O.2   1 <1>  -0.5700 
 11 C       -4.3740    -1.3070    -1.6460 C.ar  1 <1>   0.0860 
 12 C        1.6740     4.6290     0.5340 C.3   1 <1>   0.1200 
 13 C       -5.0630    -2.4180    -1.1450 C.ar  1 <1>  -0.1500 
 14 C       -4.9790    -0.0450    -1.5240 C.ar  1 <1>  -0.1500 
 15 C        2.0350     5.5460    -0.6280 C.3   1 <1>  -0.2400 
 16 C       -6.2900    -2.2350    -0.5430 C.ar  1 <1>   0.0820 
 17 C       -6.2150     0.1240    -0.9160 C.ar  1 <1>  -0.1500 
 18 O       -7.0950    -3.1570    -0.0030 O.3   1 <1>  -0.3630 
 19 C       -6.8540    -0.9980    -0.4290 C.ar  1 <1>   0.0820 
 20 C       -8.2370    -2.4620     0.4930 C.3   1 <1>   0.4000 
 21 O       -8.0330    -1.0850     0.1860 O.3   1 <1>  -0.3630 
 22 H       -1.2240    -0.9350    -2.6850 H     1 <1>   0.3700 
 23 H        1.2600     2.1950     1.3580 H     1 <1>   0.0800 
 24 H       -0.0750     3.2490     1.8140 H     1 <1>   0.0800 
 25 H        2.5570     4.1500     0.9250 H     1 <1>   0.0800 
 26 H        1.1770     5.1840     1.3130 H     1 <1>   0.0800 
 27 H       -4.6450    -3.4050    -1.2290 H     1 <1>   0.1500 
 28 H       -4.4670     0.8190    -1.9090 H     1 <1>   0.1500 
 29 H        2.5190     4.9840    -1.4060 H     1 <1>   0.0800 
 30 H        2.7050     6.3160    -0.2920 H     1 <1>   0.0800 
 31 H        1.1470     6.0110    -1.0200 H     1 <1>   0.0800 
 32 H       -6.6710     1.0930    -0.8170 H     1 <1>   0.1500 
 33 H       -8.3020    -2.5880     1.5590 H     1 <1>   0.0800 
 34 H       -9.1210    -2.8160    -0.0070 H     1 <1>   0.0800 
@<TRIPOS>BOND
  1   1   2  1   
  2   1   3  1   
  3   2   4  2   
  4   2   5  1   
  5   3   6  2   
  6   3   7  1   
  7   4   6  1   
  8   5   8  am  
  9   5  22  1   
 10   7   9  1   
 11   7  23  1   
 12   7  24  1   
 13   8  10  2   
 14   8  11  1   
 15   9  12  1   
 16  11  13  ar  
 17  11  14  ar  
 18  12  15  1   
 19  12  25  1   
 20  12  26  1   
 21  13  16  ar  
 22  13  27  1   
 23  14  17  ar  
 24  14  28  1   
 25  15  29  1   
 26  15  30  1   
 27  15  31  1   
 28  16  18  1   
 29  16  19  ar  
 30  17  19  ar  
 31  17  32  1   
 32  18  20  1   
 33  19  21  1   
 34  20  21  1   
 35  20  33  1   
 36  20  34  1   
@<TRIPOS>SUBSTRUCTURE
  1 ****   4 GROUP 4 **** **** 0

# MOE 2024.06 (io_trps.svl 2023.06)
