@<TRIPOS>MOLECULE
NONAME
39 42 1 0 0 
SMALL
USER_CHARGES


@<TRIPOS>ATOM
  1 O        0.4240     0.3040    -0.4110 O.2   1 <1>  -0.5700 
  2 C        0.6290     1.4720    -0.2100 C.2   1 <1>   0.5690 
  3 N        1.8340     2.1570    -0.1650 N.am  1 <1>  -0.2370 
  4 C       -0.4420     2.4690     0.0820 C.3   1 <1>  -0.0190 
  5 C        3.1190     1.5690    -0.1010 C.ar  1 <1>   0.1170 
  6 C        1.5630     3.5180    -0.1920 C.2   1 <1>   0.5690 
  7 C       -1.9350     2.7350    -0.0560 C.3   1 <1>   0.4180 
  8 C        0.1400     3.6800    -0.6350 C.3   1 <1>  -0.0190 
  9 C        4.0800     2.0510     0.7830 C.ar  1 <1>  -0.1500 
 10 C        3.4560     0.4980    -0.9220 C.ar  1 <1>  -0.1500 
 11 O        2.2990     4.4380     0.0560 O.2   1 <1>  -0.5700 
 12 O       -1.8580     4.0440     0.4430 O.3   1 <1>  -0.5600 
 13 C       -2.4070     3.1000    -1.4550 C.2   1 <1>  -0.2880 
 14 C       -2.8890     1.8740     0.7960 C.3   1 <1>   0.1200 
 15 C       -1.0490     4.6560    -0.5190 C.3   1 <1>   0.3380 
 16 C        5.3380     1.4800     0.8440 C.ar  1 <1>  -0.1500 
 17 C        4.7130    -0.0770    -0.8660 C.ar  1 <1>  -0.1500 
 18 C       -1.9130     4.3080    -1.7140 C.2   1 <1>  -0.2880 
 19 O       -4.1360     2.4810     0.9050 O.3   1 <1>  -0.6800 
 20 C        5.6620     0.4100     0.0250 C.ar  1 <1>   0.0820 
 21 O        6.9210    -0.0940     0.1300 O.3   1 <1>  -0.2330 
 22 C        7.3380    -1.3370    -0.1020 C.2   1 <1>   0.6590 
 23 O        6.6160    -2.2520    -0.3960 O.2   1 <1>  -0.5700 
 24 C        8.8260    -1.5460     0.0350 C.3   1 <1>  -0.1790 
 25 H       -0.2980     2.5870     1.1480 H     1 <1>   0.0800 
 26 H        0.2370     3.4800    -1.6910 H     1 <1>   0.0800 
 27 H        3.8490     2.8810     1.4280 H     1 <1>   0.1500 
 28 H        2.7320     0.1030    -1.6140 H     1 <1>   0.1500 
 29 H       -3.0370     2.4330    -2.0180 H     1 <1>   0.1500 
 30 H       -2.4930     1.7490     1.7880 H     1 <1>   0.0800 
 31 H       -3.0250     0.9050     0.3490 H     1 <1>   0.0800 
 32 H       -0.8690     5.6970    -0.3070 H     1 <1>   0.0800 
 33 H        6.0720     1.8650     1.5290 H     1 <1>   0.1500 
 34 H        4.9420    -0.8990    -1.5200 H     1 <1>   0.1500 
 35 H       -2.0000     4.9680    -2.5600 H     1 <1>   0.1500 
 36 H       -4.0040     3.4520     0.9730 H     1 <1>   0.4000 
 37 H        9.1330    -1.3050     1.0350 H     1 <1>   0.0800 
 38 H        9.3440    -0.9130    -0.6610 H     1 <1>   0.0800 
 39 H        9.0690    -2.5720    -0.1720 H     1 <1>   0.0800 
@<TRIPOS>BOND
  1   1   2  2   
  2   2   3  am  
  3   2   4  1   
  4   3   5  1   
  5   3   6  am  
  6   4   7  1   
  7   4   8  1   
  8   4  25  1   
  9   5   9  ar  
 10   5  10  ar  
 11   6   8  1   
 12   6  11  2   
 13   7  12  1   
 14   7  13  1   
 15   7  14  1   
 16   8  15  1   
 17   8  26  1   
 18   9  16  ar  
 19   9  27  1   
 20  10  17  ar  
 21  10  28  1   
 22  12  15  1   
 23  13  18  2   
 24  13  29  1   
 25  14  19  1   
 26  14  30  1   
 27  14  31  1   
 28  15  18  1   
 29  15  32  1   
 30  16  20  ar  
 31  16  33  1   
 32  17  20  ar  
 33  17  34  1   
 34  18  35  1   
 35  19  36  1   
 36  20  21  1   
 37  21  22  1   
 38  22  23  2   
 39  22  24  1   
 40  24  37  1   
 41  24  38  1   
 42  24  39  1   
@<TRIPOS>SUBSTRUCTURE
  1 ****   3 GROUP 4 **** **** 0

# MOE 2024.06 (io_trps.svl 2023.06)
