@<TRIPOS>MOLECULE
NONAME
53 54 1 0 0 
SMALL
USER_CHARGES


@<TRIPOS>ATOM
  1 O        0.3010    -0.4300     1.7310 O.2   1 <1>  -0.5700 
  2 C        0.7280    -1.2440     0.9360 C.2   1 <1>   0.5440 
  3 N       -0.1430    -2.0390     0.2250 N.am  1 <1>  -0.5470 
  4 C        2.1550    -1.3790     0.7250 C.ar  1 <1>   0.0860 
  5 C       -1.5470    -2.0890     0.2230 C.ar  1 <1>   0.1170 
  6 C        2.7560    -2.6150     0.4690 C.ar  1 <1>  -0.1500 
  7 C        2.9900    -0.2610     0.7700 C.ar  1 <1>  -0.1500 
  8 C       -2.1770    -3.2950    -0.0550 C.ar  1 <1>  -0.1500 
  9 C       -2.3370    -0.9720     0.4660 C.ar  1 <1>  -0.1500 
 10 C        4.1170    -2.7280     0.2500 C.ar  1 <1>  -0.1500 
 11 C        4.3500    -0.3660     0.5520 C.ar  1 <1>  -0.1500 
 12 C       -3.5640    -3.3890    -0.0880 C.ar  1 <1>   0.0830 
 13 C       -3.7170    -1.0550     0.4330 C.ar  1 <1>  -0.1500 
 14 C        4.9270    -1.5970     0.2870 C.ar  1 <1>   0.0830 
 15 O       -4.2220    -4.5600    -0.3500 O.3   1 <1>  -0.3630 
 16 C       -4.3520    -2.2580     0.1520 C.ar  1 <1>   0.1170 
 17 O        6.2630    -1.6160     0.0820 O.3   1 <1>  -0.3630 
 18 C       -3.5230    -5.7720    -0.5350 C.3   1 <1>   0.0400 
 19 N       -5.7540    -2.4050     0.1030 N.am  1 <1>  -0.5470 
 20 C        6.9620    -2.8140    -0.1660 C.3   1 <1>   0.1200 
 21 C       -6.7940    -1.5220     0.1780 C.2   1 <1>   0.5690 
 22 C        8.4440    -2.4750    -0.3360 C.3   1 <1>  -0.1600 
 23 O       -6.6530    -0.3290     0.3060 O.2   1 <1>  -0.5700 
 24 C       -8.2130    -2.0950     0.0860 C.3   1 <1>  -0.0190 
 25 C        9.2760    -3.7330    -0.6100 C.3   1 <1>  -0.2400 
 26 C       -8.9520    -1.5730    -1.1570 C.3   1 <1>  -0.2400 
 27 C       -9.0290    -1.7870     1.3520 C.3   1 <1>  -0.2400 
 28 H        0.3060    -2.6810    -0.4240 H     1 <1>   0.3700 
 29 H        2.1540    -3.5050     0.4530 H     1 <1>   0.1500 
 30 H        2.5570     0.7030     0.9790 H     1 <1>   0.1500 
 31 H       -1.5620    -4.1520    -0.2390 H     1 <1>   0.1500 
 32 H       -1.8760    -0.0250     0.6810 H     1 <1>   0.1500 
 33 H        4.5340    -3.6990     0.0570 H     1 <1>   0.1500 
 34 H        4.9770     0.5070     0.5880 H     1 <1>   0.1500 
 35 H       -4.2920    -0.1690     0.6300 H     1 <1>   0.1500 
 36 H       -4.2440    -6.5540    -0.6940 H     1 <1>   0.0800 
 37 H       -2.9470    -5.9830     0.3490 H     1 <1>   0.0800 
 38 H       -2.8880    -5.6820    -1.3990 H     1 <1>   0.0800 
 39 H       -6.0140    -3.3790    -0.0500 H     1 <1>   0.3700 
 40 H        6.5690    -3.2580    -1.0640 H     1 <1>   0.0800 
 41 H        6.8170    -3.4720     0.6730 H     1 <1>   0.0800 
 42 H        8.8030    -2.0010     0.5610 H     1 <1>   0.0800 
 43 H        8.5570    -1.7880    -1.1570 H     1 <1>   0.0800 
 44 H       -8.1400    -3.1640    -0.0030 H     1 <1>   0.0800 
 45 H        9.1910    -4.4280     0.2070 H     1 <1>   0.0800 
 46 H       10.3130    -3.4670    -0.7250 H     1 <1>   0.0800 
 47 H        8.9460    -4.2140    -1.5140 H     1 <1>   0.0800 
 48 H       -9.0610    -0.5030    -1.1020 H     1 <1>   0.0800 
 49 H       -9.9280    -2.0170    -1.2320 H     1 <1>   0.0800 
 50 H       -8.3950    -1.8110    -2.0460 H     1 <1>   0.0800 
 51 H       -9.1440    -0.7240     1.4710 H     1 <1>   0.0800 
 52 H       -8.5240    -2.1730     2.2200 H     1 <1>   0.0800 
 53 H      -10.0050    -2.2370     1.2930 H     1 <1>   0.0800 
@<TRIPOS>BOND
  1   1   2  2   
  2   2   3  am  
  3   2   4  1   
  4   3   5  1   
  5   3  28  1   
  6   4   6  ar  
  7   4   7  ar  
  8   5   8  ar  
  9   5   9  ar  
 10   6  10  ar  
 11   6  29  1   
 12   7  11  ar  
 13   7  30  1   
 14   8  12  ar  
 15   8  31  1   
 16   9  13  ar  
 17   9  32  1   
 18  10  14  ar  
 19  10  33  1   
 20  11  14  ar  
 21  11  34  1   
 22  12  15  1   
 23  12  16  ar  
 24  13  16  ar  
 25  13  35  1   
 26  14  17  1   
 27  15  18  1   
 28  16  19  1   
 29  17  20  1   
 30  18  36  1   
 31  18  37  1   
 32  18  38  1   
 33  19  21  am  
 34  19  39  1   
 35  20  22  1   
 36  20  40  1   
 37  20  41  1   
 38  21  23  2   
 39  21  24  1   
 40  22  25  1   
 41  22  42  1   
 42  22  43  1   
 43  24  26  1   
 44  24  27  1   
 45  24  44  1   
 46  25  45  1   
 47  25  46  1   
 48  25  47  1   
 49  26  48  1   
 50  26  49  1   
 51  26  50  1   
 52  27  51  1   
 53  27  52  1   
 54  27  53  1   
@<TRIPOS>SUBSTRUCTURE
  1 ****   3 GROUP 4 **** **** 0

# MOE 2024.06 (io_trps.svl 2023.06)
