@<TRIPOS>MOLECULE
NONAME
53 55 1 0 0 
SMALL
USER_CHARGES


@<TRIPOS>ATOM
  1 S        0.8430    -0.1270     0.1250 S.o2  1 <1>   1.4470 
  2 O        1.5050    -0.3590    -1.1440 O.2   1 <1>  -0.6500 
  3 O        1.5920     0.4410     1.2200 O.2   1 <1>  -0.6500 
  4 N        0.2770    -1.6460     0.6170 N.am  1 <1>  -0.8490 
  5 C       -0.6450     0.8840    -0.1230 C.ar  1 <1>  -0.0090 
  6 C       -0.8390    -2.0950    -0.2270 C.3   1 <1>   0.3390 
  7 C        1.3530    -2.6890     0.6040 C.3   1 <1>   0.2570 
  8 C       -1.0360     1.3010    -1.3910 C.ar  1 <1>  -0.1500 
  9 C       -1.4450     1.2420     0.9540 C.ar  1 <1>  -0.1500 
 10 C       -1.3670    -3.4590     0.1990 C.ar  1 <1>  -0.1440 
 11 C        2.7340    -2.3650     1.2000 C.2   1 <1>   0.5690 
 12 C       -2.1890     2.0440    -1.5760 C.ar  1 <1>  -0.1500 
 13 C       -2.5990     1.9850     0.7750 C.ar  1 <1>  -0.1500 
 14 C       -1.4250    -4.5070    -0.7090 C.ar  1 <1>  -0.1500 
 15 C       -1.7960    -3.6650     1.5020 C.ar  1 <1>  -0.1500 
 16 O        3.0120    -2.7760     2.3020 O.2   1 <1>  -0.5700 
 17 N        3.6380    -1.6940     0.4360 N.am  1 <1>  -0.7300 
 18 C       -2.9780     2.3900    -0.4930 C.ar  1 <1>  -0.1430 
 19 C       -1.9050    -5.7450    -0.3170 C.ar  1 <1>  -0.1500 
 20 C       -2.2760    -4.9020     1.8950 C.ar  1 <1>  -0.1500 
 21 C        4.9950    -1.3130     0.8520 C.3   1 <1>   0.2200 
 22 C       -4.2440     3.2030    -0.6920 C.3   1 <1>  -0.0970 
 23 C       -2.3300    -5.9430     0.9850 C.ar  1 <1>  -0.1500 
 24 C        5.0370     0.1910     1.0800 C.3   1 <1>  -0.1600 
 25 C        5.9330    -1.5080    -0.3330 C.3   1 <1>  -0.1600 
 26 C        5.1430     0.8150    -0.3160 C.3   1 <1>  -0.1600 
 27 C        5.7460    -0.2700    -1.2190 C.3   1 <1>  -0.1600 
 28 H       -0.5290    -2.1280    -1.2590 H     1 <1>   0.0800 
 29 H       -1.6620    -1.4050    -0.1500 H     1 <1>   0.0800 
 30 H        1.5270    -2.9970    -0.4120 H     1 <1>   0.0800 
 31 H        0.9980    -3.5530     1.1370 H     1 <1>   0.0800 
 32 H       -0.4330     1.0440    -2.2460 H     1 <1>   0.1500 
 33 H       -1.1590     0.9350     1.9470 H     1 <1>   0.1500 
 34 H       -2.4700     2.3530    -2.5690 H     1 <1>   0.1500 
 35 H       -3.2000     2.2470     1.6290 H     1 <1>   0.1500 
 36 H       -1.1000    -4.3700    -1.7250 H     1 <1>   0.1500 
 37 H       -1.7500    -2.8600     2.2170 H     1 <1>   0.1500 
 38 H        3.3200    -1.2160    -0.4140 H     1 <1>   0.3700 
 39 H       -1.9490    -6.5550    -1.0240 H     1 <1>   0.1500 
 40 H       -2.6040    -5.0540     2.9080 H     1 <1>   0.1500 
 41 H        5.3000    -1.8720     1.7230 H     1 <1>   0.0800 
 42 H       -5.0800     2.5450    -0.8450 H     1 <1>   0.0800 
 43 H       -4.1480     3.8470    -1.5490 H     1 <1>   0.0800 
 44 H       -4.4370     3.8160     0.1700 H     1 <1>   0.0800 
 45 H       -2.7020    -6.9050     1.2900 H     1 <1>   0.1500 
 46 H        5.9260     0.4270     1.6380 H     1 <1>   0.0800 
 47 H        4.1840     0.5430     1.6330 H     1 <1>   0.0800 
 48 H        5.7420    -2.4290    -0.8560 H     1 <1>   0.0800 
 49 H        6.9440    -1.5250     0.0350 H     1 <1>   0.0800 
 50 H        5.7520     1.7030    -0.2980 H     1 <1>   0.0800 
 51 H        4.1590     1.0750    -0.6690 H     1 <1>   0.0800 
 52 H        5.0620    -0.4910    -2.0210 H     1 <1>   0.0800 
 53 H        6.6850     0.0460    -1.6390 H     1 <1>   0.0800 
@<TRIPOS>BOND
  1   1   2  2   
  2   1   3  2   
  3   1   4  am  
  4   1   5  1   
  5   4   6  1   
  6   4   7  1   
  7   5   8  ar  
  8   5   9  ar  
  9   6  10  1   
 10   6  28  1   
 11   6  29  1   
 12   7  11  1   
 13   7  30  1   
 14   7  31  1   
 15   8  12  ar  
 16   8  32  1   
 17   9  13  ar  
 18   9  33  1   
 19  10  14  ar  
 20  10  15  ar  
 21  11  16  2   
 22  11  17  am  
 23  12  18  ar  
 24  12  34  1   
 25  13  18  ar  
 26  13  35  1   
 27  14  19  ar  
 28  14  36  1   
 29  15  20  ar  
 30  15  37  1   
 31  17  21  1   
 32  17  38  1   
 33  18  22  1   
 34  19  23  ar  
 35  19  39  1   
 36  20  23  ar  
 37  20  40  1   
 38  21  24  1   
 39  21  25  1   
 40  21  41  1   
 41  22  42  1   
 42  22  43  1   
 43  22  44  1   
 44  23  45  1   
 45  24  26  1   
 46  24  46  1   
 47  24  47  1   
 48  25  27  1   
 49  25  48  1   
 50  25  49  1   
 51  26  27  1   
 52  26  50  1   
 53  26  51  1   
 54  27  52  1   
 55  27  53  1   
@<TRIPOS>SUBSTRUCTURE
  1 ****   4 GROUP 4 **** **** 0

# MOE 2024.06 (io_trps.svl 2023.06)
