@<TRIPOS>MOLECULE
NONAME
40 41 1 0 0 
SMALL
USER_CHARGES


@<TRIPOS>ATOM
  1 O       -0.6490    -0.1250     0.2810 O.2   1 <1>  -0.5700 
  2 C       -1.1460     0.9780     0.3920 C.2   1 <1>   0.7800 
  3 O       -0.4020     2.0820     0.2800 O.3   1 <1>  -0.4300 
  4 N       -2.4840     1.1490     0.6290 N.am  1 <1>  -0.6600 
  5 C        0.9870     2.1590     0.0430 C.3   1 <1>   0.2800 
  6 C       -3.4230    -0.0060     0.7360 C.3   1 <1>   0.1400 
  7 C       -3.1510     2.4820     0.7010 C.3   1 <1>   0.1400 
  8 C        1.7590     1.5010     1.1920 C.3   1 <1>  -0.2400 
  9 C        1.3290     1.5460    -1.3200 C.3   1 <1>  -0.2400 
 10 C        1.3030     3.6550     0.0150 C.3   1 <1>  -0.2400 
 11 C       -4.5240     0.0990    -0.3270 C.3   1 <1>   0.1400 
 12 C       -4.2790     2.5960    -0.3390 C.3   1 <1>   0.1400 
 13 N       -5.2110     1.4280    -0.2610 N.am  1 <1>  -0.6600 
 14 C       -6.5610     1.5330     0.0210 C.2   1 <1>   0.7150 
 15 O       -7.1060     0.5790     0.5520 O.2   1 <1>  -0.5700 
 16 C       -7.3540     2.7130    -0.2690 C.2   1 <1>   0.0550 
 17 O       -6.9790     3.6340    -1.1570 O.3   1 <1>  -0.2800 
 18 C       -8.5630     3.0840     0.2380 C.2   1 <1>  -0.1500 
 19 C       -7.9010     4.5670    -1.2210 C.2   1 <1>  -0.0100 
 20 C       -8.9140     4.2870    -0.3750 C.2   1 <1>  -0.1500 
 21 H       -3.8720    -0.0100     1.7140 H     1 <1>   0.0800 
 22 H       -2.8970    -0.9370     0.6110 H     1 <1>   0.0800 
 23 H       -2.4450     3.2770     0.5410 H     1 <1>   0.0800 
 24 H       -3.5670     2.6090     1.6860 H     1 <1>   0.0800 
 25 H        1.6160     0.4360     1.1970 H     1 <1>   0.0800 
 26 H        1.4420     1.9050     2.1360 H     1 <1>   0.0800 
 27 H        2.8120     1.6850     1.0790 H     1 <1>   0.0800 
 28 H        1.1850     0.4810    -1.3140 H     1 <1>   0.0800 
 29 H        2.3610     1.7320    -1.5570 H     1 <1>   0.0800 
 30 H        0.7180     1.9810    -2.0900 H     1 <1>   0.0800 
 31 H        1.0460     4.1080     0.9560 H     1 <1>   0.0800 
 32 H        0.7510     4.1390    -0.7700 H     1 <1>   0.0800 
 33 H        2.3520     3.8120    -0.1610 H     1 <1>   0.0800 
 34 H       -5.2280    -0.7040    -0.1890 H     1 <1>   0.0800 
 35 H       -4.0830    -0.0200    -1.3010 H     1 <1>   0.0800 
 36 H       -3.8520     2.6410    -1.3260 H     1 <1>   0.0800 
 37 H       -4.8020     3.5170    -0.1610 H     1 <1>   0.0800 
 38 H       -9.1480     2.5550     0.9700 H     1 <1>   0.1500 
 39 H       -7.7630     5.3970    -1.8930 H     1 <1>   0.1500 
 40 H       -9.8140     4.8470    -0.1940 H     1 <1>   0.1500 
@<TRIPOS>BOND
  1   1   2  2   
  2   2   3  1   
  3   2   4  am  
  4   3   5  1   
  5   4   6  1   
  6   4   7  1   
  7   5   8  1   
  8   5   9  1   
  9   5  10  1   
 10   6  11  1   
 11   6  21  1   
 12   6  22  1   
 13   7  12  1   
 14   7  23  1   
 15   7  24  1   
 16   8  25  1   
 17   8  26  1   
 18   8  27  1   
 19   9  28  1   
 20   9  29  1   
 21   9  30  1   
 22  10  31  1   
 23  10  32  1   
 24  10  33  1   
 25  11  13  1   
 26  11  34  1   
 27  11  35  1   
 28  12  13  1   
 29  12  36  1   
 30  12  37  1   
 31  13  14  am  
 32  14  15  2   
 33  14  16  1   
 34  16  17  1   
 35  16  18  2   
 36  17  19  1   
 37  18  20  1   
 38  18  38  1   
 39  19  20  2   
 40  19  39  1   
 41  20  40  1   
@<TRIPOS>SUBSTRUCTURE
  1 ****  12 GROUP 4 **** **** 0

# MOE 2024.06 (io_trps.svl 2023.06)
