@<TRIPOS>MOLECULE
NONAME
37 40 1 0 0 
SMALL
USER_CHARGES


@<TRIPOS>ATOM
  1 O        0.3240     1.0110     1.3780 O.2   1 <1>  -0.5700 
  2 C       -0.0800     1.4830     0.3430 C.2   1 <1>   0.6300 
  3 N       -1.3420     1.2910    -0.1040 N.am  1 <1>  -0.7300 
  4 C        0.8570     2.3240    -0.5090 C.3   1 <1>  -0.1000 
  5 C       -2.3990     0.5310     0.5920 C.3   1 <1>   0.2200 
  6 C        1.3430     3.6560    -0.0170 C.3   1 <1>  -0.2000 
  7 C        0.4000     3.5910    -1.1770 C.3   1 <1>  -0.2000 
  8 C       -2.9420    -0.5890    -0.3220 C.3   1 <1>  -0.0800 
  9 C       -3.5550     1.4720     0.9930 C.3   1 <1>  -0.0800 
 10 C       -3.9840    -1.4040     0.4720 C.3   1 <1>  -0.1600 
 11 C       -3.6310     0.0050    -1.5720 C.3   1 <1>  -0.1600 
 12 C       -4.5970     0.6540     1.7850 C.3   1 <1>  -0.1600 
 13 C       -4.2430     2.0640    -0.2580 C.3   1 <1>  -0.1600 
 14 C       -5.1460    -0.4900     0.9100 C.3   1 <1>  -0.0800 
 15 C       -4.7880     0.9300    -1.1480 C.3   1 <1>  -0.0800 
 16 C       -5.8140     0.1100    -0.3420 C.3   1 <1>  -0.1600 
 17 H       -1.6320     1.7190    -0.9800 H     1 <1>   0.3700 
 18 H        1.5700     1.7090    -1.0250 H     1 <1>   0.1000 
 19 H       -1.9810     0.0880     1.4810 H     1 <1>   0.0800 
 20 H        2.3720     3.9180    -0.1880 H     1 <1>   0.1000 
 21 H        0.9820     4.0050     0.9360 H     1 <1>   0.1000 
 22 H       -0.6050     3.9440    -1.0250 H     1 <1>   0.1000 
 23 H        0.7750     3.8220    -2.1590 H     1 <1>   0.1000 
 24 H       -2.1320    -1.2360    -0.6130 H     1 <1>   0.0800 
 25 H       -3.1730     2.2590     1.6190 H     1 <1>   0.0800 
 26 H       -3.5200    -1.8430     1.3380 H     1 <1>   0.0800 
 27 H       -4.3610    -2.2070    -0.1380 H     1 <1>   0.0800 
 28 H       -2.9220     0.5520    -2.1670 H     1 <1>   0.0800 
 29 H       -4.0130    -0.7930    -2.1860 H     1 <1>   0.0800 
 30 H       -4.1430     0.2470     2.6730 H     1 <1>   0.0800 
 31 H       -5.4040     1.2940     2.0970 H     1 <1>   0.0800 
 32 H       -3.5510     2.6690    -0.8150 H     1 <1>   0.0800 
 33 H       -5.0530     2.7050     0.0460 H     1 <1>   0.0800 
 34 H       -5.8680    -1.0620     1.4680 H     1 <1>   0.0800 
 35 H       -5.2620     1.3460    -2.0200 H     1 <1>   0.0800 
 36 H       -6.6350     0.7410    -0.0490 H     1 <1>   0.0800 
 37 H       -6.2130    -0.6790    -0.9550 H     1 <1>   0.0800 
@<TRIPOS>BOND
  1   1   2  2   
  2   2   3  am  
  3   2   4  1   
  4   3   5  1   
  5   3  17  1   
  6   4   6  1   
  7   4   7  1   
  8   4  18  1   
  9   5   8  1   
 10   5   9  1   
 11   5  19  1   
 12   6   7  1   
 13   6  20  1   
 14   6  21  1   
 15   7  22  1   
 16   7  23  1   
 17   8  10  1   
 18   8  11  1   
 19   8  24  1   
 20   9  12  1   
 21   9  13  1   
 22   9  25  1   
 23  10  14  1   
 24  10  26  1   
 25  10  27  1   
 26  11  15  1   
 27  11  28  1   
 28  11  29  1   
 29  12  14  1   
 30  12  30  1   
 31  12  31  1   
 32  13  15  1   
 33  13  32  1   
 34  13  33  1   
 35  14  16  1   
 36  14  34  1   
 37  15  16  1   
 38  15  35  1   
 39  16  36  1   
 40  16  37  1   
@<TRIPOS>SUBSTRUCTURE
  1 ****   5 GROUP 4 **** **** 0

# MOE 2024.06 (io_trps.svl 2023.06)
