@<TRIPOS>MOLECULE
NONAME
61 65 1 0 0 
SMALL
USER_CHARGES


@<TRIPOS>ATOM
  1 O       -2.8030     3.0630     0.7570 O.3   1 <1>  -0.5600 
  2 C       -2.9650     3.5780    -0.5390 C.3   1 <1>   0.1200 
  3 C       -3.1080     1.7020     0.8820 C.3   1 <1>   0.1200 
  4 C       -4.3540     3.2370    -1.1310 C.3   1 <1>   0.3430 
  5 C       -4.6000     1.4410     0.5730 C.3   1 <1>   0.3430 
  6 N       -5.2490     2.6140    -0.1020 N.4   1 <1>  -0.9590 
  7 C       -6.6560     2.3780    -0.5510 C.3   1 <1>   0.3430 
  8 C       -7.4370     3.7080    -0.6370 C.3   1 <1>   0.2000 
  9 O       -7.0160     4.5480     0.3950 O.3   1 <1>  -0.6800 
 10 C       -8.9540     3.5130    -0.5310 C.3   1 <1>   0.1200 
 11 O       -9.5610     4.7850    -0.4610 O.3   1 <1>  -0.3630 
 12 C      -10.9060     4.9180    -0.3510 C.ar  1 <1>   0.0830 
 13 C      -11.4080     6.2060    -0.3170 C.ar  1 <1>  -0.1500 
 14 C      -11.7900     3.8490    -0.2720 C.ar  1 <1>  -0.1500 
 15 C      -12.7680     6.4320    -0.2050 C.ar  1 <1>  -0.1500 
 16 C      -13.1490     4.0820    -0.1600 C.ar  1 <1>  -0.1500 
 17 C      -13.6690     5.3730    -0.1240 C.ar  1 <1>  -0.1430 
 18 C      -15.1970     5.5750     0.0040 C.3   1 <1>   0.1430 
 19 C      -15.9180     4.9110    -1.1940 C.3   1 <1>  -0.1600 
 20 C      -15.6160     7.0680     0.0310 C.3   1 <1>  -0.1600 
 21 C      -15.7070     4.9250     1.3130 C.3   1 <1>  -0.1600 
 22 C      -17.4480     5.0490    -1.0710 C.3   1 <1>  -0.0800 
 23 C      -17.1420     7.2260     0.1580 C.3   1 <1>  -0.0800 
 24 C      -17.2360     5.0630     1.4450 C.3   1 <1>  -0.0800 
 25 C      -17.8220     6.5420    -1.0410 C.3   1 <1>  -0.1600 
 26 C      -17.9120     4.3840     0.2390 C.3   1 <1>  -0.1600 
 27 C      -17.6110     6.5560     1.4620 C.3   1 <1>  -0.1600 
 28 H       -2.1810     3.1880    -1.1640 H     1 <1>   0.0800 
 29 H       -2.8440     4.6450    -0.4770 H     1 <1>   0.0800 
 30 H       -2.8780     1.4010     1.8890 H     1 <1>   0.0800 
 31 H       -2.4760     1.1460     0.2110 H     1 <1>   0.0800 
 32 H       -4.2240     2.5620    -1.9590 H     1 <1>   0.0800 
 33 H       -4.8000     4.1410    -1.5120 H     1 <1>   0.0800 
 34 H       -5.1130     1.2310     1.4980 H     1 <1>   0.0800 
 35 H       -4.6770     0.5640    -0.0470 H     1 <1>   0.0800 
 36 H       -5.3380     3.3540     0.6250 H     1 <1>   0.4500 
 37 H       -7.1530     1.7490     0.1680 H     1 <1>   0.0800 
 38 H       -6.6750     1.8710    -1.5020 H     1 <1>   0.0800 
 39 H       -7.2140     4.1980    -1.5690 H     1 <1>   0.0800 
 40 H       -7.6720     5.2790     0.4890 H     1 <1>   0.4000 
 41 H       -9.2070     2.9660     0.3610 H     1 <1>   0.0800 
 42 H       -9.3370     3.0020    -1.3980 H     1 <1>   0.0800 
 43 H      -10.7300     7.0380    -0.3780 H     1 <1>   0.1500 
 44 H      -11.4510     2.8320    -0.2940 H     1 <1>   0.1500 
 45 H      -13.0980     7.4530    -0.1830 H     1 <1>   0.1500 
 46 H      -13.8070     3.2340    -0.1000 H     1 <1>   0.1500 
 47 H      -15.6710     3.8670    -1.2480 H     1 <1>   0.0800 
 48 H      -15.5850     5.3680    -2.1090 H     1 <1>   0.0800 
 49 H      -15.2910     7.5520    -0.8740 H     1 <1>   0.0800 
 50 H      -15.1450     7.5610     0.8620 H     1 <1>   0.0800 
 51 H      -15.2260     5.3910     2.1540 H     1 <1>   0.0800 
 52 H      -15.4540     3.8810     1.3360 H     1 <1>   0.0800 
 53 H      -17.9250     4.5720    -1.9100 H     1 <1>   0.0800 
 54 H      -17.4000     8.2710     0.1740 H     1 <1>   0.0800 
 55 H      -17.5660     4.5960     2.3580 H     1 <1>   0.0800 
 56 H      -18.8900     6.6490    -0.9650 H     1 <1>   0.0800 
 57 H      -17.5100     7.0140    -1.9560 H     1 <1>   0.0800 
 58 H      -17.6640     3.3370     0.2240 H     1 <1>   0.0800 
 59 H      -18.9810     4.4650     0.3290 H     1 <1>   0.0800 
 60 H      -18.6770     6.6630     1.5650 H     1 <1>   0.0800 
 61 H      -17.1510     7.0380     2.3060 H     1 <1>   0.0800 
@<TRIPOS>BOND
  1   1   2  1   
  2   1   3  1   
  3   2   4  1   
  4   2  28  1   
  5   2  29  1   
  6   3   5  1   
  7   3  30  1   
  8   3  31  1   
  9   4   6  1   
 10   4  32  1   
 11   4  33  1   
 12   5   6  1   
 13   5  34  1   
 14   5  35  1   
 15   6   7  1   
 16   6  36  1   
 17   7   8  1   
 18   7  37  1   
 19   7  38  1   
 20   8   9  1   
 21   8  10  1   
 22   8  39  1   
 23   9  40  1   
 24  10  11  1   
 25  10  41  1   
 26  10  42  1   
 27  11  12  1   
 28  12  13  ar  
 29  12  14  ar  
 30  13  15  ar  
 31  13  43  1   
 32  14  16  ar  
 33  14  44  1   
 34  15  17  ar  
 35  15  45  1   
 36  16  17  ar  
 37  16  46  1   
 38  17  18  1   
 39  18  19  1   
 40  18  20  1   
 41  18  21  1   
 42  19  22  1   
 43  19  47  1   
 44  19  48  1   
 45  20  23  1   
 46  20  49  1   
 47  20  50  1   
 48  21  24  1   
 49  21  51  1   
 50  21  52  1   
 51  22  25  1   
 52  22  26  1   
 53  22  53  1   
 54  23  25  1   
 55  23  27  1   
 56  23  54  1   
 57  24  26  1   
 58  24  27  1   
 59  24  55  1   
 60  25  56  1   
 61  25  57  1   
 62  26  58  1   
 63  26  59  1   
 64  27  60  1   
 65  27  61  1   
@<TRIPOS>SUBSTRUCTURE
  1 ****  12 GROUP 4 **** **** 0

# MOE 2024.06 (io_trps.svl 2023.06)
