@<TRIPOS>MOLECULE
NONAME
37 38 1 0 0 
SMALL
USER_CHARGES


@<TRIPOS>ATOM
  1 O        0.3690     0.6260     0.5920 O.2   1 <1>  -0.5700 
  2 C        0.5130     1.7960     0.3560 C.2   1 <1>   0.5690 
  3 N       -0.4530     2.5120    -0.2680 N.am  1 <1>  -0.5390 
  4 C        1.8020     2.4980     0.7060 C.3   1 <1>  -0.0990 
  5 C       -0.4590     3.8850    -0.4110 C.2   1 <1>  -0.0290 
  6 C        1.6200     4.0050     0.9810 C.3   1 <1>   0.2020 
  7 C        0.4970     4.6630     0.1630 C.2   1 <1>  -0.1240 
  8 C       -1.6480     4.4000    -1.2100 C.3   1 <1>  -0.1020 
  9 C        2.9720     4.6890     0.7540 C.ar  1 <1>  -0.1440 
 10 C        0.5600     6.0940     0.1380 C.2   1 <1>   0.7060 
 11 C        3.7120     5.1490     1.8330 C.ar  1 <1>  -0.1500 
 12 C        3.4750     4.8620    -0.5300 C.ar  1 <1>  -0.1500 
 13 O        0.7200     6.7650     1.1390 O.2   1 <1>  -0.5700 
 14 O        0.4410     6.7100    -1.0430 O.3   1 <1>  -0.4300 
 15 C        4.9340     5.7660     1.6320 C.ar  1 <1>  -0.1500 
 16 C        4.6970     5.4790    -0.7340 C.ar  1 <1>  -0.1500 
 17 C        0.5600     8.1150    -1.1540 C.3   1 <1>   0.0400 
 18 C        5.4370     5.9350     0.3530 C.ar  1 <1>   0.0820 
 19 O        6.6420     6.5490     0.2440 O.3   1 <1>  -0.3630 
 20 C        7.2310     6.7880    -1.0150 C.3   1 <1>   0.0400 
 21 H       -1.2480     1.9520    -0.5840 H     1 <1>   0.3700 
 22 H        2.4640     2.3520    -0.1260 H     1 <1>   0.0800 
 23 H        2.2470     2.0250     1.5620 H     1 <1>   0.0800 
 24 H        1.3440     4.1180     2.0150 H     1 <1>   0.0800 
 25 H       -1.5450     4.1140    -2.2410 H     1 <1>   0.0800 
 26 H       -1.7370     5.4690    -1.1620 H     1 <1>   0.0800 
 27 H       -2.5600     3.9820    -0.8230 H     1 <1>   0.0800 
 28 H        3.3430     5.0370     2.8370 H     1 <1>   0.1500 
 29 H        2.9140     4.5180    -1.3820 H     1 <1>   0.1500 
 30 H        5.5070     6.1240     2.4690 H     1 <1>   0.1500 
 31 H        5.0540     5.5950    -1.7390 H     1 <1>   0.1500 
 32 H        0.4430     8.3870    -2.1870 H     1 <1>   0.0800 
 33 H        1.5340     8.4080    -0.8000 H     1 <1>   0.0800 
 34 H       -0.2060     8.5780    -0.5570 H     1 <1>   0.0800 
 35 H        8.1700     7.2850    -0.8540 H     1 <1>   0.0800 
 36 H        6.5770     7.4190    -1.5910 H     1 <1>   0.0800 
 37 H        7.3940     5.8470    -1.5080 H     1 <1>   0.0800 
@<TRIPOS>BOND
  1   1   2  2   
  2   2   3  am  
  3   2   4  1   
  4   3   5  1   
  5   3  21  1   
  6   4   6  1   
  7   4  22  1   
  8   4  23  1   
  9   5   7  2   
 10   5   8  1   
 11   6   7  1   
 12   6   9  1   
 13   6  24  1   
 14   7  10  1   
 15   8  25  1   
 16   8  26  1   
 17   8  27  1   
 18   9  11  ar  
 19   9  12  ar  
 20  10  13  2   
 21  10  14  1   
 22  11  15  ar  
 23  11  28  1   
 24  12  16  ar  
 25  12  29  1   
 26  14  17  1   
 27  15  18  ar  
 28  15  30  1   
 29  16  18  ar  
 30  16  31  1   
 31  17  32  1   
 32  17  33  1   
 33  17  34  1   
 34  18  19  1   
 35  19  20  1   
 36  20  35  1   
 37  20  36  1   
 38  20  37  1   
@<TRIPOS>SUBSTRUCTURE
  1 ****   9 GROUP 4 **** **** 0

# MOE 2024.06 (io_trps.svl 2023.06)
