@<TRIPOS>MOLECULE
ka-06983
32 32 1 0 0 
SMALL
USER_CHARGES


@<TRIPOS>ATOM
  1 O        0.0250     0.3480     0.1820 O.3   1 <1>  -0.3630 
  2 C       -1.1730     0.9810     0.2540 C.ar  1 <1>   0.0830 
  3 C        1.1670     0.8700     0.8230 C.3   1 <1>   0.0400 
  4 C       -1.3870     2.1630     0.9530 C.ar  1 <1>  -0.1500 
  5 C       -2.2310     0.3980    -0.4190 C.ar  1 <1>  -0.1500 
  6 C       -2.6460     2.7370     0.9730 C.ar  1 <1>  -0.1500 
  7 C       -3.4880     0.9760    -0.3970 C.ar  1 <1>  -0.1500 
  8 C       -3.7220     2.1550     0.3080 C.ar  1 <1>  -0.1430 
  9 C       -5.1070     2.8300     0.3550 C.3   1 <1>   0.4240 
 10 O       -5.2910     3.2950     1.6370 O.3   1 <1>  -0.6800 
 11 C       -6.2780     1.8660     0.0530 C.3   1 <1>  -0.1600 
 12 C       -5.1190     4.0550    -0.5580 C.3   1 <1>  -0.2400 
 13 C       -7.6980     2.4160     0.3050 C.3   1 <1>  -0.1600 
 14 C       -8.7600     1.3570    -0.0070 C.3   1 <1>  -0.2400 
 15 H        1.9910     0.2080     0.6260 H     1 <1>   0.0800 
 16 H        0.9810     0.9180     1.8810 H     1 <1>   0.0800 
 17 H        1.3770     1.8450     0.4220 H     1 <1>   0.0800 
 18 H       -0.5910     2.6490     1.4840 H     1 <1>   0.1500 
 19 H       -2.0620    -0.5140    -0.9640 H     1 <1>   0.1500 
 20 H       -2.7850     3.6570     1.5160 H     1 <1>   0.1500 
 21 H       -4.2720     0.4850    -0.9430 H     1 <1>   0.1500 
 22 H       -5.0820     2.5650     2.2470 H     1 <1>   0.4000 
 23 H       -6.1430     0.9770     0.6430 H     1 <1>   0.0800 
 24 H       -6.2180     1.5760    -0.9800 H     1 <1>   0.0800 
 25 H       -5.0280     3.7450    -1.5830 H     1 <1>   0.0800 
 26 H       -4.2890     4.6980    -0.3270 H     1 <1>   0.0800 
 27 H       -6.0290     4.6140    -0.4440 H     1 <1>   0.0800 
 28 H       -7.8760     3.2780    -0.3140 H     1 <1>   0.0800 
 29 H       -7.8000     2.7200     1.3330 H     1 <1>   0.0800 
 30 H       -8.7000     1.0540    -1.0370 H     1 <1>   0.0800 
 31 H       -9.7410     1.7580     0.1740 H     1 <1>   0.0800 
 32 H       -8.6240     0.4920     0.6190 H     1 <1>   0.0800 
@<TRIPOS>BOND
  1   1   2  1   
  2   1   3  1   
  3   2   4  ar  
  4   2   5  ar  
  5   3  15  1   
  6   3  16  1   
  7   3  17  1   
  8   4   6  ar  
  9   4  18  1   
 10   5   7  ar  
 11   5  19  1   
 12   6   8  ar  
 13   6  20  1   
 14   7   8  ar  
 15   7  21  1   
 16   8   9  1   
 17   9  10  1   
 18   9  11  1   
 19   9  12  1   
 20  10  22  1   
 21  11  13  1   
 22  11  23  1   
 23  11  24  1   
 24  12  25  1   
 25  12  26  1   
 26  12  27  1   
 27  13  14  1   
 28  13  28  1   
 29  13  29  1   
 30  14  30  1   
 31  14  31  1   
 32  14  32  1   
@<TRIPOS>SUBSTRUCTURE
  1 ****   8 GROUP 4 **** **** 0

# MOE 2024.06 (io_trps.svl 2023.06)
