@<TRIPOS>MOLECULE
NONAME
52 54 1 0 0 
SMALL
USER_CHARGES


@<TRIPOS>ATOM
  1 CL       1.7510     1.1230     2.4770 Cl    1 <1>  -0.1770 
  2 C        2.6340     1.3270     0.9860 C.ar  1 <1>   0.1770 
  3 C        3.7040     0.4970     0.7230 C.ar  1 <1>  -0.1500 
  4 C        2.2480     2.3150     0.1000 C.ar  1 <1>  -0.1500 
  5 C        4.4230     0.6480    -0.4580 C.ar  1 <1>   0.1000 
  6 C        2.9570     2.4710    -1.0800 C.ar  1 <1>  -0.1500 
  7 N        5.5190    -0.1570    -0.7610 N.pl3 1 <1>  -0.8380 
  8 C        4.0320     1.6420    -1.3510 C.ar  1 <1>  -0.1500 
  9 C        6.8760     0.4700    -0.7890 C.3   1 <1>   0.2090 
 10 C        5.4820    -1.6310    -0.5080 C.3   1 <1>   0.2090 
 11 C        7.7120     0.0530     0.4390 C.3   1 <1>   0.3430 
 12 C        6.3540    -2.0250     0.7050 C.3   1 <1>   0.3430 
 13 N        7.7380    -1.4420     0.6360 N.4   1 <1>  -0.9590 
 14 C        8.5940    -1.8500     1.7770 C.3   1 <1>   0.4860 
 15 C       10.0240    -1.4410     1.4740 C.ar  1 <1>  -0.1430 
 16 C       10.6820    -1.9580     0.3580 C.ar  1 <1>   0.0830 
 17 C       10.6650    -0.5470     2.3180 C.ar  1 <1>  -0.1500 
 18 O        9.9480    -2.8350    -0.3990 O.3   1 <1>  -0.3630 
 19 C       11.9990    -1.5530     0.0810 C.ar  1 <1>   0.0830 
 20 C       11.9570    -0.1440     2.0430 C.ar  1 <1>  -0.1500 
 21 C       10.5520    -3.8530    -1.1720 C.3   1 <1>   0.0400 
 22 O       12.6600    -2.0320    -1.0110 O.3   1 <1>  -0.3630 
 23 C       12.6160    -0.6220     0.9260 C.ar  1 <1>   0.0830 
 24 C       13.8470    -2.7660    -0.7800 C.3   1 <1>   0.0400 
 25 O       13.8630    -0.1420     0.7050 O.3   1 <1>  -0.3630 
 26 C       14.0050     0.7640    -0.3680 C.3   1 <1>   0.0400 
 27 H        3.9680    -0.2510     1.4400 H     1 <1>   0.1500 
 28 H        1.4090     2.9480     0.3300 H     1 <1>   0.1500 
 29 H        2.6690     3.2320    -1.7850 H     1 <1>   0.1500 
 30 H        4.5750     1.7570    -2.2720 H     1 <1>   0.1500 
 31 H        6.7810     1.5430    -0.8020 H     1 <1>   0.0800 
 32 H        7.3840     0.1760    -1.6910 H     1 <1>   0.0800 
 33 H        5.8360    -2.1430    -1.3860 H     1 <1>   0.0800 
 34 H        4.4660    -1.9460    -0.3410 H     1 <1>   0.0800 
 35 H        7.2870     0.5240     1.3090 H     1 <1>   0.0800 
 36 H        8.7160     0.4250     0.3180 H     1 <1>   0.0800 
 37 H        6.4110    -3.1000     0.7590 H     1 <1>   0.0800 
 38 H        5.8630    -1.6750     1.5970 H     1 <1>   0.0800 
 39 H        8.2240    -1.8430    -0.1860 H     1 <1>   0.4500 
 40 H        8.5580    -2.9210     1.9000 H     1 <1>   0.0800 
 41 H        8.2550    -1.3850     2.6870 H     1 <1>   0.0800 
 42 H       10.1750    -0.1540     3.1930 H     1 <1>   0.1500 
 43 H       12.4640     0.5510     2.6910 H     1 <1>   0.1500 
 44 H       10.9510    -3.4210    -2.0730 H     1 <1>   0.0800 
 45 H        9.8020    -4.5800    -1.4250 H     1 <1>   0.0800 
 46 H       11.3320    -4.3200    -0.5960 H     1 <1>   0.0800 
 47 H       14.0830    -3.3140    -1.6740 H     1 <1>   0.0800 
 48 H       13.6890    -3.4460     0.0390 H     1 <1>   0.0800 
 49 H       14.6500    -2.0890    -0.5520 H     1 <1>   0.0800 
 50 H       15.0320     1.0790    -0.4070 H     1 <1>   0.0800 
 51 H       13.3670     1.6110    -0.1940 H     1 <1>   0.0800 
 52 H       13.7370     0.2730    -1.2860 H     1 <1>   0.0800 
@<TRIPOS>BOND
  1   1   2  1   
  2   2   3  ar  
  3   2   4  ar  
  4   3   5  ar  
  5   3  27  1   
  6   4   6  ar  
  7   4  28  1   
  8   5   7  1   
  9   5   8  ar  
 10   6   8  ar  
 11   6  29  1   
 12   7   9  1   
 13   7  10  1   
 14   8  30  1   
 15   9  11  1   
 16   9  31  1   
 17   9  32  1   
 18  10  12  1   
 19  10  33  1   
 20  10  34  1   
 21  11  13  1   
 22  11  35  1   
 23  11  36  1   
 24  12  13  1   
 25  12  37  1   
 26  12  38  1   
 27  13  14  1   
 28  13  39  1   
 29  14  15  1   
 30  14  40  1   
 31  14  41  1   
 32  15  16  ar  
 33  15  17  ar  
 34  16  18  1   
 35  16  19  ar  
 36  17  20  ar  
 37  17  42  1   
 38  18  21  1   
 39  19  22  1   
 40  19  23  ar  
 41  20  23  ar  
 42  20  43  1   
 43  21  44  1   
 44  21  45  1   
 45  21  46  1   
 46  22  24  1   
 47  23  25  1   
 48  24  47  1   
 49  24  48  1   
 50  24  49  1   
 51  25  26  1   
 52  26  50  1   
 53  26  51  1   
 54  26  52  1   
@<TRIPOS>SUBSTRUCTURE
  1 ****  11 GROUP 4 **** **** 0

# MOE 2024.06 (io_trps.svl 2023.06)
