@<TRIPOS>MOLECULE
NONAME
47 50 1 0 0 
SMALL
USER_CHARGES


@<TRIPOS>ATOM
  1 O        0.8470    -0.2990    -1.3520 O.2   1 <1>  -0.5700 
  2 C        1.2390    -0.9400    -0.4020 C.2   1 <1>   0.4950 
  3 C        2.4640    -0.7180     0.2880 C.2   1 <1>  -0.1240 
  4 C        0.4000    -2.1350     0.0000 C.3   1 <1>  -0.0990 
  5 C        3.0980    -1.7310     0.9580 C.2   1 <1>  -0.0380 
  6 C        2.9940     0.7160     0.1560 C.3   1 <1>   0.6070 
  7 C        1.2790    -3.3850     0.1590 C.3   1 <1>   0.0000 
  8 N        4.3690    -1.7270     1.4940 N.pl3 1 <1>  -0.6000 
  9 C        2.4060    -3.0800     1.1670 C.3   1 <1>  -0.0220 
 10 N        3.9410     1.0820     1.2120 N.pl3 1 <1>  -0.8690 
 11 C        1.9270     1.7950     0.3260 C.2   1 <1>  -0.3320 
 12 C        0.4210    -4.5530     0.6730 C.3   1 <1>  -0.2400 
 13 C        1.8820    -3.7900    -1.2000 C.3   1 <1>  -0.2400 
 14 C        5.4280    -0.8260     1.2750 C.ar  1 <1>   0.1000 
 15 C        5.2190     0.5520     1.1360 C.ar  1 <1>   0.1000 
 16 N        1.5250     2.6370    -0.6710 N.pl3 1 <1>   0.0480 
 17 C        1.2360     2.0920     1.4610 C.2   1 <1>  -0.1500 
 18 C        6.7230    -1.3190     1.2160 C.ar  1 <1>  -0.1500 
 19 C        6.3030     1.3960     0.9500 C.ar  1 <1>  -0.1500 
 20 C        0.5800     3.4610    -0.1450 C.2   1 <1>  -0.3020 
 21 C        1.9800     2.6680    -2.0730 C.3   1 <1>   0.0160 
 22 C        0.3790     3.1530     1.1620 C.2   1 <1>  -0.1500 
 23 C        7.8010    -0.4700     1.0220 C.ar  1 <1>  -0.1500 
 24 C        7.5900     0.8900     0.8900 C.ar  1 <1>  -0.1500 
 25 H       -0.3590    -2.3060    -0.7420 H     1 <1>   0.0800 
 26 H       -0.0900    -1.9000     0.9270 H     1 <1>   0.0800 
 27 H        3.4800     0.8160    -0.7990 H     1 <1>   0.0800 
 28 H        4.6440    -2.5470     2.0380 H     1 <1>   0.4000 
 29 H        2.0040    -3.0790     2.1650 H     1 <1>   0.0800 
 30 H        3.1320    -3.8740     1.1170 H     1 <1>   0.0800 
 31 H        3.8800     2.0940     1.3330 H     1 <1>   0.4000 
 32 H       -0.0320    -4.3070     1.6170 H     1 <1>   0.0800 
 33 H        1.0230    -5.4350     0.8050 H     1 <1>   0.0800 
 34 H       -0.3640    -4.7810    -0.0270 H     1 <1>   0.0800 
 35 H        2.5340    -3.0250    -1.5820 H     1 <1>   0.0800 
 36 H        1.1030    -3.9590    -1.9230 H     1 <1>   0.0800 
 37 H        2.4550    -4.6950    -1.1050 H     1 <1>   0.0800 
 38 H        1.3230     1.6120     2.4220 H     1 <1>   0.1500 
 39 H        6.8940    -2.3740     1.3180 H     1 <1>   0.1500 
 40 H        6.1400     2.4530     0.8550 H     1 <1>   0.1500 
 41 H        0.0940     4.2230    -0.7260 H     1 <1>   0.1500 
 42 H        1.7180     1.7430    -2.5530 H     1 <1>   0.0800 
 43 H        3.0450     2.8030    -2.1010 H     1 <1>   0.0800 
 44 H        1.5030     3.4800    -2.5880 H     1 <1>   0.0800 
 45 H       -0.3020     3.6150     1.8560 H     1 <1>   0.1500 
 46 H        8.7990    -0.8680     0.9760 H     1 <1>   0.1500 
 47 H        8.4240     1.5540     0.7430 H     1 <1>   0.1500 
@<TRIPOS>BOND
  1   1   2  2   
  2   2   3  1   
  3   2   4  1   
  4   3   5  2   
  5   3   6  1   
  6   4   7  1   
  7   4  25  1   
  8   4  26  1   
  9   5   8  1   
 10   5   9  1   
 11   6  10  1   
 12   6  11  1   
 13   6  27  1   
 14   7   9  1   
 15   7  12  1   
 16   7  13  1   
 17   8  14  1   
 18   8  28  1   
 19   9  29  1   
 20   9  30  1   
 21  10  15  1   
 22  10  31  1   
 23  11  16  1   
 24  11  17  2   
 25  12  32  1   
 26  12  33  1   
 27  12  34  1   
 28  13  35  1   
 29  13  36  1   
 30  13  37  1   
 31  14  15  ar  
 32  14  18  ar  
 33  15  19  ar  
 34  16  20  1   
 35  16  21  1   
 36  17  22  1   
 37  17  38  1   
 38  18  23  ar  
 39  18  39  1   
 40  19  24  ar  
 41  19  40  1   
 42  20  22  2   
 43  20  41  1   
 44  21  42  1   
 45  21  43  1   
 46  21  44  1   
 47  22  45  1   
 48  23  24  ar  
 49  23  46  1   
 50  24  47  1   
@<TRIPOS>SUBSTRUCTURE
  1 ****   3 GROUP 4 **** **** 0

# MOE 2024.06 (io_trps.svl 2023.06)
