@<TRIPOS>MOLECULE
NONAME
44 45 1 0 0 
SMALL
USER_CHARGES


@<TRIPOS>ATOM
  1 F       -0.3700    -1.6650     0.7520 F     1 <1>  -0.1900 
  2 C       -1.4770    -1.7390     0.0500 C.ar  1 <1>   0.1900 
  3 C       -1.5890    -2.7140    -0.9450 C.ar  1 <1>   0.1000 
  4 C       -2.4800    -0.8420     0.3340 C.ar  1 <1>  -0.1500 
  5 N       -0.5970    -3.6430    -1.2580 N.pl3 1 <1>  -0.8380 
  6 C       -2.7780    -2.7300    -1.6620 C.ar  1 <1>  -0.1500 
  7 C       -3.6820    -0.8790    -0.3750 C.ar  1 <1>   0.0860 
  8 C        0.5840    -3.1660    -2.0400 C.3   1 <1>   0.2090 
  9 C       -0.3460    -4.7620    -0.3000 C.3   1 <1>   0.2090 
 10 C       -3.8030    -1.8350    -1.4010 C.ar  1 <1>  -0.1430 
 11 C       -4.7180     0.0560    -0.0220 C.2   1 <1>   0.4230 
 12 C        1.8290    -2.9720    -1.1470 C.3   1 <1>   0.3430 
 13 C        0.9290    -4.5340     0.5430 C.3   1 <1>   0.3430 
 14 C       -5.0510    -1.9030    -2.2750 C.3   1 <1>  -0.0970 
 15 O       -4.5750     1.2500    -0.1040 O.2   1 <1>  -0.5700 
 16 C       -6.0390    -0.4660     0.5280 C.3   1 <1>  -0.0990 
 17 N        2.1350    -4.1800    -0.2960 N.4   1 <1>  -0.9590 
 18 C       -6.2030    -0.1560     2.0230 C.3   1 <1>  -0.2400 
 19 C        3.3440    -3.9400     0.5320 C.3   1 <1>   0.3430 
 20 C        3.8530    -5.2620     1.0950 C.3   1 <1>  -0.2400 
 21 H       -2.3440    -0.1050     1.1050 H     1 <1>   0.1500 
 22 H       -2.8820    -3.4630    -2.4420 H     1 <1>   0.1500 
 23 H        0.3420    -2.2310    -2.5180 H     1 <1>   0.0800 
 24 H        0.8010    -3.8790    -2.8170 H     1 <1>   0.0800 
 25 H       -0.2550    -5.6810    -0.8520 H     1 <1>   0.0800 
 26 H       -1.1920    -4.8650     0.3600 H     1 <1>   0.0800 
 27 H        1.6520    -2.1210    -0.5100 H     1 <1>   0.0800 
 28 H        2.6730    -2.7410    -1.7740 H     1 <1>   0.0800 
 29 H        1.1260    -5.4250     1.1150 H     1 <1>   0.0800 
 30 H        0.7310    -3.7370     1.2400 H     1 <1>   0.0800 
 31 H       -4.8290    -2.3770    -3.2150 H     1 <1>   0.0800 
 32 H       -5.4220    -0.9160    -2.4890 H     1 <1>   0.0800 
 33 H       -5.8210    -2.4720    -1.7860 H     1 <1>   0.0800 
 34 H       -6.1000    -1.5290     0.3870 H     1 <1>   0.0800 
 35 H       -6.8410    -0.0070    -0.0220 H     1 <1>   0.0800 
 36 H        2.3230    -4.9690    -0.9280 H     1 <1>   0.4500 
 37 H       -5.4130    -0.6160     2.5900 H     1 <1>   0.0800 
 38 H       -7.1470    -0.5280     2.3790 H     1 <1>   0.0800 
 39 H       -6.1690     0.9080     2.1850 H     1 <1>   0.0800 
 40 H        3.1180    -3.2550     1.3340 H     1 <1>   0.0800 
 41 H        4.1190    -3.5010    -0.0770 H     1 <1>   0.0800 
 42 H        3.1520    -5.6930     1.7870 H     1 <1>   0.0800 
 43 H        4.7690    -5.0840     1.6310 H     1 <1>   0.0800 
 44 H        4.0630    -5.9610     0.3060 H     1 <1>   0.0800 
@<TRIPOS>BOND
  1   1   2  1   
  2   2   3  ar  
  3   2   4  ar  
  4   3   5  1   
  5   3   6  ar  
  6   4   7  ar  
  7   4  21  1   
  8   5   8  1   
  9   5   9  1   
 10   6  10  ar  
 11   6  22  1   
 12   7  10  ar  
 13   7  11  1   
 14   8  12  1   
 15   8  23  1   
 16   8  24  1   
 17   9  13  1   
 18   9  25  1   
 19   9  26  1   
 20  10  14  1   
 21  11  15  2   
 22  11  16  1   
 23  12  17  1   
 24  12  27  1   
 25  12  28  1   
 26  13  17  1   
 27  13  29  1   
 28  13  30  1   
 29  14  31  1   
 30  14  32  1   
 31  14  33  1   
 32  16  18  1   
 33  16  34  1   
 34  16  35  1   
 35  17  19  1   
 36  17  36  1   
 37  18  37  1   
 38  18  38  1   
 39  18  39  1   
 40  19  20  1   
 41  19  40  1   
 42  19  41  1   
 43  20  42  1   
 44  20  43  1   
 45  20  44  1   
@<TRIPOS>SUBSTRUCTURE
  1 ****   2 GROUP 4 **** **** 0

# MOE 2024.06 (io_trps.svl 2023.06)
