@<TRIPOS>MOLECULE
NONAME
44 47 1 0 0 
SMALL
USER_CHARGES


@<TRIPOS>ATOM
  1 O       -0.3800    -0.3810    -0.0530 O.2   1 <1>  -0.5700 
  2 C        0.5900    -1.0950    -0.1100 C.2   1 <1>   0.5690 
  3 N        0.5730    -2.4500     0.0000 N.am  1 <1>  -0.4200 
  4 C        2.0000    -0.5880    -0.3390 C.3   1 <1>  -0.0190 
  5 C        1.8170    -2.9800    -0.1410 C.2   1 <1>   0.5690 
  6 C       -0.6510    -3.2380     0.2680 C.3   1 <1>   0.1400 
  7 C        2.8470    -1.8900    -0.3650 C.3   1 <1>  -0.0190 
  8 C        2.4100     0.4760     0.6970 C.3   1 <1>  -0.0220 
  9 O        2.0860    -4.1530    -0.1050 O.2   1 <1>  -0.5700 
 10 C       -1.4920    -3.3590    -1.0030 C.3   1 <1>  -0.0990 
 11 C        4.0090    -1.9740     0.6430 C.3   1 <1>  -0.0220 
 12 C        3.9140     0.5030     0.8800 C.2   1 <1>  -0.2880 
 13 C       -2.9040    -3.7740    -0.6420 C.2   1 <1>   0.5690 
 14 C        4.6430    -0.6130     0.8550 C.2   1 <1>  -0.2880 
 15 O       -3.1310    -4.9580    -0.6580 O.2   1 <1>  -0.5700 
 16 N       -3.8440    -2.8200    -0.2980 N.am  1 <1>  -0.4770 
 17 C       -5.1860    -3.0110     0.0660 C.ar  1 <1>   0.1170 
 18 C       -3.5460    -1.3560    -0.2330 C.3   1 <1>   0.1400 
 19 C       -5.8070    -1.8170     0.3620 C.ar  1 <1>  -0.1440 
 20 C       -5.9160    -4.1910     0.1570 C.ar  1 <1>  -0.1500 
 21 C       -4.8480    -0.6670     0.2000 C.3   1 <1>  -0.0170 
 22 C       -7.1330    -1.7600     0.7480 C.ar  1 <1>  -0.1500 
 23 C       -7.2460    -4.1510     0.5430 C.ar  1 <1>  -0.1500 
 24 C       -7.8540    -2.9400     0.8380 C.ar  1 <1>  -0.1500 
 25 H        2.0400    -0.1390    -1.3150 H     1 <1>   0.0800 
 26 H       -1.2130    -2.7430     1.0410 H     1 <1>   0.0800 
 27 H       -0.3890    -4.2210     0.6260 H     1 <1>   0.0800 
 28 H        3.2510    -2.0120    -1.3540 H     1 <1>   0.0800 
 29 H        1.9560     0.2700     1.6520 H     1 <1>   0.0800 
 30 H        2.0600     1.4400     0.3680 H     1 <1>   0.0800 
 31 H       -1.0620    -4.1110    -1.6390 H     1 <1>   0.0800 
 32 H       -1.5120    -2.4370    -1.5500 H     1 <1>   0.0800 
 33 H        4.7420    -2.6710     0.2750 H     1 <1>   0.0800 
 34 H        3.6590    -2.3380     1.5940 H     1 <1>   0.0800 
 35 H        4.3250     1.4850     1.0520 H     1 <1>   0.1500 
 36 H        5.7100    -0.6380     1.0050 H     1 <1>   0.1500 
 37 H       -3.2390    -0.9960    -1.2000 H     1 <1>   0.0800 
 38 H       -2.7730    -1.1670     0.4900 H     1 <1>   0.0800 
 39 H       -5.4560    -5.1350    -0.0700 H     1 <1>   0.1500 
 40 H       -5.1900     0.0150    -0.5570 H     1 <1>   0.0800 
 41 H       -4.7120    -0.1430     1.1280 H     1 <1>   0.0800 
 42 H       -7.5980    -0.8180     0.9750 H     1 <1>   0.1500 
 43 H       -7.8080    -5.0650     0.6120 H     1 <1>   0.1500 
 44 H       -8.8880    -2.9170     1.1370 H     1 <1>   0.1500 
@<TRIPOS>BOND
  1   1   2  2   
  2   2   3  am  
  3   2   4  1   
  4   3   5  am  
  5   3   6  1   
  6   4   7  1   
  7   4   8  1   
  8   4  25  1   
  9   5   7  1   
 10   5   9  2   
 11   6  10  1   
 12   6  26  1   
 13   6  27  1   
 14   7  11  1   
 15   7  28  1   
 16   8  12  1   
 17   8  29  1   
 18   8  30  1   
 19  10  13  1   
 20  10  31  1   
 21  10  32  1   
 22  11  14  1   
 23  11  33  1   
 24  11  34  1   
 25  12  14  2   
 26  12  35  1   
 27  13  15  2   
 28  13  16  am  
 29  14  36  1   
 30  16  17  1   
 31  16  18  1   
 32  17  19  ar  
 33  17  20  ar  
 34  18  21  1   
 35  18  37  1   
 36  18  38  1   
 37  19  21  1   
 38  19  22  ar  
 39  20  23  ar  
 40  20  39  1   
 41  21  40  1   
 42  21  41  1   
 43  22  24  ar  
 44  22  42  1   
 45  23  24  ar  
 46  23  43  1   
 47  24  44  1   
@<TRIPOS>SUBSTRUCTURE
  1 ****   6 GROUP 4 **** **** 0

# MOE 2024.06 (io_trps.svl 2023.06)
