@<TRIPOS>MOLECULE
NONAME
45 46 1 0 0 
SMALL
USER_CHARGES


@<TRIPOS>ATOM
  1 BR       0.0980    -0.1350     0.7590 Br    1 <1>  -0.1110 
  2 C        1.7910    -0.9500     0.3590 C.ar  1 <1>   0.1110 
  3 C        2.5040    -1.5490     1.3800 C.ar  1 <1>  -0.1500 
  4 C        2.2560    -0.9200    -0.9420 C.ar  1 <1>  -0.1500 
  5 C        3.7230    -2.1310     1.0810 C.ar  1 <1>  -0.1500 
  6 C        3.4780    -1.5080    -1.2210 C.ar  1 <1>  -0.1500 
  7 C        4.2380    -2.1160    -0.2170 C.ar  1 <1>   0.0860 
  8 C        5.5210    -2.7240    -0.5090 C.2   1 <1>   0.5440 
  9 O        5.6640    -3.9140    -0.3000 O.2   1 <1>  -0.5700 
 10 N        6.5810    -1.9940    -1.0120 N.am  1 <1>  -0.6600 
 11 C        6.6170    -0.5040    -1.0430 C.3   1 <1>   0.1400 
 12 C        7.8540    -2.6520    -1.4240 C.3   1 <1>   0.1400 
 13 C        7.7610     0.0020    -0.1600 C.3   1 <1>  -0.1600 
 14 C        9.0010    -2.1590    -0.5380 C.3   1 <1>  -0.1600 
 15 C        9.1120    -0.6250    -0.5570 C.3   1 <1>  -0.0190 
 16 C       10.2590    -0.1490     0.3340 C.2   1 <1>   0.5690 
 17 O       10.0740    -0.0250     1.5200 O.2   1 <1>  -0.5700 
 18 N       11.4560     0.1070    -0.2620 N.am  1 <1>  -0.7300 
 19 C       12.7090     0.5570     0.3520 C.3   1 <1>   0.3000 
 20 C       13.1940    -0.4840     1.3610 C.3   1 <1>  -0.2400 
 21 C       13.7250     0.6840    -0.7810 C.3   1 <1>  -0.2400 
 22 C       12.5020     1.9210     1.0100 C.3   1 <1>  -0.2400 
 23 H        2.1100    -1.5610     2.3810 H     1 <1>   0.1500 
 24 H        1.6720    -0.4510    -1.7140 H     1 <1>   0.1500 
 25 H        4.2950    -2.6110     1.8570 H     1 <1>   0.1500 
 26 H        3.8570    -1.5040    -2.2280 H     1 <1>   0.1500 
 27 H        5.6930    -0.0850    -0.6880 H     1 <1>   0.0800 
 28 H        6.7650    -0.1790    -2.0580 H     1 <1>   0.0800 
 29 H        8.0530    -2.4110    -2.4540 H     1 <1>   0.0800 
 30 H        7.7750    -3.7230    -1.3470 H     1 <1>   0.0800 
 31 H        7.5360    -0.2380     0.8650 H     1 <1>   0.0800 
 32 H        7.8240     1.0730    -0.2350 H     1 <1>   0.0800 
 33 H        9.9230    -2.5960    -0.8770 H     1 <1>   0.0800 
 34 H        8.8310    -2.4990     0.4700 H     1 <1>   0.0800 
 35 H        9.3290    -0.3170    -1.5640 H     1 <1>   0.0800 
 36 H       11.5390    -0.0380    -1.2650 H     1 <1>   0.3700 
 37 H       12.5060    -0.5630     2.1830 H     1 <1>   0.0800 
 38 H       14.1500    -0.1980     1.7580 H     1 <1>   0.0800 
 39 H       13.2900    -1.4470     0.8930 H     1 <1>   0.0800 
 40 H       13.8770    -0.2650    -1.2630 H     1 <1>   0.0800 
 41 H       14.6710     1.0140    -0.3900 H     1 <1>   0.0800 
 42 H       13.3960     1.4060    -1.5070 H     1 <1>   0.0800 
 43 H       13.4350     2.2910     1.3950 H     1 <1>   0.0800 
 44 H       12.1200     2.6300     0.2990 H     1 <1>   0.0800 
 45 H       11.8140     1.8450     1.8320 H     1 <1>   0.0800 
@<TRIPOS>BOND
  1   1   2  1   
  2   2   3  ar  
  3   2   4  ar  
  4   3   5  ar  
  5   3  23  1   
  6   4   6  ar  
  7   4  24  1   
  8   5   7  ar  
  9   5  25  1   
 10   6   7  ar  
 11   6  26  1   
 12   7   8  1   
 13   8   9  2   
 14   8  10  am  
 15  10  11  1   
 16  10  12  1   
 17  11  13  1   
 18  11  27  1   
 19  11  28  1   
 20  12  14  1   
 21  12  29  1   
 22  12  30  1   
 23  13  15  1   
 24  13  31  1   
 25  13  32  1   
 26  14  15  1   
 27  14  33  1   
 28  14  34  1   
 29  15  16  1   
 30  15  35  1   
 31  16  17  2   
 32  16  18  am  
 33  18  19  1   
 34  18  36  1   
 35  19  20  1   
 36  19  21  1   
 37  19  22  1   
 38  20  37  1   
 39  20  38  1   
 40  20  39  1   
 41  21  40  1   
 42  21  41  1   
 43  21  42  1   
 44  22  43  1   
 45  22  44  1   
 46  22  45  1   
@<TRIPOS>SUBSTRUCTURE
  1 ****  13 GROUP 4 **** **** 0

# MOE 2024.06 (io_trps.svl 2023.06)
