@<TRIPOS>MOLECULE
NONAME
52 54 1 0 0 
SMALL
USER_CHARGES


@<TRIPOS>ATOM
  1 F       -5.5180    -2.4890     1.7270 F     1 <1>  -0.1900 
  2 C       -5.7820    -1.3210     1.2130 C.ar  1 <1>   0.1900 
  3 C       -5.4790    -0.1860     1.9370 C.ar  1 <1>  -0.1500 
  4 C       -6.3580    -1.2550    -0.0400 C.ar  1 <1>  -0.1500 
  5 C       -5.7620     1.0520     1.3850 C.ar  1 <1>  -0.1500 
  6 C       -6.6340    -0.0100    -0.5770 C.ar  1 <1>  -0.1500 
  7 C       -6.3410     1.1730     0.1140 C.ar  1 <1>   0.0860 
  8 C       -6.6350     2.4670    -0.4820 C.2   1 <1>   0.5440 
  9 O       -7.4050     2.5570    -1.4180 O.2   1 <1>  -0.5700 
 10 N       -6.0130     3.5940     0.0000 N.am  1 <1>  -0.5470 
 11 C       -6.1520     4.9660    -0.2560 C.ar  1 <1>   0.1170 
 12 C       -5.1070     5.8320     0.1100 C.ar  1 <1>   0.0860 
 13 C       -7.3030     5.4960    -0.8330 C.ar  1 <1>  -0.1500 
 14 C       -3.8780     5.3210     0.6870 C.2   1 <1>   0.5440 
 15 C       -5.2770     7.2040    -0.0920 C.ar  1 <1>  -0.1500 
 16 C       -7.4400     6.8540    -1.0410 C.ar  1 <1>  -0.1500 
 17 O       -3.9300     4.5110     1.5990 O.2   1 <1>  -0.5700 
 18 N       -2.6370     5.6970     0.2150 N.am  1 <1>  -0.6600 
 19 C       -6.4240     7.7140    -0.6650 C.ar  1 <1>  -0.1500 
 20 C       -2.3970     6.1730    -1.1750 C.3   1 <1>   0.1400 
 21 C       -1.4010     5.4820     1.0140 C.3   1 <1>   0.1400 
 22 C       -1.6160     7.4870    -1.1360 C.3   1 <1>  -0.1600 
 23 C       -0.6040     6.7880     1.0750 C.3   1 <1>  -0.1600 
 24 C       -0.3060     7.3470    -0.3300 C.3   1 <1>  -0.0190 
 25 C        0.4760     8.6570    -0.2410 C.2   1 <1>   0.6590 
 26 O       -0.0120     9.7270    -0.5030 O.2   1 <1>  -0.5700 
 27 O        1.7370     8.5380     0.1500 O.3   1 <1>  -0.4300 
 28 C        2.5730     9.6630     0.2880 C.3   1 <1>   0.1200 
 29 C        3.9400     9.1810     0.7640 C.3   1 <1>  -0.2400 
 30 H       -5.0320    -0.2740     2.9120 H     1 <1>   0.1500 
 31 H       -6.5850    -2.1580    -0.5770 H     1 <1>   0.1500 
 32 H       -5.5300     1.9310     1.9620 H     1 <1>   0.1500 
 33 H       -7.0850     0.0550    -1.5530 H     1 <1>   0.1500 
 34 H       -5.2570     3.4060     0.6720 H     1 <1>   0.3700 
 35 H       -8.1090     4.8440    -1.1190 H     1 <1>   0.1500 
 36 H       -4.4920     7.8750     0.2090 H     1 <1>   0.1500 
 37 H       -8.3380     7.2420    -1.4910 H     1 <1>   0.1500 
 38 H       -6.5320     8.7740    -0.8170 H     1 <1>   0.1500 
 39 H       -3.3240     6.3100    -1.7050 H     1 <1>   0.0800 
 40 H       -1.8270     5.4270    -1.7020 H     1 <1>   0.0800 
 41 H       -0.8130     4.7060     0.5520 H     1 <1>   0.0800 
 42 H       -1.6460     5.1660     2.0140 H     1 <1>   0.0800 
 43 H       -2.2350     8.2500    -0.6960 H     1 <1>   0.0800 
 44 H       -1.3890     7.7950    -2.1410 H     1 <1>   0.0800 
 45 H        0.3190     6.6090     1.5980 H     1 <1>   0.0800 
 46 H       -1.1660     7.5090     1.6420 H     1 <1>   0.0800 
 47 H        0.3240     6.6440    -0.8440 H     1 <1>   0.0800 
 48 H        2.1280    10.3330     1.0040 H     1 <1>   0.0800 
 49 H        2.6460    10.1530    -0.6690 H     1 <1>   0.0800 
 50 H        3.8480     8.6850     1.7130 H     1 <1>   0.0800 
 51 H        4.5990    10.0220     0.8790 H     1 <1>   0.0800 
 52 H        4.3680     8.5070     0.0430 H     1 <1>   0.0800 
@<TRIPOS>BOND
  1   1   2  1   
  2   2   3  ar  
  3   2   4  ar  
  4   3   5  ar  
  5   3  30  1   
  6   4   6  ar  
  7   4  31  1   
  8   5   7  ar  
  9   5  32  1   
 10   6   7  ar  
 11   6  33  1   
 12   7   8  1   
 13   8   9  2   
 14   8  10  am  
 15  10  11  1   
 16  10  34  1   
 17  11  12  ar  
 18  11  13  ar  
 19  12  14  1   
 20  12  15  ar  
 21  13  16  ar  
 22  13  35  1   
 23  14  17  2   
 24  14  18  am  
 25  15  19  ar  
 26  15  36  1   
 27  16  19  ar  
 28  16  37  1   
 29  18  20  1   
 30  18  21  1   
 31  19  38  1   
 32  20  22  1   
 33  20  39  1   
 34  20  40  1   
 35  21  23  1   
 36  21  41  1   
 37  21  42  1   
 38  22  24  1   
 39  22  43  1   
 40  22  44  1   
 41  23  24  1   
 42  23  45  1   
 43  23  46  1   
 44  24  25  1   
 45  24  47  1   
 46  25  26  2   
 47  25  27  1   
 48  27  28  1   
 49  28  29  1   
 50  28  48  1   
 51  28  49  1   
 52  29  50  1   
 53  29  51  1   
 54  29  52  1   
@<TRIPOS>SUBSTRUCTURE
  1 ****  14 GROUP 4 **** **** 0

# MOE 2024.06 (io_trps.svl 2023.06)
