@<TRIPOS>MOLECULE
NONAME
45 46 1 0 0 
SMALL
USER_CHARGES


@<TRIPOS>ATOM
  1 CL      -0.4280    -1.1810     0.3610 Cl    1 <1>  -0.1770 
  2 C        1.0440    -0.2770     0.0720 C.ar  1 <1>   0.1770 
  3 C        1.0220     1.1160     0.1110 C.ar  1 <1>   0.0820 
  4 C        2.1990    -0.9800    -0.1900 C.ar  1 <1>  -0.1500 
  5 O       -0.1580     1.7300     0.3790 O.3   1 <1>  -0.3630 
  6 C        2.2100     1.7930    -0.1270 C.ar  1 <1>  -0.1500 
  7 C        3.4060    -0.3140    -0.4270 C.ar  1 <1>   0.0280 
  8 C       -0.3400     3.1400     0.3840 C.3   1 <1>   0.2610 
  9 C        3.3740     1.0890    -0.3920 C.ar  1 <1>   0.0830 
 10 C        4.6620    -0.9620    -0.7020 C.2   1 <1>  -0.1670 
 11 C       -1.5570     3.5010     1.2420 C.2   1 <1>   0.6590 
 12 C       -0.4820     3.6180    -1.0700 C.3   1 <1>  -0.2400 
 13 O        4.4920     1.8030    -0.6220 O.3   1 <1>  -0.2320 
 14 C        5.7570    -0.1920    -0.9490 C.2   1 <1>  -0.1240 
 15 C        4.6810    -2.4940    -0.6800 C.3   1 <1>  -0.1020 
 16 O       -1.4570     4.2380     2.1920 O.2   1 <1>  -0.5700 
 17 O       -2.7260     2.9820     0.8790 O.3   1 <1>  -0.4300 
 18 C        5.6660     1.2440    -0.9110 C.2   1 <1>   0.7060 
 19 C        7.1450    -0.7650    -1.2610 C.3   1 <1>   0.0390 
 20 C       -3.9040     3.2340     1.6070 C.3   1 <1>   0.1200 
 21 O        6.5920     1.9940    -1.1420 O.2   1 <1>  -0.5700 
 22 C        7.8770    -1.1580     0.0050 C.2   1 <1>   0.6590 
 23 C       -5.0460     2.4850     0.9290 C.3   1 <1>  -0.2400 
 24 O        8.1690    -2.3040     0.2300 O.2   1 <1>  -0.5700 
 25 O        8.1680    -0.1750     0.8480 O.3   1 <1>  -0.4300 
 26 C        8.8450    -0.4120     2.0650 C.3   1 <1>   0.0400 
 27 H        2.1430    -2.0520    -0.2060 H     1 <1>   0.1500 
 28 H        2.2670     2.8640    -0.1150 H     1 <1>   0.1500 
 29 H        0.5150     3.5910     0.8520 H     1 <1>   0.0800 
 30 H       -1.3310     3.1460    -1.5310 H     1 <1>   0.0800 
 31 H        0.4010     3.3920    -1.6380 H     1 <1>   0.0800 
 32 H       -0.6330     4.6830    -1.0870 H     1 <1>   0.0800 
 33 H        4.0590    -2.8810    -1.4670 H     1 <1>   0.0800 
 34 H        4.3080    -2.8500     0.2650 H     1 <1>   0.0800 
 35 H        5.6620    -2.9100    -0.8010 H     1 <1>   0.0800 
 36 H        7.7530    -0.0590    -1.7950 H     1 <1>   0.0800 
 37 H        7.0610    -1.6250    -1.8970 H     1 <1>   0.0800 
 38 H       -4.0840     4.2960     1.6110 H     1 <1>   0.0800 
 39 H       -3.7600     2.8870     2.6170 H     1 <1>   0.0800 
 40 H       -5.1710     2.8330    -0.0800 H     1 <1>   0.0800 
 41 H       -5.9610     2.6540     1.4670 H     1 <1>   0.0800 
 42 H       -4.8430     1.4290     0.9230 H     1 <1>   0.0800 
 43 H        8.9720     0.5280     2.5710 H     1 <1>   0.0800 
 44 H        9.8040    -0.8510     1.8500 H     1 <1>   0.0800 
 45 H        8.2550    -1.0820     2.6660 H     1 <1>   0.0800 
@<TRIPOS>BOND
  1   1   2  1   
  2   2   3  ar  
  3   2   4  ar  
  4   3   5  1   
  5   3   6  ar  
  6   4   7  ar  
  7   4  27  1   
  8   5   8  1   
  9   6   9  ar  
 10   6  28  1   
 11   7   9  ar  
 12   7  10  1   
 13   8  11  1   
 14   8  12  1   
 15   8  29  1   
 16   9  13  1   
 17  10  14  2   
 18  10  15  1   
 19  11  16  2   
 20  11  17  1   
 21  12  30  1   
 22  12  31  1   
 23  12  32  1   
 24  13  18  1   
 25  14  18  1   
 26  14  19  1   
 27  15  33  1   
 28  15  34  1   
 29  15  35  1   
 30  17  20  1   
 31  18  21  2   
 32  19  22  1   
 33  19  36  1   
 34  19  37  1   
 35  20  23  1   
 36  20  38  1   
 37  20  39  1   
 38  22  24  2   
 39  22  25  1   
 40  23  40  1   
 41  23  41  1   
 42  23  42  1   
 43  25  26  1   
 44  26  43  1   
 45  26  44  1   
 46  26  45  1   
@<TRIPOS>SUBSTRUCTURE
  1 ****   9 GROUP 4 **** **** 0

# MOE 2024.06 (io_trps.svl 2023.06)
