@<TRIPOS>MOLECULE
NONAME
27 28 1 0 0 
SMALL
USER_CHARGES


@<TRIPOS>ATOM
  1 BR       0.4960     2.2300     0.2140 Br    1 <1>  -0.0580 
  2 C        2.1160     1.2260    -0.0200 C.2   1 <1>   0.0980 
  3 S        2.5920     0.2150     1.3220 S.3   1 <1>  -0.0800 
  4 C        2.9680     1.1610    -1.0550 C.2   1 <1>  -0.1500 
  5 C        4.0250    -0.3200     0.4340 C.2   1 <1>  -0.0220 
  6 C        4.0560     0.2690    -0.7860 C.2   1 <1>  -0.1500 
  7 S        5.1210    -1.5150     1.2340 S.o2  1 <1>   1.5000 
  8 O        5.1840    -1.2970     2.6590 O.2   1 <1>  -0.6500 
  9 O        4.8790    -2.8390     0.7090 O.2   1 <1>  -0.6500 
 10 N        6.6340    -1.0160     0.7170 N.am  1 <1>  -0.9140 
 11 C        7.6080    -2.0870     0.6520 C.3   1 <1>   0.2760 
 12 C        8.9970    -1.4890     0.8450 C.3   1 <1>  -0.1600 
 13 C        7.6720    -2.6350    -0.7700 C.3   1 <1>  -0.1600 
 14 C        9.4010    -0.9150    -0.5170 C.3   1 <1>  -0.1600 
 15 C        8.5620    -1.6660    -1.5580 C.3   1 <1>  -0.1600 
 16 H        2.8770     1.6940    -1.9850 H     1 <1>   0.1500 
 17 H        4.8260     0.1020    -1.5220 H     1 <1>   0.1500 
 18 H        6.9320    -0.4120     1.4780 H     1 <1>   0.4200 
 19 H        7.4040    -2.8520     1.3870 H     1 <1>   0.0800 
 20 H        9.6750    -2.2870     1.0950 H     1 <1>   0.0800 
 21 H        9.0320    -0.7560     1.6310 H     1 <1>   0.0800 
 22 H        6.7000    -2.7520    -1.2160 H     1 <1>   0.0800 
 23 H        8.1480    -3.5990    -0.7400 H     1 <1>   0.0800 
 24 H       10.4550    -1.0380    -0.6940 H     1 <1>   0.0800 
 25 H        9.1600     0.1340    -0.5560 H     1 <1>   0.0800 
 26 H        7.9460    -0.9650    -2.0960 H     1 <1>   0.0800 
 27 H        9.1820    -2.1970    -2.2600 H     1 <1>   0.0800 
@<TRIPOS>BOND
  1   1   2  1   
  2   2   3  1   
  3   2   4  2   
  4   3   5  1   
  5   4   6  1   
  6   4  16  1   
  7   5   6  2   
  8   5   7  1   
  9   6  17  1   
 10   7   8  2   
 11   7   9  2   
 12   7  10  am  
 13  10  11  1   
 14  10  18  1   
 15  11  12  1   
 16  11  13  1   
 17  11  19  1   
 18  12  14  1   
 19  12  20  1   
 20  12  21  1   
 21  13  15  1   
 22  13  22  1   
 23  13  23  1   
 24  14  15  1   
 25  14  24  1   
 26  14  25  1   
 27  15  26  1   
 28  15  27  1   
@<TRIPOS>SUBSTRUCTURE
  1 ****   7 GROUP 4 **** **** 0

# MOE 2024.06 (io_trps.svl 2023.06)
