@<TRIPOS>MOLECULE
NONAME
47 49 1 0 0 
SMALL
USER_CHARGES


@<TRIPOS>ATOM
  1 S       -2.6570    -2.0140    -0.5850 S.3   1 <1>  -0.4600 
  2 C       -3.0020    -0.9320     0.8200 C.3   1 <1>   0.5940 
  3 C       -4.3550    -2.1940    -1.1760 C.3   1 <1>   0.1310 
  4 N       -4.4750    -0.7850     0.8150 N.am  1 <1>  -0.6600 
  5 C       -2.3600     0.4410     0.6310 C.ar  1 <1>  -0.1440 
  6 C       -5.1480    -1.3020    -0.2470 C.2   1 <1>   0.5690 
  7 C       -5.1240    -0.0490     1.9460 C.3   1 <1>   0.1400 
  8 C       -2.3370     1.0790    -0.6050 C.ar  1 <1>  -0.1500 
  9 C       -1.8230     1.0940     1.7330 C.ar  1 <1>  -0.1500 
 10 O       -6.2960    -1.0070    -0.4760 O.2   1 <1>  -0.5700 
 11 C       -5.2790     1.4570     1.6540 C.3   1 <1>   0.3430 
 12 C       -1.8030     2.3490    -0.7360 C.ar  1 <1>  -0.1500 
 13 C       -1.2990     2.3670     1.6060 C.ar  1 <1>  -0.1500 
 14 N       -6.0690     1.6830     0.4100 N.4   1 <1>  -0.9590 
 15 C       -1.2900     3.0040     0.3770 C.ar  1 <1>   0.0830 
 16 C       -5.4780     2.7640    -0.4230 C.3   1 <1>   0.3430 
 17 C       -7.5200     1.8840     0.6720 C.3   1 <1>   0.3430 
 18 O       -0.7680     4.2530     0.3380 O.3   1 <1>  -0.3630 
 19 C       -6.1950     2.8160    -1.7730 C.3   1 <1>  -0.1600 
 20 C       -8.2760     1.9320    -0.6580 C.3   1 <1>  -0.1600 
 21 C       -0.3860     4.8470    -0.8830 C.3   1 <1>   0.0400 
 22 C       -7.7090     3.0010    -1.6020 C.3   1 <1>  -0.1600 
 23 H       -2.6530    -1.4330     1.7070 H     1 <1>   0.0800 
 24 H       -4.6410    -3.2250    -1.0820 H     1 <1>   0.0800 
 25 H       -4.4000    -1.8610    -2.1960 H     1 <1>   0.0800 
 26 H       -4.5390    -0.1790     2.8400 H     1 <1>   0.0800 
 27 H       -6.0960    -0.4740     2.1330 H     1 <1>   0.0800 
 28 H       -2.7310     0.5920    -1.4810 H     1 <1>   0.1500 
 29 H       -1.8060     0.6200     2.7000 H     1 <1>   0.1500 
 30 H       -4.2960     1.8840     1.5420 H     1 <1>   0.0800 
 31 H       -5.7550     1.9460     2.4870 H     1 <1>   0.0800 
 32 H       -1.7920     2.8130    -1.7050 H     1 <1>   0.1500 
 33 H       -0.8830     2.8770     2.4580 H     1 <1>   0.1500 
 34 H       -6.0140     0.7980    -0.1340 H     1 <1>   0.4500 
 35 H       -4.4280     2.5760    -0.5800 H     1 <1>   0.0800 
 36 H       -5.5820     3.7120     0.0790 H     1 <1>   0.0800 
 37 H       -7.6720     2.8070     1.2070 H     1 <1>   0.0800 
 38 H       -7.9040     1.0710     1.2670 H     1 <1>   0.0800 
 39 H       -5.9960     1.9070    -2.3150 H     1 <1>   0.0800 
 40 H       -5.7980     3.6310    -2.3520 H     1 <1>   0.0800 
 41 H       -9.3140     2.1380    -0.4670 H     1 <1>   0.0800 
 42 H       -8.2230     0.9640    -1.1280 H     1 <1>   0.0800 
 43 H        0.1220     5.7690    -0.6610 H     1 <1>   0.0800 
 44 H       -1.2660     5.0490    -1.4670 H     1 <1>   0.0800 
 45 H        0.2800     4.1810    -1.4030 H     1 <1>   0.0800 
 46 H       -8.1950     2.9360    -2.5610 H     1 <1>   0.0800 
 47 H       -7.9090     3.9800    -1.1990 H     1 <1>   0.0800 
@<TRIPOS>BOND
  1   1   2  1   
  2   1   3  1   
  3   2   4  1   
  4   2   5  1   
  5   2  23  1   
  6   3   6  1   
  7   3  24  1   
  8   3  25  1   
  9   4   6  am  
 10   4   7  1   
 11   5   8  ar  
 12   5   9  ar  
 13   6  10  2   
 14   7  11  1   
 15   7  26  1   
 16   7  27  1   
 17   8  12  ar  
 18   8  28  1   
 19   9  13  ar  
 20   9  29  1   
 21  11  14  1   
 22  11  30  1   
 23  11  31  1   
 24  12  15  ar  
 25  12  32  1   
 26  13  15  ar  
 27  13  33  1   
 28  14  16  1   
 29  14  17  1   
 30  14  34  1   
 31  15  18  1   
 32  16  19  1   
 33  16  35  1   
 34  16  36  1   
 35  17  20  1   
 36  17  37  1   
 37  17  38  1   
 38  18  21  1   
 39  19  22  1   
 40  19  39  1   
 41  19  40  1   
 42  20  22  1   
 43  20  41  1   
 44  20  42  1   
 45  21  43  1   
 46  21  44  1   
 47  21  45  1   
 48  22  46  1   
 49  22  47  1   
@<TRIPOS>SUBSTRUCTURE
  1 ****   8 GROUP 4 **** **** 0

# MOE 2024.06 (io_trps.svl 2023.06)
