@<TRIPOS>MOLECULE
NONAME
46 48 1 0 0 
SMALL
USER_CHARGES


@<TRIPOS>ATOM
  1 O       -1.0320     0.1630     1.6740 O.3   1 <1>  -0.6800 
  2 C       -1.1720    -0.4370     0.4400 C.3   1 <1>   0.4240 
  3 C        0.0150    -1.4040     0.3010 C.ar  1 <1>  -0.1440 
  4 C       -2.5130    -1.1930     0.4730 C.3   1 <1>  -0.0800 
  5 C       -1.1830     0.7300    -0.5610 C.3   1 <1>  -0.1600 
  6 C        0.8060    -1.4640    -0.8440 C.ar  1 <1>  -0.1500 
  7 C        0.3120    -2.2750     1.3470 C.ar  1 <1>  -0.1500 
  8 C       -2.7330    -2.1600    -0.7110 C.3   1 <1>   0.3430 
  9 C       -3.6690    -0.2080     0.6550 C.3   1 <1>   0.3430 
 10 C       -2.3920     1.6360    -0.3390 C.3   1 <1>   0.3430 
 11 C        1.8570    -2.3600    -0.9360 C.ar  1 <1>  -0.1500 
 12 C        1.3620    -3.1710     1.2560 C.ar  1 <1>  -0.1500 
 13 O       -2.9370    -1.4700    -1.8990 O.3   1 <1>  -0.6800 
 14 C       -3.9410    -3.0600    -0.4610 C.ar  1 <1>  -0.1430 
 15 N       -3.6390     0.8260    -0.4210 N.4   1 <1>  -0.9590 
 16 C        2.1370    -3.2140     0.1130 C.ar  1 <1>  -0.1500 
 17 C       -3.7490    -4.2400     0.2430 C.ar  1 <1>  -0.1500 
 18 C       -5.2230    -2.7420    -0.9000 C.ar  1 <1>  -0.1500 
 19 C       -4.8630     1.6760    -0.4030 C.3   1 <1>   0.2630 
 20 C       -4.8140    -5.0830     0.5110 C.ar  1 <1>  -0.1500 
 21 C       -6.2870    -3.5850    -0.6330 C.ar  1 <1>  -0.1500 
 22 C       -6.0840    -4.7560     0.0740 C.ar  1 <1>  -0.1500 
 23 H       -0.0800     0.1450     1.9080 H     1 <1>   0.4000 
 24 H       -2.4980    -1.8160     1.3490 H     1 <1>   0.0800 
 25 H       -1.2130     0.3700    -1.5710 H     1 <1>   0.0800 
 26 H       -0.2800     1.3040    -0.4550 H     1 <1>   0.0800 
 27 H        0.6310    -0.8250    -1.6890 H     1 <1>   0.1500 
 28 H       -0.2730    -2.2690     2.2510 H     1 <1>   0.1500 
 29 H       -1.8630    -2.7820    -0.8490 H     1 <1>   0.0800 
 30 H       -3.5760     0.2700     1.6170 H     1 <1>   0.0800 
 31 H       -4.6040    -0.7440     0.6320 H     1 <1>   0.0800 
 32 H       -2.4030     2.4100    -1.0890 H     1 <1>   0.0800 
 33 H       -2.3210     2.0990     0.6320 H     1 <1>   0.0800 
 34 H        2.4620    -2.3930    -1.8260 H     1 <1>   0.1500 
 35 H        1.5780    -3.8360     2.0750 H     1 <1>   0.1500 
 36 H       -3.0930    -2.1340    -2.6060 H     1 <1>   0.4000 
 37 H       -3.5930     0.2820    -1.3070 H     1 <1>   0.4500 
 38 H        2.9550    -3.9100     0.0400 H     1 <1>   0.1500 
 39 H       -2.7680    -4.5180     0.5920 H     1 <1>   0.1500 
 40 H       -5.4120    -1.8420    -1.4560 H     1 <1>   0.1500 
 41 H       -4.9210     2.2260     0.5220 H     1 <1>   0.0800 
 42 H       -5.7440     1.0620    -0.4970 H     1 <1>   0.0800 
 43 H       -4.8430     2.3760    -1.2220 H     1 <1>   0.0800 
 44 H       -4.6550    -5.9970     1.0590 H     1 <1>   0.1500 
 45 H       -7.2770    -3.3360    -0.9770 H     1 <1>   0.1500 
 46 H       -6.9110    -5.4130     0.2820 H     1 <1>   0.1500 
@<TRIPOS>BOND
  1   1   2  1   
  2   1  23  1   
  3   2   3  1   
  4   2   4  1   
  5   2   5  1   
  6   3   6  ar  
  7   3   7  ar  
  8   4   8  1   
  9   4   9  1   
 10   4  24  1   
 11   5  10  1   
 12   5  25  1   
 13   5  26  1   
 14   6  11  ar  
 15   6  27  1   
 16   7  12  ar  
 17   7  28  1   
 18   8  13  1   
 19   8  14  1   
 20   8  29  1   
 21   9  15  1   
 22   9  30  1   
 23   9  31  1   
 24  10  15  1   
 25  10  32  1   
 26  10  33  1   
 27  11  16  ar  
 28  11  34  1   
 29  12  16  ar  
 30  12  35  1   
 31  13  36  1   
 32  14  17  ar  
 33  14  18  ar  
 34  15  19  1   
 35  15  37  1   
 36  16  38  1   
 37  17  20  ar  
 38  17  39  1   
 39  18  21  ar  
 40  18  40  1   
 41  19  41  1   
 42  19  42  1   
 43  19  43  1   
 44  20  22  ar  
 45  20  44  1   
 46  21  22  ar  
 47  21  45  1   
 48  22  46  1   
@<TRIPOS>SUBSTRUCTURE
  1 ****   4 GROUP 4 **** **** 0

# MOE 2024.06 (io_trps.svl 2023.06)
