@<TRIPOS>MOLECULE
NONAME
37 37 1 0 0 
SMALL
USER_CHARGES


@<TRIPOS>ATOM
  1 O       -0.2570     0.0000     1.7710 O.2   1 <1>  -0.5700 
  2 C       -0.1870    -1.1430     1.3630 C.2   1 <1>   0.5440 
  3 N        1.0420    -1.6690     1.0140 N.am  1 <1>  -0.6600 
  4 C       -1.3970    -1.9360     1.2630 C.ar  1 <1>   0.0860 
  5 C        1.2710    -3.1420     0.8090 C.3   1 <1>   0.1400 
  6 C        2.2750    -0.8330     0.9630 C.3   1 <1>   0.0600 
  7 C       -1.8580    -2.3930     0.0320 C.ar  1 <1>  -0.1500 
  8 C       -2.1260    -2.2840     2.3980 C.ar  1 <1>  -0.1500 
  9 C        1.3560    -3.5460    -0.6760 C.3   1 <1>   0.4800 
 10 C       -2.9730    -3.2040    -0.0710 C.ar  1 <1>   0.0820 
 11 C       -3.2530    -3.0820     2.3100 C.ar  1 <1>  -0.1500 
 12 O        1.1970    -4.9260    -0.8130 O.3   1 <1>  -0.5600 
 13 O        2.6180    -3.2380    -1.1810 O.3   1 <1>  -0.5600 
 14 O       -3.3070    -3.6230    -1.3160 O.3   1 <1>  -0.3630 
 15 C       -3.6770    -3.5500     1.0790 C.ar  1 <1>  -0.1500 
 16 C       -0.1250    -5.3470    -0.9450 C.3   1 <1>   0.0400 
 17 C        2.7460    -3.3920    -2.5590 C.3   1 <1>   0.0400 
 18 C       -4.5050    -4.3310    -1.5520 C.3   1 <1>   0.0400 
 19 H        0.4720    -3.6890     1.2730 H     1 <1>   0.0800 
 20 H        2.1840    -3.4350     1.2960 H     1 <1>   0.0800 
 21 H        2.0360     0.2120     1.0620 H     1 <1>   0.0800 
 22 H        2.7780    -0.9770     0.0230 H     1 <1>   0.0800 
 23 H        2.9370    -1.1130     1.7630 H     1 <1>   0.0800 
 24 H       -1.3400    -2.1070    -0.8640 H     1 <1>   0.1500 
 25 H       -1.7960    -1.9190     3.3560 H     1 <1>   0.1500 
 26 H        0.6110    -3.0370    -1.2610 H     1 <1>   0.0800 
 27 H       -3.7990    -3.3380     3.2020 H     1 <1>   0.1500 
 28 H       -4.5500    -4.1740     1.0360 H     1 <1>   0.1500 
 29 H       -0.1230    -6.4140    -1.0820 H     1 <1>   0.0800 
 30 H       -0.5690    -4.8740    -1.8040 H     1 <1>   0.0800 
 31 H       -0.6760    -5.1020    -0.0540 H     1 <1>   0.0800 
 32 H        2.6000    -4.4270    -2.8180 H     1 <1>   0.0800 
 33 H        3.7390    -3.0890    -2.8380 H     1 <1>   0.0800 
 34 H        2.0220    -2.7700    -3.0570 H     1 <1>   0.0800 
 35 H       -4.5870    -4.5050    -2.6100 H     1 <1>   0.0800 
 36 H       -5.3350    -3.7350    -1.2150 H     1 <1>   0.0800 
 37 H       -4.4670    -5.2700    -1.0290 H     1 <1>   0.0800 
@<TRIPOS>BOND
  1   1   2  2   
  2   2   3  am  
  3   2   4  1   
  4   3   5  1   
  5   3   6  1   
  6   4   7  ar  
  7   4   8  ar  
  8   5   9  1   
  9   5  19  1   
 10   5  20  1   
 11   6  21  1   
 12   6  22  1   
 13   6  23  1   
 14   7  10  ar  
 15   7  24  1   
 16   8  11  ar  
 17   8  25  1   
 18   9  12  1   
 19   9  13  1   
 20   9  26  1   
 21  10  14  1   
 22  10  15  ar  
 23  11  15  ar  
 24  11  27  1   
 25  12  16  1   
 26  13  17  1   
 27  14  18  1   
 28  15  28  1   
 29  16  29  1   
 30  16  30  1   
 31  16  31  1   
 32  17  32  1   
 33  17  33  1   
 34  17  34  1   
 35  18  35  1   
 36  18  36  1   
 37  18  37  1   
@<TRIPOS>SUBSTRUCTURE
  1 ****   7 GROUP 4 **** **** 0

# MOE 2024.06 (io_trps.svl 2023.06)
