@<TRIPOS>MOLECULE
NONAME
40 42 1 0 0 
SMALL
USER_CHARGES


@<TRIPOS>ATOM
  1 S       -0.0450    -0.7530     0.2400 S.3   1 <1>  -0.0800 
  2 C        1.3680     0.2590    -0.0050 C.2   1 <1>   0.1660 
  3 C       -1.1010     0.6450     0.1130 C.2   1 <1>  -0.1400 
  4 N        2.6180    -0.2520    -0.0240 N.2   1 <1>  -0.5760 
  5 C        1.0230     1.5640    -0.1670 C.2   1 <1>  -0.0860 
  6 C       -0.4000     1.7730    -0.0860 C.2   1 <1>  -0.1810 
  7 C       -2.6010     0.4900     0.2310 C.3   1 <1>   0.0200 
  8 C        3.5520     0.6170    -0.2170 C.2   1 <1>   0.6510 
  9 C        2.0920     2.4800    -0.3870 C.2   1 <1>   0.7160 
 10 C       -1.0900     3.1220    -0.2140 C.3   1 <1>   0.0210 
 11 C       -3.2830     1.7830    -0.2660 C.3   1 <1>  -0.0800 
 12 S        5.2290     0.0040    -0.2550 S.3   1 <1>  -0.3710 
 13 N        3.3740     1.9730    -0.4050 N.am  1 <1>  -0.4200 
 14 O        1.8990     3.6770    -0.5630 O.2   1 <1>  -0.5700 
 15 C       -2.5570     3.0420     0.2580 C.3   1 <1>  -0.1600 
 16 C       -4.7640     1.8030     0.1320 C.3   1 <1>  -0.2400 
 17 C        5.0930    -1.8450    -0.0200 C.3   1 <1>  -0.0360 
 18 C        4.5120     2.9100    -0.5830 C.3   1 <1>   0.2780 
 19 C        6.4360    -2.5420    -0.1240 C.2   1 <1>   0.9060 
 20 C        4.9430     3.4360     0.7750 C.2   1 <1>  -0.2880 
 21 O        6.8310    -2.9140    -1.2350 O.co2 1 <1>  -0.9000 
 22 O        7.0770    -2.7610     0.9110 O.co2 1 <1>  -0.9000 
 23 C        6.1030     3.1540     1.3760 C.2   1 <1>  -0.3000 
 24 H       -2.8460     0.3050     1.2620 H     1 <1>   0.0800 
 25 H       -2.9310    -0.3480    -0.3570 H     1 <1>   0.0800 
 26 H       -1.0530     3.4320    -1.2440 H     1 <1>   0.0800 
 27 H       -0.5710     3.8580     0.3750 H     1 <1>   0.0800 
 28 H       -3.2230     1.7930    -1.3420 H     1 <1>   0.0800 
 29 H       -3.0750     3.9280    -0.0640 H     1 <1>   0.0800 
 30 H       -2.5700     3.0270     1.3350 H     1 <1>   0.0800 
 31 H       -4.8690     1.8100     1.2030 H     1 <1>   0.0800 
 32 H       -5.2670     0.9370    -0.2580 H     1 <1>   0.0800 
 33 H       -5.2440     2.6800    -0.2660 H     1 <1>   0.0800 
 34 H        4.4380    -2.2190    -0.7810 H     1 <1>   0.0800 
 35 H        4.6720    -2.0150     0.9510 H     1 <1>   0.0800 
 36 H        4.2200     3.7350    -1.2090 H     1 <1>   0.0800 
 37 H        5.3350     2.4290    -1.0780 H     1 <1>   0.0800 
 38 H        4.1980     4.0730     1.2210 H     1 <1>   0.1500 
 39 H        6.3910     3.5340     2.3410 H     1 <1>   0.1500 
 40 H        6.8610     2.5090     0.9600 H     1 <1>   0.1500 
@<TRIPOS>BOND
  1   1   2  1   
  2   1   3  1   
  3   2   4  1   
  4   2   5  2   
  5   3   6  2   
  6   3   7  1   
  7   4   8  2   
  8   5   6  1   
  9   5   9  1   
 10   6  10  1   
 11   7  11  1   
 12   7  24  1   
 13   7  25  1   
 14   8  12  1   
 15   8  13  1   
 16   9  13  am  
 17   9  14  2   
 18  10  15  1   
 19  10  26  1   
 20  10  27  1   
 21  11  15  1   
 22  11  16  1   
 23  11  28  1   
 24  12  17  1   
 25  13  18  1   
 26  15  29  1   
 27  15  30  1   
 28  16  31  1   
 29  16  32  1   
 30  16  33  1   
 31  17  19  1   
 32  17  34  1   
 33  17  35  1   
 34  18  20  1   
 35  18  36  1   
 36  18  37  1   
 37  19  21  ar  
 38  19  22  ar  
 39  20  23  2   
 40  20  38  1   
 41  23  39  1   
 42  23  40  1   
@<TRIPOS>SUBSTRUCTURE
  1 ****   2 GROUP 4 **** **** 0

# MOE 2024.06 (io_trps.svl 2023.06)
