@<TRIPOS>MOLECULE
NONAME
51 52 1 0 0 
SMALL
USER_CHARGES


@<TRIPOS>ATOM
  1 O       -0.9760    -1.2480     2.3170 O.2   1 <1>  -0.5700 
  2 C       -1.1400    -1.8350     1.2630 C.2   1 <1>   0.5440 
  3 N       -2.1730    -1.4440     0.4330 N.am  1 <1>  -0.6600 
  4 C       -0.2240    -2.9010     0.9150 C.ar  1 <1>   0.0860 
  5 C       -2.5770    -0.0080     0.4480 C.3   1 <1>   0.2200 
  6 C       -3.1150    -2.4100    -0.2140 C.3   1 <1>   0.2200 
  7 C        0.5200    -2.8620    -0.2620 C.ar  1 <1>  -0.1500 
  8 C       -0.0330    -3.9950     1.7560 C.ar  1 <1>  -0.1500 
  9 C       -3.8500     0.1940     1.2720 C.3   1 <1>  -0.2400 
 10 C       -2.7230     0.5300    -0.9760 C.3   1 <1>  -0.2400 
 11 C       -3.5490    -3.4990     0.7690 C.3   1 <1>  -0.2400 
 12 C       -2.5230    -3.0090    -1.4890 C.3   1 <1>  -0.2400 
 13 C        1.3990    -3.8750    -0.5920 C.ar  1 <1>  -0.1500 
 14 C        0.8460    -5.0090     1.4270 C.ar  1 <1>  -0.1500 
 15 C        1.5890    -4.9730     0.2480 C.ar  1 <1>   0.0860 
 16 C        2.5170    -6.0380    -0.0800 C.2   1 <1>   0.5440 
 17 O        2.2300    -7.1990     0.1180 O.2   1 <1>  -0.5700 
 18 N        3.7510    -5.8020    -0.5960 N.am  1 <1>  -0.7300 
 19 C        4.5720    -4.6000    -0.3730 C.3   1 <1>   0.2840 
 20 C        5.9760    -5.0430    -0.0060 C.ar  1 <1>  -0.1430 
 21 C        7.0280    -4.8720    -0.8940 C.ar  1 <1>  -0.1500 
 22 C        6.2170    -5.6290     1.2280 C.ar  1 <1>  -0.1500 
 23 C        8.3060    -5.2770    -0.5500 C.ar  1 <1>  -0.1500 
 24 C        7.4950    -6.0350     1.5720 C.ar  1 <1>  -0.1500 
 25 C        8.5400    -5.8580     0.6830 C.ar  1 <1>  -0.1500 
 26 H       -1.7910     0.5600     0.9220 H     1 <1>   0.0800 
 27 H       -4.0050    -1.8800    -0.5010 H     1 <1>   0.0800 
 28 H        0.3940    -2.0210    -0.9220 H     1 <1>   0.1500 
 29 H       -0.5860    -4.0380     2.6790 H     1 <1>   0.1500 
 30 H       -4.7020    -0.2670     0.8110 H     1 <1>   0.0800 
 31 H       -4.0500     1.2450     1.3730 H     1 <1>   0.0800 
 32 H       -3.7100    -0.2150     2.2570 H     1 <1>   0.0800 
 33 H       -3.5520     0.0780    -1.4870 H     1 <1>   0.0800 
 34 H       -1.8180     0.3500    -1.5280 H     1 <1>   0.0800 
 35 H       -2.8910     1.5910    -0.9420 H     1 <1>   0.0800 
 36 H       -2.7390    -4.1630     1.0030 H     1 <1>   0.0800 
 37 H       -4.3410    -4.0810     0.3350 H     1 <1>   0.0800 
 38 H       -3.9160    -3.0500     1.6750 H     1 <1>   0.0800 
 39 H       -1.7680    -3.7370    -1.2640 H     1 <1>   0.0800 
 40 H       -2.1110    -2.2350    -2.1100 H     1 <1>   0.0800 
 41 H       -3.2990    -3.5060    -2.0410 H     1 <1>   0.0800 
 42 H        1.9470    -3.8240    -1.5170 H     1 <1>   0.1500 
 43 H        0.9670    -5.8500     2.0890 H     1 <1>   0.1500 
 44 H        4.3090    -6.6440    -0.7600 H     1 <1>   0.3700 
 45 H        4.1590    -4.0060     0.4250 H     1 <1>   0.0800 
 46 H        4.5890    -4.0070    -1.2710 H     1 <1>   0.0800 
 47 H        6.8600    -4.4240    -1.8580 H     1 <1>   0.1500 
 48 H        5.4090    -5.7750     1.9240 H     1 <1>   0.1500 
 49 H        9.1190    -5.1410    -1.2420 H     1 <1>   0.1500 
 50 H        7.6750    -6.4890     2.5310 H     1 <1>   0.1500 
 51 H        9.5340    -6.1740     0.9510 H     1 <1>   0.1500 
@<TRIPOS>BOND
  1   1   2  2   
  2   2   3  am  
  3   2   4  1   
  4   3   5  1   
  5   3   6  1   
  6   4   7  ar  
  7   4   8  ar  
  8   5   9  1   
  9   5  10  1   
 10   5  26  1   
 11   6  11  1   
 12   6  12  1   
 13   6  27  1   
 14   7  13  ar  
 15   7  28  1   
 16   8  14  ar  
 17   8  29  1   
 18   9  30  1   
 19   9  31  1   
 20   9  32  1   
 21  10  33  1   
 22  10  34  1   
 23  10  35  1   
 24  11  36  1   
 25  11  37  1   
 26  11  38  1   
 27  12  39  1   
 28  12  40  1   
 29  12  41  1   
 30  13  15  ar  
 31  13  42  1   
 32  14  15  ar  
 33  14  43  1   
 34  15  16  1   
 35  16  17  2   
 36  16  18  am  
 37  18  19  1   
 38  18  44  1   
 39  19  20  1   
 40  19  45  1   
 41  19  46  1   
 42  20  21  ar  
 43  20  22  ar  
 44  21  23  ar  
 45  21  47  1   
 46  22  24  ar  
 47  22  48  1   
 48  23  25  ar  
 49  23  49  1   
 50  24  25  ar  
 51  24  50  1   
 52  25  51  1   
@<TRIPOS>SUBSTRUCTURE
  1 ****  13 GROUP 4 **** **** 0

# MOE 2024.06 (io_trps.svl 2023.06)
