@<TRIPOS>MOLECULE
NONAME
47 48 1 0 0 
SMALL
USER_CHARGES


@<TRIPOS>ATOM
  1 O       -1.3960    -0.1930     1.2180 O.2   1 <1>  -0.5700 
  2 C       -1.4720    -1.3050     1.7020 C.2   1 <1>   0.6900 
  3 N       -0.5030    -2.2450     1.5310 N.am  1 <1>  -0.5470 
  4 N       -2.5860    -1.6530     2.3980 N.am  1 <1>  -0.7300 
  5 C        0.7330    -2.1650     0.8710 C.ar  1 <1>   0.1170 
  6 C       -3.6080    -0.6900     2.8730 C.3   1 <1>   0.1400 
  7 C        1.2780    -3.3230     0.3270 C.ar  1 <1>  -0.1500 
  8 C        1.4490    -0.9780     0.7510 C.ar  1 <1>  -0.1500 
  9 C       -4.7190    -0.5190     1.8310 C.3   1 <1>  -0.1600 
 10 C        2.4970    -3.2930    -0.3260 C.ar  1 <1>  -0.1500 
 11 C        2.6670    -0.9410     0.0970 C.ar  1 <1>  -0.1500 
 12 C       -4.1560     0.0270     0.5170 C.3   1 <1>   0.3430 
 13 C        3.1990    -2.1060    -0.4480 C.ar  1 <1>   0.0830 
 14 N       -5.2310     0.2470    -0.4860 N.4   1 <1>  -0.9590 
 15 O        4.3870    -2.1640    -1.1070 O.3   1 <1>  -0.3630 
 16 C       -4.6640     0.5340    -1.8250 C.3   1 <1>   0.3430 
 17 C       -6.1310     1.3850    -0.1780 C.3   1 <1>   0.3430 
 18 C        5.1640    -1.0050    -1.2960 C.3   1 <1>   0.1200 
 19 C       -5.8030     1.2000    -2.5850 C.3   1 <1>  -0.1600 
 20 C       -6.7580     1.7430    -1.5180 C.3   1 <1>  -0.1600 
 21 C        6.4190    -1.4010    -2.0690 C.3   1 <1>  -0.2400 
 22 H       -0.7410    -3.1710     1.8690 H     1 <1>   0.3700 
 23 H       -2.5730    -2.5420     2.8990 H     1 <1>   0.3700 
 24 H       -3.1380     0.2610     3.0710 H     1 <1>   0.0800 
 25 H       -4.0260    -1.0490     3.7990 H     1 <1>   0.0800 
 26 H        0.7490    -4.2540     0.4070 H     1 <1>   0.1500 
 27 H        1.0570    -0.0710     1.1750 H     1 <1>   0.1500 
 28 H       -5.4430     0.1650     2.2330 H     1 <1>   0.0800 
 29 H       -5.1940    -1.4700     1.6670 H     1 <1>   0.0800 
 30 H        2.9140    -4.1890    -0.7480 H     1 <1>   0.1500 
 31 H        3.1820    -0.0030     0.0270 H     1 <1>   0.1500 
 32 H       -3.4450    -0.6840     0.1260 H     1 <1>   0.0800 
 33 H       -3.6240     0.9470     0.7020 H     1 <1>   0.0800 
 34 H       -5.7990    -0.6050    -0.5670 H     1 <1>   0.4500 
 35 H       -4.3220    -0.3630    -2.3160 H     1 <1>   0.0800 
 36 H       -3.8410     1.2250    -1.7310 H     1 <1>   0.0800 
 37 H       -5.5510     2.2190     0.1830 H     1 <1>   0.0800 
 38 H       -6.8760     1.1200     0.5550 H     1 <1>   0.0800 
 39 H        5.4220    -0.6060    -0.3310 H     1 <1>   0.0800 
 40 H        4.5830    -0.2920    -1.8550 H     1 <1>   0.0800 
 41 H       -6.3030     0.4740    -3.2030 H     1 <1>   0.0800 
 42 H       -5.4220     1.9820    -3.2180 H     1 <1>   0.0800 
 43 H       -6.8840     2.8090    -1.6000 H     1 <1>   0.0800 
 44 H       -7.7240     1.2770    -1.6050 H     1 <1>   0.0800 
 45 H        6.9830    -2.1260    -1.5100 H     1 <1>   0.0800 
 46 H        7.0350    -0.5350    -2.2300 H     1 <1>   0.0800 
 47 H        6.1490    -1.8140    -3.0240 H     1 <1>   0.0800 
@<TRIPOS>BOND
  1   1   2  2   
  2   2   3  am  
  3   2   4  am  
  4   3   5  1   
  5   3  22  1   
  6   4   6  1   
  7   4  23  1   
  8   5   7  ar  
  9   5   8  ar  
 10   6   9  1   
 11   6  24  1   
 12   6  25  1   
 13   7  10  ar  
 14   7  26  1   
 15   8  11  ar  
 16   8  27  1   
 17   9  12  1   
 18   9  28  1   
 19   9  29  1   
 20  10  13  ar  
 21  10  30  1   
 22  11  13  ar  
 23  11  31  1   
 24  12  14  1   
 25  12  32  1   
 26  12  33  1   
 27  13  15  1   
 28  14  16  1   
 29  14  17  1   
 30  14  34  1   
 31  15  18  1   
 32  16  19  1   
 33  16  35  1   
 34  16  36  1   
 35  17  20  1   
 36  17  37  1   
 37  17  38  1   
 38  18  21  1   
 39  18  39  1   
 40  18  40  1   
 41  19  20  1   
 42  19  41  1   
 43  19  42  1   
 44  20  43  1   
 45  20  44  1   
 46  21  45  1   
 47  21  46  1   
 48  21  47  1   
@<TRIPOS>SUBSTRUCTURE
  1 ****   1 GROUP 4 **** **** 0

# MOE 2024.06 (io_trps.svl 2023.06)
