@<TRIPOS>MOLECULE
NONAME
40 41 1 0 0 
SMALL
USER_CHARGES


@<TRIPOS>ATOM
  1 CL      -0.4230     0.3860    -2.3420 Cl    1 <1>  -0.1770 
  2 C       -1.1570     1.6150    -1.3420 C.ar  1 <1>   0.1770 
  3 C       -2.4760     1.4830    -0.9610 C.ar  1 <1>  -0.1500 
  4 C       -0.4000     2.6990    -0.9470 C.ar  1 <1>  -0.1500 
  5 C       -3.0740     2.4540    -0.1640 C.ar  1 <1>   0.1170 
  6 C       -0.9820     3.6690    -0.1520 C.ar  1 <1>  -0.1500 
  7 N       -4.4090     2.3530     0.2550 N.am  1 <1>  -0.5470 
  8 C       -2.3080     3.5540     0.2420 C.ar  1 <1>  -0.1430 
  9 C       -5.4830     1.6590    -0.2160 C.2   1 <1>   0.6900 
 10 C       -2.9070     4.6510     1.1140 C.3   1 <1>  -0.0960 
 11 O       -5.4100     0.9040    -1.1660 O.2   1 <1>  -0.5700 
 12 N       -6.6650     1.8330     0.4430 N.am  1 <1>  -0.6600 
 13 C       -7.6470     2.8800     0.0320 C.3   1 <1>   0.2200 
 14 C       -7.2870     0.6330     1.0610 C.3   1 <1>   0.1400 
 15 C       -8.6520     2.2660    -0.9590 C.3   1 <1>  -0.1600 
 16 C       -6.9500     4.1360    -0.5300 C.3   1 <1>  -0.1600 
 17 C       -8.3110     0.0070     0.1070 C.3   1 <1>  -0.1600 
 18 C       -9.3480     1.0320    -0.3670 C.3   1 <1>  -0.1600 
 19 C       -7.9050     5.3160    -0.7700 C.3   1 <1>  -0.2400 
 20 H       -3.0250     0.6200    -1.2870 H     1 <1>   0.1500 
 21 H        0.6260     2.7780    -1.2580 H     1 <1>   0.1500 
 22 H       -0.3920     4.5140     0.1570 H     1 <1>   0.1500 
 23 H       -4.6700     2.9480     1.0320 H     1 <1>   0.3700 
 24 H       -3.7530     5.0940     0.6190 H     1 <1>   0.0800 
 25 H       -2.1890     5.4280     1.3070 H     1 <1>   0.0800 
 26 H       -3.2210     4.2430     2.0580 H     1 <1>   0.0800 
 27 H       -8.1870     3.1770     0.9150 H     1 <1>   0.0800 
 28 H       -7.7690     0.9210     1.9800 H     1 <1>   0.0800 
 29 H       -6.5230    -0.0910     1.2930 H     1 <1>   0.0800 
 30 H       -8.1310     1.9910    -1.8600 H     1 <1>   0.0800 
 31 H       -9.4030     2.9880    -1.2200 H     1 <1>   0.0800 
 32 H       -6.4570     3.8940    -1.4560 H     1 <1>   0.0800 
 33 H       -6.2080     4.4600     0.1760 H     1 <1>   0.0800 
 34 H       -8.8050    -0.8110     0.5990 H     1 <1>   0.0800 
 35 H       -7.7870    -0.3940    -0.7440 H     1 <1>   0.0800 
 36 H       -9.9870     0.5840    -1.1090 H     1 <1>   0.0800 
 37 H       -9.9620     1.3310     0.4650 H     1 <1>   0.0800 
 38 H       -8.5990     5.0960    -1.5610 H     1 <1>   0.0800 
 39 H       -7.3410     6.1860    -1.0570 H     1 <1>   0.0800 
 40 H       -8.4540     5.5470     0.1260 H     1 <1>   0.0800 
@<TRIPOS>BOND
  1   1   2  1   
  2   2   3  ar  
  3   2   4  ar  
  4   3   5  ar  
  5   3  20  1   
  6   4   6  ar  
  7   4  21  1   
  8   5   7  1   
  9   5   8  ar  
 10   6   8  ar  
 11   6  22  1   
 12   7   9  am  
 13   7  23  1   
 14   8  10  1   
 15   9  11  2   
 16   9  12  am  
 17  10  24  1   
 18  10  25  1   
 19  10  26  1   
 20  12  13  1   
 21  12  14  1   
 22  13  15  1   
 23  13  16  1   
 24  13  27  1   
 25  14  17  1   
 26  14  28  1   
 27  14  29  1   
 28  15  18  1   
 29  15  30  1   
 30  15  31  1   
 31  16  19  1   
 32  16  32  1   
 33  16  33  1   
 34  17  18  1   
 35  17  34  1   
 36  17  35  1   
 37  18  36  1   
 38  18  37  1   
 39  19  38  1   
 40  19  39  1   
 41  19  40  1   
@<TRIPOS>SUBSTRUCTURE
  1 ****   7 GROUP 4 **** **** 0

# MOE 2024.06 (io_trps.svl 2023.06)
