@<TRIPOS>MOLECULE
NONAME
34 34 1 0 0 
SMALL
USER_CHARGES


@<TRIPOS>ATOM
  1 O        0.8910     2.5710    -1.8470 O.2   1 <1>  -0.5700 
  2 C        0.2070     2.3260    -0.8700 C.2   1 <1>   0.5440 
  3 N        0.7780     1.6040     0.1390 N.am  1 <1>  -0.7300 
  4 C       -1.1600     2.8160    -0.7810 C.ar  1 <1>   0.0860 
  5 C        2.1270     0.9860     0.1140 C.3   1 <1>   0.1400 
  6 C       -2.1560     2.2220     0.0120 C.ar  1 <1>   0.0830 
  7 C       -1.5250     3.9440    -1.5210 C.ar  1 <1>  -0.1500 
  8 C        3.2070     2.0450     0.3310 C.3   1 <1>   0.1200 
  9 O       -1.8650     1.1120     0.7360 O.3   1 <1>  -0.3630 
 10 C       -3.4460     2.7600     0.0790 C.ar  1 <1>   0.0830 
 11 C       -2.7990     4.4720    -1.4730 C.ar  1 <1>  -0.1500 
 12 O        4.4350     1.4050     0.4920 O.3   1 <1>  -0.5600 
 13 C       -2.3480    -0.1160     0.2370 C.3   1 <1>   0.0400 
 14 O       -4.3590     2.1550     0.8940 O.3   1 <1>  -0.3630 
 15 C       -3.7620     3.8860    -0.6730 C.ar  1 <1>  -0.1500 
 16 C        5.5090     2.2790     0.6150 C.3   1 <1>   0.0400 
 17 C       -5.6250     2.7230     1.1440 C.3   1 <1>   0.0400 
 18 H        0.1540     1.3140     0.9000 H     1 <1>   0.3700 
 19 H        2.2840     0.5110    -0.8400 H     1 <1>   0.0800 
 20 H        2.1900     0.2450     0.8910 H     1 <1>   0.0800 
 21 H       -0.7860     4.4150    -2.1480 H     1 <1>   0.1500 
 22 H        2.9990     2.6140     1.2200 H     1 <1>   0.0800 
 23 H        3.2600     2.6950    -0.5270 H     1 <1>   0.0800 
 24 H       -3.0430     5.3430    -2.0590 H     1 <1>   0.1500 
 25 H       -2.0130    -0.9010     0.8900 H     1 <1>   0.0800 
 26 H       -1.9580    -0.2670    -0.7540 H     1 <1>   0.0800 
 27 H       -3.4230    -0.0920     0.2160 H     1 <1>   0.0800 
 28 H       -4.7430     4.3210    -0.6540 H     1 <1>   0.1500 
 29 H        6.4030     1.6950     0.7400 H     1 <1>   0.0800 
 30 H        5.3600     2.9070     1.4770 H     1 <1>   0.0800 
 31 H        5.5860     2.8740    -0.2790 H     1 <1>   0.0800 
 32 H       -6.1310     2.1040     1.8630 H     1 <1>   0.0800 
 33 H       -6.1860     2.7470     0.2260 H     1 <1>   0.0800 
 34 H       -5.4920     3.7120     1.5440 H     1 <1>   0.0800 
@<TRIPOS>BOND
  1   1   2  2   
  2   2   3  am  
  3   2   4  1   
  4   3   5  1   
  5   3  18  1   
  6   4   6  ar  
  7   4   7  ar  
  8   5   8  1   
  9   5  19  1   
 10   5  20  1   
 11   6   9  1   
 12   6  10  ar  
 13   7  11  ar  
 14   7  21  1   
 15   8  12  1   
 16   8  22  1   
 17   8  23  1   
 18   9  13  1   
 19  10  14  1   
 20  10  15  ar  
 21  11  15  ar  
 22  11  24  1   
 23  12  16  1   
 24  13  25  1   
 25  13  26  1   
 26  13  27  1   
 27  14  17  1   
 28  15  28  1   
 29  16  29  1   
 30  16  30  1   
 31  16  31  1   
 32  17  32  1   
 33  17  33  1   
 34  17  34  1   
@<TRIPOS>SUBSTRUCTURE
  1 ****   4 GROUP 4 **** **** 0

# MOE 2024.06 (io_trps.svl 2023.06)
