@<TRIPOS>MOLECULE
NONAME
32 33 1 0 0 
SMALL
USER_CHARGES


@<TRIPOS>ATOM
  1 BR       0.1170    -0.4400    -2.2840 Br    1 <1>  -0.1110 
  2 C       -1.5440    -1.2500    -1.7330 C.ar  1 <1>   0.1110 
  3 C       -1.5830    -2.0490    -0.5990 C.ar  1 <1>   0.0830 
  4 C       -2.6660    -1.0080    -2.4990 C.ar  1 <1>  -0.1500 
  5 O       -0.4340    -2.2410     0.0990 O.3   1 <1>  -0.3630 
  6 C       -2.8030    -2.6090    -0.2340 C.ar  1 <1>  -0.1500 
  7 C       -3.8690    -1.5750    -2.1150 C.ar  1 <1>  -0.1500 
  8 C       -0.3350    -3.1910     1.1380 C.3   1 <1>   0.0400 
  9 C       -3.9600    -2.3750    -0.9760 C.ar  1 <1>  -0.0090 
 10 S       -5.5520    -3.0710    -0.4560 S.o2  1 <1>   1.6670 
 11 O       -6.2680    -3.6140    -1.5830 O.2   1 <1>  -0.6500 
 12 O       -5.4140    -3.8110     0.7730 O.2   1 <1>  -0.6500 
 13 N       -6.4730    -1.6650    -0.0140 N.pl3 1 <1>  -0.7020 
 14 C       -6.2170    -0.7500     0.8780 C.cat 1 <1>   0.6040 
 15 C       -7.8200    -1.4900    -0.6010 C.3   1 <1>   0.3290 
 16 N       -7.1890     0.1110     0.9930 N.pl3 1 <1>  -0.7940 
 17 C       -4.9600    -0.6550     1.7130 C.3   1 <1>  -0.1350 
 18 C       -8.3260    -0.2130     0.0990 C.3   1 <1>   0.3290 
 19 H       -2.5910    -0.3900    -3.3780 H     1 <1>   0.1500 
 20 H       -2.8650    -3.2350     0.6390 H     1 <1>   0.1500 
 21 H       -4.7440    -1.3920    -2.7190 H     1 <1>   0.1500 
 22 H        0.6860    -3.2100     1.4740 H     1 <1>   0.0800 
 23 H       -0.6100    -4.1590     0.7560 H     1 <1>   0.0800 
 24 H       -0.9770    -2.8960     1.9480 H     1 <1>   0.0800 
 25 H       -8.4500    -2.3340    -0.3720 H     1 <1>   0.0800 
 26 H       -7.7640    -1.3550    -1.6680 H     1 <1>   0.0800 
 27 H       -7.2300     0.9200     1.6250 H     1 <1>   0.4500 
 28 H       -4.7350    -1.6030     2.1640 H     1 <1>   0.0800 
 29 H       -5.0910     0.0650     2.5010 H     1 <1>   0.0800 
 30 H       -4.1330    -0.3410     1.1040 H     1 <1>   0.0800 
 31 H       -9.2220    -0.4080     0.6650 H     1 <1>   0.0800 
 32 H       -8.5000     0.5790    -0.6110 H     1 <1>   0.0800 
@<TRIPOS>BOND
  1   1   2  1   
  2   2   3  ar  
  3   2   4  ar  
  4   3   5  1   
  5   3   6  ar  
  6   4   7  ar  
  7   4  19  1   
  8   5   8  1   
  9   6   9  ar  
 10   6  20  1   
 11   7   9  ar  
 12   7  21  1   
 13   8  22  1   
 14   8  23  1   
 15   8  24  1   
 16   9  10  1   
 17  10  11  2   
 18  10  12  2   
 19  10  13  1   
 20  13  14  ar  
 21  13  15  1   
 22  14  16  ar  
 23  14  17  1   
 24  15  18  1   
 25  15  25  1   
 26  15  26  1   
 27  16  18  1   
 28  16  27  1   
 29  17  28  1   
 30  17  29  1   
 31  17  30  1   
 32  18  31  1   
 33  18  32  1   
@<TRIPOS>SUBSTRUCTURE
  1 ****   9 GROUP 4 **** **** 0

# MOE 2024.06 (io_trps.svl 2023.06)
