@<TRIPOS>MOLECULE
NONAME
46 48 1 0 0 
SMALL
USER_CHARGES


@<TRIPOS>ATOM
  1 O       -0.9980     1.4300    -2.6390 O.2   1 <1>  -0.5700 
  2 C       -1.8350     1.7770    -1.8480 C.2   1 <1>   0.6590 
  3 O       -3.0680     1.2850    -1.9030 O.3   1 <1>  -0.2330 
  4 C       -1.5270     2.8280    -0.8110 C.3   1 <1>   0.0420 
  5 C       -4.0690     1.6900    -1.0860 C.ar  1 <1>   0.0820 
  6 C       -1.0850     2.1220     0.4470 C.2   1 <1>   0.6590 
  7 C       -2.7470     3.7380    -0.5300 C.3   1 <1>   0.0640 
  8 C       -3.9830     2.8410    -0.3340 C.ar  1 <1>  -0.1430 
  9 C       -5.1930     0.8640    -1.0310 C.ar  1 <1>  -0.1500 
 10 O       -1.3480     0.9730     0.6920 O.2   1 <1>  -0.5700 
 11 O       -0.3900     2.8720     1.2950 O.3   1 <1>  -0.4300 
 12 C       -2.9420     4.8840    -1.5880 C.3   1 <1>   0.0610 
 13 C       -5.0200     3.1510     0.5930 C.ar  1 <1>   0.0000 
 14 C       -6.2230     1.1790    -0.1970 C.ar  1 <1>  -0.1500 
 15 C        0.0770     2.3600     2.5270 C.3   1 <1>   0.0400 
 16 C       -1.6880     5.7870    -1.5450 C.2   1 <1>   0.6590 
 17 C       -3.1860     4.3480    -3.0220 C.3   1 <1>  -0.2400 
 18 C       -4.1770     5.7580    -1.2610 C.3   1 <1>  -0.2400 
 19 C       -6.1640     2.3160     0.6300 C.ar  1 <1>   0.0000 
 20 C       -4.9960     4.2360     1.5060 C.ar  1 <1>  -0.1500 
 21 O       -0.9160     5.8720    -2.4660 O.2   1 <1>  -0.5700 
 22 O       -1.4750     6.4380    -0.4050 O.3   1 <1>  -0.4300 
 23 C       -7.2270     2.6210     1.5040 C.ar  1 <1>  -0.1500 
 24 C       -6.0360     4.5050     2.3510 C.ar  1 <1>  -0.1500 
 25 C       -0.3480     7.2700    -0.2210 C.3   1 <1>   0.0400 
 26 C       -7.1710     3.6930     2.3470 C.ar  1 <1>  -0.1500 
 27 H       -0.6890     3.4010    -1.1560 H     1 <1>   0.0800 
 28 H       -2.5300     4.2170     0.4050 H     1 <1>   0.0800 
 29 H       -5.2220    -0.0150    -1.6520 H     1 <1>   0.1500 
 30 H       -7.0960     0.5520    -0.1530 H     1 <1>   0.1500 
 31 H        0.6100     3.1390     3.0420 H     1 <1>   0.0800 
 32 H        0.7330     1.5290     2.3320 H     1 <1>   0.0800 
 33 H       -0.7660     2.0370     3.1120 H     1 <1>   0.0800 
 34 H       -2.3270     3.8260    -3.4050 H     1 <1>   0.0800 
 35 H       -3.3730     5.1660    -3.6960 H     1 <1>   0.0800 
 36 H       -4.0380     3.6930    -3.0560 H     1 <1>   0.0800 
 37 H       -5.0850     5.1830    -1.3070 H     1 <1>   0.0800 
 38 H       -4.0960     6.1990    -0.2850 H     1 <1>   0.0800 
 39 H       -4.2610     6.5620    -1.9710 H     1 <1>   0.0800 
 40 H       -4.1410     4.8790     1.5560 H     1 <1>   0.1500 
 41 H       -8.0940     1.9850     1.5000 H     1 <1>   0.1500 
 42 H       -5.9960     5.3390     3.0300 H     1 <1>   0.1500 
 43 H        0.5440     6.6780    -0.3340 H     1 <1>   0.0800 
 44 H       -0.3910     7.6920     0.7670 H     1 <1>   0.0800 
 45 H       -0.3690     8.0530    -0.9600 H     1 <1>   0.0800 
 46 H       -7.9850     3.9210     3.0140 H     1 <1>   0.1500 
@<TRIPOS>BOND
  1   1   2  2   
  2   2   3  1   
  3   2   4  1   
  4   3   5  1   
  5   4   6  1   
  6   4   7  1   
  7   4  27  1   
  8   5   8  ar  
  9   5   9  ar  
 10   6  10  2   
 11   6  11  1   
 12   7   8  1   
 13   7  12  1   
 14   7  28  1   
 15   8  13  ar  
 16   9  14  ar  
 17   9  29  1   
 18  11  15  1   
 19  12  16  1   
 20  12  17  1   
 21  12  18  1   
 22  13  19  ar  
 23  13  20  ar  
 24  14  19  ar  
 25  14  30  1   
 26  15  31  1   
 27  15  32  1   
 28  15  33  1   
 29  16  21  2   
 30  16  22  1   
 31  17  34  1   
 32  17  35  1   
 33  17  36  1   
 34  18  37  1   
 35  18  38  1   
 36  18  39  1   
 37  19  23  ar  
 38  20  24  ar  
 39  20  40  1   
 40  22  25  1   
 41  23  26  ar  
 42  23  41  1   
 43  24  26  ar  
 44  24  42  1   
 45  25  43  1   
 46  25  44  1   
 47  25  45  1   
 48  26  46  1   
@<TRIPOS>SUBSTRUCTURE
  1 ****   7 GROUP 4 **** **** 0

# MOE 2024.06 (io_trps.svl 2023.06)
