@<TRIPOS>MOLECULE
NONAME
32 33 1 0 0 
SMALL
USER_CHARGES


@<TRIPOS>ATOM
  1 CL      -2.3210     2.0640     2.2210 Cl    1 <1>  -0.1770 
  2 C       -1.1850     2.5840     1.0010 C.ar  1 <1>   0.1770 
  3 C       -1.4940     2.4380    -0.3530 C.ar  1 <1>   0.0860 
  4 C        0.0080     3.1340     1.4280 C.ar  1 <1>  -0.1500 
  5 C       -2.7480     1.8700    -0.7850 C.2   1 <1>   0.5440 
  6 C       -0.5440     2.8600    -1.2870 C.ar  1 <1>  -0.1500 
  7 C        0.9130     3.5440     0.4690 C.ar  1 <1>   0.1900 
  8 O       -2.7700     0.6970    -1.1030 O.2   1 <1>  -0.5700 
  9 N       -3.9020     2.6250    -0.8720 N.am  1 <1>  -0.6600 
 10 C        0.6590     3.4150    -0.8840 C.ar  1 <1>  -0.1500 
 11 F        2.0420     4.0680     0.8510 F     1 <1>  -0.1900 
 12 C       -5.2090     1.9850    -1.1890 C.3   1 <1>   0.1400 
 13 C       -3.9400     4.0950    -0.6420 C.3   1 <1>   0.1400 
 14 C       -5.9480     1.6670     0.1150 C.3   1 <1>  -0.1600 
 15 C       -4.7510     4.4580     0.6090 C.3   1 <1>  -0.1600 
 16 C       -6.7590     2.8280     0.7200 C.3   1 <1>  -0.1600 
 17 C       -6.2630     4.2550     0.4320 C.3   1 <1>  -0.1600 
 18 H        0.2280     3.2400     2.4740 H     1 <1>   0.1500 
 19 H       -0.7600     2.7430    -2.3360 H     1 <1>   0.1500 
 20 H        1.3920     3.7410    -1.6020 H     1 <1>   0.1500 
 21 H       -5.0390     1.0670    -1.7260 H     1 <1>   0.0800 
 22 H       -5.7990     2.6240    -1.8220 H     1 <1>   0.0800 
 23 H       -4.3700     4.5730    -1.5060 H     1 <1>   0.0800 
 24 H       -2.9430     4.4810    -0.5310 H     1 <1>   0.0800 
 25 H       -5.2300     1.3120     0.8350 H     1 <1>   0.0800 
 26 H       -6.6240     0.8520    -0.0710 H     1 <1>   0.0800 
 27 H       -4.5810     5.5020     0.8040 H     1 <1>   0.0800 
 28 H       -4.3900     3.9120     1.4620 H     1 <1>   0.0800 
 29 H       -6.7970     2.6830     1.7860 H     1 <1>   0.0800 
 30 H       -7.7720     2.7580     0.3620 H     1 <1>   0.0800 
 31 H       -6.5510     4.5430    -0.5650 H     1 <1>   0.0800 
 32 H       -6.7780     4.9190     1.1060 H     1 <1>   0.0800 
@<TRIPOS>BOND
  1   1   2  1   
  2   2   3  ar  
  3   2   4  ar  
  4   3   5  1   
  5   3   6  ar  
  6   4   7  ar  
  7   4  18  1   
  8   5   8  2   
  9   5   9  am  
 10   6  10  ar  
 11   6  19  1   
 12   7  10  ar  
 13   7  11  1   
 14   9  12  1   
 15   9  13  1   
 16  10  20  1   
 17  12  14  1   
 18  12  21  1   
 19  12  22  1   
 20  13  15  1   
 21  13  23  1   
 22  13  24  1   
 23  14  16  1   
 24  14  25  1   
 25  14  26  1   
 26  15  17  1   
 27  15  27  1   
 28  15  28  1   
 29  16  17  1   
 30  16  29  1   
 31  16  30  1   
 32  17  31  1   
 33  17  32  1   
@<TRIPOS>SUBSTRUCTURE
  1 ****   3 GROUP 4 **** **** 0

# MOE 2024.06 (io_trps.svl 2023.06)
