@<TRIPOS>MOLECULE
NONAME
40 41 1 0 0 
SMALL
USER_CHARGES


@<TRIPOS>ATOM
  1 CL       1.2560     0.7450    -2.2930 Cl    1 <1>  -0.1770 
  2 C        2.2690     1.4390    -1.0460 C.ar  1 <1>   0.1770 
  3 C        1.9980     2.7020    -0.5320 C.ar  1 <1>   0.0820 
  4 C        3.3400     0.6870    -0.6000 C.ar  1 <1>  -0.1500 
  5 O        0.9210     3.3870    -0.9920 O.3   1 <1>  -0.3630 
  6 C        2.8540     3.2230     0.4490 C.ar  1 <1>   0.0830 
  7 C        4.1760     1.1970     0.3830 C.ar  1 <1>  -0.1440 
  8 C       -0.3070     3.0980    -0.3620 C.3   1 <1>   0.0400 
  9 O        2.7440     4.4500     1.0270 O.3   1 <1>  -0.3630 
 10 C        3.9180     2.4580     0.9010 C.ar  1 <1>  -0.1500 
 11 C        5.3630     0.4000     0.8760 C.3   1 <1>   0.4860 
 12 C        2.2050     5.5490     0.3220 C.3   1 <1>   0.0400 
 13 N        6.5190     0.8270     0.0620 N.4   1 <1>  -0.9060 
 14 C        7.7880     0.1310     0.4370 C.3   1 <1>   0.3430 
 15 C        8.9880     0.6070    -0.3970 C.3   1 <1>   0.2000 
 16 O       10.1180    -0.0120     0.1000 O.3   1 <1>  -0.5600 
 17 C        9.3050     2.0950    -0.2970 C.3   1 <1>  -0.1600 
 18 C       11.2640     0.7010    -0.2490 C.3   1 <1>   0.1200 
 19 C       10.8070     2.1310    -0.5310 C.3   1 <1>  -0.1600 
 20 H        3.4950    -0.2870    -1.0310 H     1 <1>   0.1500 
 21 H       -1.0640     3.7250    -0.7980 H     1 <1>   0.0800 
 22 H       -0.2170     3.3040     0.6900 H     1 <1>   0.0800 
 23 H       -0.5520     2.0630    -0.5230 H     1 <1>   0.0800 
 24 H        4.5410     2.8820     1.6710 H     1 <1>   0.1500 
 25 H        5.1790    -0.6550     0.7520 H     1 <1>   0.0800 
 26 H        5.5370     0.6060     1.9200 H     1 <1>   0.0800 
 27 H        2.5310     6.4520     0.8070 H     1 <1>   0.0800 
 28 H        1.1320     5.4920     0.3510 H     1 <1>   0.0800 
 29 H        2.5600     5.5290    -0.6940 H     1 <1>   0.0800 
 30 H        6.6240     1.8430     0.1700 H     1 <1>   0.4500 
 31 H        6.2920     0.6650    -0.9270 H     1 <1>   0.4500 
 32 H        7.6770    -0.9320     0.2970 H     1 <1>   0.0800 
 33 H        8.0080     0.3160     1.4750 H     1 <1>   0.0800 
 34 H        8.8890     0.3030    -1.4260 H     1 <1>   0.0800 
 35 H        9.0870     2.4580     0.6920 H     1 <1>   0.0800 
 36 H        8.7700     2.6800    -1.0250 H     1 <1>   0.0800 
 37 H       11.6970     0.2460    -1.1240 H     1 <1>   0.0800 
 38 H       11.9610     0.6530     0.5710 H     1 <1>   0.0800 
 39 H       11.2990     2.8330     0.1190 H     1 <1>   0.0800 
 40 H       11.0360     2.3850    -1.5520 H     1 <1>   0.0800 
@<TRIPOS>BOND
  1   1   2  1   
  2   2   3  ar  
  3   2   4  ar  
  4   3   5  1   
  5   3   6  ar  
  6   4   7  ar  
  7   4  20  1   
  8   5   8  1   
  9   6   9  1   
 10   6  10  ar  
 11   7  10  ar  
 12   7  11  1   
 13   8  21  1   
 14   8  22  1   
 15   8  23  1   
 16   9  12  1   
 17  10  24  1   
 18  11  13  1   
 19  11  25  1   
 20  11  26  1   
 21  12  27  1   
 22  12  28  1   
 23  12  29  1   
 24  13  14  1   
 25  13  30  1   
 26  13  31  1   
 27  14  15  1   
 28  14  32  1   
 29  14  33  1   
 30  15  16  1   
 31  15  17  1   
 32  15  34  1   
 33  16  18  1   
 34  17  19  1   
 35  17  35  1   
 36  17  36  1   
 37  18  19  1   
 38  18  37  1   
 39  18  38  1   
 40  19  39  1   
 41  19  40  1   
@<TRIPOS>SUBSTRUCTURE
  1 ****   7 GROUP 4 **** **** 0

# MOE 2024.06 (io_trps.svl 2023.06)
