@<TRIPOS>MOLECULE
NONAME
28 29 1 0 0 
SMALL
USER_CHARGES


@<TRIPOS>ATOM
  1 S        0.0600     0.2670     0.1860 S.3   1 <1>  -0.4600 
  2 C        0.0360    -1.5420     0.1920 C.3   1 <1>   0.0700 
  3 C        1.8290     0.4960    -0.1060 C.3   1 <1>   0.0700 
  4 C        1.5080    -1.9380     0.2980 C.3   1 <1>   0.2000 
  5 C        2.3580    -0.8970    -0.4600 C.3   1 <1>   0.2200 
  6 O        1.6830    -3.2020    -0.2450 O.3   1 <1>  -0.6800 
  7 N        3.8100    -1.0100    -0.1340 N.am  1 <1>  -0.7300 
  8 C        4.6510    -1.9760    -0.6080 C.2   1 <1>   0.5440 
  9 O        4.1710    -2.8650    -1.2830 O.2   1 <1>  -0.5700 
 10 C        6.0670    -1.9580    -0.2830 C.ar  1 <1>   0.0860 
 11 C        6.7530    -0.7670    -0.0340 C.ar  1 <1>  -0.1500 
 12 C        6.7980    -3.1450    -0.2070 C.ar  1 <1>  -0.1500 
 13 C        8.0980    -0.7630     0.2910 C.ar  1 <1>  -0.1500 
 14 C        8.1430    -3.1480     0.1160 C.ar  1 <1>  -0.1500 
 15 C        8.7950    -1.9550     0.3680 C.ar  1 <1>  -0.1500 
 16 H       -0.3970    -1.8560    -0.7410 H     1 <1>   0.0800 
 17 H       -0.5460    -1.8760     1.0310 H     1 <1>   0.0800 
 18 H        2.2450     0.8700     0.8120 H     1 <1>   0.0800 
 19 H        1.9500     1.2000    -0.9090 H     1 <1>   0.0800 
 20 H        1.8020    -1.9690     1.3330 H     1 <1>   0.0800 
 21 H        2.2160    -1.0490    -1.5170 H     1 <1>   0.0800 
 22 H        2.6020    -3.2650    -0.6200 H     1 <1>   0.4000 
 23 H        4.1570    -0.3740     0.5850 H     1 <1>   0.3700 
 24 H        6.2340     0.1710    -0.1030 H     1 <1>   0.1500 
 25 H        6.2980    -4.0780    -0.4050 H     1 <1>   0.1500 
 26 H        8.6070     0.1670     0.4810 H     1 <1>   0.1500 
 27 H        8.6820    -4.0780     0.1700 H     1 <1>   0.1500 
 28 H        9.8420    -1.9550     0.6200 H     1 <1>   0.1500 
@<TRIPOS>BOND
  1   1   2  1   
  2   1   3  1   
  3   2   4  1   
  4   2  16  1   
  5   2  17  1   
  6   3   5  1   
  7   3  18  1   
  8   3  19  1   
  9   4   5  1   
 10   4   6  1   
 11   4  20  1   
 12   5   7  1   
 13   5  21  1   
 14   6  22  1   
 15   7   8  am  
 16   7  23  1   
 17   8   9  2   
 18   8  10  1   
 19  10  11  ar  
 20  10  12  ar  
 21  11  13  ar  
 22  11  24  1   
 23  12  14  ar  
 24  12  25  1   
 25  13  15  ar  
 26  13  26  1   
 27  14  15  ar  
 28  14  27  1   
 29  15  28  1   
@<TRIPOS>SUBSTRUCTURE
  1 ****   8 GROUP 4 **** **** 0

# MOE 2024.06 (io_trps.svl 2023.06)
