@<TRIPOS>MOLECULE
NONAME
56 58 1 0 0 
SMALL
USER_CHARGES


@<TRIPOS>ATOM
  1 S       -0.2050     1.6130    -1.7670 S.o2  1 <1>   1.4470 
  2 O       -1.2890     1.7820    -2.7060 O.2   1 <1>  -0.6500 
  3 O        1.1530     1.8140    -2.2240 O.2   1 <1>  -0.6500 
  4 N       -0.4260     2.7520    -0.4750 N.am  1 <1>  -0.6930 
  5 C       -0.3450    -0.0100    -0.9670 C.ar  1 <1>  -0.0090 
  6 C       -1.6390     3.3900    -0.2160 C.ar  1 <1>   0.1990 
  7 C        0.7390     2.9710     0.4390 C.3   1 <1>   0.2570 
  8 C        0.5130    -1.0480    -1.3120 C.ar  1 <1>  -0.1500 
  9 C       -1.3120    -0.2690    -0.0020 C.ar  1 <1>  -0.1500 
 10 C       -2.2580     3.2860     1.0250 C.ar  1 <1>  -0.1500 
 11 C       -2.2550     4.1690    -1.1880 C.ar  1 <1>  -0.1500 
 12 C        1.0570     1.7780     1.3520 C.2   1 <1>   0.5690 
 13 C        0.4250    -2.2900    -0.7080 C.ar  1 <1>  -0.1500 
 14 C       -1.4040    -1.5070     0.6100 C.ar  1 <1>  -0.1500 
 15 C       -3.4510     3.9350     1.2840 C.ar  1 <1>  -0.1500 
 16 C       -3.4500     4.8180    -0.9320 C.ar  1 <1>  -0.1500 
 17 O        0.3360     1.5940     2.3070 O.2   1 <1>  -0.5700 
 18 N        2.1160     0.9410     1.1100 N.am  1 <1>  -0.6600 
 19 C       -0.5350    -2.5250     0.2610 C.ar  1 <1>  -0.1440 
 20 C       -4.0620     4.7090     0.3080 C.ar  1 <1>  -0.1430 
 21 C        3.2140     1.1210     0.1320 C.3   1 <1>   0.1400 
 22 C        2.3190    -0.2910     1.9040 C.3   1 <1>   0.1400 
 23 C       -0.6360    -3.8800     0.9370 C.3   1 <1>  -0.0970 
 24 C       -5.3800     5.4310     0.5750 C.3   1 <1>   0.0630 
 25 C        4.2960     0.1540     0.5940 C.3   1 <1>  -0.1600 
 26 C        3.5290    -0.9730     1.2770 C.3   1 <1>  -0.1600 
 27 C       -5.2240     6.4530     1.7060 C.3   1 <1>  -0.2400 
 28 C       -6.4950     4.4310     0.8960 C.3   1 <1>  -0.2400 
 29 H        0.5300     3.8150     1.0700 H     1 <1>   0.0800 
 30 H        1.6010     3.2250    -0.1490 H     1 <1>   0.0800 
 31 H        1.2650    -0.8810    -2.0640 H     1 <1>   0.1500 
 32 H       -2.0000     0.5080     0.2820 H     1 <1>   0.1500 
 33 H       -1.8110     2.6900     1.7970 H     1 <1>   0.1500 
 34 H       -1.7950     4.2660    -2.1540 H     1 <1>   0.1500 
 35 H        1.1070    -3.0710    -0.9960 H     1 <1>   0.1500 
 36 H       -2.1570    -1.6700     1.3620 H     1 <1>   0.1500 
 37 H       -3.9030     3.8320     2.2540 H     1 <1>   0.1500 
 38 H       -3.9000     5.4090    -1.7100 H     1 <1>   0.1500 
 39 H        3.5720     2.1360     0.1150 H     1 <1>   0.0800 
 40 H        2.8750     0.8330    -0.8460 H     1 <1>   0.0800 
 41 H        1.4430    -0.9170     1.8630 H     1 <1>   0.0800 
 42 H        2.5200    -0.0210     2.9270 H     1 <1>   0.0800 
 43 H       -0.1140    -3.8580     1.8770 H     1 <1>   0.0800 
 44 H       -0.2060    -4.6470     0.3190 H     1 <1>   0.0800 
 45 H       -1.6660    -4.1300     1.1180 H     1 <1>   0.0800 
 46 H       -5.6670     5.9680    -0.3140 H     1 <1>   0.0800 
 47 H        4.9300     0.6510     1.3070 H     1 <1>   0.0800 
 48 H        4.8970    -0.1950    -0.2270 H     1 <1>   0.0800 
 49 H        3.1870    -1.6820     0.5430 H     1 <1>   0.0800 
 50 H        4.1220    -1.4890     2.0120 H     1 <1>   0.0800 
 51 H       -4.9840     5.9650     2.6330 H     1 <1>   0.0800 
 52 H       -6.1360     7.0080     1.8360 H     1 <1>   0.0800 
 53 H       -4.4340     7.1420     1.4670 H     1 <1>   0.0800 
 54 H       -6.2820     3.8970     1.8050 H     1 <1>   0.0800 
 55 H       -6.5860     3.7180     0.0950 H     1 <1>   0.0800 
 56 H       -7.4340     4.9420     1.0090 H     1 <1>   0.0800 
@<TRIPOS>BOND
  1   1   2  2   
  2   1   3  2   
  3   1   4  am  
  4   1   5  1   
  5   4   6  1   
  6   4   7  1   
  7   5   8  ar  
  8   5   9  ar  
  9   6  10  ar  
 10   6  11  ar  
 11   7  12  1   
 12   7  29  1   
 13   7  30  1   
 14   8  13  ar  
 15   8  31  1   
 16   9  14  ar  
 17   9  32  1   
 18  10  15  ar  
 19  10  33  1   
 20  11  16  ar  
 21  11  34  1   
 22  12  17  2   
 23  12  18  am  
 24  13  19  ar  
 25  13  35  1   
 26  14  19  ar  
 27  14  36  1   
 28  15  20  ar  
 29  15  37  1   
 30  16  20  ar  
 31  16  38  1   
 32  18  21  1   
 33  18  22  1   
 34  19  23  1   
 35  20  24  1   
 36  21  25  1   
 37  21  39  1   
 38  21  40  1   
 39  22  26  1   
 40  22  41  1   
 41  22  42  1   
 42  23  43  1   
 43  23  44  1   
 44  23  45  1   
 45  24  27  1   
 46  24  28  1   
 47  24  46  1   
 48  25  26  1   
 49  25  47  1   
 50  25  48  1   
 51  26  49  1   
 52  26  50  1   
 53  27  51  1   
 54  27  52  1   
 55  27  53  1   
 56  28  54  1   
 57  28  55  1   
 58  28  56  1   
@<TRIPOS>SUBSTRUCTURE
  1 ****   4 GROUP 4 **** **** 0

# MOE 2024.06 (io_trps.svl 2023.06)
