@<TRIPOS>MOLECULE
NONAME
43 44 1 0 0 
SMALL
USER_CHARGES


@<TRIPOS>ATOM
  1 S       -0.0280     0.0410     0.4570 S.o2  1 <1>   1.3330 
  2 O       -0.1110     0.1080     1.8980 O.2   1 <1>  -0.6500 
  3 O       -0.0130    -1.2440    -0.2040 O.2   1 <1>  -0.6500 
  4 N        1.3490     0.9060    -0.0200 N.am  1 <1>  -0.8490 
  5 C       -1.3490     0.9990    -0.2530 C.3   1 <1>  -0.1350 
  6 C        2.5090     0.0270    -0.2000 C.3   1 <1>   0.1960 
  7 C        1.6480     2.0200     0.8880 C.3   1 <1>   0.1960 
  8 C        3.6960     0.8090    -0.7690 C.3   1 <1>  -0.1600 
  9 C        2.7940     2.8680     0.3350 C.3   1 <1>  -0.1600 
 10 C        4.0550     2.0140     0.1140 C.3   1 <1>  -0.0190 
 11 C        5.2040     2.8230    -0.4880 C.2   1 <1>   0.5690 
 12 O        4.9910     3.5070    -1.4590 O.2   1 <1>  -0.5700 
 13 N        6.4320     2.7100     0.1050 N.am  1 <1>  -0.5470 
 14 C        7.6670     3.3140    -0.1940 C.ar  1 <1>   0.1170 
 15 C        8.8620     2.6690     0.1500 C.ar  1 <1>  -0.1440 
 16 C        7.7230     4.5620    -0.8080 C.ar  1 <1>  -0.1500 
 17 C       10.0710     3.2970    -0.1270 C.ar  1 <1>  -0.1500 
 18 C        8.8100     1.2880     0.8200 C.3   1 <1>  -0.0170 
 19 C        8.9320     5.1710    -1.0810 C.ar  1 <1>  -0.1500 
 20 C       10.1090     4.5370    -0.7390 C.ar  1 <1>  -0.1500 
 21 C       10.1560     0.5760     1.0010 C.3   1 <1>  -0.2400 
 22 H       -1.2280     1.0580    -1.3170 H     1 <1>   0.0800 
 23 H       -1.3520     1.9910     0.1520 H     1 <1>   0.0800 
 24 H       -2.2920     0.5360    -0.0390 H     1 <1>   0.0800 
 25 H        2.2640    -0.7630    -0.8920 H     1 <1>   0.0800 
 26 H        2.7720    -0.4250     0.7430 H     1 <1>   0.0800 
 27 H        1.9130     1.6380     1.8620 H     1 <1>   0.0800 
 28 H        0.7760     2.6410     1.0010 H     1 <1>   0.0800 
 29 H        3.4420     1.1480    -1.7590 H     1 <1>   0.0800 
 30 H        4.5440     0.1540    -0.8570 H     1 <1>   0.0800 
 31 H        3.0120     3.6670     1.0200 H     1 <1>   0.0800 
 32 H        2.4810     3.3100    -0.5960 H     1 <1>   0.0800 
 33 H        4.3690     1.6440     1.0730 H     1 <1>   0.0800 
 34 H        6.4840     2.0370     0.8640 H     1 <1>   0.3700 
 35 H        6.8160     5.0720    -1.0740 H     1 <1>   0.1500 
 36 H       11.0100     2.8390     0.1220 H     1 <1>   0.1500 
 37 H        8.1820     0.6470     0.2260 H     1 <1>   0.0800 
 38 H        8.3540     1.3950     1.7890 H     1 <1>   0.0800 
 39 H        8.9540     6.1350    -1.5580 H     1 <1>   0.1500 
 40 H       11.0540     5.0070    -0.9480 H     1 <1>   0.1500 
 41 H       10.6450     0.4530     0.0500 H     1 <1>   0.0800 
 42 H       10.0000    -0.3980     1.4300 H     1 <1>   0.0800 
 43 H       10.7950     1.1360     1.6600 H     1 <1>   0.0800 
@<TRIPOS>BOND
  1   1   2  2   
  2   1   3  2   
  3   1   4  am  
  4   1   5  1   
  5   4   6  1   
  6   4   7  1   
  7   5  22  1   
  8   5  23  1   
  9   5  24  1   
 10   6   8  1   
 11   6  25  1   
 12   6  26  1   
 13   7   9  1   
 14   7  27  1   
 15   7  28  1   
 16   8  10  1   
 17   8  29  1   
 18   8  30  1   
 19   9  10  1   
 20   9  31  1   
 21   9  32  1   
 22  10  11  1   
 23  10  33  1   
 24  11  12  2   
 25  11  13  am  
 26  13  14  1   
 27  13  34  1   
 28  14  15  ar  
 29  14  16  ar  
 30  15  17  ar  
 31  15  18  1   
 32  16  19  ar  
 33  16  35  1   
 34  17  20  ar  
 35  17  36  1   
 36  18  21  1   
 37  18  37  1   
 38  18  38  1   
 39  19  20  ar  
 40  19  39  1   
 41  20  40  1   
 42  21  41  1   
 43  21  42  1   
 44  21  43  1   
@<TRIPOS>SUBSTRUCTURE
  1 ****  10 GROUP 4 **** **** 0

# MOE 2024.06 (io_trps.svl 2023.06)
