@<TRIPOS>MOLECULE
NONAME
34 33 1 0 0 
SMALL
USER_CHARGES


@<TRIPOS>ATOM
  1 O       -0.4330    -2.4360     3.6240 O.2   1 <1>  -0.5200 
  2 N        0.2580    -2.5220     2.5900 N.pl3 1 <1>   0.8360 
  3 O        1.4100    -2.0470     2.5970 O.2   1 <1>  -0.5200 
  4 C       -0.2920    -3.0540     1.4200 C.2   1 <1>   0.2190 
  5 C        0.6420    -3.8430     0.7120 C.2   1 <1>   0.7060 
  6 C       -1.5810    -2.7490     1.0600 C.2   1 <1>  -0.0500 
  7 O        1.1060    -4.8850     1.1430 O.2   1 <1>  -0.5700 
  8 O        1.0690    -3.3950    -0.4780 O.3   1 <1>  -0.4300 
  9 N       -2.4000    -3.2110     0.0480 N.pl3 1 <1>  -0.8380 
 10 C        2.0860    -4.0600    -1.2030 C.3   1 <1>   0.0400 
 11 C       -2.5490    -4.6490    -0.3610 C.3   1 <1>   0.2890 
 12 C       -3.4760    -2.2840    -0.4180 C.3   1 <1>   0.2890 
 13 C       -2.4880    -5.5750     0.8520 C.3   1 <1>  -0.2400 
 14 C       -1.5460    -5.0430    -1.4410 C.3   1 <1>  -0.2400 
 15 C       -4.8080    -2.6280     0.2460 C.3   1 <1>  -0.2400 
 16 C       -3.5700    -2.2670    -1.9420 C.3   1 <1>  -0.2400 
 17 H       -2.0560    -1.9990     1.6750 H     1 <1>   0.1500 
 18 H        2.2570    -3.5250    -2.1200 H     1 <1>   0.0800 
 19 H        1.7670    -5.0660    -1.4150 H     1 <1>   0.0800 
 20 H        2.9840    -4.0730    -0.6090 H     1 <1>   0.0800 
 21 H       -3.5260    -4.7800    -0.7910 H     1 <1>   0.0800 
 22 H       -3.2100    -1.2850    -0.1100 H     1 <1>   0.0800 
 23 H       -1.5080    -5.5960     1.2880 H     1 <1>   0.0800 
 24 H       -2.7380    -6.5760     0.5530 H     1 <1>   0.0800 
 25 H       -3.2000    -5.2560     1.5910 H     1 <1>   0.0800 
 26 H       -0.6140    -5.3510    -1.0140 H     1 <1>   0.0800 
 27 H       -1.3830    -4.2300    -2.1240 H     1 <1>   0.0800 
 28 H       -1.9320    -5.8800    -1.9930 H     1 <1>   0.0800 
 29 H       -5.1920    -3.5690    -0.0990 H     1 <1>   0.0800 
 30 H       -5.5320    -1.8690     0.0130 H     1 <1>   0.0800 
 31 H       -4.6870    -2.6630     1.3130 H     1 <1>   0.0800 
 32 H       -3.9200    -3.2060    -2.3280 H     1 <1>   0.0800 
 33 H       -2.6070    -2.0420    -2.3620 H     1 <1>   0.0800 
 34 H       -4.2590    -1.5030    -2.2510 H     1 <1>   0.0800 
@<TRIPOS>BOND
  1   1   2  2   
  2   2   3  2   
  3   2   4  1   
  4   4   5  1   
  5   4   6  2   
  6   5   7  2   
  7   5   8  1   
  8   6   9  1   
  9   6  17  1   
 10   8  10  1   
 11   9  11  1   
 12   9  12  1   
 13  10  18  1   
 14  10  19  1   
 15  10  20  1   
 16  11  13  1   
 17  11  14  1   
 18  11  21  1   
 19  12  15  1   
 20  12  16  1   
 21  12  22  1   
 22  13  23  1   
 23  13  24  1   
 24  13  25  1   
 25  14  26  1   
 26  14  27  1   
 27  14  28  1   
 28  15  29  1   
 29  15  30  1   
 30  15  31  1   
 31  16  32  1   
 32  16  33  1   
 33  16  34  1   
@<TRIPOS>SUBSTRUCTURE
  1 ****   6 GROUP 4 **** **** 0

# MOE 2024.06 (io_trps.svl 2023.06)
