@<TRIPOS>MOLECULE
NONAME
30 31 1 0 0 
SMALL
USER_CHARGES


@<TRIPOS>ATOM
  1 S        0.1160     0.2930    -0.3630 S.o2  1 <1>   1.2040 
  2 O        0.4440     0.4550    -1.7620 O.2   1 <1>  -0.6500 
  3 O        0.0060     1.4610     0.4820 O.2   1 <1>  -0.6500 
  4 C       -1.4000    -0.6900    -0.2320 C.ar  1 <1>  -0.0090 
  5 C        1.3390    -0.7900     0.3590 C.3   1 <1>  -0.0550 
  6 C       -1.4040    -2.0420     0.1060 C.ar  1 <1>  -0.1440 
  7 C       -2.6170    -0.0790    -0.4990 C.ar  1 <1>  -0.1500 
  8 C        1.1650    -2.2400    -0.1070 C.3   1 <1>  -0.1600 
  9 C       -2.6090    -2.7220     0.1710 C.ar  1 <1>  -0.1500 
 10 C       -0.1400    -2.8370     0.4350 C.3   1 <1>  -0.0160 
 11 C       -3.8370    -0.7440    -0.4410 C.ar  1 <1>  -0.0090 
 12 C       -3.8140    -2.0940    -0.0940 C.ar  1 <1>  -0.1440 
 13 S       -5.3680     0.1810    -0.7990 S.o2  1 <1>   1.4470 
 14 C       -5.0920    -2.9190     0.0040 C.3   1 <1>  -0.0970 
 15 O       -6.3140    -0.5710    -1.5850 O.2   1 <1>  -0.6500 
 16 O       -5.0950     1.5570    -1.1300 O.2   1 <1>  -0.6500 
 17 N       -6.1210     0.3350     0.6670 N.am  1 <1>  -0.9780 
 18 H        1.2630    -0.7540     1.4290 H     1 <1>   0.0800 
 19 H        2.3180    -0.4410     0.0900 H     1 <1>   0.0800 
 20 H       -2.6080     0.9670    -0.7640 H     1 <1>   0.1500 
 21 H        1.9950    -2.8300     0.2410 H     1 <1>   0.0800 
 22 H        1.1620    -2.2750    -1.1840 H     1 <1>   0.0800 
 23 H       -2.6080    -3.7660     0.4370 H     1 <1>   0.1500 
 24 H       -0.2390    -3.8340     0.0410 H     1 <1>   0.0800 
 25 H       -0.0670    -2.9260     1.5060 H     1 <1>   0.0800 
 26 H       -4.8920    -3.9030     0.3880 H     1 <1>   0.0800 
 27 H       -5.5410    -3.0250    -0.9680 H     1 <1>   0.0800 
 28 H       -5.7970    -2.4470     0.6650 H     1 <1>   0.0800 
 29 H       -7.1070     0.3160     0.4220 H     1 <1>   0.4200 
 30 H       -5.9200     1.2960     0.9310 H     1 <1>   0.4200 
@<TRIPOS>BOND
  1   1   2  2   
  2   1   3  2   
  3   1   4  1   
  4   1   5  1   
  5   4   6  ar  
  6   4   7  ar  
  7   5   8  1   
  8   5  18  1   
  9   5  19  1   
 10   6   9  ar  
 11   6  10  1   
 12   7  11  ar  
 13   7  20  1   
 14   8  10  1   
 15   8  21  1   
 16   8  22  1   
 17   9  12  ar  
 18   9  23  1   
 19  10  24  1   
 20  10  25  1   
 21  11  12  ar  
 22  11  13  1   
 23  12  14  1   
 24  13  15  2   
 25  13  16  2   
 26  13  17  am  
 27  14  26  1   
 28  14  27  1   
 29  14  28  1   
 30  17  29  1   
 31  17  30  1   
@<TRIPOS>SUBSTRUCTURE
  1 ****   7 GROUP 4 **** **** 0

# MOE 2024.06 (io_trps.svl 2023.06)
