@<TRIPOS>MOLECULE
NONAME
41 43 1 0 0 
SMALL
USER_CHARGES


@<TRIPOS>ATOM
  1 O        0.5090    -0.8380     1.1790 O.3   1 <1>  -0.5600 
  2 C        0.2460    -1.8680     0.2630 C.3   1 <1>   0.2000 
  3 C        1.2780     0.2540     0.7400 C.3   1 <1>   0.2000 
  4 C        1.5710    -2.5000    -0.2440 C.3   1 <1>   0.3430 
  5 C       -0.6510    -1.3370    -0.8630 C.3   1 <1>  -0.2400 
  6 C        2.4340    -0.1930    -0.1920 C.3   1 <1>   0.3430 
  7 C        1.8080     0.9310     2.0020 C.3   1 <1>  -0.2400 
  8 N        2.7690    -1.6370     0.0390 N.4   1 <1>  -0.9590 
  9 C        4.0090    -2.0830    -0.6480 C.3   1 <1>   0.4860 
 10 C        5.1580    -1.2140    -0.1740 C.ar  1 <1>  -0.1440 
 11 C        5.7350    -0.2920    -1.0070 C.ar  1 <1>  -0.1500 
 12 C        5.6290    -1.3440     1.1420 C.ar  1 <1>  -0.1500 
 13 C        6.7810     0.5450    -0.5710 C.ar  1 <1>   0.0000 
 14 C        6.6420    -0.5440     1.5910 C.ar  1 <1>  -0.1500 
 15 C        7.2400     0.4210     0.7570 C.ar  1 <1>   0.0000 
 16 C        7.3840     1.5040    -1.4100 C.ar  1 <1>  -0.1500 
 17 C        8.2800     1.2640     1.1960 C.ar  1 <1>  -0.1500 
 18 C        8.3920     2.3090    -0.9560 C.ar  1 <1>  -0.1500 
 19 C        8.8450     2.1890     0.3620 C.ar  1 <1>  -0.1500 
 20 H       -0.3080    -2.6210     0.7990 H     1 <1>   0.0800 
 21 H        0.6300     0.9390     0.2190 H     1 <1>   0.0800 
 22 H        1.4820    -2.6750    -1.3030 H     1 <1>   0.0800 
 23 H        1.6980    -3.4590     0.2310 H     1 <1>   0.0800 
 24 H       -0.1410    -0.6310    -1.4910 H     1 <1>   0.0800 
 25 H       -1.5250    -0.8710    -0.4400 H     1 <1>   0.0800 
 26 H       -0.9810    -2.1540    -1.4800 H     1 <1>   0.0800 
 27 H        3.2930     0.4330    -0.0090 H     1 <1>   0.0800 
 28 H        2.1360    -0.0470    -1.2170 H     1 <1>   0.0800 
 29 H        2.4380     0.2620     2.5620 H     1 <1>   0.0800 
 30 H        0.9850     1.2390     2.6230 H     1 <1>   0.0800 
 31 H        2.3790     1.8060     1.7460 H     1 <1>   0.0800 
 32 H        2.9340    -1.6940     1.0540 H     1 <1>   0.4500 
 33 H        3.8970    -1.9900    -1.7160 H     1 <1>   0.0800 
 34 H        4.2180    -3.1140    -0.4120 H     1 <1>   0.0800 
 35 H        5.4070    -0.1760    -2.0260 H     1 <1>   0.1500 
 36 H        5.2000    -2.0770     1.8040 H     1 <1>   0.1500 
 37 H        7.0090    -0.6380     2.5980 H     1 <1>   0.1500 
 38 H        7.0400     1.5960    -2.4240 H     1 <1>   0.1500 
 39 H        8.6270     1.1680     2.2100 H     1 <1>   0.1500 
 40 H        8.8510     3.0400    -1.6000 H     1 <1>   0.1500 
 41 H        9.6390     2.8300     0.7030 H     1 <1>   0.1500 
@<TRIPOS>BOND
  1   1   2  1   
  2   1   3  1   
  3   2   4  1   
  4   2   5  1   
  5   2  20  1   
  6   3   6  1   
  7   3   7  1   
  8   3  21  1   
  9   4   8  1   
 10   4  22  1   
 11   4  23  1   
 12   5  24  1   
 13   5  25  1   
 14   5  26  1   
 15   6   8  1   
 16   6  27  1   
 17   6  28  1   
 18   7  29  1   
 19   7  30  1   
 20   7  31  1   
 21   8   9  1   
 22   8  32  1   
 23   9  10  1   
 24   9  33  1   
 25   9  34  1   
 26  10  11  ar  
 27  10  12  ar  
 28  11  13  ar  
 29  11  35  1   
 30  12  14  ar  
 31  12  36  1   
 32  13  15  ar  
 33  13  16  ar  
 34  14  15  ar  
 35  14  37  1   
 36  15  17  ar  
 37  16  18  ar  
 38  16  38  1   
 39  17  19  ar  
 40  17  39  1   
 41  18  19  ar  
 42  18  40  1   
 43  19  41  1   
@<TRIPOS>SUBSTRUCTURE
  1 ****  10 GROUP 4 **** **** 0

# MOE 2024.06 (io_trps.svl 2023.06)
