@<TRIPOS>MOLECULE
NONAME
53 55 1 0 0 
SMALL
USER_CHARGES


@<TRIPOS>ATOM
  1 S        0.0820     1.3630    -0.5480 S.o2  1 <1>   1.4470 
  2 O       -0.4630     2.4470     0.2330 O.2   1 <1>  -0.6500 
  3 O        0.5410     1.5780    -1.8990 O.2   1 <1>  -0.6500 
  4 N        1.4340     0.8530     0.3870 N.am  1 <1>  -0.7570 
  5 C       -1.0170    -0.0770    -0.4520 C.ar  1 <1>  -0.0090 
  6 C        2.2940    -0.1990     0.1340 C.ar  1 <1>   0.1990 
  7 C       -2.0790    -0.1160     0.4440 C.ar  1 <1>  -0.1500 
  8 C       -0.8100    -1.1910    -1.2570 C.ar  1 <1>  -0.1500 
  9 C        2.7730    -0.4920    -1.1390 C.ar  1 <1>  -0.1500 
 10 C        2.7160    -1.0040     1.1860 C.ar  1 <1>  -0.1500 
 11 C       -2.9030    -1.2240     0.5350 C.ar  1 <1>  -0.1500 
 12 C       -1.6290    -2.3030    -1.1700 C.ar  1 <1>  -0.1500 
 13 C        3.6300    -1.5550    -1.3490 C.ar  1 <1>  -0.1500 
 14 C        3.5740    -2.0650     0.9730 C.ar  1 <1>  -0.1500 
 15 C       -2.6800    -2.3270    -0.2710 C.ar  1 <1>  -0.1430 
 16 C        4.0610    -2.3700    -0.3010 C.ar  1 <1>   0.0860 
 17 C       -3.5790    -3.5470    -0.1770 C.3   1 <1>  -0.0970 
 18 C        4.9730    -3.4760    -0.5340 C.2   1 <1>   0.5440 
 19 O        5.1010    -3.9680    -1.6400 O.2   1 <1>  -0.5700 
 20 N        5.7790    -3.9800     0.4610 N.am  1 <1>  -0.6600 
 21 C        6.1630    -5.4210     0.4010 C.3   1 <1>   0.1400 
 22 C        6.8570    -3.1100     1.0070 C.3   1 <1>   0.1400 
 23 C        7.4410    -5.5910    -0.4420 C.3   1 <1>   0.3430 
 24 C        8.1520    -3.2910     0.1840 C.3   1 <1>   0.3430 
 25 N        8.5760    -4.7380     0.0720 N.4   1 <1>  -0.9590 
 26 C        9.7670    -4.9030    -0.8020 C.3   1 <1>   0.3430 
 27 C       11.0030    -4.3580    -0.0970 C.3   1 <1>  -0.2400 
 28 H        1.2950     1.1480     1.3470 H     1 <1>   0.4200 
 29 H       -2.2700     0.7330     1.0790 H     1 <1>   0.1500 
 30 H        0.0020    -1.1900    -1.9640 H     1 <1>   0.1500 
 31 H        2.4860     0.1200    -1.9750 H     1 <1>   0.1500 
 32 H        2.3590    -0.7990     2.1790 H     1 <1>   0.1500 
 33 H       -3.7200    -1.2230     1.2360 H     1 <1>   0.1500 
 34 H       -1.4430    -3.1510    -1.8070 H     1 <1>   0.1500 
 35 H        3.9770    -1.7610    -2.3480 H     1 <1>   0.1500 
 36 H        3.8680    -2.6760     1.8090 H     1 <1>   0.1500 
 37 H       -4.0450    -3.6010     0.7900 H     1 <1>   0.0800 
 38 H       -3.0070    -4.4450    -0.3280 H     1 <1>   0.0800 
 39 H       -4.3450    -3.4920    -0.9290 H     1 <1>   0.0800 
 40 H        5.3640    -5.9880    -0.0490 H     1 <1>   0.0800 
 41 H        6.3150    -5.8010     1.3960 H     1 <1>   0.0800 
 42 H        7.0360    -3.3590     2.0390 H     1 <1>   0.0800 
 43 H        6.5520    -2.0780     0.9650 H     1 <1>   0.0800 
 44 H        7.2070    -5.3120    -1.4580 H     1 <1>   0.0800 
 45 H        7.7290    -6.6290    -0.4420 H     1 <1>   0.0800 
 46 H        8.9380    -2.7120     0.6380 H     1 <1>   0.0800 
 47 H        7.9790    -2.8940    -0.8040 H     1 <1>   0.0800 
 48 H        8.8210    -5.0750     1.0110 H     1 <1>   0.4500 
 49 H        9.6150    -4.3910    -1.7400 H     1 <1>   0.0800 
 50 H        9.9200    -5.9500    -1.0120 H     1 <1>   0.0800 
 51 H       10.9400    -3.2950     0.0480 H     1 <1>   0.0800 
 52 H       11.8670    -4.5500    -0.7080 H     1 <1>   0.0800 
 53 H       11.1540    -4.8470     0.8490 H     1 <1>   0.0800 
@<TRIPOS>BOND
  1   1   2  2   
  2   1   3  2   
  3   1   4  am  
  4   1   5  1   
  5   4   6  1   
  6   4  28  1   
  7   5   7  ar  
  8   5   8  ar  
  9   6   9  ar  
 10   6  10  ar  
 11   7  11  ar  
 12   7  29  1   
 13   8  12  ar  
 14   8  30  1   
 15   9  13  ar  
 16   9  31  1   
 17  10  14  ar  
 18  10  32  1   
 19  11  15  ar  
 20  11  33  1   
 21  12  15  ar  
 22  12  34  1   
 23  13  16  ar  
 24  13  35  1   
 25  14  16  ar  
 26  14  36  1   
 27  15  17  1   
 28  16  18  1   
 29  17  37  1   
 30  17  38  1   
 31  17  39  1   
 32  18  19  2   
 33  18  20  am  
 34  20  21  1   
 35  20  22  1   
 36  21  23  1   
 37  21  40  1   
 38  21  41  1   
 39  22  24  1   
 40  22  42  1   
 41  22  43  1   
 42  23  25  1   
 43  23  44  1   
 44  23  45  1   
 45  24  25  1   
 46  24  46  1   
 47  24  47  1   
 48  25  26  1   
 49  25  48  1   
 50  26  27  1   
 51  26  49  1   
 52  26  50  1   
 53  27  51  1   
 54  27  52  1   
 55  27  53  1   
@<TRIPOS>SUBSTRUCTURE
  1 ****  16 GROUP 4 **** **** 0

# MOE 2024.06 (io_trps.svl 2023.06)
