@<TRIPOS>MOLECULE
NONAME
44 45 1 0 0 
SMALL
USER_CHARGES


@<TRIPOS>ATOM
  1 O        0.3630     0.7250    -1.7890 O.2   1 <1>  -0.5700 
  2 C       -0.6280     1.3150    -1.3680 C.2   1 <1>   0.6160 
  3 N       -1.8390     0.7080    -1.2860 N.am  1 <1>  -0.5470 
  4 C       -0.7150     2.6340    -0.8210 C.2   1 <1>  -0.0140 
  5 C       -2.7290     1.5610    -0.6610 C.ar  1 <1>   0.1170 
  6 C       -2.0700     2.7460    -0.3570 C.ar  1 <1>   0.0280 
  7 C        0.2810     3.5660    -0.7330 C.2   1 <1>  -0.0500 
  8 C       -4.0630     1.3710    -0.3390 C.ar  1 <1>  -0.1500 
  9 C       -2.7630     3.7660     0.2860 C.ar  1 <1>  -0.1500 
 10 N        1.4970     3.4070    -1.3210 N.pl3 1 <1>  -0.8690 
 11 C       -4.7440     2.3910     0.3010 C.ar  1 <1>  -0.1500 
 12 C       -4.0960     3.5830     0.6120 C.ar  1 <1>  -0.1500 
 13 C        2.7900     3.9530    -0.8450 C.3   1 <1>   0.2090 
 14 C        3.5180     2.9000     0.0300 C.3   1 <1>   0.0000 
 15 C        3.4800     1.5450    -0.7260 C.3   1 <1>   0.3430 
 16 C        4.9660     3.3680     0.2700 C.3   1 <1>  -0.2400 
 17 C        2.8110     2.7940     1.4010 C.3   1 <1>  -0.2400 
 18 N        3.8960     0.3740     0.1030 N.4   1 <1>  -0.9590 
 19 C        5.3180    -0.0150    -0.1320 C.3   1 <1>   0.2630 
 20 C        2.9670    -0.7650    -0.1810 C.3   1 <1>   0.2630 
 21 H       -2.0210    -0.2310    -1.6360 H     1 <1>   0.3700 
 22 H        0.1200     4.4720    -0.1680 H     1 <1>   0.1500 
 23 H       -4.5540     0.4460    -0.5840 H     1 <1>   0.1500 
 24 H       -2.2660     4.6900     0.5230 H     1 <1>   0.1500 
 25 H        1.5650     2.6960    -2.0660 H     1 <1>   0.4000 
 26 H       -5.7810     2.2650     0.5620 H     1 <1>   0.1500 
 27 H       -4.6400     4.3680     1.1090 H     1 <1>   0.1500 
 28 H        3.3900     4.2110    -1.7020 H     1 <1>   0.0800 
 29 H        2.6170     4.8550    -0.2810 H     1 <1>   0.0800 
 30 H        4.0820     1.6060    -1.6180 H     1 <1>   0.0800 
 31 H        2.4650     1.3740    -1.0410 H     1 <1>   0.0800 
 32 H        4.9720     4.3500     0.7110 H     1 <1>   0.0800 
 33 H        5.5120     3.4160    -0.6570 H     1 <1>   0.0800 
 34 H        5.4860     2.7070     0.9400 H     1 <1>   0.0800 
 35 H        2.7050     3.7700     1.8420 H     1 <1>   0.0800 
 36 H        3.3640     2.1870     2.0940 H     1 <1>   0.0800 
 37 H        1.8250     2.3750     1.2900 H     1 <1>   0.0800 
 38 H        3.7680     0.6530     1.0860 H     1 <1>   0.4500 
 39 H        5.4590    -0.3100    -1.1600 H     1 <1>   0.0800 
 40 H        5.5890    -0.8430     0.5030 H     1 <1>   0.0800 
 41 H        5.9750     0.8110     0.0820 H     1 <1>   0.0800 
 42 H        3.0560    -1.0740    -1.2100 H     1 <1>   0.0800 
 43 H        1.9450    -0.4640    -0.0070 H     1 <1>   0.0800 
 44 H        3.1940    -1.6050     0.4560 H     1 <1>   0.0800 
@<TRIPOS>BOND
  1   1   2  2   
  2   2   3  am  
  3   2   4  1   
  4   3   5  1   
  5   3  21  1   
  6   4   6  1   
  7   4   7  2   
  8   5   6  ar  
  9   5   8  ar  
 10   6   9  ar  
 11   7  10  1   
 12   7  22  1   
 13   8  11  ar  
 14   8  23  1   
 15   9  12  ar  
 16   9  24  1   
 17  10  13  1   
 18  10  25  1   
 19  11  12  ar  
 20  11  26  1   
 21  12  27  1   
 22  13  14  1   
 23  13  28  1   
 24  13  29  1   
 25  14  15  1   
 26  14  16  1   
 27  14  17  1   
 28  15  18  1   
 29  15  30  1   
 30  15  31  1   
 31  16  32  1   
 32  16  33  1   
 33  16  34  1   
 34  17  35  1   
 35  17  36  1   
 36  17  37  1   
 37  18  19  1   
 38  18  20  1   
 39  18  38  1   
 40  19  39  1   
 41  19  40  1   
 42  19  41  1   
 43  20  42  1   
 44  20  43  1   
 45  20  44  1   
@<TRIPOS>SUBSTRUCTURE
  1 ****   4 GROUP 4 **** **** 0

# MOE 2024.06 (io_trps.svl 2023.06)
