@<TRIPOS>MOLECULE
NONAME
38 39 1 0 0 
SMALL
USER_CHARGES


@<TRIPOS>ATOM
  1 S        0.3920    -0.0140     0.5680 S.o2  1 <1>   1.2570 
  2 O        0.9340    -1.2020    -0.0600 O.2   1 <1>  -0.6500 
  3 O        0.2430    -0.0360     2.0090 O.2   1 <1>  -0.6500 
  4 C        1.4660     1.3970     0.1530 C.2   1 <1>   0.1240 
  5 C       -1.2130     0.3850    -0.1900 C.3   1 <1>   0.0250 
  6 N        1.1080     2.4870    -0.4710 N.2   1 <1>  -0.5650 
  7 N        2.7810     1.4130     0.5040 N.pl3 1 <1>   0.0480 
  8 C       -2.3490    -0.5300     0.3090 C.3   1 <1>  -0.2400 
  9 C       -1.2030     0.3350    -1.7330 C.3   1 <1>  -0.2400 
 10 C        2.2240     3.2270    -0.5340 C.2   1 <1>   0.0770 
 11 C        3.2640     2.5900     0.0440 C.2   1 <1>  -0.3320 
 12 C        3.5160     0.3870     1.3000 C.3   1 <1>   0.2390 
 13 C        4.7090     3.0360     0.1920 C.3   1 <1>   0.3000 
 14 C        4.6740    -0.2050     0.5090 C.ar  1 <1>  -0.1440 
 15 O        4.8680     4.2290    -0.4760 O.3   1 <1>  -0.6800 
 16 C        4.4370    -0.8730    -0.6830 C.ar  1 <1>  -0.1500 
 17 C        5.9770    -0.0840     0.9740 C.ar  1 <1>  -0.1500 
 18 C        5.4890    -1.4040    -1.4080 C.ar  1 <1>  -0.1500 
 19 C        7.0290    -0.6150     0.2480 C.ar  1 <1>  -0.1500 
 20 C        6.7860    -1.2740    -0.9440 C.ar  1 <1>  -0.1500 
 21 H       -1.4680     1.3880     0.0980 H     1 <1>   0.0800 
 22 H       -2.1500    -1.5540     0.0400 H     1 <1>   0.0800 
 23 H       -3.2910    -0.2350    -0.1160 H     1 <1>   0.0800 
 24 H       -2.4260    -0.4700     1.3810 H     1 <1>   0.0800 
 25 H       -0.9690    -0.6580    -2.0750 H     1 <1>   0.0800 
 26 H       -0.4650     1.0110    -2.1270 H     1 <1>   0.0800 
 27 H       -2.1620     0.6210    -2.1260 H     1 <1>   0.0800 
 28 H        2.2220     4.2010    -0.9990 H     1 <1>   0.1500 
 29 H        2.8570    -0.4070     1.5960 H     1 <1>   0.0800 
 30 H        3.8800     0.8570     2.1960 H     1 <1>   0.0800 
 31 H        5.3830     2.3210    -0.2490 H     1 <1>   0.0800 
 32 H        4.9670     3.1920     1.2250 H     1 <1>   0.0800 
 33 H        4.5840     4.1100    -1.4010 H     1 <1>   0.4000 
 34 H        3.4320    -0.9880    -1.0550 H     1 <1>   0.1500 
 35 H        6.1850     0.4210     1.9010 H     1 <1>   0.1500 
 36 H        5.2970    -1.9210    -2.3320 H     1 <1>   0.1500 
 37 H        8.0380    -0.5180     0.6100 H     1 <1>   0.1500 
 38 H        7.6030    -1.6870    -1.5090 H     1 <1>   0.1500 
@<TRIPOS>BOND
  1   1   2  2   
  2   1   3  2   
  3   1   4  1   
  4   1   5  1   
  5   4   6  2   
  6   4   7  1   
  7   5   8  1   
  8   5   9  1   
  9   5  21  1   
 10   6  10  1   
 11   7  11  1   
 12   7  12  1   
 13   8  22  1   
 14   8  23  1   
 15   8  24  1   
 16   9  25  1   
 17   9  26  1   
 18   9  27  1   
 19  10  11  2   
 20  10  28  1   
 21  11  13  1   
 22  12  14  1   
 23  12  29  1   
 24  12  30  1   
 25  13  15  1   
 26  13  31  1   
 27  13  32  1   
 28  14  16  ar  
 29  14  17  ar  
 30  15  33  1   
 31  16  18  ar  
 32  16  34  1   
 33  17  19  ar  
 34  17  35  1   
 35  18  20  ar  
 36  18  36  1   
 37  19  20  ar  
 38  19  37  1   
 39  20  38  1   
@<TRIPOS>SUBSTRUCTURE
  1 ****   7 GROUP 4 **** **** 0

# MOE 2024.06 (io_trps.svl 2023.06)
