@<TRIPOS>MOLECULE
NONAME
45 49 1 0 0 
SMALL
USER_CHARGES


@<TRIPOS>ATOM
  1 O       -0.4350    -0.4430    -0.1330 O.2   1 <1>  -0.5700 
  2 C       -0.3340    -1.6190    -0.3060 C.2   1 <1>   0.4480 
  3 C       -0.0170    -2.6180     0.8190 C.3   1 <1>   0.1240 
  4 C       -0.4480    -2.2600    -1.7030 C.3   1 <1>  -0.0990 
  5 C       -0.9790    -3.7880     0.5740 C.ar  1 <1>  -0.1440 
  6 C        1.3380    -3.3240     0.5640 C.3   1 <1>  -0.0190 
  7 C        0.1520    -3.6910    -1.6230 C.3   1 <1>   0.0640 
  8 C       -0.8340    -4.3890    -0.6740 C.ar  1 <1>  -0.1440 
  9 C       -1.8880    -4.2860     1.4900 C.ar  1 <1>  -0.1500 
 10 C        2.7580    -3.0480     0.9650 C.2   1 <1>   0.5690 
 11 C        1.5350    -3.4680    -0.9460 C.3   1 <1>  -0.0190 
 12 C       -1.5870    -5.5030    -1.0000 C.ar  1 <1>  -0.1500 
 13 C       -2.6460    -5.3960     1.1570 C.ar  1 <1>  -0.1500 
 14 O        3.0760    -2.3120     1.8610 O.2   1 <1>  -0.5700 
 15 N        3.5720    -3.7960     0.1330 N.am  1 <1>  -0.2370 
 16 C        2.8290    -4.2350    -0.9500 C.2   1 <1>   0.5690 
 17 C       -2.4920    -6.0050    -0.0790 C.ar  1 <1>  -0.1500 
 18 C        4.9510    -4.0070     0.3260 C.ar  1 <1>   0.1170 
 19 O        3.1260    -5.0410    -1.7930 O.2   1 <1>  -0.5700 
 20 C        5.4720    -5.2670     0.6320 C.ar  1 <1>  -0.1430 
 21 C        5.8190    -2.9260     0.2130 C.ar  1 <1>  -0.1500 
 22 C        6.8390    -5.4170     0.7980 C.ar  1 <1>  -0.1500 
 23 C        4.5780    -6.4920     0.7900 C.3   1 <1>  -0.0970 
 24 C        7.1830    -3.0790     0.3850 C.ar  1 <1>  -0.1430 
 25 C        7.6900    -4.3330     0.6750 C.ar  1 <1>  -0.1500 
 26 C        8.1190    -1.8910     0.2580 C.3   1 <1>  -0.0970 
 27 H       -0.1020    -2.1960     1.8040 H     1 <1>   0.0800 
 28 H        0.0750    -1.6550    -2.4220 H     1 <1>   0.0800 
 29 H       -1.4830    -2.3010    -1.9930 H     1 <1>   0.0800 
 30 H        1.2160    -4.3100     0.9890 H     1 <1>   0.0800 
 31 H        0.2240    -4.1580    -2.5910 H     1 <1>   0.0800 
 32 H       -2.0050    -3.8240     2.4550 H     1 <1>   0.1500 
 33 H        1.8840    -2.5240    -1.3360 H     1 <1>   0.0800 
 34 H       -1.4810    -5.9750    -1.9610 H     1 <1>   0.1500 
 35 H       -3.3560    -5.7920     1.8630 H     1 <1>   0.1500 
 36 H       -3.0830    -6.8700    -0.3260 H     1 <1>   0.1500 
 37 H        5.4160    -1.9540    -0.0080 H     1 <1>   0.1500 
 38 H        7.2550    -6.3820     1.0260 H     1 <1>   0.1500 
 39 H        5.1070    -7.2910     1.2760 H     1 <1>   0.0800 
 40 H        3.7140    -6.2560     1.3830 H     1 <1>   0.0800 
 41 H        4.2580    -6.8380    -0.1770 H     1 <1>   0.0800 
 42 H        8.7480    -4.4700     0.8070 H     1 <1>   0.1500 
 43 H        7.5780    -0.9670     0.3590 H     1 <1>   0.0800 
 44 H        8.6010    -1.9080    -0.7030 H     1 <1>   0.0800 
 45 H        8.8700    -1.9280     1.0260 H     1 <1>   0.0800 
@<TRIPOS>BOND
  1   1   2  2   
  2   2   3  1   
  3   2   4  1   
  4   3   5  1   
  5   3   6  1   
  6   3  27  1   
  7   4   7  1   
  8   4  28  1   
  9   4  29  1   
 10   5   8  ar  
 11   5   9  ar  
 12   6  10  1   
 13   6  11  1   
 14   6  30  1   
 15   7   8  1   
 16   7  11  1   
 17   7  31  1   
 18   8  12  ar  
 19   9  13  ar  
 20   9  32  1   
 21  10  14  2   
 22  10  15  am  
 23  11  16  1   
 24  11  33  1   
 25  12  17  ar  
 26  12  34  1   
 27  13  17  ar  
 28  13  35  1   
 29  15  16  am  
 30  15  18  1   
 31  16  19  2   
 32  17  36  1   
 33  18  20  ar  
 34  18  21  ar  
 35  20  22  ar  
 36  20  23  1   
 37  21  24  ar  
 38  21  37  1   
 39  22  25  ar  
 40  22  38  1   
 41  23  39  1   
 42  23  40  1   
 43  23  41  1   
 44  24  25  ar  
 45  24  26  1   
 46  25  42  1   
 47  26  43  1   
 48  26  44  1   
 49  26  45  1   
@<TRIPOS>SUBSTRUCTURE
  1 ****   6 GROUP 4 **** **** 0

# MOE 2024.06 (io_trps.svl 2023.06)
