@<TRIPOS>MOLECULE
NONAME
44 45 1 0 0 
SMALL
USER_CHARGES


@<TRIPOS>ATOM
  1 S       -0.5720     0.0170    -1.4340 S.o2  1 <1>   1.3330 
  2 O        0.4440    -0.8890    -1.9150 O.2   1 <1>  -0.6500 
  3 O       -1.1900     0.9700    -2.3260 O.2   1 <1>  -0.6500 
  4 N       -1.8050    -0.9080    -0.7280 N.am  1 <1>  -0.8490 
  5 C        0.1280     0.9310    -0.0730 C.3   1 <1>  -0.1350 
  6 C       -2.9100    -0.1170    -0.1700 C.3   1 <1>   0.1960 
  7 C       -1.3350    -1.9700     0.1640 C.3   1 <1>   0.1960 
  8 C       -4.1080    -1.0170     0.1600 C.3   1 <1>  -0.0190 
  9 C       -2.4900    -2.9190     0.5030 C.3   1 <1>  -0.1600 
 10 C       -5.2250    -0.1870     0.7730 C.2   1 <1>   0.5690 
 11 C       -3.6900    -2.1670     1.0940 C.3   1 <1>  -0.1600 
 12 O       -4.9590     0.6440     1.6080 O.2   1 <1>  -0.5700 
 13 N       -6.5000    -0.4070     0.3760 N.am  1 <1>  -0.7300 
 14 C       -7.6710     0.2910     0.9280 C.3   1 <1>   0.2840 
 15 C       -8.9100    -0.5060     0.5590 C.ar  1 <1>  -0.1440 
 16 C       -9.2920    -1.5930     1.3300 C.ar  1 <1>  -0.1500 
 17 C       -9.6660    -0.1600    -0.5510 C.ar  1 <1>  -0.1500 
 18 C      -10.4190    -2.3230     0.9960 C.ar  1 <1>  -0.1500 
 19 C      -10.7950    -0.8880    -0.8870 C.ar  1 <1>  -0.1500 
 20 C      -11.1770    -1.9790    -0.1110 C.ar  1 <1>   0.0820 
 21 O      -12.2660    -2.7460    -0.3690 O.3   1 <1>  -0.3620 
 22 C      -13.1210    -2.4660    -1.4550 C.3   1 <1>   0.0400 
 23 H        0.9310     1.5460    -0.4290 H     1 <1>   0.0800 
 24 H        0.5170     0.2640     0.6690 H     1 <1>   0.0800 
 25 H       -0.6100     1.5660     0.3750 H     1 <1>   0.0800 
 26 H       -3.2240     0.6260    -0.8850 H     1 <1>   0.0800 
 27 H       -2.5820     0.3910     0.7220 H     1 <1>   0.0800 
 28 H       -0.9360    -1.5440     1.0680 H     1 <1>   0.0800 
 29 H       -0.5550    -2.5350    -0.3210 H     1 <1>   0.0800 
 30 H       -4.4640    -1.4310    -0.7670 H     1 <1>   0.0800 
 31 H       -2.1460    -3.6610     1.2020 H     1 <1>   0.0800 
 32 H       -2.7870    -3.4310    -0.3970 H     1 <1>   0.0800 
 33 H       -4.5150    -2.8450     1.2340 H     1 <1>   0.0800 
 34 H       -3.4220    -1.7650     2.0570 H     1 <1>   0.0800 
 35 H       -6.7300    -1.1320    -0.3060 H     1 <1>   0.3700 
 36 H       -7.7230     1.2840     0.5170 H     1 <1>   0.0800 
 37 H       -7.5780     0.3700     1.9980 H     1 <1>   0.0800 
 38 H       -8.7140    -1.8750     2.1930 H     1 <1>   0.1500 
 39 H       -9.3800     0.6810    -1.1590 H     1 <1>   0.1500 
 40 H      -10.7190    -3.1660     1.5920 H     1 <1>   0.1500 
 41 H      -11.3600    -0.5950    -1.7510 H     1 <1>   0.1500 
 42 H      -13.9110    -3.1940    -1.4530 H     1 <1>   0.0800 
 43 H      -12.5590    -2.5390    -2.3690 H     1 <1>   0.0800 
 44 H      -13.5320    -1.4800    -1.3310 H     1 <1>   0.0800 
@<TRIPOS>BOND
  1   1   2  2   
  2   1   3  2   
  3   1   4  am  
  4   1   5  1   
  5   4   6  1   
  6   4   7  1   
  7   5  23  1   
  8   5  24  1   
  9   5  25  1   
 10   6   8  1   
 11   6  26  1   
 12   6  27  1   
 13   7   9  1   
 14   7  28  1   
 15   7  29  1   
 16   8  10  1   
 17   8  11  1   
 18   8  30  1   
 19   9  11  1   
 20   9  31  1   
 21   9  32  1   
 22  10  12  2   
 23  10  13  am  
 24  11  33  1   
 25  11  34  1   
 26  13  14  1   
 27  13  35  1   
 28  14  15  1   
 29  14  36  1   
 30  14  37  1   
 31  15  16  ar  
 32  15  17  ar  
 33  16  18  ar  
 34  16  38  1   
 35  17  19  ar  
 36  17  39  1   
 37  18  20  ar  
 38  18  40  1   
 39  19  20  ar  
 40  19  41  1   
 41  20  21  1   
 42  21  22  1   
 43  22  42  1   
 44  22  43  1   
 45  22  44  1   
@<TRIPOS>SUBSTRUCTURE
  1 ****  13 GROUP 4 **** **** 0

# MOE 2024.06 (io_trps.svl 2023.06)
