@<TRIPOS>MOLECULE
NONAME
39 40 1 0 0 
SMALL
USER_CHARGES


@<TRIPOS>ATOM
  1 O       -1.2090     2.7090    -1.0310 O.3   1 <1>  -0.3630 
  2 C       -2.2600     1.9610    -0.5940 C.ar  1 <1>   0.0830 
  3 C       -1.3350     4.1040    -1.2010 C.3   1 <1>   0.0400 
  4 C       -3.2270     2.3710     0.3380 C.ar  1 <1>   0.0830 
  5 C       -2.3280     0.6890    -1.1350 C.ar  1 <1>  -0.1500 
  6 O       -3.1410     3.6100     0.9060 O.3   1 <1>  -0.3630 
  7 C       -4.2470     1.4850     0.6790 C.ar  1 <1>  -0.1500 
  8 C       -3.3290    -0.1960    -0.7710 C.ar  1 <1>  -0.1430 
  9 C       -4.1060     4.0910     1.8160 C.3   1 <1>   0.0400 
 10 C       -4.2960     0.2150     0.1300 C.ar  1 <1>  -0.1500 
 11 C       -3.3470    -1.6070    -1.3350 C.3   1 <1>  -0.0170 
 12 C       -2.7280    -2.5900    -0.3260 C.3   1 <1>  -0.0800 
 13 C       -1.3600    -2.0820     0.1640 C.3   1 <1>   0.3430 
 14 C       -2.6120    -3.9990    -0.9340 C.3   1 <1>  -0.1600 
 15 N       -0.7460    -3.0610     1.1060 N.4   1 <1>  -0.9060 
 16 C       -1.9030    -4.9570     0.0360 C.3   1 <1>  -0.1600 
 17 C       -0.5530    -4.4050     0.4980 C.3   1 <1>   0.3430 
 18 H       -0.5730     4.4300    -1.8850 H     1 <1>   0.0800 
 19 H       -1.1960     4.5840    -0.2490 H     1 <1>   0.0800 
 20 H       -2.3090     4.3250    -1.6010 H     1 <1>   0.0800 
 21 H       -1.5770     0.4070    -1.8520 H     1 <1>   0.1500 
 22 H       -5.0160     1.7600     1.3750 H     1 <1>   0.1500 
 23 H       -3.8280     5.0910     2.0980 H     1 <1>   0.0800 
 24 H       -4.1150     3.4570     2.6850 H     1 <1>   0.0800 
 25 H       -5.0670     4.1020     1.3340 H     1 <1>   0.0800 
 26 H       -5.0940    -0.4500     0.4130 H     1 <1>   0.1500 
 27 H       -2.8010    -1.6290    -2.2640 H     1 <1>   0.0800 
 28 H       -4.3620    -1.8930    -1.5530 H     1 <1>   0.0800 
 29 H       -3.3870    -2.6330     0.5250 H     1 <1>   0.0800 
 30 H       -1.4860    -1.1300     0.6560 H     1 <1>   0.0800 
 31 H       -0.7120    -1.9360    -0.6850 H     1 <1>   0.0800 
 32 H       -2.0560    -3.9540    -1.8560 H     1 <1>   0.0800 
 33 H       -3.5940    -4.3810    -1.1630 H     1 <1>   0.0800 
 34 H       -1.3570    -3.1500     1.9260 H     1 <1>   0.4500 
 35 H        0.1530    -2.6920     1.4400 H     1 <1>   0.4500 
 36 H       -1.7460    -5.9030    -0.4530 H     1 <1>   0.0800 
 37 H       -2.5280    -5.1420     0.8930 H     1 <1>   0.0800 
 38 H       -0.1120    -5.0780     1.2170 H     1 <1>   0.0800 
 39 H        0.1120    -4.3300    -0.3480 H     1 <1>   0.0800 
@<TRIPOS>BOND
  1   1   2  1   
  2   1   3  1   
  3   2   4  ar  
  4   2   5  ar  
  5   3  18  1   
  6   3  19  1   
  7   3  20  1   
  8   4   6  1   
  9   4   7  ar  
 10   5   8  ar  
 11   5  21  1   
 12   6   9  1   
 13   7  10  ar  
 14   7  22  1   
 15   8  10  ar  
 16   8  11  1   
 17   9  23  1   
 18   9  24  1   
 19   9  25  1   
 20  10  26  1   
 21  11  12  1   
 22  11  27  1   
 23  11  28  1   
 24  12  13  1   
 25  12  14  1   
 26  12  29  1   
 27  13  15  1   
 28  13  30  1   
 29  13  31  1   
 30  14  16  1   
 31  14  32  1   
 32  14  33  1   
 33  15  17  1   
 34  15  34  1   
 35  15  35  1   
 36  16  17  1   
 37  16  36  1   
 38  16  37  1   
 39  17  38  1   
 40  17  39  1   
@<TRIPOS>SUBSTRUCTURE
  1 ****   8 GROUP 4 **** **** 0

# MOE 2024.06 (io_trps.svl 2023.06)
