@<TRIPOS>MOLECULE
NONAME
51 53 1 0 0 
SMALL
USER_CHARGES


@<TRIPOS>ATOM
  1 O        0.1440     1.6330    -2.6310 O.2   1 <1>  -0.5700 
  2 C        0.1330     2.4680    -1.7450 C.2   1 <1>   0.5440 
  3 N       -1.0820     2.9460    -1.3000 N.am  1 <1>  -0.6600 
  4 C        1.3910     2.9220    -1.2000 C.ar  1 <1>   0.0860 
  5 C       -2.3890     2.4190    -1.7950 C.3   1 <1>   0.1400 
  6 C       -1.2580     3.9090    -0.1670 C.3   1 <1>   0.1400 
  7 C        1.8110     2.6500     0.1120 C.ar  1 <1>   0.0820 
  8 C        2.2420     3.6840    -2.0020 C.ar  1 <1>  -0.1500 
  9 C       -3.1720     1.7420    -0.6560 C.3   1 <1>   0.2090 
 10 C       -2.0470     3.2640     0.9890 C.3   1 <1>   0.2090 
 11 O        1.0900     1.9000     0.9750 O.3   1 <1>  -0.3630 
 12 C        3.0030     3.1650     0.5920 C.ar  1 <1>  -0.1500 
 13 C        3.4390     4.1840    -1.5280 C.ar  1 <1>  -0.1500 
 14 N       -3.3330     2.6480     0.5240 N.pl3 1 <1>  -0.8380 
 15 C        0.7380     0.5820     0.6150 C.3   1 <1>   0.1200 
 16 C        3.8260     3.9300    -0.2140 C.ar  1 <1>   0.0820 
 17 C       -4.4910     3.3990     0.5870 C.ar  1 <1>   0.4100 
 18 C        0.4360    -0.1890     1.8960 C.3   1 <1>  -0.2400 
 19 O        4.9750     4.3860     0.3350 O.3   1 <1>  -0.3630 
 20 N       -4.3920     4.7000     0.3360 N.ar  1 <1>  -0.6200 
 21 C       -5.6960     2.7710     0.8930 C.ar  1 <1>  -0.1500 
 22 C        5.9080     5.1370    -0.4070 C.3   1 <1>   0.1200 
 23 C       -5.5220     5.3860     0.3910 C.ar  1 <1>   0.1600 
 24 C       -6.8630     3.4960     0.9450 C.ar  1 <1>  -0.1500 
 25 C        7.0830     5.4650     0.5090 C.3   1 <1>  -0.2400 
 26 C       -6.7620     4.8470     0.6840 C.ar  1 <1>  -0.1500 
 27 H       -2.2400     1.7120    -2.5920 H     1 <1>   0.0800 
 28 H       -2.9730     3.2350    -2.1830 H     1 <1>   0.0800 
 29 H       -1.8030     4.7670    -0.5190 H     1 <1>   0.0800 
 30 H       -0.3110     4.2560     0.2010 H     1 <1>   0.0800 
 31 H        1.9450     3.8830    -3.0180 H     1 <1>   0.1500 
 32 H       -2.6500     0.8540    -0.3480 H     1 <1>   0.0800 
 33 H       -4.1390     1.4470    -1.0230 H     1 <1>   0.0800 
 34 H       -2.2550     4.0120     1.7360 H     1 <1>   0.0800 
 35 H       -1.4420     2.5050     1.4520 H     1 <1>   0.0800 
 36 H        3.3000     2.9630     1.6050 H     1 <1>   0.1500 
 37 H        4.0550     4.7670    -2.1860 H     1 <1>   0.1500 
 38 H        1.5620     0.1360     0.0820 H     1 <1>   0.0800 
 39 H       -0.1330     0.6100    -0.0150 H     1 <1>   0.0800 
 40 H        1.3030    -0.2040     2.5310 H     1 <1>   0.0800 
 41 H        0.1690    -1.2020     1.6550 H     1 <1>   0.0800 
 42 H       -0.3860     0.2680     2.4170 H     1 <1>   0.0800 
 43 H       -5.6900     1.7170     1.0920 H     1 <1>   0.1500 
 44 H        5.4270     6.0380    -0.7460 H     1 <1>   0.0800 
 45 H        6.2320     4.5460    -1.2450 H     1 <1>   0.0800 
 46 H       -5.4560     6.4410     0.1900 H     1 <1>   0.1500 
 47 H       -7.8070     3.0350     1.1810 H     1 <1>   0.1500 
 48 H        6.7450     6.0420     1.3520 H     1 <1>   0.0800 
 49 H        7.8160     6.0390    -0.0290 H     1 <1>   0.0800 
 50 H        7.5440     4.5580     0.8560 H     1 <1>   0.0800 
 51 H       -7.6350     5.4740     0.7080 H     1 <1>   0.1500 
@<TRIPOS>BOND
  1   1   2  2   
  2   2   3  am  
  3   2   4  1   
  4   3   5  1   
  5   3   6  1   
  6   4   7  ar  
  7   4   8  ar  
  8   5   9  1   
  9   5  27  1   
 10   5  28  1   
 11   6  10  1   
 12   6  29  1   
 13   6  30  1   
 14   7  11  1   
 15   7  12  ar  
 16   8  13  ar  
 17   8  31  1   
 18   9  14  1   
 19   9  32  1   
 20   9  33  1   
 21  10  14  1   
 22  10  34  1   
 23  10  35  1   
 24  11  15  1   
 25  12  16  ar  
 26  12  36  1   
 27  13  16  ar  
 28  13  37  1   
 29  14  17  1   
 30  15  18  1   
 31  15  38  1   
 32  15  39  1   
 33  16  19  1   
 34  17  20  ar  
 35  17  21  ar  
 36  18  40  1   
 37  18  41  1   
 38  18  42  1   
 39  19  22  1   
 40  20  23  ar  
 41  21  24  ar  
 42  21  43  1   
 43  22  25  1   
 44  22  44  1   
 45  22  45  1   
 46  23  26  ar  
 47  23  46  1   
 48  24  26  ar  
 49  24  47  1   
 50  25  48  1   
 51  25  49  1   
 52  25  50  1   
 53  26  51  1   
@<TRIPOS>SUBSTRUCTURE
  1 ****   6 GROUP 4 **** **** 0

# MOE 2024.06 (io_trps.svl 2023.06)
