@<TRIPOS>MOLECULE
NONAME
31 32 1 0 0 
SMALL
USER_CHARGES


@<TRIPOS>ATOM
  1 O       -0.0470     0.2160     1.6690 O.2   1 <1>  -0.5700 
  2 C       -0.1080     1.2330     1.0240 C.2   1 <1>   0.5690 
  3 N       -1.2460     1.6970     0.4250 N.am  1 <1>  -0.5470 
  4 C        1.1500     2.0660     0.8700 C.3   1 <1>  -0.0990 
  5 C       -2.5490     1.1720     0.3670 C.ar  1 <1>   0.1170 
  6 C        1.7570     1.9480    -0.5380 C.3   1 <1>  -0.1600 
  7 C       -3.5880     2.0260     0.0180 C.ar  1 <1>  -0.1500 
  8 C       -2.8440    -0.1660     0.6240 C.ar  1 <1>  -0.1500 
  9 C        3.0300     2.7910    -0.6690 C.3   1 <1>  -0.2400 
 10 C       -4.8880     1.5630    -0.0680 C.ar  1 <1>   0.0820 
 11 C       -4.1440    -0.6370     0.5480 C.ar  1 <1>  -0.1500 
 12 O       -5.8700     2.4300    -0.4260 O.3   1 <1>  -0.3630 
 13 C       -5.1710     0.2240     0.2080 C.ar  1 <1>   0.0820 
 14 C       -7.1140     1.8680    -0.8000 C.3   1 <1>   0.1200 
 15 O       -6.4430    -0.2540     0.1530 O.3   1 <1>  -0.3630 
 16 C       -7.4800     0.7090     0.1390 C.3   1 <1>   0.1200 
 17 H       -1.1380     2.5940    -0.0420 H     1 <1>   0.3700 
 18 H        1.8690     1.7320     1.5970 H     1 <1>   0.0800 
 19 H        0.9180     3.0920     1.0890 H     1 <1>   0.0800 
 20 H        1.0420     2.2690    -1.2760 H     1 <1>   0.0800 
 21 H        1.9930     0.9150    -0.7350 H     1 <1>   0.0800 
 22 H       -3.3970     3.0610    -0.1900 H     1 <1>   0.1500 
 23 H       -2.0600    -0.8520     0.8850 H     1 <1>   0.1500 
 24 H        2.8150     3.8320    -0.4960 H     1 <1>   0.0800 
 25 H        3.4400     2.6870    -1.6580 H     1 <1>   0.0800 
 26 H        3.7710     2.4670     0.0410 H     1 <1>   0.0800 
 27 H       -4.3640    -1.6690     0.7530 H     1 <1>   0.1500 
 28 H       -7.0320     1.5150    -1.8130 H     1 <1>   0.0800 
 29 H       -7.8560     2.6450    -0.7550 H     1 <1>   0.0800 
 30 H       -8.3800     0.2210    -0.1870 H     1 <1>   0.0800 
 31 H       -7.6160     1.0700     1.1430 H     1 <1>   0.0800 
@<TRIPOS>BOND
  1   1   2  2   
  2   2   3  am  
  3   2   4  1   
  4   3   5  1   
  5   3  17  1   
  6   4   6  1   
  7   4  18  1   
  8   4  19  1   
  9   5   7  ar  
 10   5   8  ar  
 11   6   9  1   
 12   6  20  1   
 13   6  21  1   
 14   7  10  ar  
 15   7  22  1   
 16   8  11  ar  
 17   8  23  1   
 18   9  24  1   
 19   9  25  1   
 20   9  26  1   
 21  10  12  1   
 22  10  13  ar  
 23  11  13  ar  
 24  11  27  1   
 25  12  14  1   
 26  13  15  1   
 27  14  16  1   
 28  14  28  1   
 29  14  29  1   
 30  15  16  1   
 31  16  30  1   
 32  16  31  1   
@<TRIPOS>SUBSTRUCTURE
  1 ****   5 GROUP 4 **** **** 0

# MOE 2024.06 (io_trps.svl 2023.06)
