@<TRIPOS>MOLECULE
NONAME
47 48 1 0 0 
SMALL
USER_CHARGES


@<TRIPOS>ATOM
  1 O       -0.0180    -0.3890    -0.2990 O.2   1 <1>  -0.5700 
  2 C       -0.7710    -1.3360    -0.4050 C.2   1 <1>   0.6340 
  3 O       -0.2400    -2.5580    -0.5450 O.3   1 <1>  -0.4300 
  4 C       -2.2150    -1.2210    -0.3880 C.ar  1 <1>   0.0860 
  5 C        1.1600    -2.7610    -0.5720 C.3   1 <1>   0.0400 
  6 C       -2.8420     0.0210    -0.2460 C.ar  1 <1>  -0.1500 
  7 C       -3.0460    -2.3380    -0.5130 C.ar  1 <1>  -0.1500 
  8 C       -4.2210     0.1510    -0.2270 C.ar  1 <1>   0.1170 
  9 C       -4.4220    -2.2250    -0.4960 C.ar  1 <1>  -0.1500 
 10 N       -4.9010     1.3700    -0.0870 N.am  1 <1>  -0.5470 
 11 C       -5.0310    -0.9860    -0.3540 C.ar  1 <1>   0.1000 
 12 C       -4.5270     2.6740     0.0590 C.2   1 <1>   0.5690 
 13 N       -6.4250    -0.8670    -0.3370 N.pl3 1 <1>  -0.8380 
 14 O       -3.3690     3.0170     0.0950 O.2   1 <1>  -0.5700 
 15 C       -5.6340     3.7540     0.1850 C.3   1 <1>   0.0610 
 16 C       -7.1340    -1.4460     0.8430 C.3   1 <1>   0.2090 
 17 C       -7.1400    -1.1670    -1.6130 C.3   1 <1>   0.2090 
 18 C       -5.4880     4.4940     1.5270 C.3   1 <1>  -0.2400 
 19 C       -5.4940     4.7770    -0.9580 C.3   1 <1>  -0.2400 
 20 C       -7.0640     3.1680     0.1210 C.3   1 <1>  -0.2400 
 21 C       -8.6230    -1.0560     0.8290 C.3   1 <1>   0.1200 
 22 C       -8.6290    -0.7900    -1.5050 C.3   1 <1>   0.1200 
 23 O       -9.2210    -1.4010    -0.3910 O.3   1 <1>  -0.5600 
 24 H        1.3500    -3.8120    -0.6910 H     1 <1>   0.0800 
 25 H        1.5790    -2.4100     0.3550 H     1 <1>   0.0800 
 26 H        1.5750    -2.2110    -1.3980 H     1 <1>   0.0800 
 27 H       -2.2250     0.8960    -0.1480 H     1 <1>   0.1500 
 28 H       -2.6070    -3.3140    -0.6250 H     1 <1>   0.1500 
 29 H       -5.0350    -3.1020    -0.5940 H     1 <1>   0.1500 
 30 H       -5.9080     1.1910    -0.1050 H     1 <1>   0.3700 
 31 H       -6.6740    -1.0870     1.7480 H     1 <1>   0.0800 
 32 H       -7.0500    -2.5190     0.8270 H     1 <1>   0.0800 
 33 H       -7.0570    -2.2150    -1.8390 H     1 <1>   0.0800 
 34 H       -6.6850    -0.6130    -2.4160 H     1 <1>   0.0800 
 35 H       -5.5820     3.8030     2.3460 H     1 <1>   0.0800 
 36 H       -6.2390     5.2580     1.6310 H     1 <1>   0.0800 
 37 H       -4.5190     4.9590     1.5920 H     1 <1>   0.0800 
 38 H       -4.5250     5.2450    -0.9210 H     1 <1>   0.0800 
 39 H       -6.2440     5.5440    -0.8840 H     1 <1>   0.0800 
 40 H       -5.5920     4.2880    -1.9110 H     1 <1>   0.0800 
 41 H       -7.7950     3.9520     0.2120 H     1 <1>   0.0800 
 42 H       -7.2280     2.6670    -0.8170 H     1 <1>   0.0800 
 43 H       -7.2240     2.4690     0.9230 H     1 <1>   0.0800 
 44 H       -8.7350     0.0030     0.9800 H     1 <1>   0.0800 
 45 H       -9.1490    -1.5750     1.6110 H     1 <1>   0.0800 
 46 H       -9.1590    -1.1200    -2.3800 H     1 <1>   0.0800 
 47 H       -8.7410     0.2760    -1.4130 H     1 <1>   0.0800 
@<TRIPOS>BOND
  1   1   2  2   
  2   2   3  1   
  3   2   4  1   
  4   3   5  1   
  5   4   6  ar  
  6   4   7  ar  
  7   5  24  1   
  8   5  25  1   
  9   5  26  1   
 10   6   8  ar  
 11   6  27  1   
 12   7   9  ar  
 13   7  28  1   
 14   8  10  1   
 15   8  11  ar  
 16   9  11  ar  
 17   9  29  1   
 18  10  12  am  
 19  10  30  1   
 20  11  13  1   
 21  12  14  2   
 22  12  15  1   
 23  13  16  1   
 24  13  17  1   
 25  15  18  1   
 26  15  19  1   
 27  15  20  1   
 28  16  21  1   
 29  16  31  1   
 30  16  32  1   
 31  17  22  1   
 32  17  33  1   
 33  17  34  1   
 34  18  35  1   
 35  18  36  1   
 36  18  37  1   
 37  19  38  1   
 38  19  39  1   
 39  19  40  1   
 40  20  41  1   
 41  20  42  1   
 42  20  43  1   
 43  21  23  1   
 44  21  44  1   
 45  21  45  1   
 46  22  23  1   
 47  22  46  1   
 48  22  47  1   
@<TRIPOS>SUBSTRUCTURE
  1 ****   8 GROUP 4 **** **** 0

# MOE 2024.06 (io_trps.svl 2023.06)
