@<TRIPOS>MOLECULE
NONAME
49 50 1 0 0 
SMALL
USER_CHARGES


@<TRIPOS>ATOM
  1 BR      -0.0120    -0.6230     3.3310 Br    1 <1>  -0.1110 
  2 C       -1.1520    -1.6330     2.1460 C.ar  1 <1>   0.1110 
  3 C       -0.5880    -2.5070     1.2300 C.ar  1 <1>   0.0830 
  4 C       -2.5170    -1.4370     2.2440 C.ar  1 <1>  -0.1500 
  5 O        0.7630    -2.6370     1.1740 O.3   1 <1>  -0.3630 
  6 C       -1.4490    -3.2250     0.3960 C.ar  1 <1>   0.0830 
  7 C       -3.3660    -2.1350     1.3960 C.ar  1 <1>  -0.1440 
  8 C        1.3890    -2.1580     0.0060 C.3   1 <1>   0.1200 
  9 O       -1.0040    -4.1270    -0.5120 O.3   1 <1>  -0.3630 
 10 C       -2.8190    -3.0240     0.4760 C.ar  1 <1>  -0.1500 
 11 C       -4.8770    -1.9280     1.4720 C.3   1 <1>   0.5020 
 12 C        2.9000    -2.3170     0.1750 C.3   1 <1>  -0.1600 
 13 C       -0.4090    -5.2960     0.0020 C.3   1 <1>   0.1200 
 14 N       -5.4740    -3.2170     1.8670 N.am  1 <1>  -0.7300 
 15 C       -5.4300    -1.3930     0.1450 C.2   1 <1>  -0.1240 
 16 C        3.6550    -1.8170    -1.0620 C.3   1 <1>  -0.2400 
 17 C       -0.0420    -6.1950    -1.1750 C.3   1 <1>  -0.2400 
 18 C       -6.2420    -3.9590     1.0540 C.2   1 <1>   0.6900 
 19 C       -6.2830    -2.1730    -0.5790 C.2   1 <1>  -0.0290 
 20 C       -4.9370    -0.0860    -0.1770 C.2   1 <1>   0.7060 
 21 O       -6.5600    -5.0840     1.3600 O.2   1 <1>  -0.5700 
 22 N       -6.6400    -3.4260    -0.1260 N.am  1 <1>  -0.5390 
 23 C       -6.9350    -1.8090    -1.9050 C.3   1 <1>  -0.1020 
 24 O       -4.9200     0.3800    -1.2990 O.2   1 <1>  -0.5700 
 25 O       -4.4640     0.6760     0.8210 O.3   1 <1>  -0.4300 
 26 C       -3.9190     1.9600     0.5840 C.3   1 <1>   0.0400 
 27 H       -2.8980    -0.7410     2.9710 H     1 <1>   0.1500 
 28 H        1.1230    -1.1220    -0.1200 H     1 <1>   0.0800 
 29 H        1.0380    -2.7270    -0.8370 H     1 <1>   0.0800 
 30 H       -3.4580    -3.5780    -0.1910 H     1 <1>   0.1500 
 31 H       -5.1060    -1.2230     2.2530 H     1 <1>   0.0800 
 32 H        3.1290    -3.3560     0.3350 H     1 <1>   0.0800 
 33 H        3.2190    -1.7560     1.0370 H     1 <1>   0.0800 
 34 H       -1.1180    -5.7810     0.6500 H     1 <1>   0.0800 
 35 H        0.4700    -5.0280     0.5620 H     1 <1>   0.0800 
 36 H       -5.0490    -3.6970     2.6560 H     1 <1>   0.3700 
 37 H        3.3590    -2.3750    -1.9340 H     1 <1>   0.0800 
 38 H        4.7140    -1.9410    -0.9200 H     1 <1>   0.0800 
 39 H        3.4520    -0.7740    -1.2310 H     1 <1>   0.0800 
 40 H       -0.9250    -6.4530    -1.7320 H     1 <1>   0.0800 
 41 H        0.4130    -7.0990    -0.8140 H     1 <1>   0.0800 
 42 H        0.6560    -5.6920    -1.8190 H     1 <1>   0.0800 
 43 H       -7.2420    -4.0430    -0.6710 H     1 <1>   0.3700 
 44 H       -6.4420    -2.3280    -2.7070 H     1 <1>   0.0800 
 45 H       -6.8960    -0.7560    -2.1050 H     1 <1>   0.0800 
 46 H       -7.9730    -2.0920    -1.8960 H     1 <1>   0.0800 
 47 H       -3.6000     2.3750     1.5240 H     1 <1>   0.0800 
 48 H       -4.6750     2.5840     0.1400 H     1 <1>   0.0800 
 49 H       -3.0780     1.8640    -0.0820 H     1 <1>   0.0800 
@<TRIPOS>BOND
  1   1   2  1   
  2   2   3  ar  
  3   2   4  ar  
  4   3   5  1   
  5   3   6  ar  
  6   4   7  ar  
  7   4  27  1   
  8   5   8  1   
  9   6   9  1   
 10   6  10  ar  
 11   7  10  ar  
 12   7  11  1   
 13   8  12  1   
 14   8  28  1   
 15   8  29  1   
 16   9  13  1   
 17  10  30  1   
 18  11  14  1   
 19  11  15  1   
 20  11  31  1   
 21  12  16  1   
 22  12  32  1   
 23  12  33  1   
 24  13  17  1   
 25  13  34  1   
 26  13  35  1   
 27  14  18  am  
 28  14  36  1   
 29  15  19  2   
 30  15  20  1   
 31  16  37  1   
 32  16  38  1   
 33  16  39  1   
 34  17  40  1   
 35  17  41  1   
 36  17  42  1   
 37  18  21  2   
 38  18  22  am  
 39  19  22  1   
 40  19  23  1   
 41  20  24  2   
 42  20  25  1   
 43  22  43  1   
 44  23  44  1   
 45  23  45  1   
 46  23  46  1   
 47  25  26  1   
 48  26  47  1   
 49  26  48  1   
 50  26  49  1   
@<TRIPOS>SUBSTRUCTURE
  1 ****  10 GROUP 4 **** **** 0

# MOE 2024.06 (io_trps.svl 2023.06)
