@<TRIPOS>MOLECULE
NONAME
39 40 1 0 0 
SMALL
USER_CHARGES


@<TRIPOS>ATOM
  1 O       -0.2090     0.2980    -0.1030 O.3   1 <1>  -0.1650 
  2 C       -1.3730     0.9760    -0.0100 C.ar  1 <1>   0.3920 
  3 C        0.9830     0.9420    -0.0900 C.ar  1 <1>   0.0830 
  4 N       -2.4450     0.3220    -0.3970 N.ar  1 <1>  -0.6200 
  5 C       -1.4340     2.2690     0.4590 C.ar  1 <1>  -0.1500 
  6 C        1.3970     1.7260    -1.1640 C.ar  1 <1>  -0.1440 
  7 C        1.7910     0.7980     1.0250 C.ar  1 <1>  -0.1500 
  8 C       -3.5660     1.0050    -0.3150 C.ar  1 <1>   0.7200 
  9 C       -2.6710     2.8570     0.5010 C.ar  1 <1>   0.3920 
 10 C        2.6170     2.3790    -1.0840 C.ar  1 <1>  -0.1500 
 11 C        0.5500     1.8740    -2.4220 C.3   1 <1>  -0.0960 
 12 C        3.0060     1.4540     1.0880 C.ar  1 <1>  -0.1500 
 13 N       -3.7650     2.2320     0.1180 N.ar  1 <1>  -0.6200 
 14 N       -4.6620     0.3500    -0.7040 N.pl3 1 <1>  -0.9000 
 15 O       -2.7510     4.1230     0.9550 O.3   1 <1>  -0.3630 
 16 C        3.4290     2.2540     0.0360 C.ar  1 <1>  -0.1440 
 17 C       -3.9910     4.8010     1.0110 C.3   1 <1>   0.0400 
 18 C        4.7680     2.9880     0.0890 C.3   1 <1>   0.0630 
 19 C        5.9310     1.9960     0.1880 C.3   1 <1>  -0.2400 
 20 C        4.8020     3.9840     1.2530 C.3   1 <1>  -0.2400 
 21 H       -0.5680     2.8120     0.7820 H     1 <1>   0.1500 
 22 H        1.4660     0.1770     1.8400 H     1 <1>   0.1500 
 23 H        2.9400     2.9920    -1.9060 H     1 <1>   0.1500 
 24 H        0.0790     0.9390    -2.6690 H     1 <1>   0.0800 
 25 H        1.1580     2.1720    -3.2570 H     1 <1>   0.0800 
 26 H       -0.2120     2.6170    -2.2690 H     1 <1>   0.0800 
 27 H        3.6220     1.3370     1.9620 H     1 <1>   0.1500 
 28 H       -5.5320     0.7120    -0.3250 H     1 <1>   0.4000 
 29 H       -4.5620    -0.6610    -0.7270 H     1 <1>   0.4000 
 30 H       -3.8190     5.7900     1.3940 H     1 <1>   0.0800 
 31 H       -4.6540     4.2610     1.6650 H     1 <1>   0.0800 
 32 H       -4.4030     4.8550     0.0190 H     1 <1>   0.0800 
 33 H        4.8920     3.5470    -0.8230 H     1 <1>   0.0800 
 34 H        5.8860     1.4420     1.1080 H     1 <1>   0.0800 
 35 H        6.8710     2.5180     0.1460 H     1 <1>   0.0800 
 36 H        5.8880     1.3020    -0.6320 H     1 <1>   0.0800 
 37 H        4.7290     3.4740     2.1960 H     1 <1>   0.0800 
 38 H        3.9770     4.6700     1.1700 H     1 <1>   0.0800 
 39 H        5.7180     4.5470     1.2350 H     1 <1>   0.0800 
@<TRIPOS>BOND
  1   1   2  1   
  2   1   3  1   
  3   2   4  ar  
  4   2   5  ar  
  5   3   6  ar  
  6   3   7  ar  
  7   4   8  ar  
  8   5   9  ar  
  9   5  21  1   
 10   6  10  ar  
 11   6  11  1   
 12   7  12  ar  
 13   7  22  1   
 14   8  13  ar  
 15   8  14  1   
 16   9  13  ar  
 17   9  15  1   
 18  10  16  ar  
 19  10  23  1   
 20  11  24  1   
 21  11  25  1   
 22  11  26  1   
 23  12  16  ar  
 24  12  27  1   
 25  14  28  1   
 26  14  29  1   
 27  15  17  1   
 28  16  18  1   
 29  17  30  1   
 30  17  31  1   
 31  17  32  1   
 32  18  19  1   
 33  18  20  1   
 34  18  33  1   
 35  19  34  1   
 36  19  35  1   
 37  19  36  1   
 38  20  37  1   
 39  20  38  1   
 40  20  39  1   
@<TRIPOS>SUBSTRUCTURE
  1 ****   3 GROUP 4 **** **** 0

# MOE 2024.06 (io_trps.svl 2023.06)
