@<TRIPOS>MOLECULE
NONAME
23 23 1 0 0 
SMALL
USER_CHARGES


@<TRIPOS>ATOM
  1 S       -0.1970     0.0750    -0.3100 S.3   1 <1>  -0.3610 
  2 C       -0.7580    -1.3460     0.5020 C.cat 1 <1>   0.8400 
  3 C        1.5390    -0.5040    -0.5170 C.3   1 <1>   0.1500 
  4 N       -2.0110    -1.4350     0.8400 N.pl3 1 <1>  -0.7540 
  5 N        0.2070    -2.2050     0.6900 N.pl3 1 <1>  -0.7940 
  6 C        1.5790    -1.8780     0.1990 C.3   1 <1>   0.3300 
  7 C        2.4600     0.5790     0.0640 C.3   1 <1>   0.0700 
  8 S        4.2230     0.0390    -0.1430 S.3   1 <1>  -0.3610 
  9 C        5.2760     1.4120     0.1640 C.cat 1 <1>   0.8400 
 10 N        6.5490     1.1820     0.0250 N.pl3 1 <1>  -0.7540 
 11 N        4.7580     2.5610     0.5070 N.pl3 1 <1>  -0.7540 
 12 H        1.7060    -0.6200    -1.5740 H     1 <1>   0.0800 
 13 H       -2.4300    -2.2310     1.3200 H     1 <1>   0.4500 
 14 H       -2.6720    -0.6840     0.6270 H     1 <1>   0.4500 
 15 H        0.0750    -3.1100     1.1500 H     1 <1>   0.4500 
 16 H        2.2630    -1.8540     1.0310 H     1 <1>   0.0800 
 17 H        1.9120    -2.6360    -0.4910 H     1 <1>   0.0800 
 18 H        2.2830     0.7290     1.1160 H     1 <1>   0.0800 
 19 H        2.3350     1.5010    -0.4770 H     1 <1>   0.0800 
 20 H        7.2960     1.8650     0.1640 H     1 <1>   0.4500 
 21 H        6.8930     0.2570    -0.2490 H     1 <1>   0.4500 
 22 H        5.3160     3.3950     0.6980 H     1 <1>   0.4500 
 23 H        3.7580     2.7280     0.6130 H     1 <1>   0.4500 
@<TRIPOS>BOND
  1   1   2  1   
  2   1   3  1   
  3   2   4  ar  
  4   2   5  ar  
  5   3   6  1   
  6   3   7  1   
  7   3  12  1   
  8   4  13  1   
  9   4  14  1   
 10   5   6  1   
 11   5  15  1   
 12   6  16  1   
 13   6  17  1   
 14   7   8  1   
 15   7  18  1   
 16   7  19  1   
 17   8   9  1   
 18   9  10  ar  
 19   9  11  ar  
 20  10  20  1   
 21  10  21  1   
 22  11  22  1   
 23  11  23  1   
@<TRIPOS>SUBSTRUCTURE
  1 ****   7 GROUP 4 **** **** 0

# MOE 2024.06 (io_trps.svl 2023.06)
