@<TRIPOS>MOLECULE
NONAME
47 48 1 0 0 
SMALL
USER_CHARGES


@<TRIPOS>ATOM
  1 S       -0.3300     0.0420    -1.0810 S.3   1 <1>  -0.4600 
  2 C        0.8130     0.7490     0.1340 C.3   1 <1>   0.1500 
  3 C       -1.9420     0.7130    -0.5850 C.3   1 <1>   0.0700 
  4 C        1.0090     2.2360    -0.1850 C.3   1 <1>  -0.1600 
  5 C        2.1260    -0.0350     0.0430 C.3   1 <1>  -0.1600 
  6 C       -3.0280    -0.0640    -1.3270 C.3   1 <1>   0.1400 
  7 C        2.0860     2.8540     0.7190 C.3   1 <1>  -0.1600 
  8 C        3.2000     0.5850     0.9490 C.3   1 <1>  -0.1600 
  9 N       -4.3540     0.5640    -1.1030 N.am  1 <1>  -0.7300 
 10 C        3.4040     2.0720     0.6280 C.3   1 <1>  -0.1600 
 11 C       -5.0620     0.4960     0.0660 C.2   1 <1>   0.5440 
 12 O       -4.5580    -0.0740     1.0130 O.2   1 <1>  -0.5700 
 13 C       -6.3860     1.0830     0.1660 C.ar  1 <1>   0.0860 
 14 C       -7.3450     0.5460     1.0210 C.ar  1 <1>  -0.1500 
 15 C       -6.7580     2.2000    -0.5820 C.ar  1 <1>  -0.1500 
 16 C       -8.6220     1.0690     1.1270 C.ar  1 <1>   0.0820 
 17 C       -8.0240     2.7480    -0.4860 C.ar  1 <1>  -0.1500 
 18 O       -9.4370     0.4080     1.9970 O.3   1 <1>  -0.3630 
 19 C       -8.9750     2.1990     0.3700 C.ar  1 <1>   0.0820 
 20 C      -10.8310     0.3390     1.7950 C.3   1 <1>   0.0400 
 21 O      -10.2150     2.7470     0.4930 O.3   1 <1>  -0.3630 
 22 C      -10.5750     3.9670    -0.1190 C.3   1 <1>   0.0400 
 23 H        0.3680     0.6200     1.1060 H     1 <1>   0.0800 
 24 H       -1.9510     1.7540    -0.8510 H     1 <1>   0.0800 
 25 H       -2.0350     0.5870     0.4790 H     1 <1>   0.0800 
 26 H        0.0830     2.7650    -0.0480 H     1 <1>   0.0800 
 27 H        1.3090     2.3400    -1.2130 H     1 <1>   0.0800 
 28 H        2.4740    -0.0250    -0.9760 H     1 <1>   0.0800 
 29 H        1.9540    -1.0570     0.3290 H     1 <1>   0.0800 
 30 H       -3.0470    -1.0800    -0.9690 H     1 <1>   0.0800 
 31 H       -2.8120    -0.0740    -2.3810 H     1 <1>   0.0800 
 32 H        1.7400     2.8500     1.7390 H     1 <1>   0.0800 
 33 H        2.2540     3.8780     0.4320 H     1 <1>   0.0800 
 34 H        4.1280     0.0560     0.8190 H     1 <1>   0.0800 
 35 H        2.9010     0.4800     1.9790 H     1 <1>   0.0800 
 36 H       -4.8180     0.9180    -1.9400 H     1 <1>   0.3700 
 37 H        4.1210     2.4930     1.3120 H     1 <1>   0.0800 
 38 H        3.8050     2.1680    -0.3670 H     1 <1>   0.0800 
 39 H       -7.0870    -0.3090     1.6200 H     1 <1>   0.1500 
 40 H       -6.0420     2.6560    -1.2430 H     1 <1>   0.1500 
 41 H       -8.2470     3.6080    -1.0870 H     1 <1>   0.1500 
 42 H      -11.2120    -0.4880     2.3660 H     1 <1>   0.0800 
 43 H      -11.0290     0.1880     0.7480 H     1 <1>   0.0800 
 44 H      -11.2770     1.2540     2.1400 H     1 <1>   0.0800 
 45 H      -11.5770     4.2090     0.1850 H     1 <1>   0.0800 
 46 H      -10.5370     3.8480    -1.1870 H     1 <1>   0.0800 
 47 H       -9.8980     4.7360     0.2110 H     1 <1>   0.0800 
@<TRIPOS>BOND
  1   1   2  1   
  2   1   3  1   
  3   2   4  1   
  4   2   5  1   
  5   2  23  1   
  6   3   6  1   
  7   3  24  1   
  8   3  25  1   
  9   4   7  1   
 10   4  26  1   
 11   4  27  1   
 12   5   8  1   
 13   5  28  1   
 14   5  29  1   
 15   6   9  1   
 16   6  30  1   
 17   6  31  1   
 18   7  10  1   
 19   7  32  1   
 20   7  33  1   
 21   8  10  1   
 22   8  34  1   
 23   8  35  1   
 24   9  11  am  
 25   9  36  1   
 26  10  37  1   
 27  10  38  1   
 28  11  12  2   
 29  11  13  1   
 30  13  14  ar  
 31  13  15  ar  
 32  14  16  ar  
 33  14  39  1   
 34  15  17  ar  
 35  15  40  1   
 36  16  18  1   
 37  16  19  ar  
 38  17  19  ar  
 39  17  41  1   
 40  18  20  1   
 41  19  21  1   
 42  20  42  1   
 43  20  43  1   
 44  20  44  1   
 45  21  22  1   
 46  22  45  1   
 47  22  46  1   
 48  22  47  1   
@<TRIPOS>SUBSTRUCTURE
  1 ****  11 GROUP 4 **** **** 0

# MOE 2024.06 (io_trps.svl 2023.06)
