@<TRIPOS>MOLECULE
NONAME
42 43 1 0 0 
SMALL
USER_CHARGES


@<TRIPOS>ATOM
  1 S        0.0320    -0.0030    -0.4520 S.3   1 <1>  -0.0800 
  2 C        0.3120     1.4970     0.4240 C.2   1 <1>   0.1040 
  3 C       -1.6930     0.2850    -0.4960 C.2   1 <1>  -0.1400 
  4 N        1.5920     1.8620     0.8260 N.am  1 <1>  -0.4940 
  5 C       -0.8660     2.1660     0.6300 C.2   1 <1>  -0.0860 
  6 C       -2.0070     1.4360     0.1170 C.2   1 <1>  -0.1810 
  7 C       -2.6110    -0.7270    -1.1470 C.3   1 <1>   0.0200 
  8 C        2.8650     1.4330     0.5870 C.2   1 <1>   0.5690 
  9 C       -0.9270     3.4510     1.2790 C.2   1 <1>   0.7160 
 10 C       -3.4670     1.8570     0.2490 C.3   1 <1>   0.0210 
 11 C       -4.0190    -0.1210    -1.2790 C.3   1 <1>  -0.1600 
 12 O        3.7830     1.9610     1.1570 O.2   1 <1>  -0.5700 
 13 C        3.1830     0.3270    -0.3910 C.3   1 <1>  -0.1790 
 14 O       -0.1160     3.7600     2.1350 O.2   1 <1>  -0.5700 
 15 N       -1.8670     4.3720     0.9150 N.am  1 <1>  -0.7300 
 16 C       -4.4200     0.6740    -0.0210 C.3   1 <1>  -0.1600 
 17 C       -1.9530     5.7610     1.4110 C.3   1 <1>   0.1400 
 18 C       -2.3470     6.7010     0.2680 C.3   1 <1>  -0.1600 
 19 C       -1.3120     6.7270    -0.8690 C.3   1 <1>  -0.1600 
 20 C       -1.7160     7.7270    -1.9560 C.3   1 <1>  -0.2400 
 21 H        1.5960     2.6520     1.4820 H     1 <1>   0.3700 
 22 H       -2.6440    -1.6080    -0.5310 H     1 <1>   0.0800 
 23 H       -2.2350    -1.0000    -2.1170 H     1 <1>   0.0800 
 24 H       -3.6710     2.6400    -0.4590 H     1 <1>   0.0800 
 25 H       -3.6530     2.2320     1.2400 H     1 <1>   0.0800 
 26 H       -4.7310    -0.9070    -1.4620 H     1 <1>   0.0800 
 27 H       -4.0340     0.5410    -2.1280 H     1 <1>   0.0800 
 28 H        2.7320     0.5360    -1.3420 H     1 <1>   0.0800 
 29 H        2.8220    -0.6100    -0.0100 H     1 <1>   0.0800 
 30 H        4.2460     0.2560    -0.5230 H     1 <1>   0.0800 
 31 H       -2.4330     4.1620     0.0960 H     1 <1>   0.3700 
 32 H       -5.4250     1.0420    -0.1270 H     1 <1>   0.0800 
 33 H       -4.4000     0.0120     0.8280 H     1 <1>   0.0800 
 34 H       -1.0060     6.0650     1.8250 H     1 <1>   0.0800 
 35 H       -2.6920     5.8080     2.1940 H     1 <1>   0.0800 
 36 H       -2.4440     7.6930     0.6720 H     1 <1>   0.0800 
 37 H       -3.3110     6.4140    -0.1150 H     1 <1>   0.0800 
 38 H       -1.2170     5.7500    -1.3100 H     1 <1>   0.0800 
 39 H       -0.3500     7.0050    -0.4720 H     1 <1>   0.0800 
 40 H       -2.6670     7.4590    -2.3820 H     1 <1>   0.0800 
 41 H       -0.9800     7.7310    -2.7420 H     1 <1>   0.0800 
 42 H       -1.7840     8.7200    -1.5500 H     1 <1>   0.0800 
@<TRIPOS>BOND
  1   1   2  1   
  2   1   3  1   
  3   2   4  1   
  4   2   5  2   
  5   3   6  2   
  6   3   7  1   
  7   4   8  am  
  8   4  21  1   
  9   5   6  1   
 10   5   9  1   
 11   6  10  1   
 12   7  11  1   
 13   7  22  1   
 14   7  23  1   
 15   8  12  2   
 16   8  13  1   
 17   9  14  2   
 18   9  15  am  
 19  10  16  1   
 20  10  24  1   
 21  10  25  1   
 22  11  16  1   
 23  11  26  1   
 24  11  27  1   
 25  13  28  1   
 26  13  29  1   
 27  13  30  1   
 28  15  17  1   
 29  15  31  1   
 30  16  32  1   
 31  16  33  1   
 32  17  18  1   
 33  17  34  1   
 34  17  35  1   
 35  18  19  1   
 36  18  36  1   
 37  18  37  1   
 38  19  20  1   
 39  19  38  1   
 40  19  39  1   
 41  20  40  1   
 42  20  41  1   
 43  20  42  1   
@<TRIPOS>SUBSTRUCTURE
  1 ****   5 GROUP 4 **** **** 0

# MOE 2024.06 (io_trps.svl 2023.06)
