@<TRIPOS>MOLECULE
NONAME
39 41 1 0 0 
SMALL
USER_CHARGES


@<TRIPOS>ATOM
  1 O        0.3270     1.0950     0.6140 O.2   1 <1>  -0.5700 
  2 C        0.0880     1.1210    -0.5760 C.2   1 <1>   0.6900 
  3 N       -1.1960     1.1490    -1.0450 N.am  1 <1>  -0.5470 
  4 N        1.0920     1.1340    -1.4930 N.am  1 <1>  -0.4930 
  5 C       -2.4150     1.0360    -0.3570 C.ar  1 <1>   0.1170 
  6 C        2.4710     1.1790    -1.3110 C.2   1 <1>   0.3520 
  7 C       -3.5400     1.6550    -0.8980 C.ar  1 <1>  -0.1500 
  8 C       -2.5420     0.3090     0.8330 C.ar  1 <1>  -0.1500 
  9 N        3.2710     1.1030    -2.3150 N.2   1 <1>  -0.4100 
 10 C        3.1870     1.3100    -0.1200 C.2   1 <1>  -0.1500 
 11 C       -4.7430     1.5340    -0.2350 C.ar  1 <1>   0.0830 
 12 C       -3.7620     0.1980     1.4880 C.ar  1 <1>  -0.1500 
 13 O        4.4810     1.1780    -1.8180 O.3   1 <1>  -0.0190 
 14 C        4.4700     1.3010    -0.5140 C.2   1 <1>  -0.0400 
 15 O       -5.9310     2.0460    -0.5770 O.3   1 <1>  -0.3630 
 16 C       -4.8530     0.8270     0.9260 C.ar  1 <1>   0.0830 
 17 C        5.7870     1.4040     0.2550 C.3   1 <1>   0.1800 
 18 C       -6.8540     1.6440     0.4340 C.3   1 <1>   0.4000 
 19 O       -6.1170     0.8600     1.3700 O.3   1 <1>  -0.3630 
 20 C        6.6190     0.1390     0.0120 C.3   1 <1>  -0.2400 
 21 C        6.5660     2.6330    -0.2280 C.3   1 <1>  -0.2400 
 22 C        5.5190     1.5430     1.7600 C.3   1 <1>  -0.2400 
 23 H       -1.2880     1.4070    -2.0220 H     1 <1>   0.3700 
 24 H        0.8360     1.0230    -2.4670 H     1 <1>   0.3700 
 25 H       -3.4900     2.2230    -1.8070 H     1 <1>   0.1500 
 26 H       -1.6810    -0.1780     1.2540 H     1 <1>   0.1500 
 27 H        2.7680     1.3940     0.8640 H     1 <1>   0.1500 
 28 H       -3.8630    -0.3560     2.4030 H     1 <1>   0.1500 
 29 H       -7.6320     1.0450    -0.0050 H     1 <1>   0.0800 
 30 H       -7.2510     2.5140     0.9270 H     1 <1>   0.0800 
 31 H        6.0730    -0.7310     0.3300 H     1 <1>   0.0800 
 32 H        7.5460     0.1830     0.5550 H     1 <1>   0.0800 
 33 H        6.8420     0.0320    -1.0350 H     1 <1>   0.0800 
 34 H        6.7880     2.5480    -1.2770 H     1 <1>   0.0800 
 35 H        7.4920     2.7320     0.3090 H     1 <1>   0.0800 
 36 H        5.9840     3.5250    -0.0790 H     1 <1>   0.0800 
 37 H        6.4440     1.6150     2.3040 H     1 <1>   0.0800 
 38 H        4.9390     2.4270     1.9580 H     1 <1>   0.0800 
 39 H        4.9760     0.6890     2.1250 H     1 <1>   0.0800 
@<TRIPOS>BOND
  1   1   2  2   
  2   2   3  am  
  3   2   4  am  
  4   3   5  1   
  5   3  23  1   
  6   4   6  1   
  7   4  24  1   
  8   5   7  ar  
  9   5   8  ar  
 10   6   9  2   
 11   6  10  1   
 12   7  11  ar  
 13   7  25  1   
 14   8  12  ar  
 15   8  26  1   
 16   9  13  1   
 17  10  14  2   
 18  10  27  1   
 19  11  15  1   
 20  11  16  ar  
 21  12  16  ar  
 22  12  28  1   
 23  13  14  1   
 24  14  17  1   
 25  15  18  1   
 26  16  19  1   
 27  17  20  1   
 28  17  21  1   
 29  17  22  1   
 30  18  19  1   
 31  18  29  1   
 32  18  30  1   
 33  20  31  1   
 34  20  32  1   
 35  20  33  1   
 36  21  34  1   
 37  21  35  1   
 38  21  36  1   
 39  22  37  1   
 40  22  38  1   
 41  22  39  1   
@<TRIPOS>SUBSTRUCTURE
  1 ****   2 GROUP 4 **** **** 0

# MOE 2024.06 (io_trps.svl 2023.06)
