@<TRIPOS>MOLECULE
NONAME
46 47 1 0 0 
SMALL
USER_CHARGES


@<TRIPOS>ATOM
  1 O        1.1140     2.4260     0.0150 O.2   1 <1>  -0.5700 
  2 C        0.8010     1.8460     1.0350 C.2   1 <1>   0.6900 
  3 N       -0.4480     1.3410     1.2310 N.am  1 <1>  -0.5470 
  4 N        1.7220     1.6610     2.0190 N.am  1 <1>  -0.7300 
  5 C       -1.5580     1.2780     0.3760 C.ar  1 <1>   0.1170 
  6 C        3.0440     2.3490     2.2190 C.3   1 <1>   0.1400 
  7 C       -2.8250     1.1830     0.9380 C.ar  1 <1>  -0.1500 
  8 C       -1.4550     1.2840    -1.0100 C.ar  1 <1>  -0.1500 
  9 C        3.8130     2.7730     0.9420 C.3   1 <1>   0.3430 
 10 C       -3.9650     1.1000     0.1530 C.ar  1 <1>  -0.1440 
 11 C       -2.5850     1.2040    -1.8020 C.ar  1 <1>  -0.1500 
 12 N        3.7550     1.7590    -0.1530 N.4   1 <1>  -0.9590 
 13 C       -3.8450     1.1110    -1.2320 C.ar  1 <1>  -0.1430 
 14 C       -5.3260     1.0010     0.8280 C.3   1 <1>  -0.0970 
 15 C        4.2890     0.4170     0.2070 C.3   1 <1>   0.3430 
 16 C        4.3080     2.2870    -1.4280 C.3   1 <1>   0.3430 
 17 C       -5.0630     1.0250    -2.1400 C.3   1 <1>  -0.0970 
 18 C        3.9620    -0.5780    -0.9080 C.3   1 <1>  -0.1600 
 19 C        3.9810     1.3180    -2.5660 C.3   1 <1>  -0.1600 
 20 C        4.4840    -0.1010    -2.2700 C.3   1 <1>  -0.1600 
 21 H       -0.6480     1.0520     2.1820 H     1 <1>   0.3700 
 22 H        1.3910     1.1660     2.8500 H     1 <1>   0.3700 
 23 H        3.6800     1.6940     2.7880 H     1 <1>   0.0800 
 24 H        2.8840     3.2270     2.8220 H     1 <1>   0.0800 
 25 H       -2.9220     1.1770     2.0070 H     1 <1>   0.1500 
 26 H       -0.4950     1.3500    -1.4820 H     1 <1>   0.1500 
 27 H        4.8380     2.9860     1.1960 H     1 <1>   0.0800 
 28 H        3.3690     3.6880     0.5840 H     1 <1>   0.0800 
 29 H       -2.4760     1.2140    -2.8720 H     1 <1>   0.1500 
 30 H        2.7320     1.6520    -0.3160 H     1 <1>   0.4500 
 31 H       -5.2300     1.0070     1.8990 H     1 <1>   0.0800 
 32 H       -5.8150     0.0890     0.5390 H     1 <1>   0.0800 
 33 H       -5.9400     1.8350     0.5410 H     1 <1>   0.0800 
 34 H        3.8430     0.0760     1.1270 H     1 <1>   0.0800 
 35 H        5.3570     0.4730     0.3420 H     1 <1>   0.0800 
 36 H        5.3760     2.4030    -1.3440 H     1 <1>   0.0800 
 37 H        3.8730     3.2500    -1.6450 H     1 <1>   0.0800 
 38 H       -5.5960     0.1100    -1.9570 H     1 <1>   0.0800 
 39 H       -4.7750     1.0460    -3.1750 H     1 <1>   0.0800 
 40 H       -5.7190     1.8570    -1.9560 H     1 <1>   0.0800 
 41 H        2.8960    -0.7180    -0.9530 H     1 <1>   0.0800 
 42 H        4.4020    -1.5310    -0.6700 H     1 <1>   0.0800 
 43 H        4.4340     1.6760    -3.4740 H     1 <1>   0.0800 
 44 H        2.9160     1.3050    -2.7210 H     1 <1>   0.0800 
 45 H        4.1520    -0.7740    -3.0430 H     1 <1>   0.0800 
 46 H        5.5610    -0.1090    -2.2670 H     1 <1>   0.0800 
@<TRIPOS>BOND
  1   1   2  2   
  2   2   3  am  
  3   2   4  am  
  4   3   5  1   
  5   3  21  1   
  6   4   6  1   
  7   4  22  1   
  8   5   7  ar  
  9   5   8  ar  
 10   6   9  1   
 11   6  23  1   
 12   6  24  1   
 13   7  10  ar  
 14   7  25  1   
 15   8  11  ar  
 16   8  26  1   
 17   9  12  1   
 18   9  27  1   
 19   9  28  1   
 20  10  13  ar  
 21  10  14  1   
 22  11  13  ar  
 23  11  29  1   
 24  12  15  1   
 25  12  16  1   
 26  12  30  1   
 27  13  17  1   
 28  14  31  1   
 29  14  32  1   
 30  14  33  1   
 31  15  18  1   
 32  15  34  1   
 33  15  35  1   
 34  16  19  1   
 35  16  36  1   
 36  16  37  1   
 37  17  38  1   
 38  17  39  1   
 39  17  40  1   
 40  18  20  1   
 41  18  41  1   
 42  18  42  1   
 43  19  20  1   
 44  19  43  1   
 45  19  44  1   
 46  20  45  1   
 47  20  46  1   
@<TRIPOS>SUBSTRUCTURE
  1 ****   1 GROUP 4 **** **** 0

# MOE 2024.06 (io_trps.svl 2023.06)
