@<TRIPOS>MOLECULE
NONAME
45 46 1 0 0 
SMALL
USER_CHARGES


@<TRIPOS>ATOM
  1 S        0.2250    -0.4330    -1.7950 S.3   1 <1>  -0.3710 
  2 C       -1.0270     0.7100    -1.2070 C.2   1 <1>   0.6510 
  3 C        1.8230     0.5310    -1.7660 C.3   1 <1>   0.1310 
  4 N       -0.6690     1.9220    -1.0120 N.2   1 <1>  -0.6210 
  5 N       -2.2870     0.1820    -0.9990 N.am  1 <1>  -0.2370 
  6 C        2.8290    -0.0820    -0.7950 C.2   1 <1>   0.5690 
  7 C       -1.6130     2.7980    -0.5660 C.2   1 <1>   0.0210 
  8 C       -3.2910     1.0990    -0.7040 C.2   1 <1>   0.6160 
  9 C       -2.4820    -1.1940    -0.7500 C.ar  1 <1>   0.1170 
 10 O        3.7090    -0.7550    -1.2860 O.2   1 <1>  -0.5700 
 11 N        2.7720     0.1360     0.5650 N.am  1 <1>  -0.6600 
 12 O       -1.2320     3.9260    -0.2610 O.3   1 <1>  -0.8500 
 13 C       -2.9330     2.4110    -0.4590 C.2   1 <1>  -0.1360 
 14 O       -4.4700     0.7070    -0.6340 O.2   1 <1>  -0.5700 
 15 C       -2.0030    -1.8280     0.4090 C.ar  1 <1>   0.0830 
 16 C       -3.1590    -1.9590    -1.6930 C.ar  1 <1>  -0.1500 
 17 C        3.7140    -0.5650     1.4780 C.3   1 <1>   0.1400 
 18 C        1.6820     0.9040     1.2340 C.3   1 <1>   0.1400 
 19 O       -1.3370    -1.1810     1.4040 O.3   1 <1>  -0.3630 
 20 C       -2.1800    -3.1910     0.5760 C.ar  1 <1>  -0.1500 
 21 C       -3.3430    -3.3180    -1.5130 C.ar  1 <1>  -0.1500 
 22 C        4.8890     0.3470     1.8190 C.3   1 <1>  -0.2400 
 23 C        1.9790     2.4020     1.2310 C.3   1 <1>  -0.2400 
 24 C       -1.9390    -0.0650     2.0290 C.3   1 <1>   0.0400 
 25 C       -2.8500    -3.9370    -0.3780 C.ar  1 <1>  -0.1500 
 26 H        1.6310     1.5560    -1.5250 H     1 <1>   0.0800 
 27 H        2.2160     0.4860    -2.7640 H     1 <1>   0.0800 
 28 H       -3.6680     3.1330    -0.1720 H     1 <1>   0.1500 
 29 H       -3.5430    -1.4790    -2.5750 H     1 <1>   0.1500 
 30 H        4.0840    -1.4570     1.0010 H     1 <1>   0.0800 
 31 H        3.2020    -0.8680     2.3750 H     1 <1>   0.0800 
 32 H        1.5620     0.5670     2.2490 H     1 <1>   0.0800 
 33 H        0.7500     0.7190     0.7380 H     1 <1>   0.0800 
 34 H       -1.7920    -3.6640     1.4590 H     1 <1>   0.1500 
 35 H       -3.8690    -3.8920    -2.2560 H     1 <1>   0.1500 
 36 H        5.3710     0.6750     0.9150 H     1 <1>   0.0800 
 37 H        5.6040    -0.1940     2.4110 H     1 <1>   0.0800 
 38 H        4.5570     1.1990     2.3800 H     1 <1>   0.0800 
 39 H        2.8390     2.6300     1.8300 H     1 <1>   0.0800 
 40 H        1.1300     2.9290     1.6310 H     1 <1>   0.0800 
 41 H        2.1300     2.7640     0.2310 H     1 <1>   0.0800 
 42 H       -1.6520    -0.0650     3.0640 H     1 <1>   0.0800 
 43 H       -3.0100    -0.1380     1.9450 H     1 <1>   0.0800 
 44 H       -1.5820     0.8360     1.5610 H     1 <1>   0.0800 
 45 H       -2.9850    -4.9960    -0.2380 H     1 <1>   0.1500 
@<TRIPOS>BOND
  1   1   2  1   
  2   1   3  1   
  3   2   4  2   
  4   2   5  1   
  5   3   6  1   
  6   3  26  1   
  7   3  27  1   
  8   4   7  1   
  9   5   8  am  
 10   5   9  1   
 11   6  10  2   
 12   6  11  am  
 13   7  12  1   
 14   7  13  2   
 15   8  13  1   
 16   8  14  2   
 17   9  15  ar  
 18   9  16  ar  
 19  11  17  1   
 20  11  18  1   
 21  13  28  1   
 22  15  19  1   
 23  15  20  ar  
 24  16  21  ar  
 25  16  29  1   
 26  17  22  1   
 27  17  30  1   
 28  17  31  1   
 29  18  23  1   
 30  18  32  1   
 31  18  33  1   
 32  19  24  1   
 33  20  25  ar  
 34  20  34  1   
 35  21  25  ar  
 36  21  35  1   
 37  22  36  1   
 38  22  37  1   
 39  22  38  1   
 40  23  39  1   
 41  23  40  1   
 42  23  41  1   
 43  24  42  1   
 44  24  43  1   
 45  24  44  1   
 46  25  45  1   
@<TRIPOS>SUBSTRUCTURE
  1 ****   2 GROUP 4 **** **** 0

# MOE 2024.06 (io_trps.svl 2023.06)
