@<TRIPOS>MOLECULE
NONAME
39 40 1 0 0 
SMALL
USER_CHARGES


@<TRIPOS>ATOM
  1 S        0.6490    -2.2480    -1.6820 S.3   1 <1>  -0.3310 
  2 C       -0.8530    -1.7070    -0.8460 C.ar  1 <1>   0.1020 
  3 C        1.2180    -3.8170    -0.8550 C.3   1 <1>   0.1310 
  4 C       -1.5500    -2.5170     0.0370 C.ar  1 <1>  -0.1500 
  5 C       -1.2960    -0.4280    -1.1330 C.ar  1 <1>  -0.1500 
  6 C        1.5420    -3.6160     0.6220 C.2   1 <1>   0.5690 
  7 C       -2.6950    -2.0300     0.6450 C.ar  1 <1>  -0.1500 
  8 C       -2.4430     0.0530    -0.5240 C.ar  1 <1>  -0.1500 
  9 O        0.9330    -4.2690     1.4320 O.2   1 <1>  -0.5700 
 10 N        2.5050    -2.7660     1.0540 N.am  1 <1>  -0.7300 
 11 C       -3.1400    -0.7480     0.3650 C.ar  1 <1>  -0.1500 
 12 C        3.4050    -1.8930     0.2750 C.3   1 <1>   0.2200 
 13 C        4.8770    -2.1920     0.6280 C.3   1 <1>  -0.0800 
 14 C        3.0380    -0.4370     0.5820 C.3   1 <1>  -0.1600 
 15 C        5.8120    -1.2080    -0.0970 C.3   1 <1>  -0.1600 
 16 C        5.2750    -3.6360     0.2750 C.3   1 <1>  -0.2400 
 17 C        3.9750     0.5380    -0.1430 C.3   1 <1>  -0.1600 
 18 C        5.4420     0.2510     0.2040 C.3   1 <1>  -0.1600 
 19 H        2.0930    -4.1480    -1.3810 H     1 <1>   0.0800 
 20 H        0.4340    -4.5400    -0.9750 H     1 <1>   0.0800 
 21 H       -1.2260    -3.5140     0.2620 H     1 <1>   0.1500 
 22 H       -0.7460     0.1840    -1.8250 H     1 <1>   0.1500 
 23 H       -3.2390    -2.6500     1.3360 H     1 <1>   0.1500 
 24 H       -2.7910     1.0480    -0.7420 H     1 <1>   0.1500 
 25 H        2.6160    -2.7080     2.0670 H     1 <1>   0.3700 
 26 H       -4.0310    -0.3740     0.8400 H     1 <1>   0.1500 
 27 H        3.2680    -2.0670    -0.7770 H     1 <1>   0.0800 
 28 H        5.0060    -2.0510     1.6880 H     1 <1>   0.0800 
 29 H        3.1040    -0.2640     1.6420 H     1 <1>   0.0800 
 30 H        2.0250    -0.2510     0.2710 H     1 <1>   0.0800 
 31 H        5.7550    -1.3720    -1.1590 H     1 <1>   0.0800 
 32 H        6.8300    -1.3820     0.2090 H     1 <1>   0.0800 
 33 H        5.1350    -3.8210    -0.7750 H     1 <1>   0.0800 
 34 H        4.6800    -4.3390     0.8300 H     1 <1>   0.0800 
 35 H        6.3080    -3.8080     0.5210 H     1 <1>   0.0800 
 36 H        3.7290     1.5480     0.1330 H     1 <1>   0.0800 
 37 H        3.8340     0.4430    -1.2070 H     1 <1>   0.0800 
 38 H        6.0800     0.9090    -0.3610 H     1 <1>   0.0800 
 39 H        5.6060     0.4530     1.2490 H     1 <1>   0.0800 
@<TRIPOS>BOND
  1   1   2  1   
  2   1   3  1   
  3   2   4  ar  
  4   2   5  ar  
  5   3   6  1   
  6   3  19  1   
  7   3  20  1   
  8   4   7  ar  
  9   4  21  1   
 10   5   8  ar  
 11   5  22  1   
 12   6   9  2   
 13   6  10  am  
 14   7  11  ar  
 15   7  23  1   
 16   8  11  ar  
 17   8  24  1   
 18  10  12  1   
 19  10  25  1   
 20  11  26  1   
 21  12  13  1   
 22  12  14  1   
 23  12  27  1   
 24  13  15  1   
 25  13  16  1   
 26  13  28  1   
 27  14  17  1   
 28  14  29  1   
 29  14  30  1   
 30  15  18  1   
 31  15  31  1   
 32  15  32  1   
 33  16  33  1   
 34  16  34  1   
 35  16  35  1   
 36  17  18  1   
 37  17  36  1   
 38  17  37  1   
 39  18  38  1   
 40  18  39  1   
@<TRIPOS>SUBSTRUCTURE
  1 ****  10 GROUP 4 **** **** 0

# MOE 2024.06 (io_trps.svl 2023.06)
