@<TRIPOS>MOLECULE
NONAME
41 42 1 0 0 
SMALL
USER_CHARGES


@<TRIPOS>ATOM
  1 S       -0.5120     0.4350     0.3470 S.o2  1 <1>   1.3330 
  2 O        0.5450     0.7990     1.2600 O.2   1 <1>  -0.6500 
  3 O       -1.8840     0.7920     0.6100 O.2   1 <1>  -0.6500 
  4 N       -0.4230    -1.2790     0.1260 N.am  1 <1>  -0.6930 
  5 C       -0.0800     1.0320    -1.2730 C.3   1 <1>  -0.1350 
  6 C       -1.5730    -2.0600     0.0390 C.ar  1 <1>   0.1990 
  7 C        0.8880    -1.8790     0.4570 C.3   1 <1>   0.3340 
  8 C       -1.8210    -3.1000     0.9320 C.ar  1 <1>  -0.1500 
  9 C       -2.5210    -1.8230    -0.9520 C.ar  1 <1>  -0.1500 
 10 C        1.1130    -3.1360    -0.3650 C.2   1 <1>  -0.2880 
 11 C       -2.9680    -3.8640     0.8400 C.ar  1 <1>  -0.1500 
 12 C       -3.6680    -2.5870    -1.0430 C.ar  1 <1>  -0.1500 
 13 C        1.3790    -4.3510     0.1260 C.2   1 <1>  -0.3000 
 14 C       -3.9280    -3.6210    -0.1420 C.ar  1 <1>   0.0860 
 15 C       -5.1360    -4.4140    -0.2150 C.2   1 <1>   0.5440 
 16 O       -5.0570    -5.6280    -0.2810 O.2   1 <1>  -0.5700 
 17 N       -6.3830    -3.8290    -0.1970 N.am  1 <1>  -0.6600 
 18 C       -7.6340    -4.6210    -0.2290 C.3   1 <1>   0.1400 
 19 C       -6.6490    -2.4410     0.2470 C.3   1 <1>   0.1400 
 20 C       -8.6540    -3.7660     0.5130 C.3   1 <1>  -0.1600 
 21 C       -8.1690    -2.3330     0.3160 C.3   1 <1>  -0.1600 
 22 H       -0.0750     2.1050    -1.2760 H     1 <1>   0.0800 
 23 H       -0.7890     0.6910    -1.9990 H     1 <1>   0.0800 
 24 H        0.8960     0.6840    -1.5490 H     1 <1>   0.0800 
 25 H        0.9260    -2.0980     1.5110 H     1 <1>   0.0800 
 26 H        1.6770    -1.1820     0.2340 H     1 <1>   0.0800 
 27 H       -1.1100    -3.3110     1.7080 H     1 <1>   0.1500 
 28 H       -2.3580    -1.0330    -1.6590 H     1 <1>   0.1500 
 29 H        1.0300    -2.9470    -1.4210 H     1 <1>   0.1500 
 30 H       -3.1380    -4.6680     1.5350 H     1 <1>   0.1500 
 31 H       -4.3830    -2.3900    -1.8230 H     1 <1>   0.1500 
 32 H        1.5290    -5.2240    -0.4870 H     1 <1>   0.1500 
 33 H        1.4680    -4.5810     1.1740 H     1 <1>   0.1500 
 34 H       -7.5030    -5.5800     0.2450 H     1 <1>   0.0800 
 35 H       -7.9290    -4.7630    -1.2540 H     1 <1>   0.0800 
 36 H       -6.2420    -1.7250    -0.4460 H     1 <1>   0.0800 
 37 H       -6.2160    -2.2920     1.2220 H     1 <1>   0.0800 
 38 H       -8.6250    -4.0210     1.5580 H     1 <1>   0.0800 
 39 H       -9.6510    -3.9190     0.1400 H     1 <1>   0.0800 
 40 H       -8.5340    -1.9500    -0.6210 H     1 <1>   0.0800 
 41 H       -8.4870    -1.6790     1.1090 H     1 <1>   0.0800 
@<TRIPOS>BOND
  1   1   2  2   
  2   1   3  2   
  3   1   4  am  
  4   1   5  1   
  5   4   6  1   
  6   4   7  1   
  7   5  22  1   
  8   5  23  1   
  9   5  24  1   
 10   6   8  ar  
 11   6   9  ar  
 12   7  10  1   
 13   7  25  1   
 14   7  26  1   
 15   8  11  ar  
 16   8  27  1   
 17   9  12  ar  
 18   9  28  1   
 19  10  13  2   
 20  10  29  1   
 21  11  14  ar  
 22  11  30  1   
 23  12  14  ar  
 24  12  31  1   
 25  13  32  1   
 26  13  33  1   
 27  14  15  1   
 28  15  16  2   
 29  15  17  am  
 30  17  18  1   
 31  17  19  1   
 32  18  20  1   
 33  18  34  1   
 34  18  35  1   
 35  19  21  1   
 36  19  36  1   
 37  19  37  1   
 38  20  21  1   
 39  20  38  1   
 40  20  39  1   
 41  21  40  1   
 42  21  41  1   
@<TRIPOS>SUBSTRUCTURE
  1 ****   9 GROUP 4 **** **** 0

# MOE 2024.06 (io_trps.svl 2023.06)
