@<TRIPOS>MOLECULE
NONAME
40 42 1 0 0 
SMALL
USER_CHARGES


@<TRIPOS>ATOM
  1 F       -0.0560    -2.4830     1.7110 F     1 <1>  -0.1900 
  2 C       -1.0790    -2.2530     0.9210 C.ar  1 <1>   0.1900 
  3 C       -1.0640    -2.7530    -0.3870 C.ar  1 <1>   0.1000 
  4 C       -2.1300    -1.5170     1.4320 C.ar  1 <1>  -0.1500 
  5 N       -0.0190    -3.5030    -0.9450 N.pl3 1 <1>  -0.8380 
  6 C       -2.1740    -2.4770    -1.1750 C.ar  1 <1>  -0.1500 
  7 C       -3.2220    -1.2600     0.6190 C.ar  1 <1>  -0.1500 
  8 C        1.2410    -2.7750    -1.2860 C.3   1 <1>   0.2090 
  9 C        0.1380    -4.9140    -0.4790 C.3   1 <1>   0.2090 
 10 C       -3.2400    -1.7400    -0.6810 C.ar  1 <1>  -0.1500 
 11 C        2.3370    -2.9700    -0.2170 C.3   1 <1>   0.3430 
 12 C        1.2590    -5.0630     0.5730 C.3   1 <1>   0.3430 
 13 N        2.5540    -4.4210     0.1450 N.4   1 <1>  -0.9590 
 14 C        3.6040    -4.5700     1.1880 C.3   1 <1>   0.4860 
 15 C        4.9200    -4.0590     0.6290 C.ar  1 <1>  -0.1430 
 16 C        5.6160    -4.8010    -0.3160 C.ar  1 <1>  -0.1500 
 17 C        5.4380    -2.8410     1.0570 C.ar  1 <1>  -0.1500 
 18 C        6.8020    -4.2980    -0.8170 C.ar  1 <1>   0.1900 
 19 C        6.6320    -2.3570     0.5420 C.ar  1 <1>  -0.1500 
 20 F        7.4460    -4.9950    -1.7120 F     1 <1>  -0.1900 
 21 C        7.3250    -3.0880    -0.4080 C.ar  1 <1>  -0.1500 
 22 H       -2.0980    -1.1530     2.4430 H     1 <1>   0.1500 
 23 H       -2.1990    -2.8440    -2.1850 H     1 <1>   0.1500 
 24 H       -4.0540    -0.6890     0.9950 H     1 <1>   0.1500 
 25 H        1.0300    -1.7230    -1.3880 H     1 <1>   0.0800 
 26 H        1.6000    -3.1230    -2.2390 H     1 <1>   0.0800 
 27 H        0.3520    -5.5400    -1.3280 H     1 <1>   0.0800 
 28 H       -0.7920    -5.2550    -0.0550 H     1 <1>   0.0800 
 29 H       -4.0890    -1.5400    -1.3120 H     1 <1>   0.1500 
 30 H        2.0500    -2.4190     0.6620 H     1 <1>   0.0800 
 31 H        3.2560    -2.5420    -0.5830 H     1 <1>   0.0800 
 32 H        1.4140    -6.1110     0.7680 H     1 <1>   0.0800 
 33 H        0.9180    -4.6080     1.4880 H     1 <1>   0.0800 
 34 H        2.8890    -4.8930    -0.7030 H     1 <1>   0.4500 
 35 H        3.7130    -5.6070     1.4610 H     1 <1>   0.0800 
 36 H        3.3360    -4.0100     2.0690 H     1 <1>   0.0800 
 37 H        5.2690    -5.7550    -0.6700 H     1 <1>   0.1500 
 38 H        4.9240    -2.2520     1.7990 H     1 <1>   0.1500 
 39 H        7.0260    -1.4120     0.8800 H     1 <1>   0.1500 
 40 H        8.2520    -2.7320    -0.8210 H     1 <1>   0.1500 
@<TRIPOS>BOND
  1   1   2  1   
  2   2   3  ar  
  3   2   4  ar  
  4   3   5  1   
  5   3   6  ar  
  6   4   7  ar  
  7   4  22  1   
  8   5   8  1   
  9   5   9  1   
 10   6  10  ar  
 11   6  23  1   
 12   7  10  ar  
 13   7  24  1   
 14   8  11  1   
 15   8  25  1   
 16   8  26  1   
 17   9  12  1   
 18   9  27  1   
 19   9  28  1   
 20  10  29  1   
 21  11  13  1   
 22  11  30  1   
 23  11  31  1   
 24  12  13  1   
 25  12  32  1   
 26  12  33  1   
 27  13  14  1   
 28  13  34  1   
 29  14  15  1   
 30  14  35  1   
 31  14  36  1   
 32  15  16  ar  
 33  15  17  ar  
 34  16  18  ar  
 35  16  37  1   
 36  17  19  ar  
 37  17  38  1   
 38  18  20  1   
 39  18  21  ar  
 40  19  21  ar  
 41  19  39  1   
 42  21  40  1   
@<TRIPOS>SUBSTRUCTURE
  1 ****  11 GROUP 4 **** **** 0

# MOE 2024.06 (io_trps.svl 2023.06)
