@<TRIPOS>MOLECULE
NONAME
41 42 1 0 0 
SMALL
USER_CHARGES


@<TRIPOS>ATOM
  1 CL      -2.7550     1.3170     1.7400 Cl    1 <1>  -0.1770 
  2 C       -1.4020     2.1210     0.9840 C.ar  1 <1>   0.1770 
  3 C       -0.2030     1.4470     0.8540 C.ar  1 <1>  -0.1500 
  4 C       -1.5560     3.4140     0.5240 C.ar  1 <1>  -0.1500 
  5 C        0.8780     2.0780     0.2590 C.ar  1 <1>  -0.1440 
  6 C       -0.4860     4.0610    -0.0740 C.ar  1 <1>  -0.1440 
  7 C        0.7340     3.3930    -0.1840 C.ar  1 <1>   0.0830 
  8 C        2.1830     1.3100     0.0980 C.3   1 <1>  -0.0960 
  9 C       -0.6800     5.4760    -0.6030 C.3   1 <1>  -0.0960 
 10 O        1.7910     4.0290    -0.7380 O.3   1 <1>  -0.3630 
 11 C        2.6170     4.7300     0.1560 C.3   1 <1>   0.1200 
 12 C        3.7230     5.3960    -0.6670 C.3   1 <1>   0.3430 
 13 N        4.7260     6.1240     0.1790 N.4   1 <1>  -0.9590 
 14 C        4.1330     7.3090     0.8730 C.3   1 <1>   0.3430 
 15 C        5.9030     6.5200    -0.6500 C.3   1 <1>   0.3430 
 16 C        5.1730     7.9380     1.8020 C.3   1 <1>  -0.1600 
 17 C        6.9840     7.1300     0.2450 C.3   1 <1>  -0.1600 
 18 C        6.4500     8.3250     1.0450 C.3   1 <1>  -0.1600 
 19 H       -0.1300     0.4370     1.2160 H     1 <1>   0.1500 
 20 H       -2.5100     3.8970     0.6340 H     1 <1>   0.1500 
 21 H        2.0050     0.2500     0.1370 H     1 <1>   0.0800 
 22 H        2.8660     1.5710     0.8860 H     1 <1>   0.0800 
 23 H        2.6340     1.5340    -0.8520 H     1 <1>   0.0800 
 24 H       -1.7250     5.6840    -0.7520 H     1 <1>   0.0800 
 25 H       -0.1810     5.5920    -1.5480 H     1 <1>   0.0800 
 26 H       -0.2860     6.1900     0.0970 H     1 <1>   0.0800 
 27 H        3.0250     4.0230     0.8570 H     1 <1>   0.0800 
 28 H        2.0120     5.4560     0.6670 H     1 <1>   0.0800 
 29 H        3.2730     6.0820    -1.3660 H     1 <1>   0.0800 
 30 H        4.2270     4.6250    -1.2290 H     1 <1>   0.0800 
 31 H        5.0770     5.4850     0.9050 H     1 <1>   0.4500 
 32 H        3.2740     7.0140     1.4540 H     1 <1>   0.0800 
 33 H        3.8150     8.0380     0.1450 H     1 <1>   0.0800 
 34 H        5.6020     7.2420    -1.3920 H     1 <1>   0.0800 
 35 H        6.3060     5.6580    -1.1590 H     1 <1>   0.0800 
 36 H        5.4100     7.2490     2.5940 H     1 <1>   0.0800 
 37 H        4.7520     8.8170     2.2590 H     1 <1>   0.0800 
 38 H        7.8070     7.4540    -0.3690 H     1 <1>   0.0800 
 39 H        7.3620     6.3770     0.9150 H     1 <1>   0.0800 
 40 H        7.2010     8.6650     1.7410 H     1 <1>   0.0800 
 41 H        6.2370     9.1400     0.3740 H     1 <1>   0.0800 
@<TRIPOS>BOND
  1   1   2  1   
  2   2   3  ar  
  3   2   4  ar  
  4   3   5  ar  
  5   3  19  1   
  6   4   6  ar  
  7   4  20  1   
  8   5   7  ar  
  9   5   8  1   
 10   6   7  ar  
 11   6   9  1   
 12   7  10  1   
 13   8  21  1   
 14   8  22  1   
 15   8  23  1   
 16   9  24  1   
 17   9  25  1   
 18   9  26  1   
 19  10  11  1   
 20  11  12  1   
 21  11  27  1   
 22  11  28  1   
 23  12  13  1   
 24  12  29  1   
 25  12  30  1   
 26  13  14  1   
 27  13  15  1   
 28  13  31  1   
 29  14  16  1   
 30  14  32  1   
 31  14  33  1   
 32  15  17  1   
 33  15  34  1   
 34  15  35  1   
 35  16  18  1   
 36  16  36  1   
 37  16  37  1   
 38  17  18  1   
 39  17  38  1   
 40  17  39  1   
 41  18  40  1   
 42  18  41  1   
@<TRIPOS>SUBSTRUCTURE
  1 ****  11 GROUP 4 **** **** 0

# MOE 2024.06 (io_trps.svl 2023.06)
