@<TRIPOS>MOLECULE
NONAME
49 51 1 0 0 
SMALL
USER_CHARGES


@<TRIPOS>ATOM
  1 F        0.9200     0.0000     2.2690 F     1 <1>  -0.1900 
  2 C        1.3750    -1.0520     1.6440 C.ar  1 <1>   0.1900 
  3 C        2.2240    -0.8710     0.5700 C.ar  1 <1>  -0.1500 
  4 C        0.9940    -2.3050     2.0820 C.ar  1 <1>  -0.1500 
  5 C        2.7180    -1.9850    -0.0930 C.ar  1 <1>  -0.1440 
  6 C        1.4860    -3.4150     1.4160 C.ar  1 <1>  -0.1500 
  7 C        2.3420    -3.2530     0.3360 C.ar  1 <1>  -0.1500 
  8 C        3.6640    -1.8110    -1.2730 C.3   1 <1>   0.2540 
  9 N        4.8830    -1.0910    -0.8520 N.3   1 <1>  -0.8100 
 10 C        5.6510    -1.8370     0.1790 C.3   1 <1>   0.1100 
 11 C        5.7500    -0.7560    -2.0060 C.3   1 <1>   0.1100 
 12 C        6.9240    -1.0780     0.6280 C.3   1 <1>   0.3430 
 13 C        7.0230     0.0160    -1.5780 C.3   1 <1>   0.3430 
 14 N        7.0500     0.2320    -0.0900 N.4   1 <1>  -0.9590 
 15 C        8.1380     1.0940     0.4390 C.3   1 <1>   0.4230 
 16 C        7.8800     2.5660     0.0680 C.3   1 <1>  -0.1600 
 17 C        9.5240     0.6210    -0.0210 C.3   1 <1>  -0.1600 
 18 C        9.1700     3.4100    -0.0070 C.3   1 <1>  -0.0800 
 19 C       10.6350     1.4350     0.6710 C.3   1 <1>  -0.1600 
 20 C       10.2270     2.8890     0.9780 C.3   1 <1>  -0.1600 
 21 C        8.8660     4.8900     0.2480 C.3   1 <1>  -0.2400 
 22 H        2.4940     0.1230     0.2630 H     1 <1>   0.1500 
 23 H        0.3300    -2.4050     2.9220 H     1 <1>   0.1500 
 24 H        1.2010    -4.4030     1.7360 H     1 <1>   0.1500 
 25 H        2.7120    -4.1280    -0.1700 H     1 <1>   0.1500 
 26 H        3.1570    -1.2440    -2.0350 H     1 <1>   0.0800 
 27 H        3.9250    -2.7700    -1.6870 H     1 <1>   0.0800 
 28 H        5.9320    -2.8050    -0.2000 H     1 <1>   0.0800 
 29 H        5.0340    -1.9990     1.0460 H     1 <1>   0.0800 
 30 H        5.1960    -0.1480    -2.7030 H     1 <1>   0.0800 
 31 H        6.0400    -1.6560    -2.5220 H     1 <1>   0.0800 
 32 H        7.7890    -1.6900     0.4370 H     1 <1>   0.0800 
 33 H        6.8690    -0.9100     1.6910 H     1 <1>   0.0800 
 34 H        7.0460     0.9630    -2.0910 H     1 <1>   0.0800 
 35 H        7.8930    -0.5410    -1.8840 H     1 <1>   0.0800 
 36 H        6.1440     0.6880     0.1020 H     1 <1>   0.4500 
 37 H        8.1270     1.0350     1.5160 H     1 <1>   0.0800 
 38 H        7.2330     2.9760     0.8240 H     1 <1>   0.0800 
 39 H        7.3760     2.6540    -0.8760 H     1 <1>   0.0800 
 40 H        9.6180     0.7620    -1.0830 H     1 <1>   0.0800 
 41 H        9.6700    -0.4200     0.2010 H     1 <1>   0.0800 
 42 H        9.5800     3.3270    -1.0020 H     1 <1>   0.0800 
 43 H       11.5050     1.4370     0.0350 H     1 <1>   0.0800 
 44 H       10.9200     0.9570     1.5930 H     1 <1>   0.0800 
 45 H        9.8330     2.9470     1.9790 H     1 <1>   0.0800 
 46 H       11.1030     3.5140     0.9450 H     1 <1>   0.0800 
 47 H        8.4860     5.0400     1.2430 H     1 <1>   0.0800 
 48 H        8.1380     5.2520    -0.4570 H     1 <1>   0.0800 
 49 H        9.7610     5.4780     0.1350 H     1 <1>   0.0800 
@<TRIPOS>BOND
  1   1   2  1   
  2   2   3  ar  
  3   2   4  ar  
  4   3   5  ar  
  5   3  22  1   
  6   4   6  ar  
  7   4  23  1   
  8   5   7  ar  
  9   5   8  1   
 10   6   7  ar  
 11   6  24  1   
 12   7  25  1   
 13   8   9  1   
 14   8  26  1   
 15   8  27  1   
 16   9  10  1   
 17   9  11  1   
 18  10  12  1   
 19  10  28  1   
 20  10  29  1   
 21  11  13  1   
 22  11  30  1   
 23  11  31  1   
 24  12  14  1   
 25  12  32  1   
 26  12  33  1   
 27  13  14  1   
 28  13  34  1   
 29  13  35  1   
 30  14  15  1   
 31  14  36  1   
 32  15  16  1   
 33  15  17  1   
 34  15  37  1   
 35  16  18  1   
 36  16  38  1   
 37  16  39  1   
 38  17  19  1   
 39  17  40  1   
 40  17  41  1   
 41  18  20  1   
 42  18  21  1   
 43  18  42  1   
 44  19  20  1   
 45  19  43  1   
 46  19  44  1   
 47  20  45  1   
 48  20  46  1   
 49  21  47  1   
 50  21  48  1   
 51  21  49  1   
@<TRIPOS>SUBSTRUCTURE
  1 ****  14 GROUP 4 **** **** 0

# MOE 2024.06 (io_trps.svl 2023.06)
