@<TRIPOS>MOLECULE
NONAME
47 51 1 0 0 
SMALL
USER_CHARGES


@<TRIPOS>ATOM
  1 S       -0.3900    -0.5410    -1.0300 S.3   1 <1>  -0.0800 
  2 C        0.9770    -1.2870    -0.2740 C.2   1 <1>   0.4420 
  3 C       -1.3630    -1.1610     0.2670 C.2   1 <1>   0.1980 
  4 N        0.6610    -1.8900     0.8130 N.2   1 <1>  -0.3380 
  5 N        2.1950    -1.1340    -0.8950 N.am  1 <1>  -0.4940 
  6 N       -0.6700    -1.8180     1.1110 N.2   1 <1>  -0.3380 
  7 C       -2.8700    -0.8720     0.2610 C.3   1 <1>   0.1800 
  8 C        3.4030    -1.6810    -0.6040 C.2   1 <1>   0.6900 
  9 C       -3.5490    -1.5120     1.4980 C.3   1 <1>  -0.1600 
 10 C       -3.5320    -1.4580    -1.0090 C.3   1 <1>  -0.1600 
 11 C       -3.1340     0.6520     0.3020 C.3   1 <1>  -0.1600 
 12 O        4.3900    -1.0540    -0.9140 O.2   1 <1>  -0.5700 
 13 N        3.5720    -2.8960    -0.0150 N.am  1 <1>  -0.5470 
 14 C       -5.0630    -1.2310     1.5050 C.3   1 <1>  -0.0800 
 15 C       -5.0460    -1.1740    -1.0170 C.3   1 <1>  -0.0800 
 16 C       -4.6470     0.9450     0.2990 C.3   1 <1>  -0.0800 
 17 C        2.7540    -4.0300    -0.0160 C.ar  1 <1>   0.1170 
 18 C       -5.6890    -1.8160     0.2260 C.3   1 <1>  -0.1600 
 19 C       -5.2920     0.2910     1.5340 C.3   1 <1>  -0.1600 
 20 C       -5.2740     0.3490    -0.9750 C.3   1 <1>  -0.1600 
 21 C        2.7070    -4.8380     1.1170 C.ar  1 <1>  -0.1500 
 22 C        1.9920    -4.3760    -1.1310 C.ar  1 <1>  -0.1500 
 23 C        1.9100    -5.9700     1.1470 C.ar  1 <1>  -0.1500 
 24 C        1.1890    -5.5040    -1.1160 C.ar  1 <1>  -0.1500 
 25 C        1.1630    -6.2800     0.0260 C.ar  1 <1>   0.1900 
 26 F        0.4090    -7.3480     0.0460 F     1 <1>  -0.1900 
 27 H        2.2750    -0.3590    -1.5440 H     1 <1>   0.3700 
 28 H       -3.1070    -1.1210     2.3970 H     1 <1>   0.0800 
 29 H       -3.3810    -2.5750     1.4930 H     1 <1>   0.0800 
 30 H       -3.3630    -2.5200    -1.0450 H     1 <1>   0.0800 
 31 H       -3.0910    -1.0280    -1.8900 H     1 <1>   0.0800 
 32 H       -2.6840     1.1310    -0.5490 H     1 <1>   0.0800 
 33 H       -2.6860     1.0710     1.1860 H     1 <1>   0.0800 
 34 H        4.5200    -3.0230     0.3350 H     1 <1>   0.3700 
 35 H       -5.5140    -1.6850     2.3720 H     1 <1>   0.0800 
 36 H       -5.4900    -1.5840    -1.9080 H     1 <1>   0.0800 
 37 H       -4.8130     2.0090     0.3240 H     1 <1>   0.0800 
 38 H       -6.7500    -1.6310     0.2230 H     1 <1>   0.0800 
 39 H       -5.5450    -2.8820     0.2030 H     1 <1>   0.0800 
 40 H       -4.8680     0.7060     2.4320 H     1 <1>   0.0800 
 41 H       -6.3480     0.4990     1.5470 H     1 <1>   0.0800 
 42 H       -6.3300     0.5580    -0.9910 H     1 <1>   0.0800 
 43 H       -4.8400     0.8090    -1.8460 H     1 <1>   0.0800 
 44 H        3.2880    -4.5720     1.9820 H     1 <1>   0.1500 
 45 H        2.0290    -3.7630    -2.0130 H     1 <1>   0.1500 
 46 H        1.8610    -6.5970     2.0180 H     1 <1>   0.1500 
 47 H        0.5940    -5.7790    -1.9680 H     1 <1>   0.1500 
@<TRIPOS>BOND
  1   1   2  1   
  2   1   3  1   
  3   2   4  2   
  4   2   5  1   
  5   3   6  2   
  6   3   7  1   
  7   4   6  1   
  8   5   8  am  
  9   5  27  1   
 10   7   9  1   
 11   7  10  1   
 12   7  11  1   
 13   8  12  2   
 14   8  13  am  
 15   9  14  1   
 16   9  28  1   
 17   9  29  1   
 18  10  15  1   
 19  10  30  1   
 20  10  31  1   
 21  11  16  1   
 22  11  32  1   
 23  11  33  1   
 24  13  17  1   
 25  13  34  1   
 26  14  18  1   
 27  14  19  1   
 28  14  35  1   
 29  15  18  1   
 30  15  20  1   
 31  15  36  1   
 32  16  19  1   
 33  16  20  1   
 34  16  37  1   
 35  17  21  ar  
 36  17  22  ar  
 37  18  38  1   
 38  18  39  1   
 39  19  40  1   
 40  19  41  1   
 41  20  42  1   
 42  20  43  1   
 43  21  23  ar  
 44  21  44  1   
 45  22  24  ar  
 46  22  45  1   
 47  23  25  ar  
 48  23  46  1   
 49  24  25  ar  
 50  24  47  1   
 51  25  26  1   
@<TRIPOS>SUBSTRUCTURE
  1 ****   6 GROUP 4 **** **** 0

# MOE 2024.06 (io_trps.svl 2023.06)
