@<TRIPOS>MOLECULE
NONAME
44 45 1 0 0 
SMALL
USER_CHARGES


@<TRIPOS>ATOM
  1 S       -0.1420     0.3510    -0.7490 S.o2  1 <1>   1.4470 
  2 O       -0.5710     0.7340    -2.0740 O.2   1 <1>  -0.6500 
  3 O       -0.6860    -0.8300    -0.1180 O.2   1 <1>  -0.6500 
  4 N       -0.5860     1.6600     0.1990 N.am  1 <1>  -0.9140 
  5 C        1.6660     0.3480    -0.6320 C.ar  1 <1>  -0.0090 
  6 C       -1.9750     1.5990     0.6220 C.3   1 <1>   0.1960 
  7 C        2.3020     0.1280     0.5840 C.ar  1 <1>  -0.1500 
  8 C        2.4680     0.5700    -1.7460 C.ar  1 <1>  -0.1500 
  9 C       -2.3850     2.9210     1.2920 C.3   1 <1>  -0.0800 
 10 C        3.6810     0.1280     0.6840 C.ar  1 <1>  -0.1500 
 11 C        3.8480     0.5710    -1.6500 C.ar  1 <1>  -0.1500 
 12 C       -3.8230     2.8180     1.8160 C.3   1 <1>  -0.2400 
 13 C       -2.2740     4.1210     0.3360 C.3   1 <1>  -0.2400 
 14 C        4.4790     0.3500    -0.4310 C.ar  1 <1>   0.1170 
 15 N        5.8710     0.3350    -0.2690 N.am  1 <1>  -0.5470 
 16 C        6.9220     0.5870    -1.1080 C.2   1 <1>   0.5690 
 17 O        6.8040     0.8980    -2.2700 O.2   1 <1>  -0.5700 
 18 C        8.3290     0.4610    -0.5080 C.3   1 <1>   0.2610 
 19 O        8.2910     0.0200     0.8260 O.3   1 <1>  -0.5600 
 20 C        9.0940     1.7780    -0.4330 C.3   1 <1>  -0.1600 
 21 C        9.4870     0.3410     1.4630 C.3   1 <1>   0.1200 
 22 C       10.0300     1.5790     0.7510 C.3   1 <1>  -0.1600 
 23 H       -0.5210     2.4470    -0.4420 H     1 <1>   0.4200 
 24 H       -2.0990     0.7860     1.3190 H     1 <1>   0.0800 
 25 H       -2.6110     1.4120    -0.2300 H     1 <1>   0.0800 
 26 H        1.7030    -0.0460     1.4620 H     1 <1>   0.1500 
 27 H        2.0080     0.7430    -2.7050 H     1 <1>   0.1500 
 28 H       -1.7350     3.0840     2.1360 H     1 <1>   0.0800 
 29 H        4.1410    -0.0470     1.6400 H     1 <1>   0.1500 
 30 H        4.4300     0.7440    -2.5370 H     1 <1>   0.1500 
 31 H       -4.5130     2.6550     1.0070 H     1 <1>   0.0800 
 32 H       -4.1010     3.7230     2.3270 H     1 <1>   0.0800 
 33 H       -3.9110     2.0010     2.5110 H     1 <1>   0.0800 
 34 H       -2.8690     3.9610    -0.5460 H     1 <1>   0.0800 
 35 H       -1.2520     4.2840     0.0420 H     1 <1>   0.0800 
 36 H       -2.6200     5.0150     0.8230 H     1 <1>   0.0800 
 37 H        6.2070     0.0810     0.6650 H     1 <1>   0.3700 
 38 H        8.8910    -0.2620    -1.0720 H     1 <1>   0.0800 
 39 H        8.4070     2.5830    -0.2350 H     1 <1>   0.0800 
 40 H        9.6170     1.9810    -1.3510 H     1 <1>   0.0800 
 41 H       10.1580    -0.4950     1.3580 H     1 <1>   0.0800 
 42 H        9.2860     0.5240     2.5040 H     1 <1>   0.0800 
 43 H       10.0210     2.4330     1.4050 H     1 <1>   0.0800 
 44 H       11.0400     1.3990     0.4260 H     1 <1>   0.0800 
@<TRIPOS>BOND
  1   1   2  2   
  2   1   3  2   
  3   1   4  am  
  4   1   5  1   
  5   4   6  1   
  6   4  23  1   
  7   5   7  ar  
  8   5   8  ar  
  9   6   9  1   
 10   6  24  1   
 11   6  25  1   
 12   7  10  ar  
 13   7  26  1   
 14   8  11  ar  
 15   8  27  1   
 16   9  12  1   
 17   9  13  1   
 18   9  28  1   
 19  10  14  ar  
 20  10  29  1   
 21  11  14  ar  
 22  11  30  1   
 23  12  31  1   
 24  12  32  1   
 25  12  33  1   
 26  13  34  1   
 27  13  35  1   
 28  13  36  1   
 29  14  15  1   
 30  15  16  am  
 31  15  37  1   
 32  16  17  2   
 33  16  18  1   
 34  18  19  1   
 35  18  20  1   
 36  18  38  1   
 37  19  21  1   
 38  20  22  1   
 39  20  39  1   
 40  20  40  1   
 41  21  22  1   
 42  21  41  1   
 43  21  42  1   
 44  22  43  1   
 45  22  44  1   
@<TRIPOS>SUBSTRUCTURE
  1 ****  10 GROUP 4 **** **** 0

# MOE 2024.06 (io_trps.svl 2023.06)
