@<TRIPOS>MOLECULE
NONAME
32 32 1 0 0 
SMALL
USER_CHARGES


@<TRIPOS>ATOM
  1 CL      -1.9770     1.1740    -1.9730 Cl    1 <1>  -0.1770 
  2 C       -1.0270     2.2550    -0.9830 C.ar  1 <1>   0.1770 
  3 C       -1.4320     2.5210     0.3150 C.ar  1 <1>  -0.1440 
  4 C        0.1070     2.8350    -1.5240 C.ar  1 <1>  -0.1500 
  5 C       -0.6670     3.4020     1.0610 C.ar  1 <1>   0.1770 
  6 C       -2.6650     1.8640     0.8990 C.3   1 <1>   0.4870 
  7 C        0.8610     3.7090    -0.7570 C.ar  1 <1>  -0.1500 
  8 CL      -1.1480     3.7910     2.6930 Cl    1 <1>  -0.1770 
  9 C        0.4700     3.9960     0.5410 C.ar  1 <1>  -0.1500 
 10 N       -3.8860     2.4170     0.2440 N.4   1 <1>  -0.9590 
 11 C       -4.0720     3.8620     0.6220 C.3   1 <1>   0.3430 
 12 C       -5.0780     1.5720     0.5850 C.3   1 <1>   0.3430 
 13 C       -5.1920     4.5610    -0.1630 C.3   1 <1>   0.1200 
 14 C       -5.9000     1.2060    -0.6590 C.3   1 <1>   0.1200 
 15 O       -5.1830     5.8950     0.1960 O.3   1 <1>  -0.6800 
 16 O       -7.0290     0.5350    -0.2280 O.3   1 <1>  -0.6800 
 17 H        0.4000     2.6060    -2.5350 H     1 <1>   0.1500 
 18 H       -2.7110     2.0210     1.9650 H     1 <1>   0.0800 
 19 H       -2.6050     0.8020     0.7210 H     1 <1>   0.0800 
 20 H        1.7470     4.1660    -1.1690 H     1 <1>   0.1500 
 21 H        1.0460     4.6750     1.1480 H     1 <1>   0.1500 
 22 H       -3.7050     2.3570    -0.7680 H     1 <1>   0.4500 
 23 H       -3.1580     4.4020     0.4340 H     1 <1>   0.0800 
 24 H       -4.2910     3.9380     1.6750 H     1 <1>   0.0800 
 25 H       -5.7110     2.0950     1.2830 H     1 <1>   0.0800 
 26 H       -4.7580     0.6530     1.0490 H     1 <1>   0.0800 
 27 H       -6.1590     4.1580     0.0860 H     1 <1>   0.0800 
 28 H       -5.0170     4.5030    -1.2240 H     1 <1>   0.0800 
 29 H       -5.3470     0.5490    -1.3090 H     1 <1>   0.0800 
 30 H       -6.2220     2.0820    -1.1940 H     1 <1>   0.0800 
 31 H       -5.8820     6.4060    -0.2670 H     1 <1>   0.4000 
 32 H       -7.5840     0.2310    -0.9790 H     1 <1>   0.4000 
@<TRIPOS>BOND
  1   1   2  1   
  2   2   3  ar  
  3   2   4  ar  
  4   3   5  ar  
  5   3   6  1   
  6   4   7  ar  
  7   4  17  1   
  8   5   8  1   
  9   5   9  ar  
 10   6  10  1   
 11   6  18  1   
 12   6  19  1   
 13   7   9  ar  
 14   7  20  1   
 15   9  21  1   
 16  10  11  1   
 17  10  12  1   
 18  10  22  1   
 19  11  13  1   
 20  11  23  1   
 21  11  24  1   
 22  12  14  1   
 23  12  25  1   
 24  12  26  1   
 25  13  15  1   
 26  13  27  1   
 27  13  28  1   
 28  14  16  1   
 29  14  29  1   
 30  14  30  1   
 31  15  31  1   
 32  16  32  1   
@<TRIPOS>SUBSTRUCTURE
  1 ****  10 GROUP 4 **** **** 0

# MOE 2024.06 (io_trps.svl 2023.06)
