@<TRIPOS>MOLECULE
NONAME
38 38 1 0 0 
SMALL
USER_CHARGES


@<TRIPOS>ATOM
  1 O       -0.5140     0.1610    -1.8830 O.2   1 <1>  -0.5700 
  2 C        0.0100    -0.6190    -1.1270 C.2   1 <1>   0.6590 
  3 O        1.3030    -0.5460    -0.8360 O.3   1 <1>  -0.4300 
  4 C       -0.7610    -1.6990    -0.4020 C.3   1 <1>   0.0420 
  5 C        2.1440     0.4000    -1.4530 C.3   1 <1>   0.1200 
  6 C       -0.1870    -3.0370    -0.8300 C.2   1 <1>   0.5690 
  7 C       -2.2780    -1.6290    -0.6590 C.3   1 <1>  -0.0170 
  8 C        3.5550     0.2050    -0.9080 C.3   1 <1>  -0.2400 
  9 O       -0.0800    -3.2800    -2.0060 O.2   1 <1>  -0.5700 
 10 N        0.1950    -3.9800     0.0650 N.am  1 <1>  -0.7300 
 11 C       -3.0240    -2.6220     0.2180 C.ar  1 <1>  -0.1440 
 12 C       -0.0620    -4.0680     1.5090 C.3   1 <1>   0.2780 
 13 C       -3.2720    -3.9080    -0.2380 C.ar  1 <1>  -0.1500 
 14 C       -3.4510    -2.2550     1.4850 C.ar  1 <1>  -0.1500 
 15 C       -0.3360    -5.5200     1.8240 C.2   1 <1>  -0.2880 
 16 C       -3.9320    -4.8200     0.5670 C.ar  1 <1>  -0.1500 
 17 C       -4.1090    -3.1680     2.2920 C.ar  1 <1>  -0.1500 
 18 C        0.4330    -6.3110     2.5800 C.2   1 <1>  -0.3000 
 19 C       -4.3480    -4.4510     1.8330 C.ar  1 <1>  -0.1500 
 20 H       -0.5830    -1.5460     0.6430 H     1 <1>   0.0800 
 21 H        1.7730     1.3860    -1.2280 H     1 <1>   0.0800 
 22 H        2.1140     0.2360    -2.5170 H     1 <1>   0.0800 
 23 H       -2.4790    -1.8310    -1.6980 H     1 <1>   0.0800 
 24 H       -2.6350    -0.6350    -0.4510 H     1 <1>   0.0800 
 25 H        3.5670     0.3610     0.1560 H     1 <1>   0.0800 
 26 H        4.2210     0.9130    -1.3660 H     1 <1>   0.0800 
 27 H        3.9030    -0.7880    -1.1310 H     1 <1>   0.0800 
 28 H        0.5740    -4.8400    -0.3360 H     1 <1>   0.3700 
 29 H       -0.9120    -3.4720     1.7890 H     1 <1>   0.0800 
 30 H        0.8050    -3.7250     2.0480 H     1 <1>   0.0800 
 31 H       -2.9470    -4.2060    -1.2210 H     1 <1>   0.1500 
 32 H       -3.2740    -1.2590     1.8510 H     1 <1>   0.1500 
 33 H       -1.2470    -5.8650     1.3630 H     1 <1>   0.1500 
 34 H       -4.1200    -5.8160     0.2060 H     1 <1>   0.1500 
 35 H       -4.4380    -2.8790     3.2750 H     1 <1>   0.1500 
 36 H        1.3480    -5.9990     3.0550 H     1 <1>   0.1500 
 37 H        0.2080    -7.3440     2.7870 H     1 <1>   0.1500 
 38 H       -4.8610    -5.1600     2.4590 H     1 <1>   0.1500 
@<TRIPOS>BOND
  1   1   2  2   
  2   2   3  1   
  3   2   4  1   
  4   3   5  1   
  5   4   6  1   
  6   4   7  1   
  7   4  20  1   
  8   5   8  1   
  9   5  21  1   
 10   5  22  1   
 11   6   9  2   
 12   6  10  am  
 13   7  11  1   
 14   7  23  1   
 15   7  24  1   
 16   8  25  1   
 17   8  26  1   
 18   8  27  1   
 19  10  12  1   
 20  10  28  1   
 21  11  13  ar  
 22  11  14  ar  
 23  12  15  1   
 24  12  29  1   
 25  12  30  1   
 26  13  16  ar  
 27  13  31  1   
 28  14  17  ar  
 29  14  32  1   
 30  15  18  2   
 31  15  33  1   
 32  16  19  ar  
 33  16  34  1   
 34  17  19  ar  
 35  17  35  1   
 36  18  36  1   
 37  18  37  1   
 38  19  38  1   
@<TRIPOS>SUBSTRUCTURE
  1 ****   4 GROUP 4 **** **** 0

# MOE 2024.06 (io_trps.svl 2023.06)
