@<TRIPOS>MOLECULE
NONAME
45 46 1 0 0 
SMALL
USER_CHARGES


@<TRIPOS>ATOM
  1 O        0.3630     0.4110     0.2220 O.3   1 <1>  -0.3630 
  2 C       -0.8710     0.9460     0.0410 C.ar  1 <1>   0.0830 
  3 C        1.5280     1.1670     0.0000 C.3   1 <1>   0.1200 
  4 C       -1.9530     0.1170     0.2850 C.ar  1 <1>  -0.1500 
  5 C       -1.0930     2.2580    -0.3700 C.ar  1 <1>  -0.1500 
  6 C        2.7320     0.2700     0.2940 C.3   1 <1>  -0.1600 
  7 C       -3.2500     0.5760     0.1260 C.ar  1 <1>   0.0830 
  8 C       -2.3870     2.7230    -0.5310 C.ar  1 <1>  -0.1500 
  9 C        4.0570     1.0130     0.0730 C.3   1 <1>  -0.1600 
 10 O       -4.2480    -0.3050     0.3880 O.3   1 <1>  -0.3630 
 11 C       -3.4650     1.8890    -0.2850 C.ar  1 <1>  -0.1500 
 12 C        5.2530     0.0990     0.3740 C.3   1 <1>  -0.1600 
 13 C       -5.6030     0.0620     0.2570 C.3   1 <1>   0.0400 
 14 C        6.5740     0.8380     0.1550 C.3   1 <1>   0.3430 
 15 N        7.7200    -0.0330     0.5310 N.4   1 <1>  -0.9590 
 16 C        9.0090     0.6990     0.5610 C.3   1 <1>   0.3430 
 17 C        7.9340    -1.1880    -0.3770 C.3   1 <1>   0.3430 
 18 C       10.0660    -0.3950     0.5000 C.3   1 <1>  -0.1600 
 19 C        9.3740    -1.6120    -0.1210 C.3   1 <1>  -0.1600 
 20 H        1.5120     2.0160     0.6610 H     1 <1>   0.0800 
 21 H        1.5310     1.4890    -1.0270 H     1 <1>   0.0800 
 22 H       -1.7860    -0.8950     0.6020 H     1 <1>   0.1500 
 23 H       -0.2790     2.9280    -0.5690 H     1 <1>   0.1500 
 24 H        2.6850    -0.5900    -0.3530 H     1 <1>   0.0800 
 25 H        2.6690    -0.0650     1.3150 H     1 <1>   0.0800 
 26 H       -2.5570     3.7370    -0.8490 H     1 <1>   0.1500 
 27 H        4.0870     1.8780     0.7160 H     1 <1>   0.0800 
 28 H        4.1040     1.3520    -0.9490 H     1 <1>   0.0800 
 29 H       -4.4570     2.2770    -0.4180 H     1 <1>   0.1500 
 30 H        5.1990    -0.7600    -0.2710 H     1 <1>   0.0800 
 31 H        5.1890    -0.2290     1.3970 H     1 <1>   0.0800 
 32 H       -6.2050    -0.7900     0.5150 H     1 <1>   0.0800 
 33 H       -5.7900     0.3470    -0.7630 H     1 <1>   0.0800 
 34 H       -5.8110     0.8740     0.9310 H     1 <1>   0.0800 
 35 H        6.5820     1.7270     0.7650 H     1 <1>   0.0800 
 36 H        6.6600     1.1370    -0.8780 H     1 <1>   0.0800 
 37 H        7.5590    -0.4080     1.4750 H     1 <1>   0.4500 
 38 H        9.1080     1.3030     1.4490 H     1 <1>   0.0800 
 39 H        9.0930     1.3270    -0.3120 H     1 <1>   0.0800 
 40 H        7.8300    -0.8710    -1.4030 H     1 <1>   0.0800 
 41 H        7.2400    -1.9900    -0.1770 H     1 <1>   0.0800 
 42 H       10.4090    -0.6250     1.4950 H     1 <1>   0.0800 
 43 H       10.9100    -0.0720    -0.0850 H     1 <1>   0.0800 
 44 H        9.8450    -1.9130    -1.0410 H     1 <1>   0.0800 
 45 H        9.3950    -2.4450     0.5600 H     1 <1>   0.0800 
@<TRIPOS>BOND
  1   1   2  1   
  2   1   3  1   
  3   2   4  ar  
  4   2   5  ar  
  5   3   6  1   
  6   3  20  1   
  7   3  21  1   
  8   4   7  ar  
  9   4  22  1   
 10   5   8  ar  
 11   5  23  1   
 12   6   9  1   
 13   6  24  1   
 14   6  25  1   
 15   7  10  1   
 16   7  11  ar  
 17   8  11  ar  
 18   8  26  1   
 19   9  12  1   
 20   9  27  1   
 21   9  28  1   
 22  10  13  1   
 23  11  29  1   
 24  12  14  1   
 25  12  30  1   
 26  12  31  1   
 27  13  32  1   
 28  13  33  1   
 29  13  34  1   
 30  14  15  1   
 31  14  35  1   
 32  14  36  1   
 33  15  16  1   
 34  15  17  1   
 35  15  37  1   
 36  16  18  1   
 37  16  38  1   
 38  16  39  1   
 39  17  19  1   
 40  17  40  1   
 41  17  41  1   
 42  18  19  1   
 43  18  42  1   
 44  18  43  1   
 45  19  44  1   
 46  19  45  1   
@<TRIPOS>SUBSTRUCTURE
  1 ****   6 GROUP 4 **** **** 0

# MOE 2024.06 (io_trps.svl 2023.06)
