@<TRIPOS>MOLECULE
NONAME
40 42 1 0 0 
SMALL
USER_CHARGES


@<TRIPOS>ATOM
  1 S        0.5680    -0.5440    -1.3330 S.3   1 <1>  -0.0800 
  2 C        1.5950     0.4560    -0.3150 C.2   1 <1>   0.1660 
  3 C       -0.7430     0.6160    -1.1930 C.2   1 <1>  -0.1400 
  4 N        2.8550     0.0950     0.0070 N.2   1 <1>  -0.5760 
  5 C        0.9480     1.5830     0.0880 C.2   1 <1>  -0.0860 
  6 C       -0.3950     1.6530    -0.4230 C.2   1 <1>  -0.1810 
  7 C       -2.0780     0.4110    -1.8780 C.3   1 <1>   0.3000 
  8 C        3.4810     0.9440     0.7540 C.2   1 <1>   0.6510 
  9 C        1.6770     2.4710     0.9300 C.2   1 <1>   0.7160 
 10 C       -1.4050     2.7600    -0.1860 C.3   1 <1>   0.0210 
 11 O       -2.8460     1.5890    -1.7740 O.3   1 <1>  -0.5600 
 12 S        5.1400     0.4910     1.2360 S.3   1 <1>  -0.3710 
 13 N        2.9700     2.1230     1.2660 N.am  1 <1>  -0.4200 
 14 O        1.1690     3.4940     1.3780 O.2   1 <1>  -0.5700 
 15 C       -2.8410     2.2930    -0.5560 C.3   1 <1>   0.2800 
 16 C        5.9150    -0.0350    -0.3770 C.3   1 <1>  -0.0360 
 17 C        3.7870     3.0640     2.0850 C.3   1 <1>   0.1400 
 18 C       -3.7470     3.5040    -0.7830 C.3   1 <1>  -0.2400 
 19 C       -3.4590     1.4040     0.5340 C.3   1 <1>  -0.2400 
 20 C        6.2280     1.1630    -1.2550 C.2   1 <1>   0.9060 
 21 C        4.5330     4.0460     1.1810 C.3   1 <1>  -0.2400 
 22 O        5.3340     1.9750    -1.5250 O.co2 1 <1>  -0.9000 
 23 O        7.3810     1.2900    -1.6820 O.co2 1 <1>  -0.9000 
 24 H       -2.6200    -0.3990    -1.4230 H     1 <1>   0.0800 
 25 H       -1.9370     0.2030    -2.9230 H     1 <1>   0.0800 
 26 H       -1.1270     3.6090    -0.7850 H     1 <1>   0.0800 
 27 H       -1.3850     3.0660     0.8430 H     1 <1>   0.0800 
 28 H        5.2280    -0.6850    -0.8800 H     1 <1>   0.0800 
 29 H        6.8220    -0.5560    -0.1420 H     1 <1>   0.0800 
 30 H        4.4850     2.5270     2.7010 H     1 <1>   0.0800 
 31 H        3.1460     3.6140     2.7520 H     1 <1>   0.0800 
 32 H       -3.3620     4.1100    -1.5830 H     1 <1>   0.0800 
 33 H       -3.7990     4.1050     0.1060 H     1 <1>   0.0800 
 34 H       -4.7410     3.1830    -1.0380 H     1 <1>   0.0800 
 35 H       -3.6040     1.9750     1.4340 H     1 <1>   0.0800 
 36 H       -4.4150     1.0300     0.2130 H     1 <1>   0.0800 
 37 H       -2.8150     0.5790     0.7760 H     1 <1>   0.0800 
 38 H        5.2210     3.5210     0.5420 H     1 <1>   0.0800 
 39 H        5.0930     4.7410     1.7780 H     1 <1>   0.0800 
 40 H        3.8400     4.5970     0.5700 H     1 <1>   0.0800 
@<TRIPOS>BOND
  1   1   2  1   
  2   1   3  1   
  3   2   4  1   
  4   2   5  2   
  5   3   6  2   
  6   3   7  1   
  7   4   8  2   
  8   5   6  1   
  9   5   9  1   
 10   6  10  1   
 11   7  11  1   
 12   7  24  1   
 13   7  25  1   
 14   8  12  1   
 15   8  13  1   
 16   9  13  am  
 17   9  14  2   
 18  10  15  1   
 19  10  26  1   
 20  10  27  1   
 21  11  15  1   
 22  12  16  1   
 23  13  17  1   
 24  15  18  1   
 25  15  19  1   
 26  16  20  1   
 27  16  28  1   
 28  16  29  1   
 29  17  21  1   
 30  17  30  1   
 31  17  31  1   
 32  18  32  1   
 33  18  33  1   
 34  18  34  1   
 35  19  35  1   
 36  19  36  1   
 37  19  37  1   
 38  20  22  ar  
 39  20  23  ar  
 40  21  38  1   
 41  21  39  1   
 42  21  40  1   
@<TRIPOS>SUBSTRUCTURE
  1 ****   5 GROUP 4 **** **** 0

# MOE 2024.06 (io_trps.svl 2023.06)
