@<TRIPOS>MOLECULE
NONAME
46 47 1 0 0 
SMALL
USER_CHARGES


@<TRIPOS>ATOM
  1 O       -0.2760     1.7320     1.7200 O.2   1 <1>  -0.5700 
  2 C        0.1520     2.0520     0.6360 C.2   1 <1>   0.5690 
  3 N        1.4520     1.8680     0.3070 N.am  1 <1>  -0.7300 
  4 C       -0.7820     2.6790    -0.3980 C.3   1 <1>  -0.0190 
  5 C        2.4800     1.3650     1.2200 C.3   1 <1>   0.3640 
  6 C       -1.3580     4.0170     0.1040 C.3   1 <1>  -0.1600 
  7 C       -1.9170     1.7130    -0.7890 C.3   1 <1>  -0.1600 
  8 C        3.7940     2.0570     0.8780 C.ar  1 <1>  -0.1440 
  9 C        2.5720    -0.1520     1.0740 C.3   1 <1>  -0.2400 
 10 C       -2.3050     4.6470    -0.9270 C.3   1 <1>  -0.1600 
 11 C       -2.8630     2.3430    -1.8210 C.3   1 <1>  -0.1600 
 12 C        4.4010     1.8880    -0.3590 C.ar  1 <1>  -0.1500 
 13 C        4.4030     2.8820     1.8090 C.ar  1 <1>  -0.1500 
 14 C       -3.4280     3.6760    -1.3140 C.3   1 <1>  -0.1600 
 15 C        5.5910     2.5210    -0.6750 C.ar  1 <1>   0.0830 
 16 C        5.5890     3.5290     1.5100 C.ar  1 <1>  -0.1500 
 17 O        6.0660     2.2470    -1.9240 O.3   1 <1>  -0.3630 
 18 C        6.1980     3.3690     0.2670 C.ar  1 <1>   0.0830 
 19 C        7.4510     2.2160    -2.1900 C.3   1 <1>   0.0400 
 20 O        7.3490     4.0310    -0.0500 O.3   1 <1>  -0.3630 
 21 C        7.8960     5.0270     0.7850 C.3   1 <1>   0.0400 
 22 H        1.8190     2.2070    -0.5810 H     1 <1>   0.3700 
 23 H       -0.2060     2.8830    -1.2830 H     1 <1>   0.0800 
 24 H        2.1980     1.6000     2.2330 H     1 <1>   0.0800 
 25 H       -0.5530     4.6990     0.3180 H     1 <1>   0.0800 
 26 H       -1.8960     3.8480     1.0220 H     1 <1>   0.0800 
 27 H       -2.4770     1.4510     0.0930 H     1 <1>   0.0800 
 28 H       -1.4970     0.8070    -1.1900 H     1 <1>   0.0800 
 29 H        2.7820    -0.4320     0.0580 H     1 <1>   0.0800 
 30 H        1.6450    -0.6010     1.3820 H     1 <1>   0.0800 
 31 H        3.3570    -0.5260     1.7040 H     1 <1>   0.0800 
 32 H       -1.7470     4.9160    -1.8080 H     1 <1>   0.0800 
 33 H       -2.7320     5.5470    -0.5200 H     1 <1>   0.0800 
 34 H       -3.6740     1.6640    -2.0260 H     1 <1>   0.0800 
 35 H       -2.3310     2.5080    -2.7420 H     1 <1>   0.0800 
 36 H        3.9550     1.2530    -1.1020 H     1 <1>   0.1500 
 37 H        3.9520     3.0290     2.7760 H     1 <1>   0.1500 
 38 H       -4.0440     4.1210    -2.0760 H     1 <1>   0.0800 
 39 H       -4.0500     3.4930    -0.4530 H     1 <1>   0.0800 
 40 H        6.0200     4.1570     2.2660 H     1 <1>   0.1500 
 41 H        7.6080     1.6470    -3.0880 H     1 <1>   0.0800 
 42 H        7.9580     1.7490    -1.3640 H     1 <1>   0.0800 
 43 H        7.8000     3.2220    -2.3320 H     1 <1>   0.0800 
 44 H        8.7490     5.4510     0.2850 H     1 <1>   0.0800 
 45 H        8.2050     4.5770     1.7120 H     1 <1>   0.0800 
 46 H        7.1550     5.7900     0.9510 H     1 <1>   0.0800 
@<TRIPOS>BOND
  1   1   2  2   
  2   2   3  am  
  3   2   4  1   
  4   3   5  1   
  5   3  22  1   
  6   4   6  1   
  7   4   7  1   
  8   4  23  1   
  9   5   8  1   
 10   5   9  1   
 11   5  24  1   
 12   6  10  1   
 13   6  25  1   
 14   6  26  1   
 15   7  11  1   
 16   7  27  1   
 17   7  28  1   
 18   8  12  ar  
 19   8  13  ar  
 20   9  29  1   
 21   9  30  1   
 22   9  31  1   
 23  10  14  1   
 24  10  32  1   
 25  10  33  1   
 26  11  14  1   
 27  11  34  1   
 28  11  35  1   
 29  12  15  ar  
 30  12  36  1   
 31  13  16  ar  
 32  13  37  1   
 33  14  38  1   
 34  14  39  1   
 35  15  17  1   
 36  15  18  ar  
 37  16  18  ar  
 38  16  40  1   
 39  17  19  1   
 40  18  20  1   
 41  19  41  1   
 42  19  42  1   
 43  19  43  1   
 44  20  21  1   
 45  21  44  1   
 46  21  45  1   
 47  21  46  1   
@<TRIPOS>SUBSTRUCTURE
  1 ****   3 GROUP 4 **** **** 0

# MOE 2024.06 (io_trps.svl 2023.06)
