@<TRIPOS>MOLECULE
NONAME
37 37 1 0 0 
SMALL
USER_CHARGES


@<TRIPOS>ATOM
  1 O        0.4860    -0.2600     0.9290 O.3   1 <1>  -0.3630 
  2 C       -0.7670    -0.7670     0.7980 C.ar  1 <1>   0.0830 
  3 C        1.4140    -0.3340    -0.1290 C.3   1 <1>   0.3200 
  4 C       -1.2410    -1.3850    -0.3580 C.ar  1 <1>  -0.1500 
  5 C       -1.6020    -0.6470     1.8970 C.ar  1 <1>  -0.1500 
  6 C        2.6900     0.2970     0.3100 C.1   1 <1>  -0.2000 
  7 C       -2.5360    -1.8740    -0.4040 C.ar  1 <1>  -0.1500 
  8 C       -2.8950    -1.1360     1.8500 C.ar  1 <1>  -0.1500 
  9 C        3.7120     0.8050     0.6470 C.1   1 <1>  -0.2000 
 10 C       -3.3710    -1.7510     0.7040 C.ar  1 <1>   0.0830 
 11 C        4.9810     1.4520     1.0720 C.3   1 <1>   0.3100 
 12 O       -4.6520    -2.2030     0.7410 O.3   1 <1>  -0.3630 
 13 N        5.2660     2.5290     0.1370 N.3   1 <1>  -0.9000 
 14 C       -5.2320    -2.8440    -0.3730 C.3   1 <1>   0.0400 
 15 C        6.3280     3.4130     0.6250 C.3   1 <1>   0.1100 
 16 C        6.6540     4.4720    -0.4270 C.3   1 <1>   0.1200 
 17 O        7.6140     5.3330     0.0980 O.3   1 <1>  -0.5600 
 18 C        8.0190     6.3270    -0.7860 C.3   1 <1>   0.0400 
 19 H        1.0110     0.1940    -0.9750 H     1 <1>   0.0800 
 20 H        1.5750    -1.3690    -0.3710 H     1 <1>   0.0800 
 21 H       -0.6240    -1.4950    -1.2290 H     1 <1>   0.1500 
 22 H       -1.2330    -0.1700     2.7860 H     1 <1>   0.1500 
 23 H       -2.8770    -2.3450    -1.3050 H     1 <1>   0.1500 
 24 H       -3.5430    -1.0430     2.7030 H     1 <1>   0.1500 
 25 H        5.7850     0.7350     1.0630 H     1 <1>   0.0800 
 26 H        4.8630     1.8410     2.0700 H     1 <1>   0.0800 
 27 H        4.3960     3.0640     0.0350 H     1 <1>   0.3600 
 28 H       -6.2410    -3.1120    -0.1150 H     1 <1>   0.0800 
 29 H       -4.6660    -3.7290    -0.6010 H     1 <1>   0.0800 
 30 H       -5.2370    -2.1620    -1.2050 H     1 <1>   0.0800 
 31 H        7.2160     2.8370     0.8220 H     1 <1>   0.0800 
 32 H        6.0100     3.9000     1.5320 H     1 <1>   0.0800 
 33 H        5.7750     5.0440    -0.6680 H     1 <1>   0.0800 
 34 H        7.0520     4.0030    -1.3100 H     1 <1>   0.0800 
 35 H        8.7550     6.9360    -0.2900 H     1 <1>   0.0800 
 36 H        7.1700     6.9310    -1.0560 H     1 <1>   0.0800 
 37 H        8.4540     5.8710    -1.6580 H     1 <1>   0.0800 
@<TRIPOS>BOND
  1   1   2  1   
  2   1   3  1   
  3   2   4  ar  
  4   2   5  ar  
  5   3   6  1   
  6   3  19  1   
  7   3  20  1   
  8   4   7  ar  
  9   4  21  1   
 10   5   8  ar  
 11   5  22  1   
 12   6   9  3   
 13   7  10  ar  
 14   7  23  1   
 15   8  10  ar  
 16   8  24  1   
 17   9  11  1   
 18  10  12  1   
 19  11  13  1   
 20  11  25  1   
 21  11  26  1   
 22  12  14  1   
 23  13  15  1   
 24  13  27  1   
 25  14  28  1   
 26  14  29  1   
 27  14  30  1   
 28  15  16  1   
 29  15  31  1   
 30  15  32  1   
 31  16  17  1   
 32  16  33  1   
 33  16  34  1   
 34  17  18  1   
 35  18  35  1   
 36  18  36  1   
 37  18  37  1   
@<TRIPOS>SUBSTRUCTURE
  1 ****   3 GROUP 4 **** **** 0

# MOE 2024.06 (io_trps.svl 2023.06)
