@<TRIPOS>MOLECULE
NONAME
37 37 1 0 0 
SMALL
USER_CHARGES


@<TRIPOS>ATOM
  1 BR       1.6200    -0.6970    -0.7590 Br    1 <1>  -0.1110 
  2 C        0.4650    -2.1860    -0.3690 C.ar  1 <1>   0.1110 
  3 C       -0.8220    -1.9310     0.0630 C.ar  1 <1>  -0.1500 
  4 C        0.9510    -3.4680    -0.5320 C.ar  1 <1>  -0.1500 
  5 C       -1.6570    -3.0030     0.3440 C.ar  1 <1>  -0.1440 
  6 C        0.1160    -4.5350    -0.2530 C.ar  1 <1>  -0.1500 
  7 C       -1.1900    -4.3080     0.1850 C.ar  1 <1>   0.0830 
  8 C       -3.0700    -2.7550     0.8260 C.3   1 <1>   0.4870 
  9 O       -2.0590    -5.3180     0.4630 O.3   1 <1>  -0.3630 
 10 N       -3.9780    -3.3400    -0.1770 N.4   1 <1>  -0.9060 
 11 C       -1.6170    -6.6610     0.5400 C.3   1 <1>   0.0400 
 12 C       -5.3940    -3.4000     0.2090 C.3   1 <1>   0.4230 
 13 C       -6.0880    -4.4330    -0.6930 C.3   1 <1>  -0.1600 
 14 C       -6.0110    -1.9950     0.0870 C.3   1 <1>  -0.1600 
 15 C       -5.4400    -5.8290    -0.6640 C.3   1 <1>  -0.2400 
 16 C       -7.4560    -1.9190     0.6030 C.3   1 <1>  -0.2400 
 17 H       -1.1400    -0.9090     0.1750 H     1 <1>   0.1500 
 18 H        1.9610    -3.6240    -0.8710 H     1 <1>   0.1500 
 19 H        0.5020    -5.5290    -0.3850 H     1 <1>   0.1500 
 20 H       -3.2520    -1.6980     0.9350 H     1 <1>   0.0800 
 21 H       -3.2090    -3.2370     1.7810 H     1 <1>   0.0800 
 22 H       -3.6350    -4.3040    -0.3010 H     1 <1>   0.4500 
 23 H       -3.8570    -2.8750    -1.0800 H     1 <1>   0.4500 
 24 H       -2.4420    -7.2720     0.8610 H     1 <1>   0.0800 
 25 H       -0.8180    -6.7280     1.2580 H     1 <1>   0.0800 
 26 H       -1.2850    -6.9810    -0.4320 H     1 <1>   0.0800 
 27 H       -5.4710    -3.7340     1.2320 H     1 <1>   0.0800 
 28 H       -6.1260    -4.0740    -1.7080 H     1 <1>   0.0800 
 29 H       -7.1060    -4.5430    -0.3620 H     1 <1>   0.0800 
 30 H       -5.9970    -1.6760    -0.9410 H     1 <1>   0.0800 
 31 H       -5.4330    -1.2950     0.6630 H     1 <1>   0.0800 
 32 H       -4.4750    -5.8340    -1.1390 H     1 <1>   0.0800 
 33 H       -6.0660    -6.5260    -1.1960 H     1 <1>   0.0800 
 34 H       -5.3380    -6.1840     0.3480 H     1 <1>   0.0800 
 35 H       -8.1240    -2.4980    -0.0110 H     1 <1>   0.0800 
 36 H       -7.7980    -0.8980     0.5810 H     1 <1>   0.0800 
 37 H       -7.5230    -2.2720     1.6180 H     1 <1>   0.0800 
@<TRIPOS>BOND
  1   1   2  1   
  2   2   3  ar  
  3   2   4  ar  
  4   3   5  ar  
  5   3  17  1   
  6   4   6  ar  
  7   4  18  1   
  8   5   7  ar  
  9   5   8  1   
 10   6   7  ar  
 11   6  19  1   
 12   7   9  1   
 13   8  10  1   
 14   8  20  1   
 15   8  21  1   
 16   9  11  1   
 17  10  12  1   
 18  10  22  1   
 19  10  23  1   
 20  11  24  1   
 21  11  25  1   
 22  11  26  1   
 23  12  13  1   
 24  12  14  1   
 25  12  27  1   
 26  13  15  1   
 27  13  28  1   
 28  13  29  1   
 29  14  16  1   
 30  14  30  1   
 31  14  31  1   
 32  15  32  1   
 33  15  33  1   
 34  15  34  1   
 35  16  35  1   
 36  16  36  1   
 37  16  37  1   
@<TRIPOS>SUBSTRUCTURE
  1 ****   5 GROUP 4 **** **** 0

# MOE 2024.06 (io_trps.svl 2023.06)
