@<TRIPOS>MOLECULE
NONAME
21 23 1 0 0 
SMALL
USER_CHARGES


@<TRIPOS>ATOM
  1 O       -1.4170    -0.2930    -1.6750 O.2   1 <1>  -0.5700 
  2 C       -1.9110    -0.8640    -0.7360 C.2   1 <1>   0.5770 
  3 N       -2.1260    -2.1830    -0.4910 N.am  1 <1>  -0.6550 
  4 C       -2.5960    -0.3790     0.5370 C.3   1 <1>   0.0530 
  5 C       -3.0490    -1.8490     0.6450 C.3   1 <1>   0.3330 
  6 C       -3.8540     0.4730     0.2840 C.3   1 <1>  -0.0160 
  7 C       -4.5040    -1.8330     0.2450 C.ar  1 <1>  -0.1080 
  8 C       -4.9470    -0.5470     0.0400 C.ar  1 <1>  -0.1440 
  9 C       -5.3560    -2.9100     0.0770 C.ar  1 <1>  -0.1500 
 10 C       -6.2530    -0.3040    -0.3410 C.ar  1 <1>  -0.1500 
 11 C       -6.6670    -2.6750    -0.3040 C.ar  1 <1>  -0.1500 
 12 C       -7.1140    -1.3770    -0.5130 C.ar  1 <1>  -0.1500 
 13 H       -2.4010    -2.8060    -1.2500 H     1 <1>   0.3700 
 14 H       -1.9270    -0.0470     1.3110 H     1 <1>   0.0000 
 15 H       -2.7960    -2.3370     1.5690 H     1 <1>   0.0000 
 16 H       -3.7220     1.1200    -0.5660 H     1 <1>   0.0800 
 17 H       -4.0910     1.0590     1.1540 H     1 <1>   0.0800 
 18 H       -5.0070    -3.9150     0.2400 H     1 <1>   0.1500 
 19 H       -6.5980     0.7020    -0.5030 H     1 <1>   0.1500 
 20 H       -7.3430    -3.5010    -0.4390 H     1 <1>   0.1500 
 21 H       -8.1330    -1.2030    -0.8090 H     1 <1>   0.1500 
@<TRIPOS>BOND
  1   1   2  2   
  2   2   3  am  
  3   2   4  1   
  4   3   5  1   
  5   3  13  1   
  6   4   5  1   
  7   4   6  1   
  8   4  14  1   
  9   5   7  1   
 10   5  15  1   
 11   6   8  1   
 12   6  16  1   
 13   6  17  1   
 14   7   8  ar  
 15   7   9  ar  
 16   8  10  ar  
 17   9  11  ar  
 18   9  18  1   
 19  10  12  ar  
 20  10  19  1   
 21  11  12  ar  
 22  11  20  1   
 23  12  21  1   
@<TRIPOS>SUBSTRUCTURE
  1 ****   7 GROUP 4 **** **** 0

# MOE 2024.06 (io_trps.svl 2023.06)
