@<TRIPOS>MOLECULE
NONAME
39 41 1 0 0 
SMALL
USER_CHARGES


@<TRIPOS>ATOM
  1 F        2.8820     1.5320    -0.8190 F     1 <1>  -0.1900 
  2 C        3.8040     2.4200    -0.5380 C.ar  1 <1>   0.1900 
  3 C        3.4730     3.6930    -0.0540 C.ar  1 <1>   0.0830 
  4 C        5.1140     2.0310    -0.7450 C.ar  1 <1>  -0.1500 
  5 O        2.2220     4.1820     0.1850 O.3   1 <1>  -0.3630 
  6 C        4.5170     4.5660     0.2180 C.ar  1 <1>  -0.1500 
  7 C        6.1350     2.9230    -0.4660 C.ar  1 <1>  -0.1500 
  8 C        1.0560     3.4380    -0.0680 C.3   1 <1>   0.1200 
  9 C        5.8340     4.1870     0.0150 C.ar  1 <1>  -0.1500 
 10 C       -0.1430     4.3130     0.3060 C.3   1 <1>   0.3430 
 11 N       -1.4540     3.6440     0.0220 N.4   1 <1>  -0.9590 
 12 C       -2.5810     4.6090     0.1660 C.3   1 <1>   0.4860 
 13 C       -1.7130     2.4470     0.8810 C.3   1 <1>   0.3430 
 14 C       -3.8940     3.9340    -0.1910 C.ar  1 <1>  -0.1430 
 15 C       -2.9040     1.6550     0.3330 C.3   1 <1>  -0.0170 
 16 C       -4.0520     2.5550    -0.1020 C.ar  1 <1>  -0.1430 
 17 C       -4.9610     4.7190    -0.6060 C.ar  1 <1>  -0.1500 
 18 C       -5.2700     1.9790    -0.4260 C.ar  1 <1>  -0.1500 
 19 C       -6.1740     4.1380    -0.9280 C.ar  1 <1>  -0.1500 
 20 C       -6.3290     2.7680    -0.8370 C.ar  1 <1>  -0.1500 
 21 H        5.3330     1.0460    -1.1180 H     1 <1>   0.1500 
 22 H        4.2970     5.5510     0.5920 H     1 <1>   0.1500 
 23 H        7.1620     2.6350    -0.6210 H     1 <1>   0.1500 
 24 H        1.0920     2.5520     0.5390 H     1 <1>   0.0800 
 25 H        1.0380     3.1930    -1.1150 H     1 <1>   0.0800 
 26 H        6.6300     4.8800     0.2320 H     1 <1>   0.1500 
 27 H       -0.0780     5.2260    -0.2630 H     1 <1>   0.0800 
 28 H       -0.0810     4.5610     1.3530 H     1 <1>   0.0800 
 29 H       -1.4840     3.3360    -0.9600 H     1 <1>   0.4500 
 30 H       -2.4280     5.4530    -0.4870 H     1 <1>   0.0800 
 31 H       -2.6330     4.9690     1.1810 H     1 <1>   0.0800 
 32 H       -1.9320     2.7660     1.8870 H     1 <1>   0.0800 
 33 H       -0.8490     1.8040     0.9110 H     1 <1>   0.0800 
 34 H       -3.2460     0.9720     1.0910 H     1 <1>   0.0800 
 35 H       -2.5810     1.0690    -0.5090 H     1 <1>   0.0800 
 36 H       -4.8670     5.7890    -0.6820 H     1 <1>   0.1500 
 37 H       -5.4070     0.9120    -0.3630 H     1 <1>   0.1500 
 38 H       -7.0010     4.7500    -1.2490 H     1 <1>   0.1500 
 39 H       -7.2740     2.3150    -1.0880 H     1 <1>   0.1500 
@<TRIPOS>BOND
  1   1   2  1   
  2   2   3  ar  
  3   2   4  ar  
  4   3   5  1   
  5   3   6  ar  
  6   4   7  ar  
  7   4  21  1   
  8   5   8  1   
  9   6   9  ar  
 10   6  22  1   
 11   7   9  ar  
 12   7  23  1   
 13   8  10  1   
 14   8  24  1   
 15   8  25  1   
 16   9  26  1   
 17  10  11  1   
 18  10  27  1   
 19  10  28  1   
 20  11  12  1   
 21  11  13  1   
 22  11  29  1   
 23  12  14  1   
 24  12  30  1   
 25  12  31  1   
 26  13  15  1   
 27  13  32  1   
 28  13  33  1   
 29  14  16  ar  
 30  14  17  ar  
 31  15  16  1   
 32  15  34  1   
 33  15  35  1   
 34  16  18  ar  
 35  17  19  ar  
 36  17  36  1   
 37  18  20  ar  
 38  18  37  1   
 39  19  20  ar  
 40  19  38  1   
 41  20  39  1   
@<TRIPOS>SUBSTRUCTURE
  1 ****  10 GROUP 4 **** **** 0

# MOE 2024.06 (io_trps.svl 2023.06)
