@<TRIPOS>MOLECULE
NONAME
52 55 1 0 0 
SMALL
USER_CHARGES


@<TRIPOS>ATOM
  1 O       -5.2860     0.3660    -2.8970 O.2   1 <1>  -0.5740 
  2 C       -5.0410     1.3900    -2.3040 C.2   1 <1>   0.6860 
  3 N       -5.9260     2.4560    -2.2680 N.am  1 <1>  -0.4410 
  4 N       -3.8450     1.4910    -1.6530 N.am  1 <1>  -0.4950 
  5 C       -5.5570     3.5830    -1.5440 C.2   1 <1>   0.4210 
  6 C       -7.2300     2.3640    -2.9840 C.3   1 <1>   0.0530 
  7 C       -3.4580     2.5940    -0.9470 C.2   1 <1>   0.7000 
  8 N       -6.2630     4.7310    -1.3430 N.pl3 1 <1>  -0.7030 
  9 C       -4.3750     3.6920    -0.8970 C.2   1 <1>   0.2710 
 10 O       -2.3740     2.5960    -0.3970 O.2   1 <1>  -0.5740 
 11 C       -5.5340     5.5430    -0.5760 C.cat 1 <1>   1.0690 
 12 N       -4.3750     4.9550    -0.2870 N.pl3 1 <1>  -0.7670 
 13 N       -5.8530     6.7740    -0.1190 N.pl3 1 <1>  -0.5960 
 14 C       -3.3260     5.5350     0.5710 C.3   1 <1>   0.3480 
 15 C       -4.9150     7.5130     0.7730 C.3   1 <1>   0.1610 
 16 C       -7.0780     7.5340    -0.5160 C.3   1 <1>   0.1610 
 17 C       -3.9820     6.5450     1.5150 C.3   1 <1>  -0.1670 
 18 C       -8.2620     7.2220     0.4110 C.3   1 <1>  -0.0240 
 19 C       -8.6140     5.7490     0.3200 C.ar  1 <1>  -0.1510 
 20 C       -9.2590     5.2680    -0.8070 C.ar  1 <1>  -0.1570 
 21 C       -8.2530     4.8680     1.3260 C.ar  1 <1>  -0.1570 
 22 C       -9.4970     3.9150    -0.9610 C.ar  1 <1>   0.0750 
 23 C       -8.4940     3.5120     1.1880 C.ar  1 <1>  -0.1570 
 24 O      -10.0850     3.5540    -2.1300 O.3   1 <1>  -0.3680 
 25 C       -9.0980     3.0150     0.0370 C.ar  1 <1>   0.0750 
 26 C      -11.1860     2.6710    -2.0960 C.3   1 <1>   0.0320 
 27 O       -9.2770     1.6790    -0.1590 O.3   1 <1>  -0.3680 
 28 C       -9.1500     0.7480     0.8950 C.3   1 <1>   0.0320 
 29 H       -3.2160     0.6930    -1.7020 H     1 <1>   0.3640 
 30 H       -7.1010     1.8450    -3.9190 H     1 <1>   0.0730 
 31 H       -7.6270     3.3410    -3.1910 H     1 <1>   0.0730 
 32 H       -7.9340     1.8140    -2.3850 H     1 <1>   0.0730 
 33 H       -7.2600     4.8630    -1.5230 H     1 <1>   0.4450 
 34 H       -2.5890     6.0210    -0.0460 H     1 <1>   0.0730 
 35 H       -2.8390     4.7590     1.1410 H     1 <1>   0.0730 
 36 H       -5.4730     8.0870     1.4950 H     1 <1>   0.0730 
 37 H       -4.3330     8.1970     0.1770 H     1 <1>   0.0730 
 38 H       -7.3430     7.2870    -1.5300 H     1 <1>   0.0730 
 39 H       -6.8720     8.5910    -0.4870 H     1 <1>   0.0730 
 40 H       -3.2170     7.1030     2.0260 H     1 <1>   0.0730 
 41 H       -4.5420     6.0160     2.2670 H     1 <1>   0.0730 
 42 H       -9.1130     7.8080     0.1100 H     1 <1>   0.0730 
 43 H       -8.0230     7.4980     1.4230 H     1 <1>   0.0730 
 44 H       -9.5830     5.9380    -1.5850 H     1 <1>   0.1430 
 45 H       -7.7770     5.2300     2.2220 H     1 <1>   0.1430 
 46 H       -8.1960     2.8590     1.9870 H     1 <1>   0.1430 
 47 H      -11.7690     2.8240    -2.9860 H     1 <1>   0.0730 
 48 H      -11.7830     2.8810    -1.2250 H     1 <1>   0.0730 
 49 H      -10.8250     1.6590    -2.0710 H     1 <1>   0.0730 
 50 H       -9.4520    -0.2160     0.5270 H     1 <1>   0.0730 
 51 H       -9.7920     1.0470     1.7050 H     1 <1>   0.0730 
 52 H       -8.1220     0.7110     1.2090 H     1 <1>   0.0730 
@<TRIPOS>BOND
  1   1   2  2   
  2   2   3  am  
  3   2   4  am  
  4   3   5  1   
  5   3   6  1   
  6   4   7  am  
  7   4  29  1   
  8   5   8  1   
  9   5   9  2   
 10   6  30  1   
 11   6  31  1   
 12   6  32  1   
 13   7   9  1   
 14   7  10  2   
 15   8  11  ar  
 16   8  33  1   
 17   9  12  1   
 18  11  12  ar  
 19  11  13  ar  
 20  12  14  1   
 21  13  15  1   
 22  13  16  1   
 23  14  17  1   
 24  14  34  1   
 25  14  35  1   
 26  15  17  1   
 27  15  36  1   
 28  15  37  1   
 29  16  18  1   
 30  16  38  1   
 31  16  39  1   
 32  17  40  1   
 33  17  41  1   
 34  18  19  1   
 35  18  42  1   
 36  18  43  1   
 37  19  20  ar  
 38  19  21  ar  
 39  20  22  ar  
 40  20  44  1   
 41  21  23  ar  
 42  21  45  1   
 43  22  24  1   
 44  22  25  ar  
 45  23  25  ar  
 46  23  46  1   
 47  24  26  1   
 48  25  27  1   
 49  26  47  1   
 50  26  48  1   
 51  26  49  1   
 52  27  28  1   
 53  28  50  1   
 54  28  51  1   
 55  28  52  1   
@<TRIPOS>SUBSTRUCTURE
  1 ****   8 GROUP 4 **** **** 0

# MOE 2024.06 (io_trps.svl 2023.06)
