@<TRIPOS>MOLECULE
NONAME
51 53 1 0 0 
SMALL
USER_CHARGES


@<TRIPOS>ATOM
  1 S        0.7950    -0.5660    -1.7530 S.o2  1 <1>   1.4470 
  2 O        1.6140    -1.0160    -2.8550 O.2   1 <1>  -0.6500 
  3 O        0.4070     0.8230    -1.6660 O.2   1 <1>  -0.6500 
  4 N        1.7180    -0.8470    -0.3520 N.am  1 <1>  -0.8490 
  5 C       -0.6420    -1.6590    -1.5640 C.ar  1 <1>  -0.0090 
  6 C        3.0970    -0.3370    -0.5410 C.3   1 <1>   0.1960 
  7 C        1.1190    -0.2480     0.8640 C.3   1 <1>   0.1960 
  8 C       -1.7440    -1.2670    -0.8220 C.ar  1 <1>  -0.1500 
  9 C       -0.6680    -2.9270    -2.1270 C.ar  1 <1>  -0.1500 
 10 C        3.9780    -0.4520     0.7290 C.3   1 <1>   0.3430 
 11 C        1.9480    -0.5320     2.1440 C.3   1 <1>   0.3430 
 12 C       -2.8500    -2.0880    -0.5880 C.ar  1 <1>   0.0860 
 13 C       -1.7530    -3.7630    -1.9490 C.ar  1 <1>  -0.1500 
 14 N        3.2720    -1.1830     1.8370 N.4   1 <1>  -0.9590 
 15 C       -2.8460    -3.3600    -1.1850 C.ar  1 <1>   0.0820 
 16 C       -3.9100    -1.5850     0.2690 C.2   1 <1>   0.5440 
 17 C        4.1230    -1.3690     3.0500 C.3   1 <1>   0.2630 
 18 O       -3.9130    -4.1760    -0.9950 O.3   1 <1>  -0.3630 
 19 O       -3.6390    -0.7600     1.1230 O.2   1 <1>  -0.5700 
 20 N       -5.2030    -2.0290     0.1330 N.am  1 <1>  -0.5470 
 21 C       -3.9620    -5.5060    -1.4710 C.3   1 <1>   0.0400 
 22 C       -6.4020    -1.6380     0.7450 C.ar  1 <1>   0.1170 
 23 C       -6.6010    -0.3690     1.2790 C.ar  1 <1>  -0.1500 
 24 C       -7.4500    -2.5500     0.8040 C.ar  1 <1>  -0.1500 
 25 C       -7.8080    -0.0240     1.8610 C.ar  1 <1>  -0.1500 
 26 C       -8.6600    -2.2090     1.3830 C.ar  1 <1>  -0.1500 
 27 C       -8.8400    -0.9440     1.9140 C.ar  1 <1>  -0.1500 
 28 H        3.0670     0.6950    -0.8520 H     1 <1>   0.0800 
 29 H        3.5750    -0.8900    -1.3330 H     1 <1>   0.0800 
 30 H        0.1260    -0.6350     1.0160 H     1 <1>   0.0800 
 31 H        1.0280     0.8200     0.7440 H     1 <1>   0.0800 
 32 H       -1.7520    -0.2750    -0.4000 H     1 <1>   0.1500 
 33 H        0.1720    -3.2620    -2.7160 H     1 <1>   0.1500 
 34 H        4.2440     0.5390     1.0580 H     1 <1>   0.0800 
 35 H        4.8910    -0.9640     0.4720 H     1 <1>   0.0800 
 36 H        1.3730    -1.1720     2.7930 H     1 <1>   0.0800 
 37 H        2.1050     0.3970     2.6660 H     1 <1>   0.0800 
 38 H       -1.7240    -4.7300    -2.4170 H     1 <1>   0.1500 
 39 H        3.0280    -2.1020     1.4330 H     1 <1>   0.4500 
 40 H        4.3830    -0.4130     3.4770 H     1 <1>   0.0800 
 41 H        5.0310    -1.8900     2.7940 H     1 <1>   0.0800 
 42 H        3.5960    -1.9470     3.7930 H     1 <1>   0.0800 
 43 H       -5.2680    -2.8680    -0.4490 H     1 <1>   0.3700 
 44 H       -4.8900    -5.9440    -1.1480 H     1 <1>   0.0800 
 45 H       -3.1370    -6.0580    -1.0550 H     1 <1>   0.0800 
 46 H       -3.9190    -5.4980    -2.5460 H     1 <1>   0.0800 
 47 H       -5.8110     0.3580     1.2410 H     1 <1>   0.1500 
 48 H       -7.3200    -3.5350     0.3970 H     1 <1>   0.1500 
 49 H       -7.9420     0.9620     2.2720 H     1 <1>   0.1500 
 50 H       -9.4600    -2.9270     1.4230 H     1 <1>   0.1500 
 51 H       -9.7790    -0.6760     2.3670 H     1 <1>   0.1500 
@<TRIPOS>BOND
  1   1   2  2   
  2   1   3  2   
  3   1   4  am  
  4   1   5  1   
  5   4   6  1   
  6   4   7  1   
  7   5   8  ar  
  8   5   9  ar  
  9   6  10  1   
 10   6  28  1   
 11   6  29  1   
 12   7  11  1   
 13   7  30  1   
 14   7  31  1   
 15   8  12  ar  
 16   8  32  1   
 17   9  13  ar  
 18   9  33  1   
 19  10  14  1   
 20  10  34  1   
 21  10  35  1   
 22  11  14  1   
 23  11  36  1   
 24  11  37  1   
 25  12  15  ar  
 26  12  16  1   
 27  13  15  ar  
 28  13  38  1   
 29  14  17  1   
 30  14  39  1   
 31  15  18  1   
 32  16  19  2   
 33  16  20  am  
 34  17  40  1   
 35  17  41  1   
 36  17  42  1   
 37  18  21  1   
 38  20  22  1   
 39  20  43  1   
 40  21  44  1   
 41  21  45  1   
 42  21  46  1   
 43  22  23  ar  
 44  22  24  ar  
 45  23  25  ar  
 46  23  47  1   
 47  24  26  ar  
 48  24  48  1   
 49  25  27  ar  
 50  25  49  1   
 51  26  27  ar  
 52  26  50  1   
 53  27  51  1   
@<TRIPOS>SUBSTRUCTURE
  1 ****   8 GROUP 4 **** **** 0

# MOE 2024.06 (io_trps.svl 2023.06)
