@<TRIPOS>MOLECULE
NONAME
33 33 1 0 0 
SMALL
USER_CHARGES


@<TRIPOS>ATOM
  1 O       -1.5130     0.7600     0.7920 O.2   1 <1>  -0.5700 
  2 C       -1.9010    -0.2020     0.1740 C.2   1 <1>   0.6900 
  3 N       -3.0870    -0.7520     0.4660 N.am  1 <1>  -0.7300 
  4 N       -1.1510    -0.7150    -0.8020 N.am  1 <1>  -0.8000 
  5 C       -4.1170    -0.9980    -0.5550 C.3   1 <1>   0.2840 
  6 C       -5.3150    -0.1150    -0.2480 C.ar  1 <1>  -0.1430 
  7 C       -6.5660    -0.6700    -0.0280 C.ar  1 <1>  -0.1500 
  8 C       -5.1560     1.2620    -0.1870 C.ar  1 <1>  -0.1500 
  9 C       -7.6620     0.1420     0.2530 C.ar  1 <1>   0.0830 
 10 C       -6.2340     2.0910     0.1010 C.ar  1 <1>   0.0830 
 11 O       -8.9130    -0.3620     0.4650 O.3   1 <1>  -0.3630 
 12 C       -7.4910     1.5250     0.3160 C.ar  1 <1>   0.0830 
 13 O       -6.1050     3.4480     0.1820 O.3   1 <1>  -0.3630 
 14 C       -9.1290    -1.7390     0.6770 C.3   1 <1>   0.0400 
 15 O       -8.5550     2.3200     0.6140 O.3   1 <1>  -0.3630 
 16 C       -4.8390     4.0430     0.3690 C.3   1 <1>   0.0400 
 17 C       -9.2060     2.8850    -0.4970 C.3   1 <1>   0.0400 
 18 H       -3.4960    -0.3460     1.3100 H     1 <1>   0.3700 
 19 H       -0.2080    -0.3430    -0.9010 H     1 <1>   0.3700 
 20 H       -1.2860    -1.6800    -1.0880 H     1 <1>   0.3700 
 21 H       -4.3950    -2.0370    -0.5340 H     1 <1>   0.0800 
 22 H       -3.7380    -0.7620    -1.5360 H     1 <1>   0.0800 
 23 H       -6.6780    -1.7350    -0.0810 H     1 <1>   0.1500 
 24 H       -4.1800     1.6760    -0.3660 H     1 <1>   0.1500 
 25 H      -10.1650    -1.8770     0.9290 H     1 <1>   0.0800 
 26 H       -8.5080    -2.0690     1.4910 H     1 <1>   0.0800 
 27 H       -8.8990    -2.2720    -0.2280 H     1 <1>   0.0800 
 28 H       -4.9900     5.0880     0.5740 H     1 <1>   0.0800 
 29 H       -4.2600     3.9280    -0.5300 H     1 <1>   0.0800 
 30 H       -4.3510     3.5730     1.2050 H     1 <1>   0.0800 
 31 H      -10.0300     3.4740    -0.1390 H     1 <1>   0.0800 
 32 H       -9.5640     2.0910    -1.1280 H     1 <1>   0.0800 
 33 H       -8.5090     3.5080    -1.0290 H     1 <1>   0.0800 
@<TRIPOS>BOND
  1   1   2  2   
  2   2   3  am  
  3   2   4  am  
  4   3   5  1   
  5   3  18  1   
  6   4  19  1   
  7   4  20  1   
  8   5   6  1   
  9   5  21  1   
 10   5  22  1   
 11   6   7  ar  
 12   6   8  ar  
 13   7   9  ar  
 14   7  23  1   
 15   8  10  ar  
 16   8  24  1   
 17   9  11  1   
 18   9  12  ar  
 19  10  12  ar  
 20  10  13  1   
 21  11  14  1   
 22  12  15  1   
 23  13  16  1   
 24  14  25  1   
 25  14  26  1   
 26  14  27  1   
 27  15  17  1   
 28  16  28  1   
 29  16  29  1   
 30  16  30  1   
 31  17  31  1   
 32  17  32  1   
 33  17  33  1   
@<TRIPOS>SUBSTRUCTURE
  1 ****   8 GROUP 4 **** **** 0

# MOE 2024.06 (io_trps.svl 2023.06)
