@<TRIPOS>MOLECULE
NONAME
48 49 1 0 0 
SMALL
USER_CHARGES


@<TRIPOS>ATOM
  1 N       -0.1670     0.1830     0.2400 N.4   1 <1>  -0.9590 
  2 C        1.0210     1.0310     0.5560 C.3   1 <1>   0.4230 
  3 C       -1.4800     0.9190     0.1800 C.3   1 <1>   0.3430 
  4 C       -0.3270    -1.0410     1.1030 C.3   1 <1>   0.3430 
  5 C        1.1240     2.1940    -0.4440 C.3   1 <1>  -0.1600 
  6 C        2.3050     0.1870     0.5020 C.3   1 <1>  -0.1600 
  7 C       -2.6290     0.0000    -0.3020 C.3   1 <1>   0.1100 
  8 C       -1.4880    -1.9400     0.6110 C.3   1 <1>   0.1100 
  9 C        2.3880     3.0390    -0.2250 C.3   1 <1>  -0.1600 
 10 C        3.5670     1.0340     0.7190 C.3   1 <1>  -0.1600 
 11 N       -2.1650    -1.3780    -0.5780 N.3   1 <1>  -0.8100 
 12 C        3.6790     2.1920    -0.2980 C.3   1 <1>  -0.0800 
 13 C       -3.2700    -2.2370    -1.0230 C.3   1 <1>   0.0300 
 14 C        4.9960     3.0310    -0.1620 C.3   1 <1>   0.0000 
 15 C        6.2330     2.1300    -0.3360 C.3   1 <1>  -0.2400 
 16 C        5.0720     4.1030    -1.2660 C.3   1 <1>  -0.2400 
 17 C        5.1190     3.7440     1.1970 C.3   1 <1>  -0.2400 
 18 H       -0.0620    -0.2030    -0.7100 H     1 <1>   0.4500 
 19 H        0.9190     1.4390     1.5490 H     1 <1>   0.0800 
 20 H       -1.4100     1.7480    -0.5030 H     1 <1>   0.0800 
 21 H       -1.7250     1.3150     1.1510 H     1 <1>   0.0800 
 22 H       -0.5100    -0.7510     2.1240 H     1 <1>   0.0800 
 23 H        0.5760    -1.6280     1.0860 H     1 <1>   0.0800 
 24 H        0.2830     2.8540    -0.3410 H     1 <1>   0.0800 
 25 H        1.1390     1.8080    -1.4480 H     1 <1>   0.0800 
 26 H        2.3790    -0.2990    -0.4560 H     1 <1>   0.0800 
 27 H        2.2950    -0.5640     1.2690 H     1 <1>   0.0800 
 28 H       -3.0540     0.4170    -1.2000 H     1 <1>   0.0800 
 29 H       -3.4060    -0.0160     0.4440 H     1 <1>   0.0800 
 30 H       -2.1980    -2.0690     1.4120 H     1 <1>   0.0800 
 31 H       -1.0950    -2.9130     0.3680 H     1 <1>   0.0800 
 32 H        2.3220     3.5250     0.7320 H     1 <1>   0.0800 
 33 H        2.4020     3.8050    -0.9790 H     1 <1>   0.0800 
 34 H        4.4170     0.3810     0.6340 H     1 <1>   0.0800 
 35 H        3.5570     1.4260     1.7210 H     1 <1>   0.0800 
 36 H        3.7050     1.7460    -1.2780 H     1 <1>   0.0800 
 37 H       -3.7190    -1.8290    -1.9120 H     1 <1>   0.0800 
 38 H       -4.0240    -2.3200    -0.2570 H     1 <1>   0.0800 
 39 H       -2.9000    -3.2220    -1.2560 H     1 <1>   0.0800 
 40 H        7.1300     2.7210    -0.3790 H     1 <1>   0.0800 
 41 H        6.1640     1.5630    -1.2480 H     1 <1>   0.0800 
 42 H        6.3430     1.4480     0.4860 H     1 <1>   0.0800 
 43 H        4.9310     3.6600    -2.2360 H     1 <1>   0.0800 
 44 H        6.0320     4.5880    -1.2580 H     1 <1>   0.0800 
 45 H        4.3310     4.8680    -1.1250 H     1 <1>   0.0800 
 46 H        5.1310     3.0400     2.0080 H     1 <1>   0.0800 
 47 H        4.3110     4.4340     1.3510 H     1 <1>   0.0800 
 48 H        6.0370     4.3040     1.2390 H     1 <1>   0.0800 
@<TRIPOS>BOND
  1   1   2  1   
  2   1   3  1   
  3   1   4  1   
  4   1  18  1   
  5   2   5  1   
  6   2   6  1   
  7   2  19  1   
  8   3   7  1   
  9   3  20  1   
 10   3  21  1   
 11   4   8  1   
 12   4  22  1   
 13   4  23  1   
 14   5   9  1   
 15   5  24  1   
 16   5  25  1   
 17   6  10  1   
 18   6  26  1   
 19   6  27  1   
 20   7  11  1   
 21   7  28  1   
 22   7  29  1   
 23   8  11  1   
 24   8  30  1   
 25   8  31  1   
 26   9  12  1   
 27   9  32  1   
 28   9  33  1   
 29  10  12  1   
 30  10  34  1   
 31  10  35  1   
 32  11  13  1   
 33  12  14  1   
 34  12  36  1   
 35  13  37  1   
 36  13  38  1   
 37  13  39  1   
 38  14  15  1   
 39  14  16  1   
 40  14  17  1   
 41  15  40  1   
 42  15  41  1   
 43  15  42  1   
 44  16  43  1   
 45  16  44  1   
 46  16  45  1   
 47  17  46  1   
 48  17  47  1   
 49  17  48  1   
@<TRIPOS>SUBSTRUCTURE
  1 ****   2 GROUP 4 **** **** 0

# MOE 2024.06 (io_trps.svl 2023.06)
