@<TRIPOS>MOLECULE
NONAME
42 43 1 0 0 
SMALL
USER_CHARGES


@<TRIPOS>ATOM
  1 O       -5.8650    -1.8590    -0.7910 O.3   1 <1>  -0.3620 
  2 C       -7.1150    -1.3840    -0.5690 C.ar  1 <1>   0.0830 
  3 C       -4.7920    -1.5270     0.0640 C.3   1 <1>   0.1200 
  4 C       -8.0860    -1.7220    -1.4970 C.ar  1 <1>  -0.1500 
  5 C       -7.4620    -0.5910     0.5220 C.ar  1 <1>  -0.1500 
  6 C       -3.5220    -2.2010    -0.4680 C.3   1 <1>   0.2000 
  7 C       -9.3880    -1.2770    -1.3460 C.ar  1 <1>  -0.1500 
  8 C       -8.7650    -0.1480     0.6690 C.ar  1 <1>  -0.1500 
  9 O       -3.7750    -3.5620    -0.6580 O.3   1 <1>  -0.6800 
 10 C       -2.3200    -2.0440     0.4870 C.3   1 <1>   0.3430 
 11 C       -9.7340    -0.4860    -0.2620 C.ar  1 <1>  -0.1440 
 12 N       -1.3060    -3.1110     0.2270 N.4   1 <1>  -0.9590 
 13 C      -11.1640     0.0040    -0.0950 C.3   1 <1>  -0.0170 
 14 C       -0.4050    -3.4200     1.3590 C.3   1 <1>   0.3430 
 15 C       -0.4530    -2.8880    -0.9610 C.3   1 <1>   0.3430 
 16 C      -11.9830    -0.9970     0.7230 C.3   1 <1>  -0.2400 
 17 C        0.7470    -4.1860     0.7230 C.3   1 <1>  -0.1600 
 18 C        0.7040    -3.8600    -0.7740 C.3   1 <1>  -0.1600 
 19 H       -5.0260    -1.8800     1.0540 H     1 <1>   0.0800 
 20 H       -4.6830    -0.4560     0.0700 H     1 <1>   0.0800 
 21 H       -7.8220    -2.3340    -2.3400 H     1 <1>   0.1500 
 22 H       -6.7440    -0.3080     1.2660 H     1 <1>   0.1500 
 23 H       -3.2780    -1.7770    -1.4270 H     1 <1>   0.0800 
 24 H      -10.1310    -1.5490    -2.0750 H     1 <1>   0.1500 
 25 H       -9.0260     0.4620     1.5160 H     1 <1>   0.1500 
 26 H       -4.6720    -3.6550    -1.0590 H     1 <1>   0.4000 
 27 H       -2.6830    -2.1420     1.4970 H     1 <1>   0.0800 
 28 H       -1.8820    -1.0650     0.3850 H     1 <1>   0.0800 
 29 H       -1.8800    -3.9510     0.0180 H     1 <1>   0.4500 
 30 H      -11.6170     0.1360    -1.0620 H     1 <1>   0.0800 
 31 H      -11.1650     0.9600     0.3980 H     1 <1>   0.0800 
 32 H       -0.9020    -4.0030     2.1170 H     1 <1>   0.0800 
 33 H       -0.0330    -2.5050     1.7910 H     1 <1>   0.0800 
 34 H       -0.0780    -1.8770    -0.9590 H     1 <1>   0.0800 
 35 H       -0.9900    -3.0760    -1.8770 H     1 <1>   0.0800 
 36 H      -12.0000    -1.9520     0.2290 H     1 <1>   0.0800 
 37 H      -12.9920    -0.6460     0.8360 H     1 <1>   0.0800 
 38 H      -11.5470    -1.1220     1.6980 H     1 <1>   0.0800 
 39 H        0.6130    -5.2430     0.8800 H     1 <1>   0.0800 
 40 H        1.6820    -3.8930     1.1680 H     1 <1>   0.0800 
 41 H        1.6250    -3.4200    -1.1160 H     1 <1>   0.0800 
 42 H        0.5200    -4.7530    -1.3460 H     1 <1>   0.0800 
@<TRIPOS>BOND
  1   1   2  1   
  2   1   3  1   
  3   2   4  ar  
  4   2   5  ar  
  5   3   6  1   
  6   3  19  1   
  7   3  20  1   
  8   4   7  ar  
  9   4  21  1   
 10   5   8  ar  
 11   5  22  1   
 12   6   9  1   
 13   6  10  1   
 14   6  23  1   
 15   7  11  ar  
 16   7  24  1   
 17   8  11  ar  
 18   8  25  1   
 19   9  26  1   
 20  10  12  1   
 21  10  27  1   
 22  10  28  1   
 23  11  13  1   
 24  12  14  1   
 25  12  15  1   
 26  12  29  1   
 27  13  16  1   
 28  13  30  1   
 29  13  31  1   
 30  14  17  1   
 31  14  32  1   
 32  14  33  1   
 33  15  18  1   
 34  15  34  1   
 35  15  35  1   
 36  16  36  1   
 37  16  37  1   
 38  16  38  1   
 39  17  18  1   
 40  17  39  1   
 41  17  40  1   
 42  18  41  1   
 43  18  42  1   
@<TRIPOS>SUBSTRUCTURE
  1 ****   3 GROUP 4 **** **** 0

# MOE 2024.06 (io_trps.svl 2023.06)
