@<TRIPOS>MOLECULE
NONAME
40 41 1 0 0 
SMALL
USER_CHARGES


@<TRIPOS>ATOM
  1 CL      -1.0800     2.8850     3.9240 Cl    1 <1>  -0.1770 
  2 C       -1.5960     2.8450     2.2540 C.ar  1 <1>   0.1770 
  3 C       -0.6890     2.5840     1.2400 C.ar  1 <1>   0.1770 
  4 C       -2.9260     3.0790     1.9630 C.ar  1 <1>  -0.1500 
  5 CL       0.9980     2.2870     1.5980 Cl    1 <1>  -0.1770 
  6 C       -1.1100     2.5540    -0.0770 C.ar  1 <1>  -0.1500 
  7 C       -3.3670     3.0560     0.6440 C.ar  1 <1>   0.1170 
  8 C       -2.4440     2.7880    -0.3670 C.ar  1 <1>  -0.1500 
  9 N       -4.7240     3.2900     0.3870 N.am  1 <1>  -0.5470 
 10 C       -5.3690     3.7640    -0.7240 C.2   1 <1>   0.5690 
 11 O       -4.7890     4.0730    -1.7370 O.2   1 <1>  -0.5700 
 12 C       -6.8930     3.8860    -0.6790 C.3   1 <1>  -0.0190 
 13 C       -7.4890     5.0750     0.1290 C.3   1 <1>   0.0000 
 14 C       -7.6090     2.6090    -0.1930 C.3   1 <1>  -0.1600 
 15 C       -8.9210     4.5740     0.5150 C.3   1 <1>  -0.1060 
 16 C       -6.6650     5.4000     1.4000 C.3   1 <1>  -0.2400 
 17 C       -7.4850     6.3590    -0.7260 C.3   1 <1>  -0.2400 
 18 C       -8.6830     3.0710     0.7920 C.3   1 <1>  -0.1600 
 19 C       -9.5250     5.3190     1.7380 C.2   1 <1>   0.9060 
 20 C       -9.9270     4.6580    -0.6690 C.3   1 <1>  -0.2400 
 21 O       -9.5680     4.7580     2.8430 O.co2 1 <1>  -0.9000 
 22 O       -9.9450     6.4750     1.5950 O.co2 1 <1>  -0.9000 
 23 H       -3.6130     3.2840     2.7630 H     1 <1>   0.1500 
 24 H       -0.4030     2.3510    -0.8620 H     1 <1>   0.1500 
 25 H       -2.7700     2.7590    -1.3920 H     1 <1>   0.1500 
 26 H       -5.3480     3.1980     1.1900 H     1 <1>   0.3700 
 27 H       -7.2010     4.0170    -1.7010 H     1 <1>   0.0800 
 28 H       -6.9500     1.9060     0.2830 H     1 <1>   0.0800 
 29 H       -8.0730     2.1200    -1.0310 H     1 <1>   0.0800 
 30 H       -6.6400     4.5680     2.0780 H     1 <1>   0.0800 
 31 H       -7.1070     6.2290     1.9270 H     1 <1>   0.0800 
 32 H       -5.6610     5.6940     1.1540 H     1 <1>   0.0800 
 33 H       -7.9710     6.2110    -1.6720 H     1 <1>   0.0800 
 34 H       -6.4780     6.6800    -0.9210 H     1 <1>   0.0800 
 35 H       -8.0010     7.1470    -0.2040 H     1 <1>   0.0800 
 36 H       -8.3060     2.9410     1.7920 H     1 <1>   0.0800 
 37 H       -9.5880     2.4940     0.7130 H     1 <1>   0.0800 
 38 H       -9.5640     4.1670    -1.5520 H     1 <1>   0.0800 
 39 H      -10.1380     5.6860    -0.9050 H     1 <1>   0.0800 
 40 H      -10.8590     4.2040    -0.3820 H     1 <1>   0.0800 
@<TRIPOS>BOND
  1   1   2  1   
  2   2   3  ar  
  3   2   4  ar  
  4   3   5  1   
  5   3   6  ar  
  6   4   7  ar  
  7   4  23  1   
  8   6   8  ar  
  9   6  24  1   
 10   7   8  ar  
 11   7   9  1   
 12   8  25  1   
 13   9  10  am  
 14   9  26  1   
 15  10  11  2   
 16  10  12  1   
 17  12  13  1   
 18  12  14  1   
 19  12  27  1   
 20  13  15  1   
 21  13  16  1   
 22  13  17  1   
 23  14  18  1   
 24  14  28  1   
 25  14  29  1   
 26  15  18  1   
 27  15  19  1   
 28  15  20  1   
 29  16  30  1   
 30  16  31  1   
 31  16  32  1   
 32  17  33  1   
 33  17  34  1   
 34  17  35  1   
 35  18  36  1   
 36  18  37  1   
 37  19  21  ar  
 38  19  22  ar  
 39  20  38  1   
 40  20  39  1   
 41  20  40  1   
@<TRIPOS>SUBSTRUCTURE
  1 ****   9 GROUP 4 **** **** 0

# MOE 2024.06 (io_trps.svl 2023.06)
