@<TRIPOS>MOLECULE
NONAME
29 28 1 0 0 
SMALL
USER_CHARGES


@<TRIPOS>ATOM
  1 O       -1.0650    -0.2900     1.9420 O.2   1 <1>  -0.5700 
  2 C       -1.7390    -0.7590     1.0500 C.2   1 <1>   0.7060 
  3 O       -1.3990    -1.9720     0.6020 O.3   1 <1>  -0.4300 
  4 C       -2.8760    -0.0780     0.5200 C.2   1 <1>   0.0290 
  5 C       -1.8120    -2.4600    -0.6590 C.3   1 <1>   0.0400 
  6 C       -2.5440     1.0070    -0.3390 C.2   1 <1>   0.4950 
  7 C       -4.1520    -0.4750     0.8470 C.2   1 <1>  -0.1500 
  8 O       -1.7600     0.9030    -1.2490 O.2   1 <1>  -0.5700 
  9 C       -3.1720     2.3710    -0.1320 C.3   1 <1>  -0.1790 
 10 C       -5.3860     0.0000     0.3560 C.2   1 <1>  -0.1500 
 11 C       -6.6150    -0.4080     0.7760 C.2   1 <1>  -0.0500 
 12 N       -7.8290     0.0280     0.3200 N.pl3 1 <1>  -0.8380 
 13 C       -8.0040     1.0920    -0.7070 C.3   1 <1>   0.1290 
 14 C       -9.0950    -0.5740     0.8180 C.3   1 <1>   0.1290 
 15 H       -1.3360    -3.4100    -0.8220 H     1 <1>   0.0800 
 16 H       -1.5060    -1.7650    -1.4220 H     1 <1>   0.0800 
 17 H       -2.8810    -2.5830    -0.6620 H     1 <1>   0.0800 
 18 H       -4.2400    -1.2700     1.5700 H     1 <1>   0.1500 
 19 H       -3.7460     2.3970     0.7760 H     1 <1>   0.0800 
 20 H       -3.8060     2.6070    -0.9660 H     1 <1>   0.0800 
 21 H       -2.3940     3.1100    -0.0700 H     1 <1>   0.0800 
 22 H       -5.3430     0.7370    -0.4210 H     1 <1>   0.1500 
 23 H       -6.6570    -1.1580     1.5500 H     1 <1>   0.1500 
 24 H       -8.9550     1.5790    -0.5790 H     1 <1>   0.0800 
 25 H       -7.9620     0.6550    -1.6900 H     1 <1>   0.0800 
 26 H       -7.2330     1.8340    -0.6130 H     1 <1>   0.0800 
 27 H       -9.6850     0.1780     1.3130 H     1 <1>   0.0800 
 28 H       -8.8870    -1.3640     1.5180 H     1 <1>   0.0800 
 29 H       -9.6550    -0.9800    -0.0060 H     1 <1>   0.0800 
@<TRIPOS>BOND
  1   1   2  2   
  2   2   3  1   
  3   2   4  1   
  4   3   5  1   
  5   4   6  1   
  6   4   7  2   
  7   5  15  1   
  8   5  16  1   
  9   5  17  1   
 10   6   8  2   
 11   6   9  1   
 12   7  10  1   
 13   7  18  1   
 14   9  19  1   
 15   9  20  1   
 16   9  21  1   
 17  10  11  2   
 18  10  22  1   
 19  11  12  1   
 20  11  23  1   
 21  12  13  1   
 22  12  14  1   
 23  13  24  1   
 24  13  25  1   
 25  13  26  1   
 26  14  27  1   
 27  14  28  1   
 28  14  29  1   
@<TRIPOS>SUBSTRUCTURE
  1 ****   7 GROUP 4 **** **** 0

# MOE 2024.06 (io_trps.svl 2023.06)
