@<TRIPOS>MOLECULE
NONAME
38 38 1 0 0 
SMALL
USER_CHARGES


@<TRIPOS>ATOM
  1 CL      -0.6030     1.3110     1.5280 Cl    1 <1>  -0.1770 
  2 C        0.6760     2.2410     0.7800 C.ar  1 <1>   0.1770 
  3 C        0.3940     3.0010    -0.3440 C.ar  1 <1>  -0.1440 
  4 C        1.9400     2.2050     1.3360 C.ar  1 <1>  -0.1500 
  5 C        1.4130     3.7550    -0.9100 C.ar  1 <1>  -0.1500 
  6 C       -0.9960     3.0060    -0.9380 C.3   1 <1>   0.4870 
  7 C        2.9560     2.9460     0.7590 C.ar  1 <1>   0.0830 
  8 C        2.6850     3.7480    -0.3590 C.ar  1 <1>   0.0830 
  9 N       -1.8590     3.8150    -0.0500 N.4   1 <1>  -0.9060 
 10 O        4.1850     2.8480     1.3130 O.3   1 <1>  -0.3620 
 11 O        3.6050     4.5440    -0.9600 O.3   1 <1>  -0.3620 
 12 C       -3.2600     3.9050    -0.5140 C.3   1 <1>   0.3430 
 13 C        5.1420     2.1210     0.5730 C.3   1 <1>   0.0400 
 14 C        4.3220     5.4610    -0.1590 C.3   1 <1>   0.0400 
 15 C       -4.0570     4.7340     0.4890 C.3   1 <1>  -0.1600 
 16 C       -5.5230     4.8570     0.0540 C.3   1 <1>  -0.1600 
 17 C       -6.3240     5.6890     1.0580 C.3   1 <1>  -0.2400 
 18 H        2.1400     1.6040     2.2040 H     1 <1>   0.1500 
 19 H        1.2470     4.3620    -1.7840 H     1 <1>   0.1500 
 20 H       -1.3670     1.9960    -1.0050 H     1 <1>   0.0800 
 21 H       -0.9710     3.4330    -1.9290 H     1 <1>   0.0800 
 22 H       -1.4500     4.7510     0.0480 H     1 <1>   0.4500 
 23 H       -1.8300     3.3850     0.8850 H     1 <1>   0.4500 
 24 H       -3.6920     2.9190    -0.5890 H     1 <1>   0.0800 
 25 H       -3.3030     4.3730    -1.4850 H     1 <1>   0.0800 
 26 H        4.7900     1.1130     0.4450 H     1 <1>   0.0800 
 27 H        6.0650     2.1210     1.1240 H     1 <1>   0.0800 
 28 H        5.2850     2.5910    -0.3840 H     1 <1>   0.0800 
 29 H        4.7470     6.2080    -0.8040 H     1 <1>   0.0800 
 30 H        5.1090     4.9450     0.3600 H     1 <1>   0.0800 
 31 H        3.6490     5.9210     0.5430 H     1 <1>   0.0800 
 32 H       -3.6340     5.7220     0.5630 H     1 <1>   0.0800 
 33 H       -4.0220     4.2660     1.4580 H     1 <1>   0.0800 
 34 H       -5.9700     3.8790    -0.0220 H     1 <1>   0.0800 
 35 H       -5.5850     5.3270    -0.9140 H     1 <1>   0.0800 
 36 H       -6.3080     5.2310     2.0320 H     1 <1>   0.0800 
 37 H       -7.3490     5.7650     0.7390 H     1 <1>   0.0800 
 38 H       -5.9220     6.6840     1.1370 H     1 <1>   0.0800 
@<TRIPOS>BOND
  1   1   2  1   
  2   2   3  ar  
  3   2   4  ar  
  4   3   5  ar  
  5   3   6  1   
  6   4   7  ar  
  7   4  18  1   
  8   5   8  ar  
  9   5  19  1   
 10   6   9  1   
 11   6  20  1   
 12   6  21  1   
 13   7   8  ar  
 14   7  10  1   
 15   8  11  1   
 16   9  12  1   
 17   9  22  1   
 18   9  23  1   
 19  10  13  1   
 20  11  14  1   
 21  12  15  1   
 22  12  24  1   
 23  12  25  1   
 24  13  26  1   
 25  13  27  1   
 26  13  28  1   
 27  14  29  1   
 28  14  30  1   
 29  14  31  1   
 30  15  16  1   
 31  15  32  1   
 32  15  33  1   
 33  16  17  1   
 34  16  34  1   
 35  16  35  1   
 36  17  36  1   
 37  17  37  1   
 38  17  38  1   
@<TRIPOS>SUBSTRUCTURE
  1 ****   3 GROUP 4 **** **** 0

# MOE 2024.06 (io_trps.svl 2023.06)
