@<TRIPOS>MOLECULE
NONAME
34 35 1 0 0 
SMALL
USER_CHARGES


@<TRIPOS>ATOM
  1 S       -1.1540     0.1700    -0.8030 S.3   1 <1>  -0.0800 
  2 C       -1.9520     1.0110     0.4850 C.2   1 <1>   0.4420 
  3 C        0.3170     0.9170    -0.2800 C.2   1 <1>   0.1980 
  4 N       -1.1420     1.7360     1.1660 N.2   1 <1>  -0.3380 
  5 N       -3.3080     0.8010     0.6120 N.am  1 <1>  -0.4940 
  6 N        0.1510     1.6780     0.7230 N.2   1 <1>  -0.3380 
  7 C        1.5950     0.6080    -1.0390 C.3   1 <1>   0.0200 
  8 C       -4.2010     1.3130     1.5110 C.2   1 <1>   0.5690 
  9 C        2.0780    -0.8260    -0.7880 C.3   1 <1>  -0.2400 
 10 O       -3.9050     2.0830     2.3880 O.2   1 <1>  -0.5700 
 11 C       -5.6560     0.8810     1.3930 C.3   1 <1>   0.1810 
 12 O       -5.8330    -0.0260     0.3110 O.3   1 <1>  -0.3630 
 13 C       -7.0550    -0.5410     0.0250 C.ar  1 <1>   0.0820 
 14 C       -7.1280    -1.4190    -1.0450 C.ar  1 <1>  -0.1500 
 15 C       -8.2120    -0.2370     0.7380 C.ar  1 <1>  -0.1500 
 16 C       -8.3360    -1.9900    -1.4040 C.ar  1 <1>  -0.1500 
 17 C       -9.4190    -0.8110     0.3750 C.ar  1 <1>  -0.1500 
 18 C       -9.4870    -1.6900    -0.6940 C.ar  1 <1>  -0.1440 
 19 C      -10.8130    -2.3150    -1.0890 C.3   1 <1>  -0.0970 
 20 H       -3.7250     0.1640    -0.0650 H     1 <1>   0.3700 
 21 H        2.3560     1.2990    -0.7210 H     1 <1>   0.0800 
 22 H        1.4280     0.7610    -2.0900 H     1 <1>   0.0800 
 23 H        2.2410    -0.9800     0.2650 H     1 <1>   0.0800 
 24 H        3.0020    -1.0000    -1.3090 H     1 <1>   0.0800 
 25 H        1.3490    -1.5370    -1.1330 H     1 <1>   0.0800 
 26 H       -6.2690     1.7460     1.2190 H     1 <1>   0.0800 
 27 H       -5.9550     0.3920     2.3020 H     1 <1>   0.0800 
 28 H       -6.2370    -1.6540    -1.5970 H     1 <1>   0.1500 
 29 H       -8.2010     0.4380     1.5720 H     1 <1>   0.1500 
 30 H       -8.3760    -2.6680    -2.2380 H     1 <1>   0.1500 
 31 H      -10.3090    -0.5700     0.9300 H     1 <1>   0.1500 
 32 H      -10.6570    -3.2880    -1.5180 H     1 <1>   0.0800 
 33 H      -11.3080    -1.6920    -1.8120 H     1 <1>   0.0800 
 34 H      -11.4500    -2.4230    -0.2290 H     1 <1>   0.0800 
@<TRIPOS>BOND
  1   1   2  1   
  2   1   3  1   
  3   2   4  2   
  4   2   5  1   
  5   3   6  2   
  6   3   7  1   
  7   4   6  1   
  8   5   8  am  
  9   5  20  1   
 10   7   9  1   
 11   7  21  1   
 12   7  22  1   
 13   8  10  2   
 14   8  11  1   
 15   9  23  1   
 16   9  24  1   
 17   9  25  1   
 18  11  12  1   
 19  11  26  1   
 20  11  27  1   
 21  12  13  1   
 22  13  14  ar  
 23  13  15  ar  
 24  14  16  ar  
 25  14  28  1   
 26  15  17  ar  
 27  15  29  1   
 28  16  18  ar  
 29  16  30  1   
 30  17  18  ar  
 31  17  31  1   
 32  18  19  1   
 33  19  32  1   
 34  19  33  1   
 35  19  34  1   
@<TRIPOS>SUBSTRUCTURE
  1 ****   5 GROUP 4 **** **** 0

# MOE 2024.06 (io_trps.svl 2023.06)
