@<TRIPOS>MOLECULE
NONAME
40 42 1 0 0 
SMALL
USER_CHARGES


@<TRIPOS>ATOM
  1 BR      -0.2010     0.5320     0.6030 Br    1 <1>  -0.1110 
  2 C       -1.7830    -0.5220     0.3120 C.ar  1 <1>   0.1110 
  3 C       -2.4170    -1.0880     1.4000 C.ar  1 <1>  -0.1500 
  4 C       -2.2450    -0.6880    -0.9790 C.ar  1 <1>  -0.1500 
  5 C       -3.5580    -1.8430     1.1860 C.ar  1 <1>  -0.1500 
  6 C       -3.3870    -1.4440    -1.1830 C.ar  1 <1>  -0.1500 
  7 C       -4.0500    -2.0180    -0.1030 C.ar  1 <1>  -0.1430 
  8 C       -5.3110    -2.8300    -0.3340 C.3   1 <1>   0.4870 
  9 N       -6.4810    -2.0270     0.1100 N.4   1 <1>  -0.9590 
 10 C       -7.7580    -2.8280     0.0800 C.3   1 <1>   0.3430 
 11 C       -6.6260    -0.7530    -0.6920 C.3   1 <1>   0.3430 
 12 C       -8.9810    -2.0070     0.5400 C.3   1 <1>   0.2090 
 13 C       -7.8340     0.0930    -0.2420 C.3   1 <1>   0.2090 
 14 N       -9.0850    -0.7260    -0.2210 N.pl3 1 <1>  -0.8380 
 15 C      -10.2820    -0.0140    -0.0680 C.ar  1 <1>   0.1000 
 16 C      -10.6750     0.6360     1.1090 C.ar  1 <1>   0.1770 
 17 C      -11.1440     0.0540    -1.1560 C.ar  1 <1>  -0.1500 
 18 CL      -9.6510     0.6040     2.5340 Cl    1 <1>  -0.1770 
 19 C      -11.8710     1.3220     1.1970 C.ar  1 <1>  -0.1500 
 20 C      -12.3450     0.7400    -1.0770 C.ar  1 <1>  -0.1500 
 21 C      -12.7110     1.3750     0.0980 C.ar  1 <1>  -0.1500 
 22 H       -2.0190    -0.9400     2.3900 H     1 <1>   0.1500 
 23 H       -1.7170    -0.2360    -1.8010 H     1 <1>   0.1500 
 24 H       -4.0450    -2.2910     2.0360 H     1 <1>   0.1500 
 25 H       -3.7430    -1.5790    -2.1920 H     1 <1>   0.1500 
 26 H       -5.2520    -3.7460     0.2320 H     1 <1>   0.0800 
 27 H       -5.4040    -3.0790    -1.3780 H     1 <1>   0.0800 
 28 H       -6.3030    -1.7400     1.0800 H     1 <1>   0.4500 
 29 H       -7.6650    -3.6960     0.7110 H     1 <1>   0.0800 
 30 H       -7.9470    -3.1680    -0.9250 H     1 <1>   0.0800 
 31 H       -6.7570    -0.9950    -1.7330 H     1 <1>   0.0800 
 32 H       -5.7330    -0.1570    -0.6010 H     1 <1>   0.0800 
 33 H       -8.9030    -1.8040     1.5930 H     1 <1>   0.0800 
 34 H       -9.8780    -2.5830     0.3830 H     1 <1>   0.0800 
 35 H       -7.9640     0.9180    -0.9220 H     1 <1>   0.0800 
 36 H       -7.6440     0.5000     0.7350 H     1 <1>   0.0800 
 37 H      -10.8670    -0.4360    -2.0710 H     1 <1>   0.1500 
 38 H      -12.1430     1.8110     2.1150 H     1 <1>   0.1500 
 39 H      -12.9970     0.7800    -1.9330 H     1 <1>   0.1500 
 40 H      -13.6460     1.9070     0.1560 H     1 <1>   0.1500 
@<TRIPOS>BOND
  1   1   2  1   
  2   2   3  ar  
  3   2   4  ar  
  4   3   5  ar  
  5   3  22  1   
  6   4   6  ar  
  7   4  23  1   
  8   5   7  ar  
  9   5  24  1   
 10   6   7  ar  
 11   6  25  1   
 12   7   8  1   
 13   8   9  1   
 14   8  26  1   
 15   8  27  1   
 16   9  10  1   
 17   9  11  1   
 18   9  28  1   
 19  10  12  1   
 20  10  29  1   
 21  10  30  1   
 22  11  13  1   
 23  11  31  1   
 24  11  32  1   
 25  12  14  1   
 26  12  33  1   
 27  12  34  1   
 28  13  14  1   
 29  13  35  1   
 30  13  36  1   
 31  14  15  1   
 32  15  16  ar  
 33  15  17  ar  
 34  16  18  1   
 35  16  19  ar  
 36  17  20  ar  
 37  17  37  1   
 38  19  21  ar  
 39  19  38  1   
 40  20  21  ar  
 41  20  39  1   
 42  21  40  1   
@<TRIPOS>SUBSTRUCTURE
  1 ****  11 GROUP 4 **** **** 0

# MOE 2024.06 (io_trps.svl 2023.06)
