@<TRIPOS>MOLECULE
NONAME
42 43 1 0 0 
SMALL
USER_CHARGES


@<TRIPOS>ATOM
  1 S       -0.5420     0.1720    -0.7160 S.o2  1 <1>   1.4470 
  2 O       -0.9340    -0.4400    -1.9670 O.2   1 <1>  -0.6500 
  3 O       -0.5330    -0.6250     0.4930 O.2   1 <1>  -0.6500 
  4 N       -1.5410     1.5180    -0.4620 N.am  1 <1>  -0.8490 
  5 C        1.0920     0.9380    -0.9370 C.ar  1 <1>  -0.0090 
  6 C       -1.3410     2.1830     0.8380 C.3   1 <1>   0.2760 
  7 C       -2.9430     1.3030    -0.8310 C.3   1 <1>   0.1960 
  8 C        1.9270     1.1680     0.1500 C.ar  1 <1>  -0.1500 
  9 C        1.5300     1.3550    -2.1870 C.ar  1 <1>  -0.1500 
 10 C       -2.6080     2.1870     1.7200 C.3   1 <1>  -0.1600 
 11 C       -0.8200     3.6020     0.5630 C.3   1 <1>  -0.1600 
 12 C       -3.6770     0.4510     0.2160 C.3   1 <1>  -0.1600 
 13 C        3.1580     1.7990     0.0280 C.ar  1 <1>  -0.0090 
 14 C        2.7550     1.9760    -2.3420 C.ar  1 <1>  -0.1500 
 15 C       -3.3290     0.8340     1.6650 C.3   1 <1>  -0.1600 
 16 C       -0.2880     4.3040     1.8210 C.3   1 <1>  -0.2400 
 17 S        4.2000     2.0750     1.4820 S.o2  1 <1>   1.2040 
 18 C        3.5600     2.1960    -1.2400 C.ar  1 <1>  -0.1500 
 19 O        5.2350     3.0300     1.1610 O.2   1 <1>  -0.6500 
 20 O        3.3480     2.2880     2.6300 O.2   1 <1>  -0.6500 
 21 C        4.9850     0.4880     1.6900 C.3   1 <1>  -0.1350 
 22 H       -0.5790     1.6600     1.3910 H     1 <1>   0.0800 
 23 H       -3.0140     0.8420    -1.8020 H     1 <1>   0.0800 
 24 H       -3.4260     2.2630    -0.9020 H     1 <1>   0.0800 
 25 H        1.6020     0.8510     1.1280 H     1 <1>   0.1500 
 26 H        0.9000     1.1930    -3.0470 H     1 <1>   0.1500 
 27 H       -3.2770     2.9650     1.3990 H     1 <1>   0.0800 
 28 H       -2.3310     2.4010     2.7360 H     1 <1>   0.0800 
 29 H       -1.6040     4.1940     0.1260 H     1 <1>   0.0800 
 30 H       -0.0150     3.5450    -0.1490 H     1 <1>   0.0800 
 31 H       -3.4450    -0.5880     0.0560 H     1 <1>   0.0800 
 32 H       -4.7340     0.5650     0.0590 H     1 <1>   0.0800 
 33 H        3.0790     2.2920    -3.3200 H     1 <1>   0.1500 
 34 H       -4.2220     0.8610     2.2660 H     1 <1>   0.0800 
 35 H       -2.6790     0.0810     2.0780 H     1 <1>   0.0800 
 36 H       -1.0720     4.4550     2.5410 H     1 <1>   0.0800 
 37 H        0.1160     5.2660     1.5580 H     1 <1>   0.0800 
 38 H        0.4970     3.7230     2.2760 H     1 <1>   0.0800 
 39 H        4.5100     2.6900    -1.3670 H     1 <1>   0.1500 
 40 H        5.5620     0.2390     0.8200 H     1 <1>   0.0800 
 41 H        4.2500    -0.2760     1.8500 H     1 <1>   0.0800 
 42 H        5.6400     0.5140     2.5380 H     1 <1>   0.0800 
@<TRIPOS>BOND
  1   1   2  2   
  2   1   3  2   
  3   1   4  am  
  4   1   5  1   
  5   4   6  1   
  6   4   7  1   
  7   5   8  ar  
  8   5   9  ar  
  9   6  10  1   
 10   6  11  1   
 11   6  22  1   
 12   7  12  1   
 13   7  23  1   
 14   7  24  1   
 15   8  13  ar  
 16   8  25  1   
 17   9  14  ar  
 18   9  26  1   
 19  10  15  1   
 20  10  27  1   
 21  10  28  1   
 22  11  16  1   
 23  11  29  1   
 24  11  30  1   
 25  12  15  1   
 26  12  31  1   
 27  12  32  1   
 28  13  17  1   
 29  13  18  ar  
 30  14  18  ar  
 31  14  33  1   
 32  15  34  1   
 33  15  35  1   
 34  16  36  1   
 35  16  37  1   
 36  16  38  1   
 37  17  19  2   
 38  17  20  2   
 39  17  21  1   
 40  18  39  1   
 41  21  40  1   
 42  21  41  1   
 43  21  42  1   
@<TRIPOS>SUBSTRUCTURE
  1 ****   8 GROUP 4 **** **** 0

# MOE 2024.06 (io_trps.svl 2023.06)
