@<TRIPOS>MOLECULE
NONAME
39 40 1 0 0 
SMALL
USER_CHARGES


@<TRIPOS>ATOM
  1 S       -0.2800    -2.6190    -0.0440 S.3   1 <1>  -0.4600 
  2 C       -1.8360    -1.7100    -0.2650 C.3   1 <1>   0.2140 
  3 C        0.6190    -2.3240    -1.6150 C.3   1 <1>   0.1310 
  4 C       -1.5710    -0.2260    -0.0770 C.ar  1 <1>  -0.1440 
  5 C        1.5640    -1.1310    -1.5420 C.2   1 <1>   0.5690 
  6 C       -1.4960     0.3020     1.2060 C.ar  1 <1>  -0.1500 
  7 C       -1.4200     0.6070    -1.1800 C.ar  1 <1>  -0.1500 
  8 O        1.9190    -0.6200    -2.5760 O.2   1 <1>  -0.5700 
  9 N        1.9950    -0.6960    -0.3320 N.am  1 <1>  -0.7300 
 10 C       -1.2820     1.6570     1.3940 C.ar  1 <1>  -0.1500 
 11 C       -1.2040     1.9640    -1.0050 C.ar  1 <1>  -0.1500 
 12 C        2.9790     0.3690    -0.0970 C.3   1 <1>   0.2200 
 13 C       -1.1420     2.4640     0.2810 C.ar  1 <1>   0.1900 
 14 C        4.0070    -0.1290     0.9240 C.3   1 <1>  -0.1600 
 15 C        2.2530     1.6180     0.4070 C.3   1 <1>  -0.1600 
 16 F       -0.9380     3.7420     0.4520 F     1 <1>  -0.1900 
 17 C        5.0020     0.9800     1.3000 C.3   1 <1>  -0.1600 
 18 C        3.2420     2.7290     0.7900 C.3   1 <1>  -0.1600 
 19 C        4.2710     2.2280     1.8120 C.3   1 <1>  -0.1600 
 20 H       -2.5220    -2.0770     0.4780 H     1 <1>   0.0800 
 21 H       -2.2120    -1.9340    -1.2470 H     1 <1>   0.0800 
 22 H       -0.1100    -2.1750    -2.3890 H     1 <1>   0.0800 
 23 H        1.1840    -3.2130    -1.8220 H     1 <1>   0.0800 
 24 H       -1.6050    -0.3420     2.0620 H     1 <1>   0.1500 
 25 H       -1.4670     0.2080    -2.1780 H     1 <1>   0.1500 
 26 H        1.5550    -1.0930     0.5020 H     1 <1>   0.3700 
 27 H       -1.2240     2.0830     2.3790 H     1 <1>   0.1500 
 28 H       -1.0820     2.6220    -1.8460 H     1 <1>   0.1500 
 29 H        3.4820     0.6050    -1.0210 H     1 <1>   0.0800 
 30 H        4.5450    -0.9620     0.5080 H     1 <1>   0.0800 
 31 H        3.5000    -0.4580     1.8130 H     1 <1>   0.0800 
 32 H        1.6570     1.3660     1.2660 H     1 <1>   0.0800 
 33 H        1.6030     1.9790    -0.3690 H     1 <1>   0.0800 
 34 H        5.5880     1.2400     0.4350 H     1 <1>   0.0800 
 35 H        5.6750     0.6190     2.0590 H     1 <1>   0.0800 
 36 H        2.7020     3.5660     1.1970 H     1 <1>   0.0800 
 37 H        3.7540     3.0670    -0.0950 H     1 <1>   0.0800 
 38 H        4.9860     3.0070     2.0140 H     1 <1>   0.0800 
 39 H        3.7690     1.9940     2.7360 H     1 <1>   0.0800 
@<TRIPOS>BOND
  1   1   2  1   
  2   1   3  1   
  3   2   4  1   
  4   2  20  1   
  5   2  21  1   
  6   3   5  1   
  7   3  22  1   
  8   3  23  1   
  9   4   6  ar  
 10   4   7  ar  
 11   5   8  2   
 12   5   9  am  
 13   6  10  ar  
 14   6  24  1   
 15   7  11  ar  
 16   7  25  1   
 17   9  12  1   
 18   9  26  1   
 19  10  13  ar  
 20  10  27  1   
 21  11  13  ar  
 22  11  28  1   
 23  12  14  1   
 24  12  15  1   
 25  12  29  1   
 26  13  16  1   
 27  14  17  1   
 28  14  30  1   
 29  14  31  1   
 30  15  18  1   
 31  15  32  1   
 32  15  33  1   
 33  17  19  1   
 34  17  34  1   
 35  17  35  1   
 36  18  19  1   
 37  18  36  1   
 38  18  37  1   
 39  19  38  1   
 40  19  39  1   
@<TRIPOS>SUBSTRUCTURE
  1 ****   9 GROUP 4 **** **** 0

# MOE 2024.06 (io_trps.svl 2023.06)
