@<TRIPOS>MOLECULE
NONAME
34 34 1 0 0 
SMALL
USER_CHARGES


@<TRIPOS>ATOM
  1 F        0.1890    -2.2050     1.3040 F     1 <1>  -0.3400 
  2 C        1.3390    -2.7790     1.6400 C.3   1 <1>   1.1640 
  3 F        2.1130    -1.8070     2.1120 F     1 <1>  -0.3400 
  4 F        1.0740    -3.5730     2.6680 F     1 <1>  -0.3400 
  5 C        1.9890    -3.5450     0.4780 C.ar  1 <1>  -0.1440 
  6 C        3.3730    -3.6540     0.3790 C.ar  1 <1>  -0.1500 
  7 C        1.2040    -4.1550    -0.4950 C.ar  1 <1>  -0.1500 
  8 C        3.9800    -4.3440    -0.6640 C.ar  1 <1>   0.1170 
  9 C        1.7920    -4.8480    -1.5380 C.ar  1 <1>  -0.1500 
 10 N        5.3820    -4.4180    -0.6920 N.am  1 <1>  -0.5470 
 11 C        3.1680    -4.9420    -1.6200 C.ar  1 <1>  -0.1500 
 12 C        6.2490    -4.7050    -1.7100 C.2   1 <1>   0.5690 
 13 O        5.9110    -4.9270    -2.8450 O.2   1 <1>  -0.5700 
 14 C        7.7290    -4.7330    -1.3810 C.3   1 <1>  -0.0990 
 15 C        8.1150    -5.9690    -0.5520 C.3   1 <1>  -0.1600 
 16 C        9.6210    -5.9960    -0.2420 C.3   1 <1>  -0.0990 
 17 C        9.9980    -7.1810     0.6240 C.2   1 <1>   0.6590 
 18 O       10.1730    -7.0610     1.8080 O.2   1 <1>  -0.5700 
 19 O       10.1140    -8.3450     0.0000 O.3   1 <1>  -0.4300 
 20 C       10.4550    -9.5270     0.6960 C.3   1 <1>   0.0400 
 21 H        3.9980    -3.1920     1.1230 H     1 <1>   0.1500 
 22 H        0.1280    -4.0960    -0.4500 H     1 <1>   0.1500 
 23 H        1.1790    -5.3170    -2.2880 H     1 <1>   0.1500 
 24 H        5.8320    -4.2030     0.1940 H     1 <1>   0.3700 
 25 H        3.6040    -5.4900    -2.4350 H     1 <1>   0.1500 
 26 H        7.9840    -3.8330    -0.8510 H     1 <1>   0.0800 
 27 H        8.2810    -4.7350    -2.3060 H     1 <1>   0.0800 
 28 H        7.8490    -6.8590    -1.0990 H     1 <1>   0.0800 
 29 H        7.5650    -5.9740     0.3740 H     1 <1>   0.0800 
 30 H        9.9030    -5.0980     0.2780 H     1 <1>   0.0800 
 31 H       10.1860    -6.0470    -1.1550 H     1 <1>   0.0800 
 32 H       10.4930   -10.3390    -0.0080 H     1 <1>   0.0800 
 33 H        9.7050    -9.7180     1.4440 H     1 <1>   0.0800 
 34 H       11.4170    -9.3920     1.1600 H     1 <1>   0.0800 
@<TRIPOS>BOND
  1   1   2  1   
  2   2   3  1   
  3   2   4  1   
  4   2   5  1   
  5   5   6  ar  
  6   5   7  ar  
  7   6   8  ar  
  8   6  21  1   
  9   7   9  ar  
 10   7  22  1   
 11   8  10  1   
 12   8  11  ar  
 13   9  11  ar  
 14   9  23  1   
 15  10  12  am  
 16  10  24  1   
 17  11  25  1   
 18  12  13  2   
 19  12  14  1   
 20  14  15  1   
 21  14  26  1   
 22  14  27  1   
 23  15  16  1   
 24  15  28  1   
 25  15  29  1   
 26  16  17  1   
 27  16  30  1   
 28  16  31  1   
 29  17  18  2   
 30  17  19  1   
 31  19  20  1   
 32  20  32  1   
 33  20  33  1   
 34  20  34  1   
@<TRIPOS>SUBSTRUCTURE
  1 ****  10 GROUP 4 **** **** 0

# MOE 2024.06 (io_trps.svl 2023.06)
