@<TRIPOS>MOLECULE
NONAME
28 30 1 0 0 
SMALL
USER_CHARGES


@<TRIPOS>ATOM
  1 BR      -0.1380     0.1030    -0.1750 Br    1 <1>  -0.1110 
  2 C        1.5390    -0.8330    -0.0770 C.ar  1 <1>   0.1110 
  3 C        2.7140    -0.1320    -0.1750 C.ar  1 <1>  -0.1500 
  4 C        1.5140    -2.2120     0.0920 C.ar  1 <1>  -0.1500 
  5 C        3.9320    -0.8120    -0.1040 C.ar  1 <1>   0.1000 
  6 C        2.7100    -2.8890     0.1640 C.ar  1 <1>  -0.1500 
  7 N        5.1560    -0.1590    -0.1980 N.pl3 1 <1>  -0.5080 
  8 C        3.9360    -2.1950     0.0670 C.ar  1 <1>  -0.0040 
  9 O        5.1430     1.0790    -0.4250 O.3   1 <1>  -0.6920 
 10 C        6.3620    -0.7900    -0.0900 C.2   1 <1>  -0.0380 
 11 N        5.1890    -2.8030     0.1310 N.2   1 <1>   1.5810 
 12 C        6.3860    -2.1370     0.0560 C.2   1 <1>  -0.1510 
 13 C        7.6260     0.0650    -0.1540 C.3   1 <1>  -0.0220 
 14 O        5.2140    -4.0770     0.2900 O.2   1 <1>  -0.5640 
 15 C        7.7050    -2.9230     0.1480 C.3   1 <1>  -0.0220 
 16 C        8.8820    -0.6970     0.2860 C.3   1 <1>  -0.1600 
 17 C        8.9090    -2.0990    -0.3260 C.3   1 <1>  -0.1600 
 18 H        2.7190     0.9360    -0.3070 H     1 <1>   0.1500 
 19 H        0.5660    -2.7180     0.1640 H     1 <1>   0.1500 
 20 H        2.6910    -3.9600     0.2950 H     1 <1>   0.1500 
 21 H        7.5020     0.9310     0.4740 H     1 <1>   0.0800 
 22 H        7.7380     0.4180    -1.1640 H     1 <1>   0.0800 
 23 H        7.6610    -3.8180    -0.4500 H     1 <1>   0.0800 
 24 H        7.8660    -3.2180     1.1720 H     1 <1>   0.0800 
 25 H        8.8910    -0.7710     1.3600 H     1 <1>   0.0800 
 26 H        9.7540    -0.1430    -0.0150 H     1 <1>   0.0800 
 27 H        8.8880    -2.0130    -1.4000 H     1 <1>   0.0800 
 28 H        9.8230    -2.6000    -0.0520 H     1 <1>   0.0800 
@<TRIPOS>BOND
  1   1   2  1   
  2   2   3  ar  
  3   2   4  ar  
  4   3   5  ar  
  5   3  18  1   
  6   4   6  ar  
  7   4  19  1   
  8   5   7  1   
  9   5   8  ar  
 10   6   8  ar  
 11   6  20  1   
 12   7   9  1   
 13   7  10  1   
 14   8  11  1   
 15  10  12  2   
 16  10  13  1   
 17  11  12  1   
 18  11  14  2   
 19  12  15  1   
 20  13  16  1   
 21  13  21  1   
 22  13  22  1   
 23  15  17  1   
 24  15  23  1   
 25  15  24  1   
 26  16  17  1   
 27  16  25  1   
 28  16  26  1   
 29  17  27  1   
 30  17  28  1   
@<TRIPOS>SUBSTRUCTURE
  1 ****   5 GROUP 4 **** **** 0

# MOE 2024.06 (io_trps.svl 2023.06)
