@<TRIPOS>MOLECULE
NONAME
50 51 1 0 0 
SMALL
USER_CHARGES


@<TRIPOS>ATOM
  1 CL       1.3280    -0.6920    -0.5790 Cl    1 <1>  -0.1770 
  2 C        2.7580     0.3020    -0.4430 C.ar  1 <1>   0.1770 
  3 C        4.0030    -0.2980    -0.4500 C.ar  1 <1>  -0.1500 
  4 C        2.6210     1.6710    -0.3310 C.ar  1 <1>  -0.1500 
  5 C        5.1430     0.4840    -0.3430 C.ar  1 <1>  -0.1440 
  6 C        3.7550     2.4580    -0.2230 C.ar  1 <1>  -0.1500 
  7 C        5.0200     1.8690    -0.2290 C.ar  1 <1>   0.0830 
  8 C        6.5120    -0.1820    -0.3530 C.3   1 <1>  -0.0960 
  9 O        6.1670     2.5910    -0.1270 O.3   1 <1>  -0.3630 
 10 C        6.1500     4.0140    -0.0880 C.3   1 <1>   0.1810 
 11 C        7.5610     4.5800    -0.0130 C.2   1 <1>   0.5690 
 12 O        7.6880     5.7790     0.0440 O.2   1 <1>  -0.5700 
 13 N        8.6090     3.7000    -0.0010 N.am  1 <1>  -0.5470 
 14 C        9.9990     3.8990     0.0560 C.ar  1 <1>   0.1170 
 15 C       10.8040     2.8640     0.5130 C.ar  1 <1>  -0.1500 
 16 C       10.6070     5.0840    -0.3410 C.ar  1 <1>  -0.1500 
 17 C       12.1860     3.0050     0.5770 C.ar  1 <1>   0.0830 
 18 C       11.9800     5.2320    -0.2820 C.ar  1 <1>  -0.1500 
 19 O       13.0120     2.0110     1.0290 O.3   1 <1>  -0.3630 
 20 C       12.7910     4.2000     0.1730 C.ar  1 <1>   0.1170 
 21 C       12.4970     0.7910     1.5170 C.3   1 <1>   0.0400 
 22 N       14.1950     4.2910     0.2550 N.am  1 <1>  -0.5470 
 23 C       15.0990     5.2460    -0.1160 C.2   1 <1>   0.5690 
 24 O       14.7940     6.2890    -0.6420 O.2   1 <1>  -0.5700 
 25 C       16.5810     4.9570     0.1550 C.3   1 <1>  -0.0190 
 26 C       17.1970     6.0030     1.0980 C.3   1 <1>  -0.2400 
 27 C       17.3880     4.8850    -1.1520 C.3   1 <1>  -0.2400 
 28 H        4.0660    -1.3670    -0.5390 H     1 <1>   0.1500 
 29 H        1.6390     2.1090    -0.3280 H     1 <1>   0.1500 
 30 H        3.6250     3.5200    -0.1360 H     1 <1>   0.1500 
 31 H        6.4240    -1.2480    -0.4570 H     1 <1>   0.0800 
 32 H        7.0270     0.0300     0.5670 H     1 <1>   0.0800 
 33 H        7.0940     0.1940    -1.1750 H     1 <1>   0.0800 
 34 H        5.5980     4.3260     0.7790 H     1 <1>   0.0800 
 35 H        5.6720     4.3750    -0.9810 H     1 <1>   0.0800 
 36 H        8.3030     2.7250    -0.0110 H     1 <1>   0.3700 
 37 H       10.3270     1.9550     0.8190 H     1 <1>   0.1500 
 38 H       10.0110     5.9020    -0.7030 H     1 <1>   0.1500 
 39 H       12.4120     6.1650    -0.5960 H     1 <1>   0.1500 
 40 H       13.3240     0.1830     1.8370 H     1 <1>   0.0800 
 41 H       11.9650     0.2940     0.7250 H     1 <1>   0.0800 
 42 H       11.8490     0.9930     2.3520 H     1 <1>   0.0800 
 43 H       14.5930     3.4420     0.6590 H     1 <1>   0.3700 
 44 H       16.6550     3.9990     0.6380 H     1 <1>   0.0800 
 45 H       17.1600     6.9790     0.6450 H     1 <1>   0.0800 
 46 H       18.2220     5.7610     1.3150 H     1 <1>   0.0800 
 47 H       16.6470     6.0370     2.0220 H     1 <1>   0.0800 
 48 H       17.3540     5.8320    -1.6630 H     1 <1>   0.0800 
 49 H       16.9740     4.1340    -1.8020 H     1 <1>   0.0800 
 50 H       18.4150     4.6380    -0.9500 H     1 <1>   0.0800 
@<TRIPOS>BOND
  1   1   2  1   
  2   2   3  ar  
  3   2   4  ar  
  4   3   5  ar  
  5   3  28  1   
  6   4   6  ar  
  7   4  29  1   
  8   5   7  ar  
  9   5   8  1   
 10   6   7  ar  
 11   6  30  1   
 12   7   9  1   
 13   8  31  1   
 14   8  32  1   
 15   8  33  1   
 16   9  10  1   
 17  10  11  1   
 18  10  34  1   
 19  10  35  1   
 20  11  12  2   
 21  11  13  am  
 22  13  14  1   
 23  13  36  1   
 24  14  15  ar  
 25  14  16  ar  
 26  15  17  ar  
 27  15  37  1   
 28  16  18  ar  
 29  16  38  1   
 30  17  19  1   
 31  17  20  ar  
 32  18  20  ar  
 33  18  39  1   
 34  19  21  1   
 35  20  22  1   
 36  21  40  1   
 37  21  41  1   
 38  21  42  1   
 39  22  23  am  
 40  22  43  1   
 41  23  24  2   
 42  23  25  1   
 43  25  26  1   
 44  25  27  1   
 45  25  44  1   
 46  26  45  1   
 47  26  46  1   
 48  26  47  1   
 49  27  48  1   
 50  27  49  1   
 51  27  50  1   
@<TRIPOS>SUBSTRUCTURE
  1 ****  14 GROUP 4 **** **** 0

# MOE 2024.06 (io_trps.svl 2023.06)
