@<TRIPOS>MOLECULE
NONAME
49 51 1 0 0 
SMALL
USER_CHARGES


@<TRIPOS>ATOM
  1 S       -0.3430    -1.6610    -0.1640 S.o2  1 <1>   1.4470 
  2 O       -1.0790    -1.7230    -1.4040 O.2   1 <1>  -0.6500 
  3 O        0.0660    -2.8790     0.4940 O.2   1 <1>  -0.6500 
  4 N       -1.4010    -0.9240     0.9650 N.am  1 <1>  -0.7570 
  5 C        1.0310    -0.4850    -0.2650 C.ar  1 <1>  -0.0090 
  6 C       -2.0010     0.3030     0.7290 C.ar  1 <1>   0.1990 
  7 C        0.9560     0.6310    -1.0910 C.ar  1 <1>  -0.1500 
  8 C        2.1790    -0.6420     0.5030 C.ar  1 <1>  -0.1500 
  9 C       -1.5410     1.4710     1.3420 C.ar  1 <1>  -0.1440 
 10 C       -3.0840     0.3750    -0.1400 C.ar  1 <1>  -0.1500 
 11 C        1.9850     1.5530    -1.1490 C.ar  1 <1>  -0.1500 
 12 C        3.2100     0.2790     0.4480 C.ar  1 <1>  -0.1500 
 13 C       -2.1650     2.6780     1.0680 C.ar  1 <1>  -0.1500 
 14 C       -0.3640     1.4630     2.3110 C.3   1 <1>  -0.0970 
 15 C       -3.7020     1.5820    -0.4050 C.ar  1 <1>  -0.1500 
 16 C        3.1280     1.3950    -0.3760 C.ar  1 <1>   0.1170 
 17 C       -3.2410     2.7370     0.2000 C.ar  1 <1>  -0.1500 
 18 N        4.1510     2.3450    -0.4650 N.am  1 <1>  -0.5470 
 19 C        5.0890     2.7350     0.4490 C.2   1 <1>   0.6900 
 20 O        5.0360     2.3460     1.6010 O.2   1 <1>  -0.5700 
 21 N        6.0750     3.6030     0.0550 N.am  1 <1>  -0.6600 
 22 C        6.9370     4.2460     1.0930 C.3   1 <1>   0.1400 
 23 C        6.4620     3.8090    -1.3740 C.3   1 <1>   0.1400 
 24 C        7.5640     5.5360     0.5520 C.3   1 <1>  -0.1600 
 25 C        7.9690     4.0570    -1.4980 C.3   1 <1>  -0.1600 
 26 C        8.4280     5.2880    -0.6970 C.3   1 <1>  -0.1600 
 27 H       -2.0150    -1.6480     1.3200 H     1 <1>   0.4200 
 28 H        0.0740     0.7800    -1.6930 H     1 <1>   0.1500 
 29 H        2.2680    -1.4950     1.1560 H     1 <1>   0.1500 
 30 H       -3.4380    -0.5210    -0.6180 H     1 <1>   0.1500 
 31 H        1.8940     2.4070    -1.7950 H     1 <1>   0.1500 
 32 H        4.0870     0.1270     1.0530 H     1 <1>   0.1500 
 33 H       -1.8160     3.5840     1.5320 H     1 <1>   0.1500 
 34 H       -0.3460     0.5550     2.8870 H     1 <1>   0.0800 
 35 H       -0.4320     2.2880     2.9970 H     1 <1>   0.0800 
 36 H        0.5600     1.5480     1.7690 H     1 <1>   0.0800 
 37 H       -4.5370     1.6240    -1.0820 H     1 <1>   0.1500 
 38 H       -3.7190     3.6790    -0.0040 H     1 <1>   0.1500 
 39 H        4.1400     2.9380    -1.2860 H     1 <1>   0.3700 
 40 H        7.7090     3.5540     1.3830 H     1 <1>   0.0800 
 41 H        6.3450     4.4710     1.9640 H     1 <1>   0.0800 
 42 H        5.9260     4.6580    -1.7640 H     1 <1>   0.0800 
 43 H        6.2040     2.9400    -1.9540 H     1 <1>   0.0800 
 44 H        8.1610     5.9950     1.3190 H     1 <1>   0.0800 
 45 H        6.7670     6.2190     0.3120 H     1 <1>   0.0800 
 46 H        8.2340     4.1810    -2.5330 H     1 <1>   0.0800 
 47 H        8.4830     3.1820    -1.1380 H     1 <1>   0.0800 
 48 H        9.4540     5.1440    -0.4050 H     1 <1>   0.0800 
 49 H        8.3890     6.1640    -1.3220 H     1 <1>   0.0800 
@<TRIPOS>BOND
  1   1   2  2   
  2   1   3  2   
  3   1   4  am  
  4   1   5  1   
  5   4   6  1   
  6   4  27  1   
  7   5   7  ar  
  8   5   8  ar  
  9   6   9  ar  
 10   6  10  ar  
 11   7  11  ar  
 12   7  28  1   
 13   8  12  ar  
 14   8  29  1   
 15   9  13  ar  
 16   9  14  1   
 17  10  15  ar  
 18  10  30  1   
 19  11  16  ar  
 20  11  31  1   
 21  12  16  ar  
 22  12  32  1   
 23  13  17  ar  
 24  13  33  1   
 25  14  34  1   
 26  14  35  1   
 27  14  36  1   
 28  15  17  ar  
 29  15  37  1   
 30  16  18  1   
 31  17  38  1   
 32  18  19  am  
 33  18  39  1   
 34  19  20  2   
 35  19  21  am  
 36  21  22  1   
 37  21  23  1   
 38  22  24  1   
 39  22  40  1   
 40  22  41  1   
 41  23  25  1   
 42  23  42  1   
 43  23  43  1   
 44  24  26  1   
 45  24  44  1   
 46  24  45  1   
 47  25  26  1   
 48  25  46  1   
 49  25  47  1   
 50  26  48  1   
 51  26  49  1   
@<TRIPOS>SUBSTRUCTURE
  1 ****  11 GROUP 4 **** **** 0

# MOE 2024.06 (io_trps.svl 2023.06)
