@<TRIPOS>MOLECULE
NONAME
53 56 1 0 0 
SMALL
USER_CHARGES


@<TRIPOS>ATOM
  1 O       -1.5490    -0.1040     0.1650 O.2   1 <1>  -0.5700 
  2 C       -1.7870    -0.9420    -0.6830 C.2   1 <1>   0.6900 
  3 N       -2.8070    -0.7130    -1.5560 N.am  1 <1>  -0.6600 
  4 N       -1.1370    -2.1330    -0.7690 N.am  1 <1>  -0.5470 
  5 C       -4.1340    -1.2560    -1.1660 C.3   1 <1>   0.1400 
  6 C       -2.9010     0.6510    -2.1480 C.3   1 <1>   0.1400 
  7 C       -0.1880    -2.7550     0.0570 C.ar  1 <1>   0.1170 
  8 C       -4.8340    -0.2920    -0.1850 C.3   1 <1>   0.3430 
  9 C       -3.6170     1.6180    -1.1820 C.3   1 <1>   0.3430 
 10 C       -0.0680    -4.1750     0.0180 C.ar  1 <1>   0.0000 
 11 C        0.6360    -2.0280     0.8870 C.ar  1 <1>  -0.1500 
 12 N       -4.9720     1.1120    -0.7340 N.4   1 <1>  -0.9590 
 13 C        0.9030    -4.8000     0.8360 C.ar  1 <1>   0.0000 
 14 C       -0.8740    -5.0110    -0.7910 C.ar  1 <1>  -0.1500 
 15 C        1.5860    -2.6500     1.6950 C.ar  1 <1>  -0.1500 
 16 C       -5.6180     2.0420     0.2490 C.3   1 <1>   0.4230 
 17 C        1.7160    -4.0090     1.6680 C.ar  1 <1>  -0.1500 
 18 C        1.0350    -6.2030     0.8030 C.ar  1 <1>  -0.1500 
 19 C       -0.7250    -6.3710    -0.8030 C.ar  1 <1>  -0.1500 
 20 C       -6.9990     1.5010     0.6700 C.3   1 <1>  -0.1600 
 21 C       -5.7670     3.4480    -0.3660 C.3   1 <1>  -0.1600 
 22 C        0.2420    -6.9750     0.0030 C.ar  1 <1>  -0.1500 
 23 C       -7.7460     2.4710     1.5970 C.3   1 <1>  -0.1600 
 24 C       -6.5170     4.4130     0.5630 C.3   1 <1>  -0.1600 
 25 C       -7.8870     3.8540     0.9570 C.3   1 <1>  -0.1600 
 26 H       -1.4150    -2.6740    -1.5810 H     1 <1>   0.3700 
 27 H       -4.0060    -2.2140    -0.6880 H     1 <1>   0.0800 
 28 H       -4.7400    -1.4030    -2.0430 H     1 <1>   0.0800 
 29 H       -3.4260     0.6040    -3.0860 H     1 <1>   0.0800 
 30 H       -1.9080     1.0220    -2.3450 H     1 <1>   0.0800 
 31 H       -4.2590    -0.2640     0.7270 H     1 <1>   0.0800 
 32 H       -5.8050    -0.6950     0.0490 H     1 <1>   0.0800 
 33 H       -3.7190     2.5710    -1.6730 H     1 <1>   0.0800 
 34 H       -2.9840     1.7590    -0.3200 H     1 <1>   0.0800 
 35 H        0.5750    -0.9560     0.9270 H     1 <1>   0.1500 
 36 H       -5.5840     1.0750    -1.5570 H     1 <1>   0.4500 
 37 H       -1.6290    -4.5770    -1.4160 H     1 <1>   0.1500 
 38 H        2.2100    -2.0470     2.3320 H     1 <1>   0.1500 
 39 H       -4.9980     2.1190     1.1290 H     1 <1>   0.0800 
 40 H        2.4480    -4.4960     2.2880 H     1 <1>   0.1500 
 41 H        1.7810    -6.6620     1.4280 H     1 <1>   0.1500 
 42 H       -1.3460    -6.9920    -1.4260 H     1 <1>   0.1500 
 43 H       -6.8980     0.5760     1.2070 H     1 <1>   0.0800 
 44 H       -7.6050     1.3310    -0.2030 H     1 <1>   0.0800 
 45 H       -6.3060     3.3830    -1.2950 H     1 <1>   0.0800 
 46 H       -4.8040     3.8860    -0.5550 H     1 <1>   0.0800 
 47 H        0.3480    -8.0460    -0.0170 H     1 <1>   0.1500 
 48 H       -7.2150     2.5640     2.5300 H     1 <1>   0.0800 
 49 H       -8.7250     2.0800     1.8180 H     1 <1>   0.0800 
 50 H       -6.6490     5.3630     0.0710 H     1 <1>   0.0800 
 51 H       -5.9350     4.5870     1.4530 H     1 <1>   0.0800 
 52 H       -8.3630     4.5260     1.6520 H     1 <1>   0.0800 
 53 H       -8.5170     3.7890     0.0860 H     1 <1>   0.0800 
@<TRIPOS>BOND
  1   1   2  2   
  2   2   3  am  
  3   2   4  am  
  4   3   5  1   
  5   3   6  1   
  6   4   7  1   
  7   4  26  1   
  8   5   8  1   
  9   5  27  1   
 10   5  28  1   
 11   6   9  1   
 12   6  29  1   
 13   6  30  1   
 14   7  10  ar  
 15   7  11  ar  
 16   8  12  1   
 17   8  31  1   
 18   8  32  1   
 19   9  12  1   
 20   9  33  1   
 21   9  34  1   
 22  10  13  ar  
 23  10  14  ar  
 24  11  15  ar  
 25  11  35  1   
 26  12  16  1   
 27  12  36  1   
 28  13  17  ar  
 29  13  18  ar  
 30  14  19  ar  
 31  14  37  1   
 32  15  17  ar  
 33  15  38  1   
 34  16  20  1   
 35  16  21  1   
 36  16  39  1   
 37  17  40  1   
 38  18  22  ar  
 39  18  41  1   
 40  19  22  ar  
 41  19  42  1   
 42  20  23  1   
 43  20  43  1   
 44  20  44  1   
 45  21  24  1   
 46  21  45  1   
 47  21  46  1   
 48  22  47  1   
 49  23  25  1   
 50  23  48  1   
 51  23  49  1   
 52  24  25  1   
 53  24  50  1   
 54  24  51  1   
 55  25  52  1   
 56  25  53  1   
@<TRIPOS>SUBSTRUCTURE
  1 ****   2 GROUP 4 **** **** 0

# MOE 2024.06 (io_trps.svl 2023.06)
