@<TRIPOS>MOLECULE
NONAME
25 25 1 0 0 
SMALL
USER_CHARGES


@<TRIPOS>ATOM
  1 O        0.9670    -2.0610    -0.6750 O.2   1 <1>  -0.5700 
  2 C        1.5280    -3.1130    -0.6140 C.2   1 <1>   0.4480 
  3 C        0.8940    -4.3720    -0.0600 C.3   1 <1>   0.0420 
  4 C        2.9490    -3.2640    -1.1180 C.3   1 <1>  -0.0990 
  5 C       -0.4350    -4.0560     0.5880 C.2   1 <1>   0.6590 
  6 C        1.8590    -5.0440     0.9250 C.3   1 <1>   0.1100 
  7 C        3.8120    -3.9810    -0.0810 C.3   1 <1>   0.1100 
  8 O       -0.5540    -3.8990     1.7770 O.2   1 <1>  -0.5700 
  9 O       -1.4770    -4.0080    -0.2340 O.3   1 <1>  -0.4300 
 10 N        3.1800    -5.2410     0.3110 N.3   1 <1>  -0.9000 
 11 C       -2.7660    -3.6900     0.2340 C.3   1 <1>   0.1200 
 12 C       -3.7200    -3.7150    -0.9560 C.3   1 <1>  -0.2400 
 13 H        0.7090    -5.0470    -0.8730 H     1 <1>   0.0800 
 14 H        3.3610    -2.2910    -1.3160 H     1 <1>   0.0800 
 15 H        2.9460    -3.8180    -2.0380 H     1 <1>   0.0800 
 16 H        1.4620    -5.9960     1.2360 H     1 <1>   0.0800 
 17 H        1.9700    -4.4310     1.8060 H     1 <1>   0.0800 
 18 H        3.9330    -3.3570     0.7910 H     1 <1>   0.0800 
 19 H        4.7900    -4.1800    -0.4860 H     1 <1>   0.0800 
 20 H        3.1150    -5.8740    -0.4980 H     1 <1>   0.3600 
 21 H       -2.7320    -2.7110     0.6820 H     1 <1>   0.0800 
 22 H       -3.0510    -4.4180     0.9750 H     1 <1>   0.0800 
 23 H       -3.4130    -2.9900    -1.6900 H     1 <1>   0.0800 
 24 H       -4.7140    -3.4710    -0.6290 H     1 <1>   0.0800 
 25 H       -3.7350    -4.6940    -1.4000 H     1 <1>   0.0800 
@<TRIPOS>BOND
  1   1   2  2   
  2   2   3  1   
  3   2   4  1   
  4   3   5  1   
  5   3   6  1   
  6   3  13  1   
  7   4   7  1   
  8   4  14  1   
  9   4  15  1   
 10   5   8  2   
 11   5   9  1   
 12   6  10  1   
 13   6  16  1   
 14   6  17  1   
 15   7  10  1   
 16   7  18  1   
 17   7  19  1   
 18   9  11  1   
 19  10  20  1   
 20  11  12  1   
 21  11  21  1   
 22  11  22  1   
 23  12  23  1   
 24  12  24  1   
 25  12  25  1   
@<TRIPOS>SUBSTRUCTURE
  1 ****   3 GROUP 4 **** **** 0

# MOE 2024.06 (io_trps.svl 2023.06)
