@<TRIPOS>MOLECULE
NONAME
44 46 1 0 0 
SMALL
USER_CHARGES


@<TRIPOS>ATOM
  1 N       -0.0950    -0.2580    -0.8930 N.pl3 1 <1>   0.0330 
  2 C       -0.8020    -1.3500    -0.4670 C.ar  1 <1>  -0.1520 
  3 C        1.2370    -0.5290    -0.7520 C.2   1 <1>  -0.3020 
  4 C        0.1020    -2.3220    -0.0510 C.ar  1 <1>   0.0000 
  5 C       -2.1790    -1.5740    -0.4090 C.ar  1 <1>  -0.1500 
  6 C        1.3920    -1.7770    -0.2420 C.2   1 <1>  -0.1810 
  7 C       -0.3790    -3.5450     0.4330 C.ar  1 <1>  -0.1500 
  8 C       -2.6370    -2.7800     0.0690 C.ar  1 <1>  -0.1500 
  9 C        2.6570    -2.5390     0.0970 C.3   1 <1>   0.0210 
 10 C       -1.7360    -3.7650     0.4900 C.ar  1 <1>  -0.1500 
 11 C        3.8930    -1.6960    -0.2100 C.3   1 <1>   0.3430 
 12 N        5.1440    -2.4370     0.1240 N.4   1 <1>  -0.9060 
 13 C        6.3730    -1.6800    -0.1820 C.3   1 <1>   0.4230 
 14 C        7.5640    -2.6540    -0.1710 C.3   1 <1>  -0.1600 
 15 C        6.5690    -0.5410     0.8250 C.3   1 <1>  -0.1600 
 16 C        8.9040    -1.9830     0.1980 C.3   1 <1>  -0.0800 
 17 C        7.8120     0.2990     0.4740 C.3   1 <1>  -0.1600 
 18 C        8.9180    -0.5090    -0.2300 C.3   1 <1>  -0.1600 
 19 C       10.0830    -2.7430    -0.4200 C.3   1 <1>  -0.2400 
 20 H       -0.5160     0.6060    -1.2530 H     1 <1>   0.2700 
 21 H        1.9730     0.2040    -1.0310 H     1 <1>   0.1500 
 22 H       -2.8650    -0.8120    -0.7340 H     1 <1>   0.1500 
 23 H        0.3120    -4.3000     0.7550 H     1 <1>   0.1500 
 24 H       -3.6930    -2.9780     0.1240 H     1 <1>   0.1500 
 25 H        2.6720    -3.4440    -0.4840 H     1 <1>   0.0800 
 26 H        2.6310    -2.7890     1.1420 H     1 <1>   0.0800 
 27 H       -2.1210    -4.7000     0.8600 H     1 <1>   0.1500 
 28 H        3.8380    -0.7840     0.3610 H     1 <1>   0.0800 
 29 H        3.8860    -1.4380    -1.2570 H     1 <1>   0.0800 
 30 H        5.1700    -3.3170    -0.4040 H     1 <1>   0.4500 
 31 H        5.1560    -2.6810     1.1210 H     1 <1>   0.4500 
 32 H        6.3000    -1.2490    -1.1690 H     1 <1>   0.0800 
 33 H        7.6420    -3.0820    -1.1550 H     1 <1>   0.0800 
 34 H        7.4010    -3.4550     0.5290 H     1 <1>   0.0800 
 35 H        6.7040    -0.9570     1.8090 H     1 <1>   0.0800 
 36 H        5.7160     0.1140     0.8500 H     1 <1>   0.0800 
 37 H        9.0230    -2.0130     1.2700 H     1 <1>   0.0800 
 38 H        8.2060     0.7250     1.3820 H     1 <1>   0.0800 
 39 H        7.5320     1.1220    -0.1630 H     1 <1>   0.0800 
 40 H        8.7870    -0.4480    -1.2970 H     1 <1>   0.0800 
 41 H        9.8740    -0.0670    -0.0020 H     1 <1>   0.0800 
 42 H       10.0400    -2.7160    -1.4950 H     1 <1>   0.0800 
 43 H       10.0770    -3.7710    -0.1010 H     1 <1>   0.0800 
 44 H       11.0140    -2.3030    -0.1090 H     1 <1>   0.0800 
@<TRIPOS>BOND
  1   1   2  1   
  2   1   3  1   
  3   1  20  1   
  4   2   4  ar  
  5   2   5  ar  
  6   3   6  2   
  7   3  21  1   
  8   4   6  1   
  9   4   7  ar  
 10   5   8  ar  
 11   5  22  1   
 12   6   9  1   
 13   7  10  ar  
 14   7  23  1   
 15   8  10  ar  
 16   8  24  1   
 17   9  11  1   
 18   9  25  1   
 19   9  26  1   
 20  10  27  1   
 21  11  12  1   
 22  11  28  1   
 23  11  29  1   
 24  12  13  1   
 25  12  30  1   
 26  12  31  1   
 27  13  14  1   
 28  13  15  1   
 29  13  32  1   
 30  14  16  1   
 31  14  33  1   
 32  14  34  1   
 33  15  17  1   
 34  15  35  1   
 35  15  36  1   
 36  16  18  1   
 37  16  19  1   
 38  16  37  1   
 39  17  18  1   
 40  17  38  1   
 41  17  39  1   
 42  18  40  1   
 43  18  41  1   
 44  19  42  1   
 45  19  43  1   
 46  19  44  1   
@<TRIPOS>SUBSTRUCTURE
  1 ****  11 GROUP 4 **** **** 0

# MOE 2024.06 (io_trps.svl 2023.06)
