@<TRIPOS>MOLECULE
NONAME
27 28 1 0 0 
SMALL
USER_CHARGES


@<TRIPOS>ATOM
  1 CL       0.5090    -0.5510    -1.3960 Cl    1 <1>  -0.1770 
  2 C        2.0860    -1.1320    -0.9240 C.ar  1 <1>   0.1770 
  3 C        2.2360    -1.7700     0.2930 C.ar  1 <1>  -0.1500 
  4 C        3.1590    -0.9450    -1.7740 C.ar  1 <1>  -0.1500 
  5 C        3.4860    -2.2320     0.6710 C.ar  1 <1>  -0.1500 
  6 C        4.4080    -1.4080    -1.3950 C.ar  1 <1>  -0.1500 
  7 C        4.5790    -2.0510    -0.1770 C.ar  1 <1>   0.0830 
  8 O        5.8350    -2.4710     0.1140 O.3   1 <1>  -0.3630 
  9 C        6.1230    -3.1420     1.3370 C.3   1 <1>   0.1810 
 10 C        7.5960    -3.5150     1.4370 C.2   1 <1>   0.5690 
 11 O        7.9730    -4.0910     2.4310 O.2   1 <1>  -0.5700 
 12 N        8.4340    -3.1920     0.4160 N.am  1 <1>  -0.5790 
 13 C        9.8740    -3.4740     0.3480 C.3   1 <1>   0.0490 
 14 C       10.7520    -2.4770    -0.3310 C.3   1 <1>  -0.2000 
 15 C       10.4630    -3.7950    -0.9850 C.3   1 <1>  -0.2000 
 16 H        1.3810    -1.9010     0.9330 H     1 <1>   0.1500 
 17 H        3.0160    -0.4450    -2.7160 H     1 <1>   0.1500 
 18 H        3.5830    -2.7250     1.6200 H     1 <1>   0.1500 
 19 H        5.2550    -1.2710    -2.0430 H     1 <1>   0.1500 
 20 H        5.5300    -4.0360     1.3830 H     1 <1>   0.0800 
 21 H        5.8690    -2.4890     2.1520 H     1 <1>   0.0800 
 22 H        8.0340    -2.7050    -0.3890 H     1 <1>   0.3700 
 23 H       10.2490    -3.9890     1.2190 H     1 <1>   0.1000 
 24 H       11.7390    -2.3100     0.0620 H     1 <1>   0.1000 
 25 H       10.3090    -1.5830    -0.7330 H     1 <1>   0.1000 
 26 H        9.8170    -3.8240    -1.8450 H     1 <1>   0.1000 
 27 H       11.2540    -4.5230    -1.0360 H     1 <1>   0.1000 
@<TRIPOS>BOND
  1   1   2  1   
  2   2   3  ar  
  3   2   4  ar  
  4   3   5  ar  
  5   3  16  1   
  6   4   6  ar  
  7   4  17  1   
  8   5   7  ar  
  9   5  18  1   
 10   6   7  ar  
 11   6  19  1   
 12   7   8  1   
 13   8   9  1   
 14   9  10  1   
 15   9  20  1   
 16   9  21  1   
 17  10  11  2   
 18  10  12  am  
 19  12  13  1   
 20  12  22  1   
 21  13  14  1   
 22  13  15  1   
 23  13  23  1   
 24  14  15  1   
 25  14  24  1   
 26  14  25  1   
 27  15  26  1   
 28  15  27  1   
@<TRIPOS>SUBSTRUCTURE
  1 ****   8 GROUP 4 **** **** 0

# MOE 2024.06 (io_trps.svl 2023.06)
