@<TRIPOS>MOLECULE
NONAME
39 41 1 0 0 
SMALL
USER_CHARGES


@<TRIPOS>ATOM
  1 S       -1.9020     1.6320     2.0490 S.3   1 <1>  -0.0800 
  2 C       -2.2420     1.0590     0.4220 C.2   1 <1>  -0.1400 
  3 C       -0.2350     1.9710     1.6310 C.2   1 <1>  -0.1100 
  4 C       -1.1360     1.1300    -0.3470 C.2   1 <1>  -0.1810 
  5 C       -3.6510     0.5820     0.1510 C.3   1 <1>   0.5230 
  6 C        0.0030     1.6540     0.3460 C.2   1 <1>  -0.1500 
  7 C       -0.9910     0.7180    -1.8020 C.3   1 <1>  -0.0590 
  8 N       -4.4390     1.7160    -0.3960 N.4   1 <1>  -0.9590 
  9 C       -4.7200     2.7480     0.6720 C.3   1 <1>   0.3430 
 10 C       -5.7250     1.2340    -1.0170 C.3   1 <1>   0.3430 
 11 C       -5.6010     3.9120     0.1670 C.3   1 <1>   0.2090 
 12 C       -6.6110     2.3870    -1.5380 C.3   1 <1>   0.2090 
 13 N       -6.8500     3.4120    -0.4810 N.pl3 1 <1>  -0.8380 
 14 C       -7.8910     3.1400     0.3820 C.ar  1 <1>   0.4100 
 15 N       -7.7300     2.0920     1.1840 N.ar  1 <1>  -0.6200 
 16 C       -9.0220     3.9490     0.3780 C.ar  1 <1>  -0.1500 
 17 C       -8.7400     1.8500     2.0080 C.ar  1 <1>   0.1600 
 18 C      -10.0590     3.6820     1.2390 C.ar  1 <1>  -0.1500 
 19 C       -9.9030     2.5960     2.0770 C.ar  1 <1>  -0.1500 
 20 H        0.4000     2.3750     2.4000 H     1 <1>   0.1500 
 21 H       -4.1000     0.2030     1.0550 H     1 <1>   0.0800 
 22 H       -3.6120    -0.2150    -0.5730 H     1 <1>   0.0800 
 23 H        0.9530     1.7680    -0.1490 H     1 <1>   0.1500 
 24 H       -1.9130     0.3330    -2.1950 H     1 <1>   0.0800 
 25 H       -0.2380    -0.0470    -1.8890 H     1 <1>   0.0800 
 26 H       -0.6870     1.5630    -2.3940 H     1 <1>   0.0800 
 27 H       -3.8580     2.1670    -1.1120 H     1 <1>   0.4500 
 28 H       -3.7950     3.1540     1.0450 H     1 <1>   0.0800 
 29 H       -5.2320     2.2810     1.4970 H     1 <1>   0.0800 
 30 H       -6.2960     0.6920    -0.2800 H     1 <1>   0.0800 
 31 H       -5.5130     0.5610    -1.8310 H     1 <1>   0.0800 
 32 H       -5.0500     4.5130    -0.5350 H     1 <1>   0.0800 
 33 H       -5.8610     4.5420     1.0010 H     1 <1>   0.0800 
 34 H       -7.5570     1.9860    -1.8620 H     1 <1>   0.0800 
 35 H       -6.1470     2.8550    -2.3890 H     1 <1>   0.0800 
 36 H       -9.0660     4.7760    -0.3050 H     1 <1>   0.1500 
 37 H       -8.6380     1.0070     2.6710 H     1 <1>   0.1500 
 38 H      -10.9490     4.2880     1.2610 H     1 <1>   0.1500 
 39 H      -10.6770     2.3330     2.7750 H     1 <1>   0.1500 
@<TRIPOS>BOND
  1   1   2  1   
  2   1   3  1   
  3   2   4  2   
  4   2   5  1   
  5   3   6  2   
  6   3  20  1   
  7   4   6  1   
  8   4   7  1   
  9   5   8  1   
 10   5  21  1   
 11   5  22  1   
 12   6  23  1   
 13   7  24  1   
 14   7  25  1   
 15   7  26  1   
 16   8   9  1   
 17   8  10  1   
 18   8  27  1   
 19   9  11  1   
 20   9  28  1   
 21   9  29  1   
 22  10  12  1   
 23  10  30  1   
 24  10  31  1   
 25  11  13  1   
 26  11  32  1   
 27  11  33  1   
 28  12  13  1   
 29  12  34  1   
 30  12  35  1   
 31  13  14  1   
 32  14  15  ar  
 33  14  16  ar  
 34  15  17  ar  
 35  16  18  ar  
 36  16  36  1   
 37  17  19  ar  
 38  17  37  1   
 39  18  19  ar  
 40  18  38  1   
 41  19  39  1   
@<TRIPOS>SUBSTRUCTURE
  1 ****   9 GROUP 4 **** **** 0

# MOE 2024.06 (io_trps.svl 2023.06)
