@<TRIPOS>MOLECULE
NONAME
35 36 1 0 0 
SMALL
USER_CHARGES


@<TRIPOS>ATOM
  1 O       -0.5500    -0.5450    -2.0070 O.2   1 <1>  -0.5700 
  2 C       -0.4380    -1.4370    -1.1900 C.2   1 <1>   0.5440 
  3 N        0.7280    -1.5360    -0.4850 N.am  1 <1>  -0.7300 
  4 C       -1.5300    -2.3680    -0.9550 C.ar  1 <1>   0.0860 
  5 C        1.9070    -0.6670    -0.6400 C.3   1 <1>   0.2200 
  6 C       -2.8440    -2.0200    -1.2700 C.ar  1 <1>  -0.1500 
  7 C       -1.3200    -3.6400    -0.4120 C.ar  1 <1>  -0.1500 
  8 C        3.1350    -1.5440    -0.8530 C.3   1 <1>  -0.1600 
  9 C        2.1910     0.0150     0.6920 C.3   1 <1>  -0.1600 
 10 C       -3.8960    -2.8870    -1.0360 C.ar  1 <1>   0.0830 
 11 C       -2.3670    -4.5160    -0.1850 C.ar  1 <1>  -0.1500 
 12 C        3.5580    -2.0160     0.5430 C.3   1 <1>  -0.1600 
 13 C        2.9560    -1.0120     1.5350 C.3   1 <1>  -0.1600 
 14 O       -5.1510    -2.4950    -1.3560 O.3   1 <1>  -0.2320 
 15 C       -3.6610    -4.1430    -0.4980 C.ar  1 <1>  -0.1500 
 16 C       -6.1780    -2.4950    -0.5090 C.2   1 <1>   0.6590 
 17 O       -7.3040    -2.6160    -0.9070 O.2   1 <1>  -0.5700 
 18 C       -5.9040    -2.2890     0.9670 C.3   1 <1>  -0.1790 
 19 H        0.8110    -2.2080     0.2740 H     1 <1>   0.3700 
 20 H        1.7650     0.0400    -1.4420 H     1 <1>   0.0800 
 21 H       -3.0420    -1.0550    -1.7050 H     1 <1>   0.1500 
 22 H       -0.3210    -3.9570    -0.1740 H     1 <1>   0.1500 
 23 H        3.9180    -0.9330    -1.2670 H     1 <1>   0.0800 
 24 H        2.9410    -2.3570    -1.5300 H     1 <1>   0.0800 
 25 H        1.2920     0.3630     1.1700 H     1 <1>   0.0800 
 26 H        2.8290     0.8610     0.5090 H     1 <1>   0.0800 
 27 H       -2.1750    -5.4920     0.2290 H     1 <1>   0.1500 
 28 H        4.6310    -2.0550     0.6250 H     1 <1>   0.0800 
 29 H        3.1600    -2.9980     0.7340 H     1 <1>   0.0800 
 30 H        2.2790    -1.5190     2.2000 H     1 <1>   0.0800 
 31 H        3.7210    -0.5310     2.1210 H     1 <1>   0.0800 
 32 H       -4.4760    -4.8270    -0.3360 H     1 <1>   0.1500 
 33 H       -5.2020    -1.4880     1.1020 H     1 <1>   0.0800 
 34 H       -5.5120    -3.1890     1.4000 H     1 <1>   0.0800 
 35 H       -6.8200    -2.0360     1.4680 H     1 <1>   0.0800 
@<TRIPOS>BOND
  1   1   2  2   
  2   2   3  am  
  3   2   4  1   
  4   3   5  1   
  5   3  19  1   
  6   4   6  ar  
  7   4   7  ar  
  8   5   8  1   
  9   5   9  1   
 10   5  20  1   
 11   6  10  ar  
 12   6  21  1   
 13   7  11  ar  
 14   7  22  1   
 15   8  12  1   
 16   8  23  1   
 17   8  24  1   
 18   9  13  1   
 19   9  25  1   
 20   9  26  1   
 21  10  14  1   
 22  10  15  ar  
 23  11  15  ar  
 24  11  27  1   
 25  12  13  1   
 26  12  28  1   
 27  12  29  1   
 28  13  30  1   
 29  13  31  1   
 30  14  16  1   
 31  15  32  1   
 32  16  17  2   
 33  16  18  1   
 34  18  33  1   
 35  18  34  1   
 36  18  35  1   
@<TRIPOS>SUBSTRUCTURE
  1 ****   4 GROUP 4 **** **** 0

# MOE 2024.06 (io_trps.svl 2023.06)
