@<TRIPOS>MOLECULE
NONAME
30 30 1 0 0 
SMALL
USER_CHARGES


@<TRIPOS>ATOM
  1 O        1.2250     0.3910    -1.2300 O.2   1 <1>  -0.5700 
  2 C        2.2640     0.2210    -0.6170 C.2   1 <1>   0.8060 
  3 O        2.9170     1.3060    -0.1750 O.3   1 <1>  -0.4300 
  4 C        2.8280    -1.0850    -0.3300 C.2   1 <1>  -0.0860 
  5 C        2.4500     2.6240    -0.3620 C.3   1 <1>   0.1200 
  6 C        2.1850    -2.2940    -0.1660 C.2   1 <1>  -0.3320 
  7 C        4.1970    -1.3840    -0.1590 C.2   1 <1>  -0.1810 
  8 C        1.4730     2.9670     0.7610 C.3   1 <1>  -0.2400 
  9 N        3.0870    -3.2740     0.0910 N.pl3 1 <1>   0.0480 
 10 C        0.6880    -2.5670    -0.2390 C.3   1 <1>  -0.0600 
 11 C        4.3410    -2.7220     0.1040 C.2   1 <1>  -0.3840 
 12 C        5.3390    -0.3860    -0.2680 C.3   1 <1>  -0.0590 
 13 C        2.7960    -4.7040     0.3340 C.3   1 <1>   0.0160 
 14 C        5.5430    -3.4970     0.3690 C.2   1 <1>   1.0320 
 15 O        6.5230    -2.9860     0.9410 O.co2 1 <1>  -0.9000 
 16 O        5.6180    -4.6980     0.0450 O.co2 1 <1>  -0.9000 
 17 H        1.9880     2.7060    -1.3320 H     1 <1>   0.0800 
 18 H        3.3050     3.2760    -0.3260 H     1 <1>   0.0800 
 19 H        0.6120     2.3230     0.7140 H     1 <1>   0.0800 
 20 H        1.1420     3.9840     0.6550 H     1 <1>   0.0800 
 21 H        1.9530     2.8570     1.7160 H     1 <1>   0.0800 
 22 H        0.1280    -1.6670    -0.4080 H     1 <1>   0.0800 
 23 H        0.3480    -2.9980     0.6850 H     1 <1>   0.0800 
 24 H        0.4820    -3.2480    -1.0440 H     1 <1>   0.0800 
 25 H        5.2010     0.2470    -1.1240 H     1 <1>   0.0800 
 26 H        6.2800    -0.8920    -0.3780 H     1 <1>   0.0800 
 27 H        5.3780     0.2150     0.6220 H     1 <1>   0.0800 
 28 H        1.7430    -4.8690     0.4420 H     1 <1>   0.0800 
 29 H        3.3020    -5.0150     1.2290 H     1 <1>   0.0800 
 30 H        3.1710    -5.2770    -0.4940 H     1 <1>   0.0800 
@<TRIPOS>BOND
  1   1   2  2   
  2   2   3  1   
  3   2   4  1   
  4   3   5  1   
  5   4   6  2   
  6   4   7  1   
  7   5   8  1   
  8   5  17  1   
  9   5  18  1   
 10   6   9  1   
 11   6  10  1   
 12   7  11  2   
 13   7  12  1   
 14   8  19  1   
 15   8  20  1   
 16   8  21  1   
 17   9  11  1   
 18   9  13  1   
 19  10  22  1   
 20  10  23  1   
 21  10  24  1   
 22  11  14  1   
 23  12  25  1   
 24  12  26  1   
 25  12  27  1   
 26  13  28  1   
 27  13  29  1   
 28  13  30  1   
 29  14  15  ar  
 30  14  16  ar  
@<TRIPOS>SUBSTRUCTURE
  1 ****   4 GROUP 4 **** **** 0

# MOE 2024.06 (io_trps.svl 2023.06)
