@<TRIPOS>MOLECULE
NONAME
39 40 1 0 0 
SMALL
USER_CHARGES


@<TRIPOS>ATOM
  1 S       -0.0870     0.0690     0.1110 S.o2  1 <1>   1.4240 
  2 O       -0.1120     0.9800    -1.0200 O.2   1 <1>  -0.6500 
  3 O       -0.2460     0.6660     1.4250 O.2   1 <1>  -0.6500 
  4 N       -1.4110    -0.9970    -0.0760 N.am  1 <1>  -0.8490 
  5 N        1.4490    -0.8900     0.0470 N.pl3 1 <1>   0.5840 
  6 C       -2.6460    -0.2770    -0.4150 C.3   1 <1>   0.1960 
  7 C       -1.5670    -1.8540     1.1070 C.3   1 <1>   0.1960 
  8 N        1.5490    -2.2640     0.0730 N.2   1 <1>  -0.7070 
  9 C        2.7160    -0.3650     0.0180 C.2   1 <1>  -0.3320 
 10 C       -3.5890    -1.1860    -1.2080 C.3   1 <1>  -0.1600 
 11 C       -2.5520    -3.0090     0.8950 C.3   1 <1>  -0.1600 
 12 C        2.8110    -2.5350     0.0480 C.2   1 <1>   0.1080 
 13 C        3.5970    -1.3900     0.0140 C.2   1 <1>  -0.1810 
 14 C        2.9860     1.1360    -0.0020 C.3   1 <1>  -0.0600 
 15 C       -4.5710    -2.0170    -0.3660 C.3   1 <1>  -0.1600 
 16 C       -4.0220    -2.5680     0.9560 C.3   1 <1>  -0.1600 
 17 C        3.3290    -3.9560     0.0560 C.3   1 <1>  -0.0590 
 18 C        5.1160    -1.3710    -0.0190 C.3   1 <1>  -0.0590 
 19 H       -2.4180     0.5570    -1.0550 H     1 <1>   0.0800 
 20 H       -3.1200     0.1170     0.4690 H     1 <1>   0.0800 
 21 H       -1.8720    -1.2620     1.9540 H     1 <1>   0.0800 
 22 H       -0.6160    -2.2920     1.3540 H     1 <1>   0.0800 
 23 H       -2.9980    -1.8360    -1.8300 H     1 <1>   0.0800 
 24 H       -4.1700    -0.5700    -1.8710 H     1 <1>   0.0800 
 25 H       -2.3910    -3.7090     1.6950 H     1 <1>   0.0800 
 26 H       -2.3320    -3.5240    -0.0240 H     1 <1>   0.0800 
 27 H        2.5770     1.5760    -0.8950 H     1 <1>   0.0800 
 28 H        4.0390     1.3430     0.0200 H     1 <1>   0.0800 
 29 H        2.5350     1.6090     0.8530 H     1 <1>   0.0800 
 30 H       -4.9060    -2.8420    -0.9720 H     1 <1>   0.0800 
 31 H       -5.4370    -1.4180    -0.1440 H     1 <1>   0.0800 
 32 H       -4.1380    -1.8270     1.7290 H     1 <1>   0.0800 
 33 H       -4.6270    -3.4120     1.2400 H     1 <1>   0.0800 
 34 H        2.5060    -4.6460     0.1060 H     1 <1>   0.0800 
 35 H        3.9630    -4.1080     0.9090 H     1 <1>   0.0800 
 36 H        3.8860    -4.1450    -0.8420 H     1 <1>   0.0800 
 37 H        5.4920    -0.3680    -0.0830 H     1 <1>   0.0800 
 38 H        5.4690    -1.9200    -0.8730 H     1 <1>   0.0800 
 39 H        5.5050    -1.8260     0.8730 H     1 <1>   0.0800 
@<TRIPOS>BOND
  1   1   2  2   
  2   1   3  2   
  3   1   4  am  
  4   1   5  1   
  5   4   6  1   
  6   4   7  1   
  7   5   8  1   
  8   5   9  1   
  9   6  10  1   
 10   6  19  1   
 11   6  20  1   
 12   7  11  1   
 13   7  21  1   
 14   7  22  1   
 15   8  12  2   
 16   9  13  2   
 17   9  14  1   
 18  10  15  1   
 19  10  23  1   
 20  10  24  1   
 21  11  16  1   
 22  11  25  1   
 23  11  26  1   
 24  12  13  1   
 25  12  17  1   
 26  13  18  1   
 27  14  27  1   
 28  14  28  1   
 29  14  29  1   
 30  15  16  1   
 31  15  30  1   
 32  15  31  1   
 33  16  32  1   
 34  16  33  1   
 35  17  34  1   
 36  17  35  1   
 37  17  36  1   
 38  18  37  1   
 39  18  38  1   
 40  18  39  1   
@<TRIPOS>SUBSTRUCTURE
  1 ****   1 GROUP 4 **** **** 0

# MOE 2024.06 (io_trps.svl 2023.06)
