@<TRIPOS>MOLECULE
NONAME
45 48 1 0 0 
SMALL
USER_CHARGES


@<TRIPOS>ATOM
  1 O       -0.9810     0.9490    -2.4220 O.2   1 <1>  -0.5700 
  2 C       -1.2460     1.5030    -1.3720 C.2   1 <1>   0.5440 
  3 N       -0.2440     1.7090    -0.4390 N.am  1 <1>  -0.4200 
  4 C       -2.5960     1.9480    -1.1000 C.ar  1 <1>   0.0860 
  5 C       -0.4900     2.3800     0.7470 C.2   1 <1>   0.5440 
  6 C        1.1370     1.2070    -0.7190 C.3   1 <1>   0.1400 
  7 C       -2.8650     2.6090     0.1240 C.ar  1 <1>   0.0000 
  8 C       -3.6320     1.7490    -1.9930 C.ar  1 <1>  -0.1500 
  9 O        0.4310     2.5910     1.5140 O.2   1 <1>  -0.5700 
 10 C       -1.8280     2.8340     1.0630 C.ar  1 <1>   0.0860 
 11 C        1.9800     2.3050    -1.3690 C.3   1 <1>  -0.0990 
 12 C       -4.1760     3.0490     0.4100 C.ar  1 <1>   0.0000 
 13 C       -4.9270     2.1830    -1.7140 C.ar  1 <1>  -0.1500 
 14 C       -2.1270     3.4810     2.2470 C.ar  1 <1>  -0.1500 
 15 C        3.4280     1.8670    -1.4390 C.2   1 <1>   0.5690 
 16 C       -5.1930     2.8200    -0.5350 C.ar  1 <1>  -0.1500 
 17 C       -4.4250     3.7020     1.6310 C.ar  1 <1>  -0.1500 
 18 C       -3.4210     3.9150     2.5330 C.ar  1 <1>  -0.1500 
 19 O        3.7670     1.2600    -2.4270 O.2   1 <1>  -0.5700 
 20 N        4.3060     2.1400    -0.4200 N.am  1 <1>  -0.6600 
 21 C        5.7480     1.7740    -0.5740 C.3   1 <1>   0.1400 
 22 C        3.9120     2.7920     0.8710 C.3   1 <1>   0.1400 
 23 C        6.6400     2.7550     0.1940 C.3   1 <1>  -0.1600 
 24 C        4.8660     2.3930     2.0010 C.3   1 <1>  -0.1600 
 25 C        6.3240     2.7790     1.7000 C.3   1 <1>  -0.1600 
 26 H        1.1030     0.3480    -1.3690 H     1 <1>   0.0800 
 27 H        1.5950     0.8870     0.2010 H     1 <1>   0.0800 
 28 H       -3.4450     1.2490    -2.9290 H     1 <1>   0.1500 
 29 H        1.9010     3.2260    -0.8240 H     1 <1>   0.0800 
 30 H        1.6250     2.4750    -2.3700 H     1 <1>   0.0800 
 31 H       -5.7080     2.0090    -2.4360 H     1 <1>   0.1500 
 32 H       -1.3510     3.6600     2.9730 H     1 <1>   0.1500 
 33 H       -6.1900     3.1570    -0.3130 H     1 <1>   0.1500 
 34 H       -5.4250     4.0340     1.8450 H     1 <1>   0.1500 
 35 H       -3.6150     4.4150     3.4670 H     1 <1>   0.1500 
 36 H        6.0200     1.7870    -1.6160 H     1 <1>   0.0800 
 37 H        5.8960     0.7740    -0.2020 H     1 <1>   0.0800 
 38 H        2.9150     2.5000     1.1460 H     1 <1>   0.0800 
 39 H        3.9300     3.8600     0.7430 H     1 <1>   0.0800 
 40 H        6.4910     3.7360    -0.2230 H     1 <1>   0.0800 
 41 H        7.6730     2.4950     0.0460 H     1 <1>   0.0800 
 42 H        4.7950     1.3280     2.1390 H     1 <1>   0.0800 
 43 H        4.5510     2.8570     2.9190 H     1 <1>   0.0800 
 44 H        6.5230     3.7670     2.0770 H     1 <1>   0.0800 
 45 H        6.9750     2.0960     2.2180 H     1 <1>   0.0800 
@<TRIPOS>BOND
  1   1   2  2   
  2   2   3  am  
  3   2   4  1   
  4   3   5  am  
  5   3   6  1   
  6   4   7  ar  
  7   4   8  ar  
  8   5   9  2   
  9   5  10  1   
 10   6  11  1   
 11   6  26  1   
 12   6  27  1   
 13   7  10  ar  
 14   7  12  ar  
 15   8  13  ar  
 16   8  28  1   
 17  10  14  ar  
 18  11  15  1   
 19  11  29  1   
 20  11  30  1   
 21  12  16  ar  
 22  12  17  ar  
 23  13  16  ar  
 24  13  31  1   
 25  14  18  ar  
 26  14  32  1   
 27  15  19  2   
 28  15  20  am  
 29  16  33  1   
 30  17  18  ar  
 31  17  34  1   
 32  18  35  1   
 33  20  21  1   
 34  20  22  1   
 35  21  23  1   
 36  21  36  1   
 37  21  37  1   
 38  22  24  1   
 39  22  38  1   
 40  22  39  1   
 41  23  25  1   
 42  23  40  1   
 43  23  41  1   
 44  24  25  1   
 45  24  42  1   
 46  24  43  1   
 47  25  44  1   
 48  25  45  1   
@<TRIPOS>SUBSTRUCTURE
  1 ****   3 GROUP 4 **** **** 0

# MOE 2024.06 (io_trps.svl 2023.06)
