@<TRIPOS>MOLECULE
NONAME
32 34 1 0 0 
SMALL
USER_CHARGES


@<TRIPOS>ATOM
  1 BR       7.6710    -3.2890     2.4640 Br    1 <1>  -0.0580 
  2 C        7.8020    -1.7200     1.3550 C.2   1 <1>   0.2440 
  3 N        8.9190    -1.1040     1.1790 N.2   1 <1>  -0.5650 
  4 N        6.7120    -1.2210     0.7220 N.pl3 1 <1>   0.0480 
  5 C        8.5540    -0.0780     0.3500 C.2   1 <1>   0.1410 
  6 C        7.2110    -0.1470     0.0620 C.2   1 <1>  -0.0260 
  7 C        5.3290    -1.7460     0.7940 C.3   1 <1>   0.4560 
  8 C        9.2980     0.9940    -0.2320 C.2   1 <1>   0.7160 
  9 N        6.5480     0.7340    -0.7560 N.2   1 <1>  -0.5760 
 10 O        4.5090    -0.8110     1.4350 O.3   1 <1>  -0.5600 
 11 C        4.6990    -2.0330    -0.5650 C.3   1 <1>  -0.1600 
 12 O       10.4920     1.2200    -0.0870 O.2   1 <1>  -0.5700 
 13 N        8.5960     1.8420    -1.0290 N.am  1 <1>  -0.4900 
 14 C        7.2650     1.6820    -1.2630 C.2   1 <1>   0.5600 
 15 C        3.2570    -0.7350     0.8150 C.3   1 <1>   0.2000 
 16 C        3.2360    -1.8260    -0.2660 C.3   1 <1>   0.2000 
 17 N        6.6770     2.5650    -2.0830 N.pl3 1 <1>  -0.8500 
 18 C        3.1030     0.6830     0.2490 C.3   1 <1>   0.1200 
 19 O        2.7550    -3.0150     0.2700 O.3   1 <1>  -0.6800 
 20 O        1.8870     0.7960    -0.4200 O.3   1 <1>  -0.6800 
 21 H        5.3020    -2.6400     1.3900 H     1 <1>   0.0800 
 22 H        5.0210    -1.3170    -1.2970 H     1 <1>   0.0800 
 23 H        4.9150    -3.0260    -0.9150 H     1 <1>   0.0800 
 24 H        9.1120     2.6210    -1.4130 H     1 <1>   0.3700 
 25 H        2.5010    -0.9050     1.5610 H     1 <1>   0.0800 
 26 H        2.6480    -1.5740    -1.1320 H     1 <1>   0.0800 
 27 H        5.7050     2.3900    -2.3400 H     1 <1>   0.4000 
 28 H        7.1920     3.2010    -2.6890 H     1 <1>   0.4000 
 29 H        3.8920     0.9010    -0.4490 H     1 <1>   0.0800 
 30 H        3.1160     1.4000     1.0510 H     1 <1>   0.0800 
 31 H        1.7970    -2.9360     0.4540 H     1 <1>   0.4000 
 32 H        1.7370     1.7200    -0.7040 H     1 <1>   0.4000 
@<TRIPOS>BOND
  1   1   2  1   
  2   2   3  2   
  3   2   4  1   
  4   3   5  1   
  5   4   6  1   
  6   4   7  1   
  7   5   6  2   
  8   5   8  1   
  9   6   9  1   
 10   7  10  1   
 11   7  11  1   
 12   7  21  1   
 13   8  12  2   
 14   8  13  am  
 15   9  14  2   
 16  10  15  1   
 17  11  16  1   
 18  11  22  1   
 19  11  23  1   
 20  13  14  1   
 21  13  24  1   
 22  14  17  1   
 23  15  16  1   
 24  15  18  1   
 25  15  25  1   
 26  16  19  1   
 27  16  26  1   
 28  17  27  1   
 29  17  28  1   
 30  18  20  1   
 31  18  29  1   
 32  18  30  1   
 33  19  31  1   
 34  20  32  1   
@<TRIPOS>SUBSTRUCTURE
  1 ****   6 GROUP 4 **** **** 0

# MOE 2024.06 (io_trps.svl 2023.06)
