@<TRIPOS>MOLECULE
NONAME
56 58 1 0 0 
SMALL
USER_CHARGES


@<TRIPOS>ATOM
  1 O        0.6970     0.6990    -0.7320 O.2   1 <1>  -0.5700 
  2 C        0.3950     1.8690    -0.8810 C.2   1 <1>   0.5440 
  3 N        1.3500     2.7520    -1.3490 N.am  1 <1>  -0.6600 
  4 C       -0.9520     2.2930    -0.5530 C.ar  1 <1>   0.0860 
  5 C        1.2510     4.2290    -1.1910 C.3   1 <1>   0.1400 
  6 C        2.6620     2.2750    -1.8640 C.3   1 <1>   0.1400 
  7 C       -1.4970     2.0360     0.7050 C.ar  1 <1>  -0.1500 
  8 C       -1.7540     2.9650    -1.4770 C.ar  1 <1>  -0.1500 
  9 C        2.3630     4.7180    -0.2590 C.3   1 <1>  -0.1600 
 10 C        3.7790     2.7390    -0.9250 C.3   1 <1>  -0.1600 
 11 C       -2.7750     2.4460     1.0390 C.ar  1 <1>  -0.1500 
 12 C       -3.0320     3.3790    -1.1520 C.ar  1 <1>  -0.1500 
 13 C        3.7610     4.2690    -0.7350 C.3   1 <1>  -0.0190 
 14 C       -3.5530     3.1270     0.1070 C.ar  1 <1>   0.0820 
 15 C        4.8840     4.7210     0.2020 C.2   1 <1>   0.5690 
 16 O       -4.8080     3.5660     0.3500 O.3   1 <1>  -0.3630 
 17 O        4.6220     5.1370     1.3040 O.2   1 <1>  -0.5700 
 18 N        6.1630     4.6250    -0.2640 N.am  1 <1>  -0.5470 
 19 C       -5.4490     3.3360     1.5850 C.3   1 <1>   0.0400 
 20 C        7.3550     4.8920     0.4260 C.ar  1 <1>   0.1170 
 21 C        8.1670     3.8310     0.8430 C.ar  1 <1>  -0.1430 
 22 C        7.7500     6.2100     0.6720 C.ar  1 <1>  -0.1430 
 23 C        9.3660     4.1110     1.4850 C.ar  1 <1>  -0.1500 
 24 C        7.7020     2.3900     0.5880 C.3   1 <1>  -0.0170 
 25 C        8.9470     6.4610     1.3190 C.ar  1 <1>  -0.1500 
 26 C        6.8880     7.3930     0.2460 C.3   1 <1>  -0.0970 
 27 C        9.7540     5.4160     1.7220 C.ar  1 <1>  -0.1500 
 28 C        8.5930     1.2820     1.1630 C.3   1 <1>  -0.2400 
 29 H        0.3000     4.5130    -0.7760 H     1 <1>   0.0800 
 30 H        1.3470     4.6940    -2.1570 H     1 <1>   0.0800 
 31 H        2.8160     2.6750    -2.8510 H     1 <1>   0.0800 
 32 H        2.6760     1.2000    -1.9390 H     1 <1>   0.0800 
 33 H       -0.8980     1.5030     1.4230 H     1 <1>   0.1500 
 34 H       -1.3640     3.1590    -2.4610 H     1 <1>   0.1500 
 35 H        2.1750     4.3320     0.7290 H     1 <1>   0.0800 
 36 H        2.3290     5.7910    -0.1970 H     1 <1>   0.0800 
 37 H        4.7240     2.4230    -1.3280 H     1 <1>   0.0800 
 38 H        3.6510     2.2540     0.0280 H     1 <1>   0.0800 
 39 H       -3.1480     2.2260     2.0210 H     1 <1>   0.1500 
 40 H       -3.6390     3.8980    -1.8720 H     1 <1>   0.1500 
 41 H        3.9410     4.7310    -1.6890 H     1 <1>   0.0800 
 42 H        6.2870     4.2020    -1.1790 H     1 <1>   0.3700 
 43 H       -6.4340     3.7650     1.5350 H     1 <1>   0.0800 
 44 H       -4.8820     3.8100     2.3660 H     1 <1>   0.0800 
 45 H       -5.5200     2.2750     1.7480 H     1 <1>   0.0800 
 46 H       10.0200     3.3270     1.8190 H     1 <1>   0.1500 
 47 H        7.6190     2.2380    -0.4730 H     1 <1>   0.0800 
 48 H        6.7190     2.2750     1.0130 H     1 <1>   0.0800 
 49 H        9.2590     7.4710     1.5170 H     1 <1>   0.1500 
 50 H        6.6100     7.2990    -0.7870 H     1 <1>   0.0800 
 51 H        7.4150     8.3210     0.3710 H     1 <1>   0.0800 
 52 H        5.9970     7.4260     0.8470 H     1 <1>   0.0800 
 53 H       10.6840     5.6180     2.2240 H     1 <1>   0.1500 
 54 H        9.5720     1.3170     0.7200 H     1 <1>   0.0800 
 55 H        8.1600     0.3200     0.9530 H     1 <1>   0.0800 
 56 H        8.6780     1.3880     2.2300 H     1 <1>   0.0800 
@<TRIPOS>BOND
  1   1   2  2   
  2   2   3  am  
  3   2   4  1   
  4   3   5  1   
  5   3   6  1   
  6   4   7  ar  
  7   4   8  ar  
  8   5   9  1   
  9   5  29  1   
 10   5  30  1   
 11   6  10  1   
 12   6  31  1   
 13   6  32  1   
 14   7  11  ar  
 15   7  33  1   
 16   8  12  ar  
 17   8  34  1   
 18   9  13  1   
 19   9  35  1   
 20   9  36  1   
 21  10  13  1   
 22  10  37  1   
 23  10  38  1   
 24  11  14  ar  
 25  11  39  1   
 26  12  14  ar  
 27  12  40  1   
 28  13  15  1   
 29  13  41  1   
 30  14  16  1   
 31  15  17  2   
 32  15  18  am  
 33  16  19  1   
 34  18  20  1   
 35  18  42  1   
 36  19  43  1   
 37  19  44  1   
 38  19  45  1   
 39  20  21  ar  
 40  20  22  ar  
 41  21  23  ar  
 42  21  24  1   
 43  22  25  ar  
 44  22  26  1   
 45  23  27  ar  
 46  23  46  1   
 47  24  28  1   
 48  24  47  1   
 49  24  48  1   
 50  25  27  ar  
 51  25  49  1   
 52  26  50  1   
 53  26  51  1   
 54  26  52  1   
 55  27  53  1   
 56  28  54  1   
 57  28  55  1   
 58  28  56  1   
@<TRIPOS>SUBSTRUCTURE
  1 ****   9 GROUP 4 **** **** 0

# MOE 2024.06 (io_trps.svl 2023.06)
