@<TRIPOS>MOLECULE
NONAME
36 37 1 0 0 
SMALL
USER_CHARGES


@<TRIPOS>ATOM
  1 CL       1.6440    -0.1920     0.0410 Cl    1 <1>  -0.1770 
  2 C        0.0660     0.5130    -0.2250 C.ar  1 <1>   0.1770 
  3 C       -0.1160     1.8860    -0.1450 C.ar  1 <1>  -0.1440 
  4 C       -0.9810    -0.3460    -0.5130 C.ar  1 <1>  -0.1500 
  5 C       -1.3970     2.3730    -0.3670 C.ar  1 <1>   0.1770 
  6 C        1.0410     2.8220     0.1660 C.3   1 <1>   0.2140 
  7 C       -2.2500     0.1630    -0.7300 C.ar  1 <1>  -0.1500 
  8 CL      -1.7230     4.0890    -0.2840 Cl    1 <1>  -0.1770 
  9 C       -2.4570     1.5310    -0.6560 C.ar  1 <1>  -0.1500 
 10 S        1.8180     3.2830    -1.4090 S.3   1 <1>  -0.4600 
 11 C        2.9520     4.6320    -0.9250 C.3   1 <1>   0.1310 
 12 C        3.9510     4.1610     0.1220 C.2   1 <1>   0.5690 
 13 O        4.1900     4.8790     1.0620 O.2   1 <1>  -0.5700 
 14 N        4.5340     2.9450    -0.0270 N.am  1 <1>  -0.7300 
 15 C        5.5230     2.3440     0.8810 C.3   1 <1>   0.2200 
 16 C        6.7900     2.0380     0.0910 C.3   1 <1>  -0.1600 
 17 C        5.0300     0.9660     1.3000 C.3   1 <1>  -0.1600 
 18 C        6.5220     0.7120    -0.6300 C.3   1 <1>  -0.1600 
 19 C        5.3900     0.0250     0.1450 C.3   1 <1>  -0.1600 
 20 H       -0.8000    -1.4050    -0.5670 H     1 <1>   0.1500 
 21 H        1.7920     2.3520     0.7760 H     1 <1>   0.0800 
 22 H        0.7140     3.7270     0.6450 H     1 <1>   0.0800 
 23 H       -3.0700    -0.4980    -0.9550 H     1 <1>   0.1500 
 24 H       -3.4350     1.9460    -0.8220 H     1 <1>   0.1500 
 25 H        2.3510     5.4330    -0.5370 H     1 <1>   0.0800 
 26 H        3.4640     4.9540    -1.8120 H     1 <1>   0.0800 
 27 H        4.2440     2.3430    -0.8010 H     1 <1>   0.3700 
 28 H        5.7110     2.9890     1.7240 H     1 <1>   0.0800 
 29 H        7.5980     1.8990     0.7880 H     1 <1>   0.0800 
 30 H        7.0520     2.8350    -0.5830 H     1 <1>   0.0800 
 31 H        3.9800     0.9600     1.5320 H     1 <1>   0.0800 
 32 H        5.5750     0.6630     2.1770 H     1 <1>   0.0800 
 33 H        7.4090     0.1020    -0.6550 H     1 <1>   0.0800 
 34 H        6.2040     0.9020    -1.6410 H     1 <1>   0.0800 
 35 H        4.5390    -0.1060    -0.5020 H     1 <1>   0.0800 
 36 H        5.6930    -0.9400     0.5150 H     1 <1>   0.0800 
@<TRIPOS>BOND
  1   1   2  1   
  2   2   3  ar  
  3   2   4  ar  
  4   3   5  ar  
  5   3   6  1   
  6   4   7  ar  
  7   4  20  1   
  8   5   8  1   
  9   5   9  ar  
 10   6  10  1   
 11   6  21  1   
 12   6  22  1   
 13   7   9  ar  
 14   7  23  1   
 15   9  24  1   
 16  10  11  1   
 17  11  12  1   
 18  11  25  1   
 19  11  26  1   
 20  12  13  2   
 21  12  14  am  
 22  14  15  1   
 23  14  27  1   
 24  15  16  1   
 25  15  17  1   
 26  15  28  1   
 27  16  18  1   
 28  16  29  1   
 29  16  30  1   
 30  17  19  1   
 31  17  31  1   
 32  17  32  1   
 33  18  19  1   
 34  18  33  1   
 35  18  34  1   
 36  19  35  1   
 37  19  36  1   
@<TRIPOS>SUBSTRUCTURE
  1 ****   6 GROUP 4 **** **** 0

# MOE 2024.06 (io_trps.svl 2023.06)
