@<TRIPOS>MOLECULE
NONAME
50 51 1 0 0 
SMALL
USER_CHARGES


@<TRIPOS>ATOM
  1 S        0.3500     0.8320     1.4610 S.o2  1 <1>   1.3330 
  2 O        1.4340    -0.0940     1.6880 O.2   1 <1>  -0.6500 
  3 O       -1.0140     0.4220     1.6830 O.2   1 <1>  -0.6500 
  4 N        0.4960     1.3320    -0.1870 N.am  1 <1>  -0.6930 
  5 C        0.7030     2.3340     2.3480 C.3   1 <1>  -0.1350 
  6 C       -0.2710     2.3710    -0.7050 C.ar  1 <1>   0.1990 
  7 C        1.1110     0.3590    -1.1440 C.3   1 <1>   0.2570 
  8 C        0.3150     3.5620    -1.1440 C.ar  1 <1>  -0.1440 
  9 C       -1.6520     2.2290    -0.7900 C.ar  1 <1>  -0.1500 
 10 C        2.6170     0.5610    -1.3290 C.2   1 <1>   0.5690 
 11 C       -0.4870     4.5710    -1.6500 C.ar  1 <1>  -0.1500 
 12 C        1.8220     3.7940    -1.0900 C.3   1 <1>  -0.0970 
 13 C       -2.4510     3.2400    -1.2910 C.ar  1 <1>  -0.1440 
 14 O        3.0470     0.6850    -2.4520 O.2   1 <1>  -0.5700 
 15 N        3.4030     0.6160    -0.2120 N.am  1 <1>  -0.5470 
 16 C       -1.8600     4.4150    -1.7230 C.ar  1 <1>  -0.1500 
 17 C       -3.9570     3.0690    -1.3720 C.3   1 <1>  -0.0970 
 18 C        4.7140     1.0750     0.0020 C.ar  1 <1>   0.1170 
 19 C        5.0710     1.5040     1.2830 C.ar  1 <1>   0.0830 
 20 C        5.6780     1.1190    -0.9990 C.ar  1 <1>  -0.1500 
 21 O        4.1560     1.4790     2.2840 O.3   1 <1>  -0.3630 
 22 C        6.3450     1.9760     1.5450 C.ar  1 <1>  -0.1500 
 23 C        6.9580     1.5870    -0.7420 C.ar  1 <1>  -0.1430 
 24 C        4.2460     0.3760     3.1570 C.3   1 <1>   0.0400 
 25 C        7.2890     2.0150     0.5330 C.ar  1 <1>  -0.1500 
 26 C        7.9930     1.6280    -1.8520 C.3   1 <1>  -0.0970 
 27 H        0.6600     2.1570     3.4040 H     1 <1>   0.0800 
 28 H       -0.0140     3.0910     2.0960 H     1 <1>   0.0800 
 29 H        1.6840     2.6900     2.0990 H     1 <1>   0.0800 
 30 H        0.6390     0.4690    -2.1050 H     1 <1>   0.0800 
 31 H        0.9320    -0.6460    -0.8070 H     1 <1>   0.0800 
 32 H       -2.1010     1.3100    -0.4580 H     1 <1>   0.1500 
 33 H       -0.0480     5.4900    -1.9960 H     1 <1>   0.1500 
 34 H        2.2920     3.3410    -1.9440 H     1 <1>   0.0800 
 35 H        2.2480     3.3740    -0.1970 H     1 <1>   0.0800 
 36 H        2.0470     4.8450    -1.0990 H     1 <1>   0.0800 
 37 H        2.9020     0.4300     0.6670 H     1 <1>   0.3700 
 38 H       -2.4660     5.2110    -2.1200 H     1 <1>   0.1500 
 39 H       -4.2850     2.2730    -0.7280 H     1 <1>   0.0800 
 40 H       -4.2430     2.8380    -2.3820 H     1 <1>   0.0800 
 41 H       -4.4500     3.9750    -1.0690 H     1 <1>   0.0800 
 42 H        5.4280     0.7830    -1.9880 H     1 <1>   0.1500 
 43 H        6.5960     2.3140     2.5340 H     1 <1>   0.1500 
 44 H        3.4500     0.4480     3.8770 H     1 <1>   0.0800 
 45 H        5.1990     0.3970     3.6550 H     1 <1>   0.0800 
 46 H        4.1400    -0.5300     2.5860 H     1 <1>   0.0800 
 47 H        8.2790     2.3810     0.7410 H     1 <1>   0.1500 
 48 H        7.5150     1.6670    -2.8140 H     1 <1>   0.0800 
 49 H        8.6100     0.7490    -1.8060 H     1 <1>   0.0800 
 50 H        8.6160     2.4980    -1.7490 H     1 <1>   0.0800 
@<TRIPOS>BOND
  1   1   2  2   
  2   1   3  2   
  3   1   4  am  
  4   1   5  1   
  5   4   6  1   
  6   4   7  1   
  7   5  27  1   
  8   5  28  1   
  9   5  29  1   
 10   6   8  ar  
 11   6   9  ar  
 12   7  10  1   
 13   7  30  1   
 14   7  31  1   
 15   8  11  ar  
 16   8  12  1   
 17   9  13  ar  
 18   9  32  1   
 19  10  14  2   
 20  10  15  am  
 21  11  16  ar  
 22  11  33  1   
 23  12  34  1   
 24  12  35  1   
 25  12  36  1   
 26  13  16  ar  
 27  13  17  1   
 28  15  18  1   
 29  15  37  1   
 30  16  38  1   
 31  17  39  1   
 32  17  40  1   
 33  17  41  1   
 34  18  19  ar  
 35  18  20  ar  
 36  19  21  1   
 37  19  22  ar  
 38  20  23  ar  
 39  20  42  1   
 40  21  24  1   
 41  22  25  ar  
 42  22  43  1   
 43  23  25  ar  
 44  23  26  1   
 45  24  44  1   
 46  24  45  1   
 47  24  46  1   
 48  25  47  1   
 49  26  48  1   
 50  26  49  1   
 51  26  50  1   
@<TRIPOS>SUBSTRUCTURE
  1 ****   4 GROUP 4 **** **** 0

# MOE 2024.06 (io_trps.svl 2023.06)
