@<TRIPOS>MOLECULE
NONAME
46 47 1 0 0 
SMALL
USER_CHARGES


@<TRIPOS>ATOM
  1 O       -0.1920    -0.4320    -0.4010 O.2   1 <1>  -0.5700 
  2 C       -0.2620    -1.5850    -0.0190 C.2   1 <1>   0.7800 
  3 O        0.8550    -2.2970     0.1380 O.3   1 <1>  -0.4300 
  4 N       -1.4540    -2.1980     0.2550 N.am  1 <1>  -0.6600 
  5 C        2.1170    -1.7290    -0.1240 C.3   1 <1>   0.1200 
  6 C       -1.5760    -3.6330     0.6550 C.3   1 <1>   0.1400 
  7 C       -2.7600    -1.4980     0.0810 C.3   1 <1>   0.1400 
  8 C        3.1790    -2.7910     0.1450 C.3   1 <1>  -0.2400 
  9 C       -2.4880    -4.3940    -0.3200 C.3   1 <1>   0.1400 
 10 C       -3.6660    -2.2660    -0.8940 C.3   1 <1>   0.1400 
 11 N       -3.8050    -3.6990    -0.4770 N.am  1 <1>  -0.6600 
 12 C       -4.9850    -4.3430    -0.1980 C.2   1 <1>   0.5690 
 13 O       -4.9970    -5.4840     0.2010 O.2   1 <1>  -0.5700 
 14 C       -6.3140    -3.6170    -0.3820 C.3   1 <1>  -0.0990 
 15 C       -7.5610    -4.4850    -0.1230 C.3   1 <1>  -0.1600 
 16 C       -8.8730    -3.7270    -0.3840 C.3   1 <1>  -0.0800 
 17 C       -9.1080    -2.5390     0.5480 C.3   1 <1>  -0.1600 
 18 C      -10.1040    -4.6000    -0.1600 C.3   1 <1>  -0.1600 
 19 C      -10.6210    -2.3110     0.5390 C.3   1 <1>  -0.1600 
 20 C      -11.2540    -3.6110     0.0290 C.3   1 <1>  -0.1600 
 21 H        2.2480    -0.8770     0.5220 H     1 <1>   0.0800 
 22 H        2.1410    -1.4100    -1.1530 H     1 <1>   0.0800 
 23 H       -1.9950    -3.6890     1.6440 H     1 <1>   0.0800 
 24 H       -0.6120    -4.1100     0.6790 H     1 <1>   0.0800 
 25 H       -2.6060    -0.4990    -0.2900 H     1 <1>   0.0800 
 26 H       -3.2470    -1.4220     1.0370 H     1 <1>   0.0800 
 27 H        3.1350    -3.1060     1.1720 H     1 <1>   0.0800 
 28 H        4.1550    -2.3830    -0.0480 H     1 <1>   0.0800 
 29 H        3.0280    -3.6380    -0.5000 H     1 <1>   0.0800 
 30 H       -2.6260    -5.3980     0.0410 H     1 <1>   0.0800 
 31 H       -2.0060    -4.4570    -1.2800 H     1 <1>   0.0800 
 32 H       -3.2320    -2.2290    -1.8780 H     1 <1>   0.0800 
 33 H       -4.6210    -1.7770    -0.9390 H     1 <1>   0.0800 
 34 H       -6.3570    -3.2500    -1.3910 H     1 <1>   0.0800 
 35 H       -6.3260    -2.7790     0.2890 H     1 <1>   0.0800 
 36 H       -7.5410    -4.8400     0.8940 H     1 <1>   0.0800 
 37 H       -7.5240    -5.3480    -0.7660 H     1 <1>   0.0800 
 38 H       -8.8910    -3.3760    -1.4030 H     1 <1>   0.0800 
 39 H       -8.5730    -1.6620     0.2280 H     1 <1>   0.0800 
 40 H       -8.7990    -2.7960     1.5470 H     1 <1>   0.0800 
 41 H       -9.9830    -5.1760     0.7420 H     1 <1>   0.0800 
 42 H      -10.2790    -5.2700    -0.9840 H     1 <1>   0.0800 
 43 H      -10.8700    -1.5030    -0.1270 H     1 <1>   0.0800 
 44 H      -10.9740    -2.0680     1.5270 H     1 <1>   0.0800 
 45 H      -11.9850    -3.9950     0.7200 H     1 <1>   0.0800 
 46 H      -11.7330    -3.4290    -0.9180 H     1 <1>   0.0800 
@<TRIPOS>BOND
  1   1   2  2   
  2   2   3  1   
  3   2   4  am  
  4   3   5  1   
  5   4   6  1   
  6   4   7  1   
  7   5   8  1   
  8   5  21  1   
  9   5  22  1   
 10   6   9  1   
 11   6  23  1   
 12   6  24  1   
 13   7  10  1   
 14   7  25  1   
 15   7  26  1   
 16   8  27  1   
 17   8  28  1   
 18   8  29  1   
 19   9  11  1   
 20   9  30  1   
 21   9  31  1   
 22  10  11  1   
 23  10  32  1   
 24  10  33  1   
 25  11  12  am  
 26  12  13  2   
 27  12  14  1   
 28  14  15  1   
 29  14  34  1   
 30  14  35  1   
 31  15  16  1   
 32  15  36  1   
 33  15  37  1   
 34  16  17  1   
 35  16  18  1   
 36  16  38  1   
 37  17  19  1   
 38  17  39  1   
 39  17  40  1   
 40  18  20  1   
 41  18  41  1   
 42  18  42  1   
 43  19  20  1   
 44  19  43  1   
 45  19  44  1   
 46  20  45  1   
 47  20  46  1   
@<TRIPOS>SUBSTRUCTURE
  1 ****  11 GROUP 4 **** **** 0

# MOE 2024.06 (io_trps.svl 2023.06)
