@<TRIPOS>MOLECULE
NONAME
52 53 1 0 0 
SMALL
USER_CHARGES


@<TRIPOS>ATOM
  1 O        4.6320    -6.0440     1.2330 O.3   1 <1>  -0.5600 
  2 C        4.3920    -4.6630     1.3130 C.3   1 <1>   0.1200 
  3 C        4.8210    -6.5270    -0.0670 C.3   1 <1>   0.1200 
  4 C        3.2920    -4.2000     0.3280 C.3   1 <1>   0.3430 
  5 C        3.5400    -6.3440    -0.9130 C.3   1 <1>   0.3430 
  6 N        2.5850    -5.3690    -0.2890 N.4   1 <1>  -0.9590 
  7 C        1.4080    -5.0140    -1.1400 C.3   1 <1>   0.3430 
  8 C        0.2220    -4.5560    -0.2650 C.3   1 <1>   0.2000 
  9 O        0.2140    -5.2920     0.9180 O.3   1 <1>  -0.6800 
 10 C       -1.1400    -4.7350    -0.9490 C.3   1 <1>   0.1200 
 11 O       -2.1340    -4.5520     0.0140 O.3   1 <1>  -0.5600 
 12 C       -3.4450    -4.7040    -0.4340 C.3   1 <1>   0.2000 
 13 C       -4.3340    -3.8650     0.4890 C.3   1 <1>  -0.1600 
 14 C       -3.8270    -6.1890    -0.3720 C.3   1 <1>  -0.1600 
 15 C       -5.8380    -4.0360     0.1920 C.3   1 <1>   0.0000 
 16 C       -5.3120    -6.3980    -0.7100 C.3   1 <1>  -0.0800 
 17 C       -6.2050    -5.5360     0.2030 C.3   1 <1>  -0.1600 
 18 C       -6.6440    -3.3200     1.2850 C.3   1 <1>  -0.2400 
 19 C       -6.2030    -3.3930    -1.1590 C.3   1 <1>  -0.2400 
 20 C       -5.6870    -7.8780    -0.5740 C.3   1 <1>  -0.2400 
 21 H        5.3150    -4.1430     1.1210 H     1 <1>   0.0800 
 22 H        4.0930    -4.4480     2.3240 H     1 <1>   0.0800 
 23 H        5.0780    -7.5700    -0.0020 H     1 <1>   0.0800 
 24 H        5.6510    -6.0020    -0.5100 H     1 <1>   0.0800 
 25 H        3.7450    -3.5990    -0.4430 H     1 <1>   0.0800 
 26 H        2.5890    -3.5790     0.8590 H     1 <1>   0.0800 
 27 H        3.0560    -7.3010    -1.0190 H     1 <1>   0.0800 
 28 H        3.8220    -6.0120    -1.8980 H     1 <1>   0.0800 
 29 H        2.1620    -5.8550     0.5290 H     1 <1>   0.4500 
 30 H        1.0950    -5.8860    -1.6890 H     1 <1>   0.0800 
 31 H        1.6650    -4.2480    -1.8520 H     1 <1>   0.0800 
 32 H        0.3420    -3.5190    -0.0010 H     1 <1>   0.0800 
 33 H       -0.6980    -5.2120     1.2930 H     1 <1>   0.4000 
 34 H       -1.2280    -5.7260    -1.3590 H     1 <1>   0.0800 
 35 H       -1.2740    -4.0060    -1.7300 H     1 <1>   0.0800 
 36 H       -3.5200    -4.3320    -1.4420 H     1 <1>   0.0800 
 37 H       -4.0620    -2.8290     0.3960 H     1 <1>   0.0800 
 38 H       -4.1450    -4.1690     1.5040 H     1 <1>   0.0800 
 39 H       -3.6360    -6.5570     0.6210 H     1 <1>   0.0800 
 40 H       -3.2320    -6.7520    -1.0670 H     1 <1>   0.0800 
 41 H       -5.4780    -6.1100    -1.7340 H     1 <1>   0.0800 
 42 H       -7.2340    -5.6560    -0.0870 H     1 <1>   0.0800 
 43 H       -6.1130    -5.9050     1.2100 H     1 <1>   0.0800 
 44 H       -6.4240    -3.7330     2.2540 H     1 <1>   0.0800 
 45 H       -7.7000    -3.4260     1.1060 H     1 <1>   0.0800 
 46 H       -6.4070    -2.2710     1.3050 H     1 <1>   0.0800 
 47 H       -5.6710    -3.8420    -1.9750 H     1 <1>   0.0800 
 48 H       -5.9720    -2.3420    -1.1480 H     1 <1>   0.0800 
 49 H       -7.2560    -3.5010    -1.3500 H     1 <1>   0.0800 
 50 H       -5.5340    -8.2190     0.4350 H     1 <1>   0.0800 
 51 H       -5.0850    -8.4780    -1.2340 H     1 <1>   0.0800 
 52 H       -6.7210    -8.0260    -0.8320 H     1 <1>   0.0800 
@<TRIPOS>BOND
  1   1   2  1   
  2   1   3  1   
  3   2   4  1   
  4   2  21  1   
  5   2  22  1   
  6   3   5  1   
  7   3  23  1   
  8   3  24  1   
  9   4   6  1   
 10   4  25  1   
 11   4  26  1   
 12   5   6  1   
 13   5  27  1   
 14   5  28  1   
 15   6   7  1   
 16   6  29  1   
 17   7   8  1   
 18   7  30  1   
 19   7  31  1   
 20   8   9  1   
 21   8  10  1   
 22   8  32  1   
 23   9  33  1   
 24  10  11  1   
 25  10  34  1   
 26  10  35  1   
 27  11  12  1   
 28  12  13  1   
 29  12  14  1   
 30  12  36  1   
 31  13  15  1   
 32  13  37  1   
 33  13  38  1   
 34  14  16  1   
 35  14  39  1   
 36  14  40  1   
 37  15  17  1   
 38  15  18  1   
 39  15  19  1   
 40  16  17  1   
 41  16  20  1   
 42  16  41  1   
 43  17  42  1   
 44  17  43  1   
 45  18  44  1   
 46  18  45  1   
 47  18  46  1   
 48  19  47  1   
 49  19  48  1   
 50  19  49  1   
 51  20  50  1   
 52  20  51  1   
 53  20  52  1   
@<TRIPOS>SUBSTRUCTURE
  1 ****  10 GROUP 4 **** **** 0

# MOE 2024.06 (io_trps.svl 2023.06)
