@<TRIPOS>MOLECULE
NONAME
48 50 1 0 0 
SMALL
USER_CHARGES


@<TRIPOS>ATOM
  1 CL       0.3190     0.3330    -0.8080 Cl    1 <1>  -0.1770 
  2 C        2.0330     0.1140    -0.5590 C.ar  1 <1>   0.1770 
  3 C        2.8580     1.2220    -0.5140 C.ar  1 <1>  -0.1500 
  4 C        2.5380    -1.1640    -0.4100 C.ar  1 <1>  -0.1500 
  5 C        4.2170     1.0430    -0.3150 C.ar  1 <1>  -0.1500 
  6 C        3.8980    -1.3410    -0.2110 C.ar  1 <1>  -0.1500 
  7 C        4.7440    -0.2320    -0.1630 C.ar  1 <1>   0.0830 
  8 O        6.0840    -0.3160     0.0280 O.3   1 <1>  -0.3630 
  9 C        6.7210    -1.5570     0.2490 C.3   1 <1>   0.1200 
 10 C        8.2210    -1.3020     0.4490 C.3   1 <1>   0.2000 
 11 O        8.6960    -0.5230    -0.6090 O.3   1 <1>  -0.6800 
 12 C        9.0460    -2.6060     0.5210 C.3   1 <1>   0.3430 
 13 N       10.4650    -2.3450     0.1300 N.4   1 <1>  -0.9590 
 14 C       11.1660    -3.5610    -0.4220 C.3   1 <1>   0.3430 
 15 C       11.2680    -1.6890     1.2270 C.3   1 <1>   0.3430 
 16 C       12.6160    -3.2600    -0.8590 C.3   1 <1>   0.2090 
 17 C       12.7160    -1.3800     0.7930 C.3   1 <1>   0.2090 
 18 N       13.3780    -2.5990     0.2420 N.pl3 1 <1>  -0.8380 
 19 C       14.7540    -2.5200     0.0650 C.ar  1 <1>   0.1000 
 20 C       15.5890    -3.3040     0.8560 C.ar  1 <1>  -0.1500 
 21 C       15.3150    -1.6700    -0.8880 C.ar  1 <1>  -0.1500 
 22 C       16.9640    -3.2480     0.7050 C.ar  1 <1>  -0.1500 
 23 C       16.6880    -1.6030    -1.0500 C.ar  1 <1>  -0.1500 
 24 C       17.4880    -2.3960    -0.2480 C.ar  1 <1>   0.1900 
 25 F       18.7860    -2.3370    -0.3970 F     1 <1>  -0.1900 
 26 H        2.4400     2.2060    -0.6330 H     1 <1>   0.1500 
 27 H        1.8710    -2.0060    -0.4500 H     1 <1>   0.1500 
 28 H        4.8710     1.8960    -0.2780 H     1 <1>   0.1500 
 29 H        4.2680    -2.3410    -0.0990 H     1 <1>   0.1500 
 30 H        6.5520    -2.1830    -0.6100 H     1 <1>   0.0800 
 31 H        6.2900    -2.0080     1.1260 H     1 <1>   0.0800 
 32 H        8.3580    -0.7380     1.3570 H     1 <1>   0.0800 
 33 H        8.0290     0.1790    -0.8010 H     1 <1>   0.4000 
 34 H        8.6130    -3.3100    -0.1710 H     1 <1>   0.0800 
 35 H        8.9910    -3.0340     1.5080 H     1 <1>   0.0800 
 36 H       10.3770    -1.6380    -0.6270 H     1 <1>   0.4500 
 37 H       10.6200    -3.9470    -1.2670 H     1 <1>   0.0800 
 38 H       11.1990    -4.3290     0.3320 H     1 <1>   0.0800 
 39 H       11.3090    -2.3420     2.0830 H     1 <1>   0.0800 
 40 H       10.7920    -0.7710     1.5290 H     1 <1>   0.0800 
 41 H       12.6110    -2.6260    -1.7280 H     1 <1>   0.0800 
 42 H       13.1070    -4.1810    -1.1240 H     1 <1>   0.0800 
 43 H       13.2760    -1.0270     1.6420 H     1 <1>   0.0800 
 44 H       12.7140    -0.5990     0.0510 H     1 <1>   0.0800 
 45 H       15.1520    -3.9570     1.5890 H     1 <1>   0.1500 
 46 H       14.6780    -1.0630    -1.5020 H     1 <1>   0.1500 
 47 H       17.6180    -3.8490     1.3100 H     1 <1>   0.1500 
 48 H       17.1360    -0.9540    -1.7800 H     1 <1>   0.1500 
@<TRIPOS>BOND
  1   1   2  1   
  2   2   3  ar  
  3   2   4  ar  
  4   3   5  ar  
  5   3  26  1   
  6   4   6  ar  
  7   4  27  1   
  8   5   7  ar  
  9   5  28  1   
 10   6   7  ar  
 11   6  29  1   
 12   7   8  1   
 13   8   9  1   
 14   9  10  1   
 15   9  30  1   
 16   9  31  1   
 17  10  11  1   
 18  10  12  1   
 19  10  32  1   
 20  11  33  1   
 21  12  13  1   
 22  12  34  1   
 23  12  35  1   
 24  13  14  1   
 25  13  15  1   
 26  13  36  1   
 27  14  16  1   
 28  14  37  1   
 29  14  38  1   
 30  15  17  1   
 31  15  39  1   
 32  15  40  1   
 33  16  18  1   
 34  16  41  1   
 35  16  42  1   
 36  17  18  1   
 37  17  43  1   
 38  17  44  1   
 39  18  19  1   
 40  19  20  ar  
 41  19  21  ar  
 42  20  22  ar  
 43  20  45  1   
 44  21  23  ar  
 45  21  46  1   
 46  22  24  ar  
 47  22  47  1   
 48  23  24  ar  
 49  23  48  1   
 50  24  25  1   
@<TRIPOS>SUBSTRUCTURE
  1 ****  13 GROUP 4 **** **** 0

# MOE 2024.06 (io_trps.svl 2023.06)
