@<TRIPOS>MOLECULE
NONAME
26 26 1 0 0 
SMALL
USER_CHARGES


@<TRIPOS>ATOM
  1 CL      -1.0010     0.2330     1.9760 Cl    1 <1>  -0.1770 
  2 C       -1.7690     0.9690     0.5880 C.ar  1 <1>   0.1770 
  3 C       -1.3440     2.2050     0.1240 C.ar  1 <1>  -0.1440 
  4 C       -2.8080     0.2800    -0.0180 C.ar  1 <1>  -0.1500 
  5 C       -2.0120     2.7230    -0.9750 C.ar  1 <1>   0.1900 
  6 C       -0.2000     2.9580     0.7830 C.3   1 <1>   0.2140 
  7 C       -3.4530     0.8250    -1.1180 C.ar  1 <1>  -0.1500 
  8 F       -1.6610     3.8890    -1.4490 F     1 <1>  -0.1900 
  9 C       -3.0530     2.0600    -1.6020 C.ar  1 <1>  -0.1500 
 10 S        1.3510     2.3630     0.0550 S.3   1 <1>  -0.4600 
 11 C        2.6350     3.2710     0.9980 C.3   1 <1>   0.1310 
 12 C        4.0490     2.9140     0.5520 C.2   1 <1>   0.5690 
 13 O        4.9750     3.4730     1.0880 O.2   1 <1>  -0.5700 
 14 N        4.2320     1.9870    -0.4260 N.am  1 <1>  -0.7300 
 15 C        5.5350     1.5330    -0.9680 C.3   1 <1>   0.0600 
 16 H       -3.1060    -0.6770     0.3700 H     1 <1>   0.1500 
 17 H       -0.1550     2.7760     1.8420 H     1 <1>   0.0800 
 18 H       -0.2550     4.0170     0.6010 H     1 <1>   0.0800 
 19 H       -4.2590     0.2920    -1.5920 H     1 <1>   0.1500 
 20 H       -3.5370     2.5050    -2.4530 H     1 <1>   0.1500 
 21 H        2.5080     3.0220     2.0350 H     1 <1>   0.0800 
 22 H        2.4610     4.3200     0.8490 H     1 <1>   0.0800 
 23 H        3.3880     1.5650    -0.8300 H     1 <1>   0.3700 
 24 H        6.3440     2.0440    -0.4720 H     1 <1>   0.0800 
 25 H        5.5840     1.7440    -2.0220 H     1 <1>   0.0800 
 26 H        5.6450     0.4740    -0.8110 H     1 <1>   0.0800 
@<TRIPOS>BOND
  1   1   2  1   
  2   2   3  ar  
  3   2   4  ar  
  4   3   5  ar  
  5   3   6  1   
  6   4   7  ar  
  7   4  16  1   
  8   5   8  1   
  9   5   9  ar  
 10   6  10  1   
 11   6  17  1   
 12   6  18  1   
 13   7   9  ar  
 14   7  19  1   
 15   9  20  1   
 16  10  11  1   
 17  11  12  1   
 18  11  21  1   
 19  11  22  1   
 20  12  13  2   
 21  12  14  am  
 22  14  15  1   
 23  14  23  1   
 24  15  24  1   
 25  15  25  1   
 26  15  26  1   
@<TRIPOS>SUBSTRUCTURE
  1 ****  10 GROUP 4 **** **** 0

# MOE 2024.06 (io_trps.svl 2023.06)
