@<TRIPOS>MOLECULE
NONAME
38 40 1 0 0 
SMALL
USER_CHARGES


@<TRIPOS>ATOM
  1 CL      -0.3950    -0.4530     0.9260 Cl    1 <1>  -0.1770 
  2 C       -2.0920    -0.2560     0.5700 C.ar  1 <1>   0.1770 
  3 C       -3.0040    -0.2160     1.6070 C.ar  1 <1>  -0.1500 
  4 C       -2.5020    -0.1430    -0.7450 C.ar  1 <1>  -0.1500 
  5 C       -4.3490    -0.0610     1.3200 C.ar  1 <1>  -0.1500 
  6 C       -3.8490     0.0140    -1.0230 C.ar  1 <1>  -0.1500 
  7 C       -4.7910     0.0560     0.0030 C.ar  1 <1>   0.1170 
  8 N       -6.1670     0.2150    -0.2830 N.am  1 <1>  -0.2370 
  9 C       -6.8730    -0.4980    -1.2160 C.2   1 <1>   0.5690 
 10 C       -6.9980     1.1170     0.3270 C.2   1 <1>   0.5690 
 11 O       -6.4020    -1.2740    -2.0120 O.2   1 <1>  -0.5700 
 12 C       -8.3650    -0.1380    -1.1680 C.3   1 <1>   0.2510 
 13 O       -6.7040     1.8760     1.2120 O.2   1 <1>  -0.5700 
 14 C       -8.3960     1.0780    -0.2370 C.3   1 <1>  -0.0990 
 15 N       -9.2270    -1.2160    -0.6320 N.3   1 <1>  -0.9000 
 16 C      -10.6680    -0.9810    -0.8370 C.3   1 <1>   0.1100 
 17 C      -11.5050    -2.1730    -0.3530 C.3   1 <1>   0.2000 
 18 O      -12.8510    -1.8440    -0.4400 O.3   1 <1>  -0.5600 
 19 C      -11.3110    -2.5430     1.1120 C.3   1 <1>  -0.1600 
 20 C      -13.5990    -2.6770     0.3860 C.3   1 <1>   0.1200 
 21 C      -12.6560    -3.1400     1.4950 C.3   1 <1>  -0.1600 
 22 H       -2.6620    -0.3040     2.6230 H     1 <1>   0.1500 
 23 H       -1.7750    -0.1780    -1.5370 H     1 <1>   0.1500 
 24 H       -5.0600    -0.0250     2.1270 H     1 <1>   0.1500 
 25 H       -4.1690     0.0970    -2.0470 H     1 <1>   0.1500 
 26 H       -8.6860     0.1250    -2.1610 H     1 <1>   0.0800 
 27 H       -8.5710     1.9790    -0.7940 H     1 <1>   0.0800 
 28 H       -9.1140     0.9910     0.5570 H     1 <1>   0.0800 
 29 H       -9.0370    -1.3750     0.3650 H     1 <1>   0.3600 
 30 H      -10.8610    -0.8360    -1.8870 H     1 <1>   0.0800 
 31 H      -10.9790    -0.1010    -0.3020 H     1 <1>   0.0800 
 32 H      -11.3380    -3.0270    -0.9880 H     1 <1>   0.0800 
 33 H      -11.1220    -1.6560     1.6910 H     1 <1>   0.0800 
 34 H      -10.4980    -3.2360     1.2400 H     1 <1>   0.0800 
 35 H      -13.9490    -3.5080    -0.2020 H     1 <1>   0.0800 
 36 H      -14.4350    -2.1170     0.7690 H     1 <1>   0.0800 
 37 H      -12.9860    -2.7900     2.4570 H     1 <1>   0.0800 
 38 H      -12.6140    -4.2150     1.5080 H     1 <1>   0.0800 
@<TRIPOS>BOND
  1   1   2  1   
  2   2   3  ar  
  3   2   4  ar  
  4   3   5  ar  
  5   3  22  1   
  6   4   6  ar  
  7   4  23  1   
  8   5   7  ar  
  9   5  24  1   
 10   6   7  ar  
 11   6  25  1   
 12   7   8  1   
 13   8   9  am  
 14   8  10  am  
 15   9  11  2   
 16   9  12  1   
 17  10  13  2   
 18  10  14  1   
 19  12  14  1   
 20  12  15  1   
 21  12  26  1   
 22  14  27  1   
 23  14  28  1   
 24  15  16  1   
 25  15  29  1   
 26  16  17  1   
 27  16  30  1   
 28  16  31  1   
 29  17  18  1   
 30  17  19  1   
 31  17  32  1   
 32  18  20  1   
 33  19  21  1   
 34  19  33  1   
 35  19  34  1   
 36  20  21  1   
 37  20  35  1   
 38  20  36  1   
 39  21  37  1   
 40  21  38  1   
@<TRIPOS>SUBSTRUCTURE
  1 ****   9 GROUP 4 **** **** 0

# MOE 2024.06 (io_trps.svl 2023.06)
