@<TRIPOS>MOLECULE
NONAME
42 44 1 0 0 
SMALL
USER_CHARGES


@<TRIPOS>ATOM
  1 O        1.9120     3.0080    -2.1090 O.3   1 <1>  -0.8500 
  2 C        2.5820     2.1190    -1.6050 C.2   1 <1>  -0.2880 
  3 C        2.6050     1.8280    -0.2410 C.2   1 <1>  -0.1240 
  4 C        3.4070     1.3240    -2.5960 C.3   1 <1>  -0.0220 
  5 C        3.3690     0.7740     0.2730 C.2   1 <1>   0.4950 
  6 C        1.7710     2.6660     0.7510 C.3   1 <1>   0.2380 
  7 C        3.6650    -0.0960    -2.0890 C.3   1 <1>  -0.1600 
  8 O        3.4340     0.4280     1.4570 O.2   1 <1>  -0.5700 
  9 C        4.2250    -0.0660    -0.6620 C.3   1 <1>  -0.0990 
 10 C        0.2620     2.4840     0.6110 C.2   1 <1>  -0.0400 
 11 C        2.1690     4.1510     0.9060 C.3   1 <1>   0.0420 
 12 O       -0.5020     2.7370     1.6610 O.3   1 <1>  -0.2800 
 13 C       -0.5010     2.0870    -0.4300 C.2   1 <1>  -0.1500 
 14 C        1.4870     5.1860     0.0170 C.2   1 <1>   0.4480 
 15 C        3.6700     4.3590     0.9840 C.2   1 <1>   0.4480 
 16 C       -1.7530     2.5180     1.3130 C.2   1 <1>  -0.0400 
 17 C       -1.8230     2.1100     0.0290 C.2   1 <1>  -0.1500 
 18 O        0.4670     5.7020     0.3760 O.2   1 <1>  -0.5700 
 19 C        2.1920     5.7690    -1.2040 C.3   1 <1>  -0.0990 
 20 O        4.3350     3.7890     1.7990 O.2   1 <1>  -0.5700 
 21 C        4.3310     5.3990     0.0930 C.3   1 <1>  -0.0990 
 22 C       -2.8360     2.7540     2.3380 C.3   1 <1>  -0.0600 
 23 C        3.6950     5.4630    -1.2950 C.3   1 <1>  -0.1600 
 24 H        4.3340     1.8410    -2.7630 H     1 <1>   0.0800 
 25 H        2.8780     1.2790    -3.5320 H     1 <1>   0.0800 
 26 H        1.9710     2.2560     1.7230 H     1 <1>   0.0800 
 27 H        4.3420    -0.6060    -2.7490 H     1 <1>   0.0800 
 28 H        2.7280    -0.6260    -2.0850 H     1 <1>   0.0800 
 29 H        4.2800    -1.0700    -0.2810 H     1 <1>   0.0800 
 30 H        5.2160     0.3490    -0.6640 H     1 <1>   0.0800 
 31 H        1.8200     4.4050     1.8890 H     1 <1>   0.0800 
 32 H       -0.1680     1.8220    -1.4200 H     1 <1>   0.1500 
 33 H       -2.6830     1.8540    -0.5610 H     1 <1>   0.1500 
 34 H        2.0610     6.8340    -1.1670 H     1 <1>   0.0800 
 35 H        1.6940     5.4250    -2.0920 H     1 <1>   0.0800 
 36 H        5.3730     5.1550    -0.0040 H     1 <1>   0.0800 
 37 H        4.2550     6.3570     0.5720 H     1 <1>   0.0800 
 38 H       -2.6710     2.1180     3.1890 H     1 <1>   0.0800 
 39 H       -3.7990     2.5400     1.9150 H     1 <1>   0.0800 
 40 H       -2.8090     3.7800     2.6560 H     1 <1>   0.0800 
 41 H        4.1820     6.2060    -1.9000 H     1 <1>   0.0800 
 42 H        3.8380     4.5130    -1.7810 H     1 <1>   0.0800 
@<TRIPOS>BOND
  1   1   2  1   
  2   2   3  2   
  3   2   4  1   
  4   3   5  1   
  5   3   6  1   
  6   4   7  1   
  7   4  24  1   
  8   4  25  1   
  9   5   8  2   
 10   5   9  1   
 11   6  10  1   
 12   6  11  1   
 13   6  26  1   
 14   7   9  1   
 15   7  27  1   
 16   7  28  1   
 17   9  29  1   
 18   9  30  1   
 19  10  12  1   
 20  10  13  2   
 21  11  14  1   
 22  11  15  1   
 23  11  31  1   
 24  12  16  1   
 25  13  17  1   
 26  13  32  1   
 27  14  18  2   
 28  14  19  1   
 29  15  20  2   
 30  15  21  1   
 31  16  17  2   
 32  16  22  1   
 33  17  33  1   
 34  19  23  1   
 35  19  34  1   
 36  19  35  1   
 37  21  23  1   
 38  21  36  1   
 39  21  37  1   
 40  22  38  1   
 41  22  39  1   
 42  22  40  1   
 43  23  41  1   
 44  23  42  1   
@<TRIPOS>SUBSTRUCTURE
  1 ****   6 GROUP 4 **** **** 0

# MOE 2024.06 (io_trps.svl 2023.06)
