@<TRIPOS>MOLECULE
NONAME
40 40 1 0 0 
SMALL
USER_CHARGES


@<TRIPOS>ATOM
  1 O        0.4630    -0.3170    -0.2200 O.3   1 <1>  -0.3630 
  2 C       -0.7980    -0.7960    -0.0730 C.ar  1 <1>   0.0830 
  3 C        1.5870    -1.1150     0.0500 C.3   1 <1>   0.1200 
  4 C       -1.8320     0.0780    -0.3660 C.ar  1 <1>  -0.1500 
  5 C       -1.0930    -2.0910     0.3490 C.ar  1 <1>  -0.1500 
  6 C        2.8190    -0.2480    -0.2240 C.3   1 <1>   0.3430 
  7 C       -3.1490    -0.3280    -0.2430 C.ar  1 <1>  -0.1500 
  8 C       -2.4120    -2.4940     0.4700 C.ar  1 <1>  -0.1500 
  9 N        4.1010    -0.9850     0.0280 N.4   1 <1>  -0.9060 
 10 C       -3.4390    -1.6140     0.1750 C.ar  1 <1>  -0.1500 
 11 C        5.2910    -0.1310    -0.2400 C.3   1 <1>   0.3430 
 12 C        6.5810    -0.9160     0.0330 C.3   1 <1>  -0.1600 
 13 C        7.8220    -0.0430    -0.2190 C.3   1 <1>   0.3430 
 14 N        9.0790    -0.7670     0.1420 N.4   1 <1>  -0.9590 
 15 C       10.2310     0.1920     0.2130 C.3   1 <1>   0.2630 
 16 C        9.4250    -1.8730    -0.8130 C.3   1 <1>   0.2630 
 17 H        1.5530    -1.9670    -0.6060 H     1 <1>   0.0800 
 18 H        1.5400    -1.4150     1.0830 H     1 <1>   0.0800 
 19 H       -1.6060     1.0770    -0.6910 H     1 <1>   0.1500 
 20 H       -0.3250    -2.8010     0.5860 H     1 <1>   0.1500 
 21 H        2.7690     0.6230     0.4110 H     1 <1>   0.0800 
 22 H        2.7820     0.0780    -1.2510 H     1 <1>   0.0800 
 23 H       -3.9480     0.3560    -0.4730 H     1 <1>   0.1500 
 24 H       -2.6440    -3.4940     0.7960 H     1 <1>   0.1500 
 25 H        4.1200    -1.8250    -0.5680 H     1 <1>   0.4500 
 26 H        4.1060    -1.3100     1.0060 H     1 <1>   0.4500 
 27 H       -4.4640    -1.9310     0.2710 H     1 <1>   0.1500 
 28 H        5.2550     0.7440     0.3930 H     1 <1>   0.0800 
 29 H        5.2740     0.1980    -1.2680 H     1 <1>   0.0800 
 30 H        6.6110    -1.7740    -0.6140 H     1 <1>   0.0800 
 31 H        6.5860    -1.2380     1.0600 H     1 <1>   0.0800 
 32 H        7.7490     0.8510     0.3800 H     1 <1>   0.0800 
 33 H        7.8620     0.2560    -1.2560 H     1 <1>   0.0800 
 34 H        8.9770    -1.1790     1.0840 H     1 <1>   0.4500 
 35 H       10.4010     0.6500    -0.7490 H     1 <1>   0.0800 
 36 H       11.1300    -0.3240     0.5090 H     1 <1>   0.0800 
 37 H       10.0330     0.9690     0.9340 H     1 <1>   0.0800 
 38 H        9.5530    -1.4850    -1.8100 H     1 <1>   0.0800 
 39 H        8.6480    -2.6200    -0.8290 H     1 <1>   0.0800 
 40 H       10.3450    -2.3510    -0.5130 H     1 <1>   0.0800 
@<TRIPOS>BOND
  1   1   2  1   
  2   1   3  1   
  3   2   4  ar  
  4   2   5  ar  
  5   3   6  1   
  6   3  17  1   
  7   3  18  1   
  8   4   7  ar  
  9   4  19  1   
 10   5   8  ar  
 11   5  20  1   
 12   6   9  1   
 13   6  21  1   
 14   6  22  1   
 15   7  10  ar  
 16   7  23  1   
 17   8  10  ar  
 18   8  24  1   
 19   9  11  1   
 20   9  25  1   
 21   9  26  1   
 22  10  27  1   
 23  11  12  1   
 24  11  28  1   
 25  11  29  1   
 26  12  13  1   
 27  12  30  1   
 28  12  31  1   
 29  13  14  1   
 30  13  32  1   
 31  13  33  1   
 32  14  15  1   
 33  14  16  1   
 34  14  34  1   
 35  15  35  1   
 36  15  36  1   
 37  15  37  1   
 38  16  38  1   
 39  16  39  1   
 40  16  40  1   
@<TRIPOS>SUBSTRUCTURE
  1 ****   6 GROUP 4 **** **** 0

# MOE 2024.06 (io_trps.svl 2023.06)
