@<TRIPOS>MOLECULE
NONAME
48 50 1 0 0 
SMALL
USER_CHARGES


@<TRIPOS>ATOM
  1 S       -0.1800     1.2060    -0.8010 S.o2  1 <1>   1.4470 
  2 O        0.1790     1.5380    -2.1620 O.2   1 <1>  -0.6500 
  3 O       -0.5080     2.2860     0.1060 O.2   1 <1>  -0.6500 
  4 N        1.1460     0.3990    -0.1250 N.am  1 <1>  -0.8490 
  5 C       -1.5020    -0.0530    -0.7720 C.ar  1 <1>  -0.0090 
  6 C        2.3810     1.1520    -0.2420 C.3   1 <1>   0.1960 
  7 C        1.0130     0.0910     1.2890 C.3   1 <1>   0.1960 
  8 C       -1.4960    -1.1920    -1.5760 C.ar  1 <1>  -0.1440 
  9 C       -2.5680     0.1060     0.1060 C.ar  1 <1>  -0.1500 
 10 C        3.3340     0.4820     0.7410 C.3   1 <1>  -0.1600 
 11 C        2.4290    -0.2520     1.7310 C.3   1 <1>  -0.1600 
 12 C       -2.5330    -2.1050    -1.4890 C.ar  1 <1>  -0.1500 
 13 C       -0.3700    -1.4720    -2.5640 C.3   1 <1>  -0.0970 
 14 C       -3.6170    -0.7990     0.2160 C.ar  1 <1>  -0.0090 
 15 C       -3.5880    -1.9200    -0.6110 C.ar  1 <1>  -0.1440 
 16 S       -4.9640    -0.4560     1.4000 S.o2  1 <1>   1.4470 
 17 C       -4.6930    -2.9700    -0.5810 C.3   1 <1>  -0.0960 
 18 O       -5.3090    -1.6510     2.1400 O.2   1 <1>  -0.6500 
 19 O       -4.6710     0.7520     2.1430 O.2   1 <1>  -0.6500 
 20 N       -6.2830    -0.0970     0.4020 N.am  1 <1>  -0.8490 
 21 C       -6.1650     1.1500    -0.3350 C.3   1 <1>   0.1960 
 22 C       -7.5310     0.0030     1.1350 C.3   1 <1>   0.1960 
 23 C       -7.5810     1.4310    -0.8210 C.3   1 <1>  -0.1600 
 24 C       -8.4850     0.7040     0.1750 C.3   1 <1>  -0.1600 
 25 H        2.2140     2.1770     0.0500 H     1 <1>   0.0800 
 26 H        2.7550     1.1250    -1.2530 H     1 <1>   0.0800 
 27 H        0.3320    -0.7300     1.4470 H     1 <1>   0.0800 
 28 H        0.6680     0.9570     1.8320 H     1 <1>   0.0800 
 29 H       -2.5810     0.9810     0.7370 H     1 <1>   0.1500 
 30 H        3.9530     1.2160     1.2260 H     1 <1>   0.0800 
 31 H        3.9630    -0.2170     0.2180 H     1 <1>   0.0800 
 32 H        2.5810    -1.3150     1.6560 H     1 <1>   0.0800 
 33 H        2.6010     0.0580     2.7470 H     1 <1>   0.0800 
 34 H       -2.5200    -2.9780    -2.1190 H     1 <1>   0.1500 
 35 H       -0.3810    -0.7420    -3.3550 H     1 <1>   0.0800 
 36 H       -0.4740    -2.4450    -3.0080 H     1 <1>   0.0800 
 37 H        0.5850    -1.4360    -2.0710 H     1 <1>   0.0800 
 38 H       -4.5620    -3.6950    -1.3630 H     1 <1>   0.0800 
 39 H       -5.6560    -2.5100    -0.7180 H     1 <1>   0.0800 
 40 H       -4.6860    -3.4890     0.3600 H     1 <1>   0.0800 
 41 H       -5.4710     1.0550    -1.1540 H     1 <1>   0.0800 
 42 H       -5.8460     1.9450     0.3200 H     1 <1>   0.0800 
 43 H       -7.3900     0.6070     2.0180 H     1 <1>   0.0800 
 44 H       -7.8890    -0.9720     1.4230 H     1 <1>   0.0800 
 45 H       -7.7100     1.0220    -1.8070 H     1 <1>   0.0800 
 46 H       -7.7740     2.4890    -0.8500 H     1 <1>   0.0800 
 47 H       -9.1270     1.3830     0.7090 H     1 <1>   0.0800 
 48 H       -9.0910    -0.0260    -0.3330 H     1 <1>   0.0800 
@<TRIPOS>BOND
  1   1   2  2   
  2   1   3  2   
  3   1   4  am  
  4   1   5  1   
  5   4   6  1   
  6   4   7  1   
  7   5   8  ar  
  8   5   9  ar  
  9   6  10  1   
 10   6  25  1   
 11   6  26  1   
 12   7  11  1   
 13   7  27  1   
 14   7  28  1   
 15   8  12  ar  
 16   8  13  1   
 17   9  14  ar  
 18   9  29  1   
 19  10  11  1   
 20  10  30  1   
 21  10  31  1   
 22  11  32  1   
 23  11  33  1   
 24  12  15  ar  
 25  12  34  1   
 26  13  35  1   
 27  13  36  1   
 28  13  37  1   
 29  14  15  ar  
 30  14  16  1   
 31  15  17  1   
 32  16  18  2   
 33  16  19  2   
 34  16  20  am  
 35  17  38  1   
 36  17  39  1   
 37  17  40  1   
 38  20  21  1   
 39  20  22  1   
 40  21  23  1   
 41  21  41  1   
 42  21  42  1   
 43  22  24  1   
 44  22  43  1   
 45  22  44  1   
 46  23  24  1   
 47  23  45  1   
 48  23  46  1   
 49  24  47  1   
 50  24  48  1   
@<TRIPOS>SUBSTRUCTURE
  1 ****   9 GROUP 4 **** **** 0

# MOE 2024.06 (io_trps.svl 2023.06)
