@<TRIPOS>MOLECULE
NONAME
32 32 1 0 0 
SMALL
USER_CHARGES


@<TRIPOS>ATOM
  1 O       -0.2250    -1.0700    -1.9510 O.2   1 <1>  -0.5700 
  2 C       -0.4700    -1.7380    -0.9740 C.2   1 <1>   0.5690 
  3 N        0.2440    -1.6090     0.1790 N.am  1 <1>  -0.7300 
  4 C       -1.6190    -2.7540    -1.0360 C.3   1 <1>   0.2610 
  5 C        1.3810    -0.6980     0.3960 C.3   1 <1>   0.1400 
  6 O       -2.1260    -3.0020     0.2680 O.3   1 <1>  -0.3620 
  7 C       -1.1790    -4.1000    -1.6220 C.3   1 <1>  -0.2400 
  8 C        2.5160    -1.4850     1.0400 C.3   1 <1>  -0.2400 
  9 C       -3.4610    -2.8850     0.4340 C.ar  1 <1>   0.0820 
 10 C       -4.0740    -1.6360     0.5240 C.ar  1 <1>  -0.1440 
 11 C       -4.2110    -4.0470     0.5240 C.ar  1 <1>  -0.1500 
 12 C       -5.4510    -1.5790     0.6780 C.ar  1 <1>  -0.1500 
 13 C       -3.2760    -0.3410     0.4670 C.3   1 <1>  -0.0970 
 14 C       -5.5820    -3.9760     0.6820 C.ar  1 <1>  -0.1500 
 15 C       -6.2020    -2.7400     0.7550 C.ar  1 <1>  -0.1500 
 16 H       -0.0620    -2.1600     0.9860 H     1 <1>   0.3700 
 17 H       -2.4050    -2.3360    -1.6410 H     1 <1>   0.0800 
 18 H        1.0750     0.1100     1.0390 H     1 <1>   0.0800 
 19 H        1.7060    -0.2840    -0.5440 H     1 <1>   0.0800 
 20 H       -0.4060    -4.5350    -1.0150 H     1 <1>   0.0800 
 21 H       -0.7920    -3.9500    -2.6140 H     1 <1>   0.0800 
 22 H       -2.0170    -4.7700    -1.6790 H     1 <1>   0.0800 
 23 H        2.2080    -1.8820     1.9910 H     1 <1>   0.0800 
 24 H        3.3590    -0.8380     1.1970 H     1 <1>   0.0800 
 25 H        2.8210    -2.2900     0.3940 H     1 <1>   0.0800 
 26 H       -3.7170    -5.0000     0.4700 H     1 <1>   0.1500 
 27 H       -5.9490    -0.6270     0.7420 H     1 <1>   0.1500 
 28 H       -3.0100    -0.1140    -0.5500 H     1 <1>   0.0800 
 29 H       -2.3780    -0.4320     1.0510 H     1 <1>   0.0800 
 30 H       -3.8490     0.4780     0.8620 H     1 <1>   0.0800 
 31 H       -6.1660    -4.8770     0.7480 H     1 <1>   0.1500 
 32 H       -7.2700    -2.6820     0.8760 H     1 <1>   0.1500 
@<TRIPOS>BOND
  1   1   2  2   
  2   2   3  am  
  3   2   4  1   
  4   3   5  1   
  5   3  16  1   
  6   4   6  1   
  7   4   7  1   
  8   4  17  1   
  9   5   8  1   
 10   5  18  1   
 11   5  19  1   
 12   6   9  1   
 13   7  20  1   
 14   7  21  1   
 15   7  22  1   
 16   8  23  1   
 17   8  24  1   
 18   8  25  1   
 19   9  10  ar  
 20   9  11  ar  
 21  10  12  ar  
 22  10  13  1   
 23  11  14  ar  
 24  11  26  1   
 25  12  15  ar  
 26  12  27  1   
 27  13  28  1   
 28  13  29  1   
 29  13  30  1   
 30  14  15  ar  
 31  14  31  1   
 32  15  32  1   
@<TRIPOS>SUBSTRUCTURE
  1 ****   6 GROUP 4 **** **** 0

# MOE 2024.06 (io_trps.svl 2023.06)
