@<TRIPOS>MOLECULE
NONAME
48 49 1 0 0 
SMALL
USER_CHARGES


@<TRIPOS>ATOM
  1 O       -0.7630    -2.4350     1.8070 O.2   1 <1>  -0.5700 
  2 C       -0.1520    -3.1770     1.0610 C.2   1 <1>   0.5440 
  3 N       -0.8800    -4.0160     0.2620 N.am  1 <1>  -0.7300 
  4 C        1.3000    -3.1570     1.0000 C.ar  1 <1>   0.0860 
  5 C       -2.3430    -4.1260     0.3170 C.3   1 <1>   0.2200 
  6 C        2.0320    -4.2510     0.5360 C.ar  1 <1>  -0.1500 
  7 C        2.0210    -2.0330     1.4040 C.ar  1 <1>  -0.1500 
  8 C       -2.7690    -5.5260    -0.1050 C.3   1 <1>  -0.1600 
  9 C       -2.9540    -3.0960    -0.6260 C.3   1 <1>  -0.1600 
 10 C        3.4120    -4.2260     0.4570 C.ar  1 <1>   0.0830 
 11 C        3.4020    -1.9940     1.3340 C.ar  1 <1>  -0.1500 
 12 C       -4.2970    -5.6780    -0.1030 C.3   1 <1>   0.5030 
 13 C       -4.4850    -3.1680    -0.6330 C.3   1 <1>   0.5030 
 14 O        4.0110    -5.3450    -0.0190 O.3   1 <1>  -0.3630 
 15 C        4.1030    -3.0870     0.8590 C.ar  1 <1>  -0.1500 
 16 N       -4.9530    -4.5560    -0.7990 N.4   1 <1>  -0.9060 
 17 C       -4.6840    -6.9290    -0.8900 C.3   1 <1>  -0.2400 
 18 C       -4.8600    -5.8160     1.3140 C.3   1 <1>  -0.2400 
 19 C       -5.0240    -2.4070    -1.8430 C.3   1 <1>  -0.2400 
 20 C       -5.0980    -2.5530     0.6270 C.3   1 <1>  -0.2400 
 21 C        5.4150    -5.4410    -0.1150 C.3   1 <1>   0.0400 
 22 H       -0.3910    -4.5530    -0.4560 H     1 <1>   0.3700 
 23 H       -2.6580    -3.9350     1.3300 H     1 <1>   0.0800 
 24 H        1.5320    -5.1510     0.2350 H     1 <1>   0.1500 
 25 H        1.4860    -1.1760     1.7780 H     1 <1>   0.1500 
 26 H       -2.3390    -6.2470     0.5680 H     1 <1>   0.0800 
 27 H       -2.3880    -5.7290    -1.0900 H     1 <1>   0.0800 
 28 H       -2.5750    -3.2560    -1.6190 H     1 <1>   0.0800 
 29 H       -2.6480    -2.1100    -0.3170 H     1 <1>   0.0800 
 30 H        3.9320    -1.1120     1.6520 H     1 <1>   0.1500 
 31 H        5.1740    -3.0350     0.8110 H     1 <1>   0.1500 
 32 H       -5.9480    -4.5790    -0.5650 H     1 <1>   0.4500 
 33 H       -4.8900    -4.7600    -1.7970 H     1 <1>   0.4500 
 34 H       -4.3370    -6.8780    -1.9070 H     1 <1>   0.0800 
 35 H       -5.7500    -7.0760    -0.8880 H     1 <1>   0.0800 
 36 H       -4.2360    -7.7980    -0.4390 H     1 <1>   0.0800 
 37 H       -4.5200    -5.0390     1.9690 H     1 <1>   0.0800 
 38 H       -4.5270    -6.7430     1.7460 H     1 <1>   0.0800 
 39 H       -5.9350    -5.8290     1.3080 H     1 <1>   0.0800 
 40 H       -4.6460    -2.8130    -2.7650 H     1 <1>   0.0800 
 41 H       -4.7150    -1.3770    -1.7930 H     1 <1>   0.0800 
 42 H       -6.1000    -2.4220    -1.8650 H     1 <1>   0.0800 
 43 H       -4.6640    -2.9390     1.5280 H     1 <1>   0.0800 
 44 H       -6.1630    -2.6940     0.6560 H     1 <1>   0.0800 
 45 H       -4.9110    -1.4930     0.6360 H     1 <1>   0.0800 
 46 H        5.6570    -6.4130    -0.5050 H     1 <1>   0.0800 
 47 H        5.8420    -5.3240     0.8650 H     1 <1>   0.0800 
 48 H        5.7720    -4.6790    -0.7860 H     1 <1>   0.0800 
@<TRIPOS>BOND
  1   1   2  2   
  2   2   3  am  
  3   2   4  1   
  4   3   5  1   
  5   3  22  1   
  6   4   6  ar  
  7   4   7  ar  
  8   5   8  1   
  9   5   9  1   
 10   5  23  1   
 11   6  10  ar  
 12   6  24  1   
 13   7  11  ar  
 14   7  25  1   
 15   8  12  1   
 16   8  26  1   
 17   8  27  1   
 18   9  13  1   
 19   9  28  1   
 20   9  29  1   
 21  10  14  1   
 22  10  15  ar  
 23  11  15  ar  
 24  11  30  1   
 25  12  16  1   
 26  12  17  1   
 27  12  18  1   
 28  13  16  1   
 29  13  19  1   
 30  13  20  1   
 31  14  21  1   
 32  15  31  1   
 33  16  32  1   
 34  16  33  1   
 35  17  34  1   
 36  17  35  1   
 37  17  36  1   
 38  18  37  1   
 39  18  38  1   
 40  18  39  1   
 41  19  40  1   
 42  19  41  1   
 43  19  42  1   
 44  20  43  1   
 45  20  44  1   
 46  20  45  1   
 47  21  46  1   
 48  21  47  1   
 49  21  48  1   
@<TRIPOS>SUBSTRUCTURE
  1 ****   3 GROUP 4 **** **** 0

# MOE 2024.06 (io_trps.svl 2023.06)
