@<TRIPOS>MOLECULE
NONAME
34 35 1 0 0 
SMALL
USER_CHARGES


@<TRIPOS>ATOM
  1 N       -0.3800     0.0530     0.5180 N.4   1 <1>  -0.9060 
  2 C       -1.4140     0.8150    -0.2400 C.3   1 <1>   0.3430 
  3 C       -0.2160    -1.3430     0.0300 C.3   1 <1>   0.3430 
  4 C       -2.7770     0.1090    -0.1430 C.3   1 <1>  -0.0800 
  5 C       -1.5490    -2.0860     0.1460 C.3   1 <1>  -0.1600 
  6 C       -2.6780    -1.3570    -0.5990 C.3   1 <1>  -0.1600 
  7 C       -3.8400     0.8680    -0.9560 C.3   1 <1>  -0.0170 
  8 C       -3.8080     2.3490    -0.6150 C.ar  1 <1>  -0.1430 
  9 C       -3.2830     3.2670    -1.5120 C.ar  1 <1>  -0.1500 
 10 C       -4.2870     2.7940     0.6070 C.ar  1 <1>  -0.1500 
 11 C       -3.2210     4.6100    -1.1810 C.ar  1 <1>  -0.1500 
 12 C       -4.2240     4.1370     0.9360 C.ar  1 <1>  -0.1500 
 13 C       -3.6860     5.0510     0.0460 C.ar  1 <1>  -0.1430 
 14 C       -3.6230     6.5240     0.4060 C.3   1 <1>  -0.0970 
 15 H       -0.6540     0.0310     1.5070 H     1 <1>   0.4500 
 16 H        0.5170     0.5520     0.4670 H     1 <1>   0.4500 
 17 H       -1.1260     0.8910    -1.2760 H     1 <1>   0.0800 
 18 H       -1.4990     1.8150     0.1580 H     1 <1>   0.0800 
 19 H        0.5360    -1.8540     0.6110 H     1 <1>   0.0800 
 20 H        0.1010    -1.3340    -1.0010 H     1 <1>   0.0800 
 21 H       -3.0860     0.1300     0.8890 H     1 <1>   0.0800 
 22 H       -1.8080    -2.1990     1.1850 H     1 <1>   0.0800 
 23 H       -1.4350    -3.0750    -0.2640 H     1 <1>   0.0800 
 24 H       -2.4870    -1.3980    -1.6590 H     1 <1>   0.0800 
 25 H       -3.6130    -1.8610    -0.4170 H     1 <1>   0.0800 
 26 H       -4.8190     0.4750    -0.7390 H     1 <1>   0.0800 
 27 H       -3.6680     0.7380    -2.0100 H     1 <1>   0.0800 
 28 H       -2.9240     2.9520    -2.4760 H     1 <1>   0.1500 
 29 H       -4.7160     2.1020     1.3120 H     1 <1>   0.1500 
 30 H       -2.8150     5.3140    -1.8870 H     1 <1>   0.1500 
 31 H       -4.6010     4.4700     1.8880 H     1 <1>   0.1500 
 32 H       -2.7890     6.9970    -0.0810 H     1 <1>   0.0800 
 33 H       -3.5090     6.6490     1.4680 H     1 <1>   0.0800 
 34 H       -4.5280     7.0130     0.0950 H     1 <1>   0.0800 
@<TRIPOS>BOND
  1   1   2  1   
  2   1   3  1   
  3   1  15  1   
  4   1  16  1   
  5   2   4  1   
  6   2  17  1   
  7   2  18  1   
  8   3   5  1   
  9   3  19  1   
 10   3  20  1   
 11   4   6  1   
 12   4   7  1   
 13   4  21  1   
 14   5   6  1   
 15   5  22  1   
 16   5  23  1   
 17   6  24  1   
 18   6  25  1   
 19   7   8  1   
 20   7  26  1   
 21   7  27  1   
 22   8   9  ar  
 23   8  10  ar  
 24   9  11  ar  
 25   9  28  1   
 26  10  12  ar  
 27  10  29  1   
 28  11  13  ar  
 29  11  30  1   
 30  12  13  ar  
 31  12  31  1   
 32  13  14  1   
 33  14  32  1   
 34  14  33  1   
 35  14  34  1   
@<TRIPOS>SUBSTRUCTURE
  1 ****   8 GROUP 4 **** **** 0

# MOE 2024.06 (io_trps.svl 2023.06)
