@<TRIPOS>MOLECULE
NONAME
51 53 1 0 0 
SMALL
USER_CHARGES


@<TRIPOS>ATOM
  1 CL      -0.6300    -0.5610     1.2060 Cl    1 <1>  -0.1840 
  2 C        0.8080    -1.5410     1.1840 C.ar  1 <1>   0.1700 
  3 C        1.3870    -1.8730    -0.0250 C.ar  1 <1>  -0.1570 
  4 C        1.3560    -1.9760     2.3760 C.ar  1 <1>  -0.1570 
  5 C        2.5360    -2.6430    -0.0400 C.ar  1 <1>  -0.1570 
  6 C        2.5060    -2.7450     2.3540 C.ar  1 <1>  -0.1570 
  7 C        3.1290    -3.0820     1.1490 C.ar  1 <1>   0.0790 
  8 C        4.3660    -3.8370     1.1400 C.2   1 <1>   0.8240 
  9 O        4.4430    -4.9630     1.5510 O.2   1 <1>  -0.5750 
 10 N        5.5480    -3.3410     0.6900 N.pl3 1 <1>  -0.7330 
 11 C        5.9450    -2.1070     0.4100 C.cat 1 <1>   1.0690 
 12 N        5.1870    -1.0250     0.4590 N.pl3 1 <1>  -0.7040 
 13 N        7.1950    -1.7910     0.0420 N.pl3 1 <1>  -0.7670 
 14 C        5.9410     0.0630     0.0800 C.ar  1 <1>   0.3030 
 15 C        7.2100    -0.4140    -0.1960 C.ar  1 <1>   0.3030 
 16 C        8.3830    -2.6710    -0.1910 C.3   1 <1>   0.3480 
 17 C        5.6270     1.4100    -0.0500 C.ar  1 <1>  -0.1170 
 18 C        8.2050     0.4590    -0.6310 C.ar  1 <1>  -0.1170 
 19 C        9.4920    -2.4460     0.8740 C.3   1 <1>   0.3370 
 20 C        6.6180     2.2740    -0.4730 C.ar  1 <1>  -0.1570 
 21 C        7.8990     1.7990    -0.7640 C.ar  1 <1>  -0.1570 
 22 N       10.6960    -3.3510     0.7680 N.4   1 <1>  -0.9610 
 23 C       11.5840    -3.1340     1.9450 C.3   1 <1>   0.3370 
 24 C       11.4740    -3.1770    -0.4940 C.3   1 <1>   0.3370 
 25 C       12.4590    -4.3650     2.1470 C.3   1 <1>  -0.2470 
 26 C       11.1400    -4.3270    -1.4340 C.3   1 <1>  -0.2470 
 27 H        0.9280    -1.5360    -0.9400 H     1 <1>   0.1430 
 28 H        0.8790    -1.7150     3.3060 H     1 <1>   0.1430 
 29 H        2.9680    -2.9120    -0.9910 H     1 <1>   0.1430 
 30 H        2.9220    -3.0920     3.2870 H     1 <1>   0.1430 
 31 H        6.2270    -4.0880     0.6800 H     1 <1>   0.4450 
 32 H        4.1960    -0.9730     0.7020 H     1 <1>   0.4450 
 33 H        8.7770    -2.4540    -1.1700 H     1 <1>   0.0720 
 34 H        8.0810    -3.7030    -0.1740 H     1 <1>   0.0720 
 35 H        4.6370     1.7700     0.1710 H     1 <1>   0.1430 
 36 H        9.1920     0.1090    -0.8680 H     1 <1>   0.1430 
 37 H        9.0490    -2.5860     1.8460 H     1 <1>   0.0720 
 38 H        9.8240    -1.4230     0.8110 H     1 <1>   0.0720 
 39 H        6.4080     3.3270    -0.5850 H     1 <1>   0.1430 
 40 H        8.6500     2.4990    -1.0980 H     1 <1>   0.1430 
 41 H       10.4220    -4.3430     0.8190 H     1 <1>   0.4450 
 42 H       10.9900    -2.9860     2.8330 H     1 <1>   0.0720 
 43 H       12.1980    -2.2590     1.7980 H     1 <1>   0.0720 
 44 H       12.5320    -3.2000    -0.2850 H     1 <1>   0.0720 
 45 H       11.2470    -2.2300    -0.9560 H     1 <1>   0.0720 
 46 H       11.8580    -5.2420     2.3080 H     1 <1>   0.0720 
 47 H       13.0700    -4.2200     3.0210 H     1 <1>   0.0720 
 48 H       13.1190    -4.5260     1.3140 H     1 <1>   0.0720 
 49 H       11.4120    -5.2690    -0.9910 H     1 <1>   0.0720 
 50 H       11.7140    -4.2170    -2.3370 H     1 <1>   0.0720 
 51 H       10.1020    -4.3420    -1.7060 H     1 <1>   0.0720 
@<TRIPOS>BOND
  1   1   2  1   
  2   2   3  ar  
  3   2   4  ar  
  4   3   5  ar  
  5   3  27  1   
  6   4   6  ar  
  7   4  28  1   
  8   5   7  ar  
  9   5  29  1   
 10   6   7  ar  
 11   6  30  1   
 12   7   8  1   
 13   8   9  2   
 14   8  10  1   
 15  10  11  ar  
 16  10  31  1   
 17  11  12  ar  
 18  11  13  ar  
 19  12  14  1   
 20  12  32  1   
 21  13  15  1   
 22  13  16  1   
 23  14  15  ar  
 24  14  17  ar  
 25  15  18  ar  
 26  16  19  1   
 27  16  33  1   
 28  16  34  1   
 29  17  20  ar  
 30  17  35  1   
 31  18  21  ar  
 32  18  36  1   
 33  19  22  1   
 34  19  37  1   
 35  19  38  1   
 36  20  21  ar  
 37  20  39  1   
 38  21  40  1   
 39  22  23  1   
 40  22  24  1   
 41  22  41  1   
 42  23  25  1   
 43  23  42  1   
 44  23  43  1   
 45  24  26  1   
 46  24  44  1   
 47  24  45  1   
 48  25  46  1   
 49  25  47  1   
 50  25  48  1   
 51  26  49  1   
 52  26  50  1   
 53  26  51  1   
@<TRIPOS>SUBSTRUCTURE
  1 ****  11 GROUP 4 **** **** 0

# MOE 2024.06 (io_trps.svl 2023.06)
