@<TRIPOS>MOLECULE
NONAME
42 42 1 0 0 
SMALL
USER_CHARGES


@<TRIPOS>ATOM
  1 O        1.0050    -0.9350    -1.5080 O.3   1 <1>  -0.3630 
  2 C        0.2820    -1.8520    -0.8210 C.ar  1 <1>   0.0830 
  3 C        2.3730    -0.7190    -1.2360 C.3   1 <1>   0.0400 
  4 C        0.7780    -2.5940     0.2460 C.ar  1 <1>  -0.1500 
  5 C       -1.0280    -2.0300    -1.2340 C.ar  1 <1>  -0.1500 
  6 C       -0.0460    -3.5120     0.8880 C.ar  1 <1>   0.0830 
  7 C       -1.8570    -2.9360    -0.5910 C.ar  1 <1>  -0.1430 
  8 O        0.3440    -4.2790     1.9350 O.3   1 <1>  -0.3630 
  9 C       -1.3540    -3.6790     0.4640 C.ar  1 <1>  -0.1500 
 10 C       -3.2970    -3.1030    -1.0330 C.3   1 <1>   0.4860 
 11 C        1.6720    -4.2540     2.4140 C.3   1 <1>   0.0400 
 12 N       -4.1900    -2.4270    -0.0490 N.4   1 <1>  -0.9590 
 13 C       -5.6070    -2.7480    -0.3340 C.3   1 <1>   0.4810 
 14 C       -3.9220    -0.9670     0.0400 C.3   1 <1>   0.3430 
 15 C       -5.8810    -4.2150    -0.0220 C.2   1 <1>  -0.2760 
 16 C       -4.5380    -0.4050     1.3170 C.3   1 <1>  -0.2400 
 17 C       -5.1730    -5.0140     0.7900 C.2   1 <1>  -0.3000 
 18 C       -7.1210    -4.7350    -0.7380 C.3   1 <1>  -0.1020 
 19 H        2.7370     0.0240    -1.9240 H     1 <1>   0.0800 
 20 H        2.9080    -1.6410    -1.3790 H     1 <1>   0.0800 
 21 H        2.4790    -0.3630    -0.2270 H     1 <1>   0.0800 
 22 H        1.7890    -2.4590     0.5710 H     1 <1>   0.1500 
 23 H       -1.3760    -1.4440    -2.0670 H     1 <1>   0.1500 
 24 H       -1.9570    -4.4050     0.9790 H     1 <1>   0.1500 
 25 H       -3.5300    -4.1550    -1.0860 H     1 <1>   0.0800 
 26 H       -3.4310    -2.6760    -2.0140 H     1 <1>   0.0800 
 27 H        1.7490    -4.9610     3.2210 H     1 <1>   0.0800 
 28 H        1.8960    -3.2650     2.7730 H     1 <1>   0.0800 
 29 H        2.3370    -4.5360     1.6170 H     1 <1>   0.0800 
 30 H       -3.9740    -2.8400     0.8650 H     1 <1>   0.4500 
 31 H       -5.8180    -2.5500    -1.3720 H     1 <1>   0.0800 
 32 H       -6.2640    -2.1380     0.2650 H     1 <1>   0.0800 
 33 H       -4.3190    -0.4570    -0.8240 H     1 <1>   0.0800 
 34 H       -2.8580    -0.7910     0.0750 H     1 <1>   0.0800 
 35 H       -5.6110    -0.4570     1.3000 H     1 <1>   0.0800 
 36 H       -4.2640     0.6310     1.4090 H     1 <1>   0.0800 
 37 H       -4.1610    -0.9220     2.1810 H     1 <1>   0.0800 
 38 H       -4.3000    -4.7430     1.3560 H     1 <1>   0.1500 
 39 H       -5.4250    -6.0480     0.9700 H     1 <1>   0.1500 
 40 H       -7.2990    -5.7680    -0.4940 H     1 <1>   0.0800 
 41 H       -7.0030    -4.6610    -1.8050 H     1 <1>   0.0800 
 42 H       -7.9900    -4.1720    -0.4440 H     1 <1>   0.0800 
@<TRIPOS>BOND
  1   1   2  1   
  2   1   3  1   
  3   2   4  ar  
  4   2   5  ar  
  5   3  19  1   
  6   3  20  1   
  7   3  21  1   
  8   4   6  ar  
  9   4  22  1   
 10   5   7  ar  
 11   5  23  1   
 12   6   8  1   
 13   6   9  ar  
 14   7   9  ar  
 15   7  10  1   
 16   8  11  1   
 17   9  24  1   
 18  10  12  1   
 19  10  25  1   
 20  10  26  1   
 21  11  27  1   
 22  11  28  1   
 23  11  29  1   
 24  12  13  1   
 25  12  14  1   
 26  12  30  1   
 27  13  15  1   
 28  13  31  1   
 29  13  32  1   
 30  14  16  1   
 31  14  33  1   
 32  14  34  1   
 33  15  17  2   
 34  15  18  1   
 35  16  35  1   
 36  16  36  1   
 37  16  37  1   
 38  17  38  1   
 39  17  39  1   
 40  18  40  1   
 41  18  41  1   
 42  18  42  1   
@<TRIPOS>SUBSTRUCTURE
  1 ****   7 GROUP 4 **** **** 0

# MOE 2024.06 (io_trps.svl 2023.06)
