@<TRIPOS>MOLECULE
NONAME
45 47 1 0 0 
SMALL
USER_CHARGES


@<TRIPOS>ATOM
  1 O       -0.4980    -0.3840    -1.3960 O.3   1 <1>  -0.5600 
  2 C       -1.6510    -1.1310    -1.0660 C.3   1 <1>   0.3440 
  3 C        0.6300    -1.1540    -1.6750 C.3   1 <1>   0.1200 
  4 C       -2.6910    -0.1820    -0.4620 C.ar  1 <1>  -0.1440 
  5 C       -1.3060    -2.2830    -0.0840 C.3   1 <1>   0.0580 
  6 C        1.1360    -1.9450    -0.4160 C.3   1 <1>   0.0000 
  7 C       -4.0500    -0.4360    -0.6150 C.ar  1 <1>   0.0820 
  8 C       -2.3080     0.9420     0.2590 C.ar  1 <1>  -0.1500 
  9 C       -1.1200    -3.6260    -0.8190 C.2   1 <1>  -0.2760 
 10 C       -0.0040    -1.9340     0.6630 C.3   1 <1>  -0.0800 
 11 C        1.4090    -3.3960    -0.9390 C.3   1 <1>   0.0580 
 12 C        2.4090    -1.1900     0.0490 C.3   1 <1>   0.1200 
 13 O       -4.4710    -1.5150    -1.2980 O.3   1 <1>  -0.5330 
 14 C       -5.0020     0.4100    -0.0660 C.ar  1 <1>  -0.1500 
 15 C       -3.2540     1.7890     0.8110 C.ar  1 <1>  -0.1500 
 16 C        0.0790    -4.1100    -1.1720 C.2   1 <1>  -0.2880 
 17 C       -2.4160    -4.3660    -1.1090 C.3   1 <1>  -0.1020 
 18 C        0.1200    -2.8300     1.9160 C.3   1 <1>  -0.2400 
 19 C        2.3480    -4.3030    -0.1240 C.3   1 <1>  -0.2400 
 20 O        2.9480    -1.6890     1.2220 O.3   1 <1>  -0.6800 
 21 C       -4.6020     1.5240     0.6490 C.ar  1 <1>  -0.1500 
 22 H       -2.0340    -1.5400    -1.9840 H     1 <1>   0.0800 
 23 H        1.3850    -0.4860    -2.0490 H     1 <1>   0.0800 
 24 H        0.3590    -1.8130    -2.4830 H     1 <1>   0.0800 
 25 H       -2.1090    -2.3860     0.6240 H     1 <1>   0.0800 
 26 H       -1.2630     1.1660     0.3920 H     1 <1>   0.1500 
 27 H       -0.0920    -0.9270     1.0360 H     1 <1>   0.0800 
 28 H        1.8860    -3.3070    -1.9010 H     1 <1>   0.0800 
 29 H        2.1810    -0.1520     0.2230 H     1 <1>   0.0800 
 30 H        3.1720    -1.2490    -0.7070 H     1 <1>   0.0800 
 31 H       -5.4400    -1.5610    -1.3660 H     1 <1>   0.4500 
 32 H       -6.0490     0.2090    -0.1890 H     1 <1>   0.1500 
 33 H       -2.9370     2.6560     1.3650 H     1 <1>   0.1500 
 34 H        0.1970    -5.0560    -1.6720 H     1 <1>   0.1500 
 35 H       -3.0420    -3.7820    -1.7590 H     1 <1>   0.0800 
 36 H       -2.9480    -4.5570    -0.1940 H     1 <1>   0.0800 
 37 H       -2.2160    -5.3070    -1.5880 H     1 <1>   0.0800 
 38 H        0.0590    -3.8720     1.6650 H     1 <1>   0.0800 
 39 H       -0.6940    -2.6160     2.5850 H     1 <1>   0.0800 
 40 H        1.0270    -2.6440     2.4570 H     1 <1>   0.0800 
 41 H        2.0140    -4.4390     0.8840 H     1 <1>   0.0800 
 42 H        3.3470    -3.9070    -0.1170 H     1 <1>   0.0800 
 43 H        2.3950    -5.2740    -0.5840 H     1 <1>   0.0800 
 44 H        2.7970    -2.6530     1.2640 H     1 <1>   0.4000 
 45 H       -5.3350     2.1850     1.0780 H     1 <1>   0.1500 
@<TRIPOS>BOND
  1   1   2  1   
  2   1   3  1   
  3   2   4  1   
  4   2   5  1   
  5   2  22  1   
  6   3   6  1   
  7   3  23  1   
  8   3  24  1   
  9   4   7  ar  
 10   4   8  ar  
 11   5   9  1   
 12   5  10  1   
 13   5  25  1   
 14   6  10  1   
 15   6  11  1   
 16   6  12  1   
 17   7  13  1   
 18   7  14  ar  
 19   8  15  ar  
 20   8  26  1   
 21   9  16  2   
 22   9  17  1   
 23  10  18  1   
 24  10  27  1   
 25  11  16  1   
 26  11  19  1   
 27  11  28  1   
 28  12  20  1   
 29  12  29  1   
 30  12  30  1   
 31  13  31  1   
 32  14  21  ar  
 33  14  32  1   
 34  15  21  ar  
 35  15  33  1   
 36  16  34  1   
 37  17  35  1   
 38  17  36  1   
 39  17  37  1   
 40  18  38  1   
 41  18  39  1   
 42  18  40  1   
 43  19  41  1   
 44  19  42  1   
 45  19  43  1   
 46  20  44  1   
 47  21  45  1   
@<TRIPOS>SUBSTRUCTURE
  1 ****   5 GROUP 4 **** **** 0

# MOE 2024.06 (io_trps.svl 2023.06)
