@<TRIPOS>MOLECULE
NONAME
30 29 1 0 0 
SMALL
USER_CHARGES


@<TRIPOS>ATOM
  1 O       -1.8510    -1.7980    -1.1930 O.2   1 <1>  -0.5700 
  2 C       -1.4010    -1.3710    -0.1470 C.2   1 <1>   0.7800 
  3 O       -0.2840    -1.8610     0.3880 O.3   1 <1>  -0.4300 
  4 N       -1.9940    -0.3770     0.5430 N.am  1 <1>  -0.7300 
  5 C        0.5330    -2.8880    -0.1270 C.3   1 <1>   0.2800 
  6 C       -3.1550     0.4310     0.1330 C.3   1 <1>   0.1400 
  7 C        1.6700    -3.0360     0.8840 C.3   1 <1>  -0.2400 
  8 C        1.1130    -2.4730    -1.4840 C.3   1 <1>  -0.2400 
  9 C       -0.2520    -4.2030    -0.2030 C.3   1 <1>  -0.2400 
 10 C       -2.8810     1.9010     0.4610 C.3   1 <1>  -0.1860 
 11 C       -2.7010     2.0550     1.9690 C.2   1 <1>   0.9060 
 12 C       -3.9880     2.8000    -0.1350 C.3   1 <1>  -0.2400 
 13 O       -3.6090     2.5390     2.6520 O.co2 1 <1>  -0.9000 
 14 O       -1.6410     1.6540     2.4680 O.co2 1 <1>  -0.9000 
 15 H       -1.5230     0.0080     1.3830 H     1 <1>   0.3700 
 16 H       -4.0260     0.0960     0.6700 H     1 <1>   0.0800 
 17 H       -3.3260     0.3070    -0.9230 H     1 <1>   0.0800 
 18 H        2.2120    -2.1120     0.9700 H     1 <1>   0.0800 
 19 H        2.3530    -3.8050     0.5720 H     1 <1>   0.0800 
 20 H        1.2760    -3.3000     1.8490 H     1 <1>   0.0800 
 21 H        1.5890    -1.5120    -1.4060 H     1 <1>   0.0800 
 22 H        0.3460    -2.4260    -2.2350 H     1 <1>   0.0800 
 23 H        1.8430    -3.1920    -1.8080 H     1 <1>   0.0800 
 24 H       -1.0170    -4.1540    -0.9550 H     1 <1>   0.0800 
 25 H       -0.7050    -4.4200     0.7480 H     1 <1>   0.0800 
 26 H        0.4080    -5.0110    -0.4610 H     1 <1>   0.0800 
 27 H       -1.9510     2.1820     0.0050 H     1 <1>   0.0800 
 28 H       -4.9410     2.5440     0.2940 H     1 <1>   0.0800 
 29 H       -4.0360     2.6890    -1.2030 H     1 <1>   0.0800 
 30 H       -3.7810     3.8280     0.1020 H     1 <1>   0.0800 
@<TRIPOS>BOND
  1   1   2  2   
  2   2   3  1   
  3   2   4  am  
  4   3   5  1   
  5   4   6  1   
  6   4  15  1   
  7   5   7  1   
  8   5   8  1   
  9   5   9  1   
 10   6  10  1   
 11   6  16  1   
 12   6  17  1   
 13   7  18  1   
 14   7  19  1   
 15   7  20  1   
 16   8  21  1   
 17   8  22  1   
 18   8  23  1   
 19   9  24  1   
 20   9  25  1   
 21   9  26  1   
 22  10  11  1   
 23  10  12  1   
 24  10  27  1   
 25  11  13  ar  
 26  11  14  ar  
 27  12  28  1   
 28  12  29  1   
 29  12  30  1   
@<TRIPOS>SUBSTRUCTURE
  1 ****   4 GROUP 4 **** **** 0

# MOE 2024.06 (io_trps.svl 2023.06)
