@<TRIPOS>MOLECULE
NONAME
46 48 1 0 0 
SMALL
USER_CHARGES


@<TRIPOS>ATOM
  1 O       -0.4220     0.8390     1.4460 O.2   1 <1>  -0.5700 
  2 C       -0.3470     1.5850     0.4890 C.2   1 <1>   0.5440 
  3 N        0.8600     1.7330    -0.1350 N.am  1 <1>  -0.7300 
  4 C       -1.5260     2.2900     0.0090 C.ar  1 <1>   0.0860 
  5 C        2.1260     1.0930     0.2660 C.3   1 <1>   0.2200 
  6 C       -2.8040     1.8210     0.3080 C.ar  1 <1>  -0.1500 
  7 C       -1.4370     3.4530    -0.7600 C.ar  1 <1>  -0.1500 
  8 C        3.1110     2.2090     0.6320 C.3   1 <1>  -0.1600 
  9 C        2.5790     0.1820    -0.8840 C.3   1 <1>  -0.1600 
 10 C       -3.9580     2.4520    -0.1350 C.ar  1 <1>   0.1170 
 11 C       -2.5710     4.0960    -1.2190 C.ar  1 <1>  -0.1500 
 12 C        4.5290     1.7340     0.9960 C.3   1 <1>  -0.1600 
 13 C        3.7030    -0.7770    -0.4630 C.3   1 <1>  -0.1600 
 14 N       -5.1980     1.8950     0.2090 N.am  1 <1>  -0.5470 
 15 C       -3.8220     3.5970    -0.9130 C.ar  1 <1>  -0.1500 
 16 C        5.3230     1.2650    -0.2320 C.3   1 <1>  -0.1600 
 17 C        5.1250    -0.2120    -0.6060 C.3   1 <1>  -0.1600 
 18 C       -6.4670     2.4300     0.2620 C.2   1 <1>   0.7150 
 19 O       -6.6330     3.6160     0.0520 O.2   1 <1>  -0.5700 
 20 C       -7.5730     1.5540     0.5830 C.2   1 <1>   0.0550 
 21 O       -8.7970     2.0370     0.7810 O.3   1 <1>  -0.2800 
 22 C       -7.6250     0.1980     0.7420 C.2   1 <1>  -0.1500 
 23 C       -9.6130     1.0460     1.0570 C.2   1 <1>  -0.0100 
 24 C       -8.9470    -0.1270     1.0490 C.2   1 <1>  -0.1500 
 25 H        0.9170     2.2770    -0.9940 H     1 <1>   0.3700 
 26 H        1.9540     0.4860     1.1400 H     1 <1>   0.0800 
 27 H       -2.8890     0.9340     0.9100 H     1 <1>   0.1500 
 28 H       -0.4740     3.8670    -0.9980 H     1 <1>   0.1500 
 29 H        2.7080     2.7260     1.4850 H     1 <1>   0.0800 
 30 H        3.1750     2.9150    -0.1760 H     1 <1>   0.0800 
 31 H        2.8770     0.7610    -1.7390 H     1 <1>   0.0800 
 32 H        1.7350    -0.4220    -1.1690 H     1 <1>   0.0800 
 33 H       -2.4840     4.9900    -1.8140 H     1 <1>   0.1500 
 34 H        4.4940     0.9630     1.7470 H     1 <1>   0.0800 
 35 H        5.0500     2.5720     1.4250 H     1 <1>   0.0800 
 36 H        3.6420    -1.6650    -1.0690 H     1 <1>   0.0800 
 37 H        3.5430    -1.0890     0.5550 H     1 <1>   0.0800 
 38 H       -5.1500     0.9420     0.5580 H     1 <1>   0.3700 
 39 H       -4.6920     4.1080    -1.2850 H     1 <1>   0.1500 
 40 H        6.3720     1.4150    -0.0380 H     1 <1>   0.0800 
 41 H        5.0760     1.8850    -1.0770 H     1 <1>   0.0800 
 42 H        5.4470    -0.3390    -1.6250 H     1 <1>   0.0800 
 43 H        5.7790    -0.8120     0.0040 H     1 <1>   0.0800 
 44 H       -6.8300    -0.5200     0.6520 H     1 <1>   0.1500 
 45 H      -10.6510     1.2620     1.2460 H     1 <1>   0.1500 
 46 H       -9.3300    -1.1150     1.2360 H     1 <1>   0.1500 
@<TRIPOS>BOND
  1   1   2  2   
  2   2   3  am  
  3   2   4  1   
  4   3   5  1   
  5   3  25  1   
  6   4   6  ar  
  7   4   7  ar  
  8   5   8  1   
  9   5   9  1   
 10   5  26  1   
 11   6  10  ar  
 12   6  27  1   
 13   7  11  ar  
 14   7  28  1   
 15   8  12  1   
 16   8  29  1   
 17   8  30  1   
 18   9  13  1   
 19   9  31  1   
 20   9  32  1   
 21  10  14  1   
 22  10  15  ar  
 23  11  15  ar  
 24  11  33  1   
 25  12  16  1   
 26  12  34  1   
 27  12  35  1   
 28  13  17  1   
 29  13  36  1   
 30  13  37  1   
 31  14  18  am  
 32  14  38  1   
 33  15  39  1   
 34  16  17  1   
 35  16  40  1   
 36  16  41  1   
 37  17  42  1   
 38  17  43  1   
 39  18  19  2   
 40  18  20  1   
 41  20  21  1   
 42  20  22  2   
 43  21  23  1   
 44  22  24  1   
 45  22  44  1   
 46  23  24  2   
 47  23  45  1   
 48  24  46  1   
@<TRIPOS>SUBSTRUCTURE
  1 ****   6 GROUP 4 **** **** 0

# MOE 2024.06 (io_trps.svl 2023.06)
