@<TRIPOS>MOLECULE
NONAME
47 49 1 0 0 
SMALL
USER_CHARGES


@<TRIPOS>ATOM
  1 F       -0.9110    -1.0440     0.6960 F     1 <1>  -0.1900 
  2 C       -2.1540    -0.6570     0.5580 C.ar  1 <1>   0.1900 
  3 C       -3.0940    -1.5780     0.1330 C.ar  1 <1>  -0.1500 
  4 C       -2.4800     0.6550     0.8420 C.ar  1 <1>  -0.1500 
  5 C       -4.4070    -1.1630    -0.0110 C.ar  1 <1>  -0.1500 
  6 C       -3.7970     1.0540     0.6930 C.ar  1 <1>  -0.1500 
  7 C       -4.7690     0.1540     0.2680 C.ar  1 <1>   0.1000 
  8 N       -6.0820     0.5870     0.1270 N.pl3 1 <1>  -0.8380 
  9 C       -6.6060     0.6680    -1.2770 C.3   1 <1>   0.2090 
 10 C       -7.0480     0.0690     1.1470 C.3   1 <1>   0.2090 
 11 C       -7.7600    -0.3150    -1.5460 C.3   1 <1>   0.1400 
 12 C       -8.5120     0.3730     0.7820 C.3   1 <1>   0.1400 
 13 N       -8.8840    -0.1620    -0.5680 N.am  1 <1>  -0.6600 
 14 C      -10.1310    -0.6340    -0.8840 C.2   1 <1>   0.6900 
 15 O      -10.2850    -1.3170    -1.8800 O.2   1 <1>  -0.5700 
 16 N      -11.1770    -0.3030    -0.0740 N.am  1 <1>  -0.5470 
 17 C      -12.5370    -0.6560    -0.0350 C.ar  1 <1>   0.1170 
 18 C      -13.3800     0.0730     0.8110 C.ar  1 <1>   0.0830 
 19 C      -13.0760    -1.6970    -0.7840 C.ar  1 <1>  -0.1500 
 20 O      -12.8130     1.0830     1.5410 O.3   1 <1>  -0.3620 
 21 C      -14.7330    -0.2440     0.8850 C.ar  1 <1>  -0.1500 
 22 C      -14.4230    -2.0100    -0.7120 C.ar  1 <1>  -0.1430 
 23 C      -13.6030     1.9270     2.3510 C.3   1 <1>   0.0400 
 24 C      -15.2480    -1.2800     0.1260 C.ar  1 <1>  -0.1500 
 25 C      -14.9850    -3.1490    -1.5430 C.3   1 <1>  -0.0970 
 26 H       -2.8010    -2.5900    -0.0780 H     1 <1>   0.1500 
 27 H       -1.7210     1.3420     1.1700 H     1 <1>   0.1500 
 28 H       -5.1580    -1.8560    -0.3380 H     1 <1>   0.1500 
 29 H       -4.0900     2.0670     0.9030 H     1 <1>   0.1500 
 30 H       -5.8070     0.4730    -1.9730 H     1 <1>   0.0800 
 31 H       -6.9530     1.6700    -1.4580 H     1 <1>   0.0800 
 32 H       -6.8190     0.5210     2.0970 H     1 <1>   0.0800 
 33 H       -6.9280    -0.9950     1.2520 H     1 <1>   0.0800 
 34 H       -7.3860    -1.3220    -1.4940 H     1 <1>   0.0800 
 35 H       -8.1310    -0.1540    -2.5430 H     1 <1>   0.0800 
 36 H       -8.6560     1.4390     0.7890 H     1 <1>   0.0800 
 37 H       -9.1470    -0.0600     1.5350 H     1 <1>   0.0800 
 38 H      -10.9660     0.4510     0.5720 H     1 <1>   0.3700 
 39 H      -12.4390    -2.2720    -1.4290 H     1 <1>   0.1500 
 40 H      -15.4040     0.2970     1.5230 H     1 <1>   0.1500 
 41 H      -12.9590     2.6630     2.7960 H     1 <1>   0.0800 
 42 H      -14.0690     1.3370     3.1210 H     1 <1>   0.0800 
 43 H      -14.3400     2.4110     1.7360 H     1 <1>   0.0800 
 44 H      -16.2960    -1.5180     0.1910 H     1 <1>   0.1500 
 45 H      -14.4250    -3.2590    -2.4550 H     1 <1>   0.0800 
 46 H      -16.0120    -2.9600    -1.7970 H     1 <1>   0.0800 
 47 H      -14.9260    -4.0680    -0.9870 H     1 <1>   0.0800 
@<TRIPOS>BOND
  1   1   2  1   
  2   2   3  ar  
  3   2   4  ar  
  4   3   5  ar  
  5   3  26  1   
  6   4   6  ar  
  7   4  27  1   
  8   5   7  ar  
  9   5  28  1   
 10   6   7  ar  
 11   6  29  1   
 12   7   8  1   
 13   8   9  1   
 14   8  10  1   
 15   9  11  1   
 16   9  30  1   
 17   9  31  1   
 18  10  12  1   
 19  10  32  1   
 20  10  33  1   
 21  11  13  1   
 22  11  34  1   
 23  11  35  1   
 24  12  13  1   
 25  12  36  1   
 26  12  37  1   
 27  13  14  am  
 28  14  15  2   
 29  14  16  am  
 30  16  17  1   
 31  16  38  1   
 32  17  18  ar  
 33  17  19  ar  
 34  18  20  1   
 35  18  21  ar  
 36  19  22  ar  
 37  19  39  1   
 38  20  23  1   
 39  21  24  ar  
 40  21  40  1   
 41  22  24  ar  
 42  22  25  1   
 43  23  41  1   
 44  23  42  1   
 45  23  43  1   
 46  24  44  1   
 47  25  45  1   
 48  25  46  1   
 49  25  47  1   
@<TRIPOS>SUBSTRUCTURE
  1 ****  13 GROUP 4 **** **** 0

# MOE 2024.06 (io_trps.svl 2023.06)
