@<TRIPOS>MOLECULE
NONAME
44 45 1 0 0 
SMALL
USER_CHARGES


@<TRIPOS>ATOM
  1 O       -0.5540    -0.4390     0.1640 O.3   1 <1>  -0.3630 
  2 C        0.6930    -0.9690     0.0000 C.ar  1 <1>   0.0830 
  3 C       -1.7120    -1.2370     0.1120 C.3   1 <1>   0.1200 
  4 C        1.7870    -0.1020     0.0420 C.ar  1 <1>   0.0830 
  5 C        0.9060    -2.3300    -0.2040 C.ar  1 <1>  -0.1500 
  6 C       -2.9260    -0.3320     0.3160 C.3   1 <1>  -0.1600 
  7 O        1.5450     1.2270     0.2450 O.3   1 <1>  -0.3630 
  8 C        3.0730    -0.6110    -0.1220 C.ar  1 <1>  -0.1500 
  9 C        2.1900    -2.8210    -0.3660 C.ar  1 <1>  -0.1500 
 10 C       -4.2160    -1.1480     0.2600 C.3   1 <1>   0.1200 
 11 C        2.5880     2.1720     0.3020 C.3   1 <1>   0.0400 
 12 C        3.2780    -1.9660    -0.3270 C.ar  1 <1>  -0.1430 
 13 O       -5.3020    -0.2730     0.4570 O.3   1 <1>  -0.3630 
 14 C        4.6850    -2.5080    -0.5030 C.3   1 <1>  -0.0970 
 15 C       -6.5540    -0.5990     0.0270 C.ar  1 <1>   0.0830 
 16 C       -7.0920    -1.8980    -0.0180 C.ar  1 <1>   0.0830 
 17 C       -7.3260     0.4750    -0.3860 C.ar  1 <1>  -0.1500 
 18 O       -6.3550    -2.9590     0.4270 O.3   1 <1>  -0.3630 
 19 C       -8.3860    -2.0720    -0.5050 C.ar  1 <1>  -0.1500 
 20 C       -8.6110     0.2880    -0.8590 C.ar  1 <1>  -0.1500 
 21 C       -6.9430    -4.2150     0.6830 C.3   1 <1>   0.0400 
 22 C       -9.1390    -0.9880    -0.9220 C.ar  1 <1>  -0.1500 
 23 H       -1.6510    -1.9730     0.8940 H     1 <1>   0.0800 
 24 H       -1.7510    -1.7130    -0.8520 H     1 <1>   0.0800 
 25 H        0.0910    -3.0250    -0.2410 H     1 <1>   0.1500 
 26 H       -2.9440     0.4130    -0.4590 H     1 <1>   0.0800 
 27 H       -2.8510     0.1480     1.2750 H     1 <1>   0.0800 
 28 H        3.9290     0.0350    -0.0920 H     1 <1>   0.1500 
 29 H        2.3370    -3.8750    -0.5210 H     1 <1>   0.1500 
 30 H       -4.2340    -1.8840     1.0440 H     1 <1>   0.0800 
 31 H       -4.3290    -1.6220    -0.6990 H     1 <1>   0.0800 
 32 H        2.1500     3.1390     0.4690 H     1 <1>   0.0800 
 33 H        3.1160     2.1660    -0.6340 H     1 <1>   0.0800 
 34 H        3.2410     1.9210     1.1190 H     1 <1>   0.0800 
 35 H        5.2970    -1.7980    -1.0300 H     1 <1>   0.0800 
 36 H        4.6700    -3.4240    -1.0660 H     1 <1>   0.0800 
 37 H        5.1230    -2.7000     0.4590 H     1 <1>   0.0800 
 38 H       -6.9080     1.4640    -0.3360 H     1 <1>   0.1500 
 39 H       -8.8320    -3.0460    -0.5710 H     1 <1>   0.1500 
 40 H       -9.1960     1.1330    -1.1780 H     1 <1>   0.1500 
 41 H       -6.2020    -4.8440     1.1430 H     1 <1>   0.0800 
 42 H       -7.2620    -4.6500    -0.2470 H     1 <1>   0.0800 
 43 H       -7.7750    -4.0820     1.3530 H     1 <1>   0.0800 
 44 H      -10.1380    -1.1370    -1.2950 H     1 <1>   0.1500 
@<TRIPOS>BOND
  1   1   2  1   
  2   1   3  1   
  3   2   4  ar  
  4   2   5  ar  
  5   3   6  1   
  6   3  23  1   
  7   3  24  1   
  8   4   7  1   
  9   4   8  ar  
 10   5   9  ar  
 11   5  25  1   
 12   6  10  1   
 13   6  26  1   
 14   6  27  1   
 15   7  11  1   
 16   8  12  ar  
 17   8  28  1   
 18   9  12  ar  
 19   9  29  1   
 20  10  13  1   
 21  10  30  1   
 22  10  31  1   
 23  11  32  1   
 24  11  33  1   
 25  11  34  1   
 26  12  14  1   
 27  13  15  1   
 28  14  35  1   
 29  14  36  1   
 30  14  37  1   
 31  15  16  ar  
 32  15  17  ar  
 33  16  18  1   
 34  16  19  ar  
 35  17  20  ar  
 36  17  38  1   
 37  18  21  1   
 38  19  22  ar  
 39  19  39  1   
 40  20  22  ar  
 41  20  40  1   
 42  21  41  1   
 43  21  42  1   
 44  21  43  1   
 45  22  44  1   
@<TRIPOS>SUBSTRUCTURE
  1 ****   3 GROUP 4 **** **** 0

# MOE 2024.06 (io_trps.svl 2023.06)
