@<TRIPOS>MOLECULE
NONAME
49 51 1 0 0 
SMALL
USER_CHARGES


@<TRIPOS>ATOM
  1 S        0.1890     1.5550     1.3740 S.o2  1 <1>   1.4470 
  2 O        0.0570     2.9760     1.6180 O.2   1 <1>  -0.6500 
  3 O       -0.4750     0.6180     2.2540 O.2   1 <1>  -0.6500 
  4 N       -0.3820     1.2680    -0.1970 N.am  1 <1>  -0.8490 
  5 C        1.9410     1.1020     1.2570 C.ar  1 <1>  -0.0090 
  6 C       -1.8460     1.1830    -0.2220 C.3   1 <1>   0.1960 
  7 C        0.0990     2.2760    -1.1480 C.3   1 <1>   0.1960 
  8 C        2.9440     1.9740     1.6640 C.ar  1 <1>  -0.1500 
  9 C        2.3200    -0.1400     0.7600 C.ar  1 <1>  -0.1500 
 10 C       -2.3330     0.7750    -1.6170 C.3   1 <1>  -0.1600 
 11 C       -0.3070     1.8960    -2.5750 C.3   1 <1>  -0.1600 
 12 C        4.2780     1.6190     1.5750 C.ar  1 <1>  -0.1500 
 13 C        3.6510    -0.5060     0.6660 C.ar  1 <1>  -0.1500 
 14 C       -1.8270     1.7390    -2.6960 C.3   1 <1>  -0.1600 
 15 C        4.6420     0.3800     1.0770 C.ar  1 <1>   0.0830 
 16 O        5.9670     0.1080     1.0270 O.3   1 <1>  -0.3630 
 17 C        6.4430    -1.1590     0.5960 C.3   1 <1>   0.1810 
 18 C        7.9620    -1.2550     0.7000 C.2   1 <1>   0.5690 
 19 O        8.4060    -2.1750     1.3490 O.2   1 <1>  -0.5700 
 20 N        8.7930    -0.3630     0.0640 N.am  1 <1>  -0.6600 
 21 C       10.2770    -0.4270     0.2270 C.3   1 <1>   0.1400 
 22 C        8.3490     0.7880    -0.7810 C.3   1 <1>   0.1400 
 23 C       10.9830    -0.2870    -1.1310 C.3   1 <1>   0.1200 
 24 C        9.1720     0.8640    -2.0790 C.3   1 <1>   0.1200 
 25 O       10.5430     0.8610    -1.8020 O.3   1 <1>  -0.5600 
 26 H       -2.2720     2.1330     0.0580 H     1 <1>   0.0800 
 27 H       -2.1820     0.4430     0.4870 H     1 <1>   0.0800 
 28 H        1.1730     2.3430    -1.0970 H     1 <1>   0.0800 
 29 H       -0.3110     3.2430    -0.8990 H     1 <1>   0.0800 
 30 H        2.6780     2.9410     2.0580 H     1 <1>   0.1500 
 31 H        1.5540    -0.8290     0.4430 H     1 <1>   0.1500 
 32 H       -3.4090     0.7530    -1.6260 H     1 <1>   0.0800 
 33 H       -1.9830    -0.2210    -1.8250 H     1 <1>   0.0800 
 34 H        0.1770     0.9720    -2.8390 H     1 <1>   0.0800 
 35 H        0.0330     2.6540    -3.2580 H     1 <1>   0.0800 
 36 H        5.0460     2.3020     1.8960 H     1 <1>   0.1500 
 37 H        3.8890    -1.4770     0.2760 H     1 <1>   0.1500 
 38 H       -2.2980     2.6990    -2.5660 H     1 <1>   0.0800 
 39 H       -2.0840     1.3680    -3.6730 H     1 <1>   0.0800 
 40 H        6.1420    -1.3110    -0.4230 H     1 <1>   0.0800 
 41 H        6.0010    -1.9120     1.2230 H     1 <1>   0.0800 
 42 H       10.5690    -1.3570     0.6820 H     1 <1>   0.0800 
 43 H       10.5940     0.3710     0.8750 H     1 <1>   0.0800 
 44 H        8.4800     1.7010    -0.2270 H     1 <1>   0.0800 
 45 H        7.3090     0.7020    -1.0350 H     1 <1>   0.0800 
 46 H       10.7870    -1.1460    -1.7480 H     1 <1>   0.0800 
 47 H       12.0450    -0.1970    -0.9880 H     1 <1>   0.0800 
 48 H        8.9470     1.7730    -2.6070 H     1 <1>   0.0800 
 49 H        8.9480     0.0280    -2.7190 H     1 <1>   0.0800 
@<TRIPOS>BOND
  1   1   2  2   
  2   1   3  2   
  3   1   4  am  
  4   1   5  1   
  5   4   6  1   
  6   4   7  1   
  7   5   8  ar  
  8   5   9  ar  
  9   6  10  1   
 10   6  26  1   
 11   6  27  1   
 12   7  11  1   
 13   7  28  1   
 14   7  29  1   
 15   8  12  ar  
 16   8  30  1   
 17   9  13  ar  
 18   9  31  1   
 19  10  14  1   
 20  10  32  1   
 21  10  33  1   
 22  11  14  1   
 23  11  34  1   
 24  11  35  1   
 25  12  15  ar  
 26  12  36  1   
 27  13  15  ar  
 28  13  37  1   
 29  14  38  1   
 30  14  39  1   
 31  15  16  1   
 32  16  17  1   
 33  17  18  1   
 34  17  40  1   
 35  17  41  1   
 36  18  19  2   
 37  18  20  am  
 38  20  21  1   
 39  20  22  1   
 40  21  23  1   
 41  21  42  1   
 42  21  43  1   
 43  22  24  1   
 44  22  44  1   
 45  22  45  1   
 46  23  25  1   
 47  23  46  1   
 48  23  47  1   
 49  24  25  1   
 50  24  48  1   
 51  24  49  1   
@<TRIPOS>SUBSTRUCTURE
  1 ****  15 GROUP 4 **** **** 0

# MOE 2024.06 (io_trps.svl 2023.06)
