@<TRIPOS>MOLECULE
NONAME
39 40 1 0 0 
SMALL
USER_CHARGES


@<TRIPOS>ATOM
  1 F        0.4660    -0.3260    -0.6210 F     1 <1>  -0.1900 
  2 C        1.0150    -1.4720    -0.3100 C.ar  1 <1>   0.1900 
  3 C        0.2210    -2.4880     0.2000 C.ar  1 <1>  -0.1440 
  4 C        2.3730    -1.6120    -0.5090 C.ar  1 <1>  -0.1500 
  5 C        0.8410    -3.6870     0.5150 C.ar  1 <1>  -0.1500 
  6 C       -1.2740    -2.3020     0.4090 C.3   1 <1>  -0.0960 
  7 C        2.9920    -2.8130    -0.1900 C.ar  1 <1>   0.1170 
  8 C        2.2050    -3.8450     0.3200 C.ar  1 <1>  -0.1500 
  9 N        4.3730    -2.9360    -0.4110 N.am  1 <1>  -0.5470 
 10 C        5.2980    -3.7900     0.1270 C.2   1 <1>   0.5690 
 11 O        5.0300    -4.6190     0.9610 O.2   1 <1>  -0.5700 
 12 C        6.7420    -3.6500    -0.3600 C.3   1 <1>  -0.0190 
 13 C        7.5370    -4.9690    -0.2610 C.3   1 <1>  -0.1600 
 14 C        7.4770    -2.5370     0.4120 C.3   1 <1>  -0.1600 
 15 C        8.9850    -4.7930    -0.7250 C.3   1 <1>   0.1400 
 16 C        8.9270    -2.3850    -0.0550 C.3   1 <1>   0.1400 
 17 N        9.6240    -3.6960     0.0530 N.am  1 <1>  -0.6600 
 18 C       10.7410    -3.8330     0.8390 C.2   1 <1>   0.5690 
 19 O       11.2350    -2.9010     1.4260 O.2   1 <1>  -0.5700 
 20 C       11.4100    -5.1780     1.0020 C.3   1 <1>  -0.1790 
 21 H        2.9340    -0.7870    -0.9050 H     1 <1>   0.1500 
 22 H        0.2690    -4.5060     0.9140 H     1 <1>   0.1500 
 23 H       -1.7490    -2.0740    -0.5280 H     1 <1>   0.0800 
 24 H       -1.4490    -1.4910     1.0930 H     1 <1>   0.0800 
 25 H       -1.7210    -3.1930     0.8130 H     1 <1>   0.0800 
 26 H        2.6540    -4.7880     0.5690 H     1 <1>   0.1500 
 27 H        4.7570    -2.2360    -1.0420 H     1 <1>   0.3700 
 28 H        6.7080    -3.3720    -1.3980 H     1 <1>   0.0800 
 29 H        7.0590    -5.7240    -0.8590 H     1 <1>   0.0800 
 30 H        7.5430    -5.3170     0.7580 H     1 <1>   0.0800 
 31 H        7.4760    -2.7660     1.4650 H     1 <1>   0.0800 
 32 H        6.9670    -1.5990     0.2840 H     1 <1>   0.0800 
 33 H        9.0070    -4.5370    -1.7700 H     1 <1>   0.0800 
 34 H        9.5130    -5.7220    -0.6020 H     1 <1>   0.0800 
 35 H        9.4200    -1.6390     0.5460 H     1 <1>   0.0800 
 36 H        8.9570    -2.0560    -1.0790 H     1 <1>   0.0800 
 37 H       10.7140    -5.8830     1.4150 H     1 <1>   0.0800 
 38 H       12.2450    -5.0870     1.6720 H     1 <1>   0.0800 
 39 H       11.7680    -5.5260     0.0520 H     1 <1>   0.0800 
@<TRIPOS>BOND
  1   1   2  1   
  2   2   3  ar  
  3   2   4  ar  
  4   3   5  ar  
  5   3   6  1   
  6   4   7  ar  
  7   4  21  1   
  8   5   8  ar  
  9   5  22  1   
 10   6  23  1   
 11   6  24  1   
 12   6  25  1   
 13   7   8  ar  
 14   7   9  1   
 15   8  26  1   
 16   9  10  am  
 17   9  27  1   
 18  10  11  2   
 19  10  12  1   
 20  12  13  1   
 21  12  14  1   
 22  12  28  1   
 23  13  15  1   
 24  13  29  1   
 25  13  30  1   
 26  14  16  1   
 27  14  31  1   
 28  14  32  1   
 29  15  17  1   
 30  15  33  1   
 31  15  34  1   
 32  16  17  1   
 33  16  35  1   
 34  16  36  1   
 35  17  18  am  
 36  18  19  2   
 37  18  20  1   
 38  20  37  1   
 39  20  38  1   
 40  20  39  1   
@<TRIPOS>SUBSTRUCTURE
  1 ****  10 GROUP 4 **** **** 0

# MOE 2024.06 (io_trps.svl 2023.06)
