@<TRIPOS>MOLECULE
NONAME
45 46 1 0 0 
SMALL
USER_CHARGES


@<TRIPOS>ATOM
  1 O       -4.2290     1.1910    -0.5480 O.3   1 <1>  -0.3630 
  2 C       -5.4720     1.6890    -0.7780 C.ar  1 <1>   0.0830 
  3 C       -3.9930    -0.0010     0.1680 C.3   1 <1>   0.2000 
  4 C       -6.6530     1.0700    -0.3830 C.ar  1 <1>  -0.1500 
  5 C       -5.5330     2.8950    -1.4570 C.ar  1 <1>  -0.1500 
  6 C       -4.0670     0.2980     1.6670 C.3   1 <1>  -0.2400 
  7 C       -2.6000    -0.4880    -0.2250 C.3   1 <1>  -0.2400 
  8 C       -7.8790     1.6510    -0.6660 C.ar  1 <1>   0.0830 
  9 C       -6.7520     3.4820    -1.7430 C.ar  1 <1>  -0.1500 
 10 O       -8.9820     0.9790    -0.2470 O.3   1 <1>  -0.3630 
 11 C       -7.9270     2.8640    -1.3500 C.ar  1 <1>  -0.1500 
 12 C      -10.2750     1.4800    -0.4780 C.3   1 <1>   0.1200 
 13 C      -11.2660     0.4700     0.1090 C.3   1 <1>   0.3430 
 14 N      -12.6990     0.8640    -0.0990 N.4   1 <1>  -0.9590 
 15 C      -13.0710     2.0860     0.6810 C.3   1 <1>   0.3430 
 16 C      -13.5980    -0.2810     0.2350 C.3   1 <1>   0.3430 
 17 C      -14.5050     2.4980     0.3410 C.3   1 <1>  -0.1600 
 18 C      -15.0440     0.0780    -0.1160 C.3   1 <1>  -0.1600 
 19 C      -15.5000     1.3590     0.5950 C.3   1 <1>  -0.1600 
 20 H       -4.7180    -0.7390    -0.1280 H     1 <1>   0.0800 
 21 H       -6.6470     0.1380     0.1450 H     1 <1>   0.1500 
 22 H       -4.6160     3.3690    -1.7600 H     1 <1>   0.1500 
 23 H       -3.3390     1.0430     1.9330 H     1 <1>   0.0800 
 24 H       -3.8650    -0.5950     2.2290 H     1 <1>   0.0800 
 25 H       -5.0450     0.6510     1.9350 H     1 <1>   0.0800 
 26 H       -1.8600     0.2490     0.0290 H     1 <1>   0.0800 
 27 H       -2.5650    -0.6770    -1.2830 H     1 <1>   0.0800 
 28 H       -2.3700    -1.4020     0.2920 H     1 <1>   0.0800 
 29 H       -6.7820     4.4190    -2.2710 H     1 <1>   0.1500 
 30 H       -8.8550     3.3470    -1.5880 H     1 <1>   0.1500 
 31 H      -10.4100     1.5760    -1.5410 H     1 <1>   0.0800 
 32 H      -10.3510     2.4350     0.0110 H     1 <1>   0.0800 
 33 H      -11.0710     0.3630     1.1640 H     1 <1>   0.0800 
 34 H      -11.0880    -0.4820    -0.3650 H     1 <1>   0.0800 
 35 H      -12.8480     1.0730    -1.0950 H     1 <1>   0.4500 
 36 H      -12.4040     2.8990     0.4460 H     1 <1>   0.0800 
 37 H      -12.9980     1.8810     1.7370 H     1 <1>   0.0800 
 38 H      -13.5300    -0.5050     1.2880 H     1 <1>   0.0800 
 39 H      -13.3040    -1.1580    -0.3190 H     1 <1>   0.0800 
 40 H      -14.5550     2.8060    -0.6890 H     1 <1>   0.0800 
 41 H      -14.7780     3.3480     0.9420 H     1 <1>   0.0800 
 42 H      -15.6870    -0.7350     0.1720 H     1 <1>   0.0800 
 43 H      -15.1350     0.1960    -1.1820 H     1 <1>   0.0800 
 44 H      -16.4800     1.6420     0.2470 H     1 <1>   0.0800 
 45 H      -15.5710     1.1750     1.6550 H     1 <1>   0.0800 
@<TRIPOS>BOND
  1   1   2  1   
  2   1   3  1   
  3   2   4  ar  
  4   2   5  ar  
  5   3   6  1   
  6   3   7  1   
  7   3  20  1   
  8   4   8  ar  
  9   4  21  1   
 10   5   9  ar  
 11   5  22  1   
 12   6  23  1   
 13   6  24  1   
 14   6  25  1   
 15   7  26  1   
 16   7  27  1   
 17   7  28  1   
 18   8  10  1   
 19   8  11  ar  
 20   9  11  ar  
 21   9  29  1   
 22  10  12  1   
 23  11  30  1   
 24  12  13  1   
 25  12  31  1   
 26  12  32  1   
 27  13  14  1   
 28  13  33  1   
 29  13  34  1   
 30  14  15  1   
 31  14  16  1   
 32  14  35  1   
 33  15  17  1   
 34  15  36  1   
 35  15  37  1   
 36  16  18  1   
 37  16  38  1   
 38  16  39  1   
 39  17  19  1   
 40  17  40  1   
 41  17  41  1   
 42  18  19  1   
 43  18  42  1   
 44  18  43  1   
 45  19  44  1   
 46  19  45  1   
@<TRIPOS>SUBSTRUCTURE
  1 ****  10 GROUP 4 **** **** 0

# MOE 2024.06 (io_trps.svl 2023.06)
