@<TRIPOS>MOLECULE
NONAME
40 41 1 0 0 
SMALL
USER_CHARGES


@<TRIPOS>ATOM
  1 CL      -1.9640     2.0740    -2.6640 Cl    1 <1>  -0.1770 
  2 C       -1.1070     3.0000    -1.4490 C.ar  1 <1>   0.1770 
  3 C       -0.1670     3.9440    -1.8310 C.ar  1 <1>   0.1770 
  4 C       -1.3900     2.7840    -0.1070 C.ar  1 <1>  -0.1440 
  5 CL       0.1770     4.2230    -3.5210 Cl    1 <1>  -0.1770 
  6 C        0.5070     4.6850    -0.8790 C.ar  1 <1>  -0.1500 
  7 C       -0.7070     3.5290     0.8470 C.ar  1 <1>  -0.1500 
  8 C       -2.4220     1.7510     0.3070 C.3   1 <1>   0.4870 
  9 C        0.2340     4.4730     0.4630 C.ar  1 <1>  -0.1500 
 10 N       -3.7770     2.1930    -0.1260 N.4   1 <1>  -0.9590 
 11 C       -4.1830     3.4860     0.5010 C.3   1 <1>   0.3430 
 12 C       -4.7880     1.1200     0.0790 C.3   1 <1>   0.3430 
 13 C       -5.4990     3.9590    -0.1140 C.3   1 <1>  -0.1600 
 14 C       -6.1140     1.5480    -0.5460 C.3   1 <1>  -0.1600 
 15 C       -6.6090     2.8990     0.0130 C.3   1 <1>  -0.0190 
 16 C       -7.8910     3.3780    -0.6640 C.2   1 <1>   0.6590 
 17 O       -8.2050     3.0100    -1.7660 O.2   1 <1>  -0.5700 
 18 O       -8.6180     4.2340     0.0360 O.3   1 <1>  -0.4300 
 19 C       -9.8210     4.7650    -0.4720 C.3   1 <1>   0.1200 
 20 C      -10.3970     5.7160     0.5710 C.3   1 <1>  -0.2400 
 21 H        1.2370     5.4150    -1.1860 H     1 <1>   0.1500 
 22 H       -0.8920     3.3850     1.9000 H     1 <1>   0.1500 
 23 H       -2.3990     1.6170     1.3760 H     1 <1>   0.0800 
 24 H       -2.1790     0.8080    -0.1570 H     1 <1>   0.0800 
 25 H        0.7620     5.0450     1.2100 H     1 <1>   0.1500 
 26 H       -3.7100     2.3560    -1.1430 H     1 <1>   0.4500 
 27 H       -3.4250     4.2350     0.3340 H     1 <1>   0.0800 
 28 H       -4.3050     3.3560     1.5640 H     1 <1>   0.0800 
 29 H       -4.9260     0.9390     1.1330 H     1 <1>   0.0800 
 30 H       -4.4570     0.2030    -0.3840 H     1 <1>   0.0800 
 31 H       -5.3410     4.2020    -1.1510 H     1 <1>   0.0800 
 32 H       -5.8110     4.8620     0.3830 H     1 <1>   0.0800 
 33 H       -6.8550     0.7910    -0.3540 H     1 <1>   0.0800 
 34 H       -5.9940     1.6100    -1.6150 H     1 <1>   0.0800 
 35 H       -6.8380     2.7660     1.0560 H     1 <1>   0.0800 
 36 H      -10.4980     3.9500    -0.6680 H     1 <1>   0.0800 
 37 H       -9.6060     5.2830    -1.3920 H     1 <1>   0.0800 
 38 H      -10.5990     5.1880     1.4860 H     1 <1>   0.0800 
 39 H      -11.3180     6.1350     0.2090 H     1 <1>   0.0800 
 40 H       -9.7090     6.5200     0.7630 H     1 <1>   0.0800 
@<TRIPOS>BOND
  1   1   2  1   
  2   2   3  ar  
  3   2   4  ar  
  4   3   5  1   
  5   3   6  ar  
  6   4   7  ar  
  7   4   8  1   
  8   6   9  ar  
  9   6  21  1   
 10   7   9  ar  
 11   7  22  1   
 12   8  10  1   
 13   8  23  1   
 14   8  24  1   
 15   9  25  1   
 16  10  11  1   
 17  10  12  1   
 18  10  26  1   
 19  11  13  1   
 20  11  27  1   
 21  11  28  1   
 22  12  14  1   
 23  12  29  1   
 24  12  30  1   
 25  13  15  1   
 26  13  31  1   
 27  13  32  1   
 28  14  15  1   
 29  14  33  1   
 30  14  34  1   
 31  15  16  1   
 32  15  35  1   
 33  16  17  2   
 34  16  18  1   
 35  18  19  1   
 36  19  20  1   
 37  19  36  1   
 38  19  37  1   
 39  20  38  1   
 40  20  39  1   
 41  20  40  1   
@<TRIPOS>SUBSTRUCTURE
  1 ****  11 GROUP 4 **** **** 0

# MOE 2024.06 (io_trps.svl 2023.06)
