@<TRIPOS>MOLECULE
NONAME
39 41 1 0 0 
SMALL
USER_CHARGES


@<TRIPOS>ATOM
  1 BR       1.1600    -0.3980     2.6760 Br    1 <1>  -0.1110 
  2 C        2.4890     0.4970     1.6170 C.ar  1 <1>   0.1110 
  3 C        3.8080     0.1010     1.7340 C.ar  1 <1>  -0.1500 
  4 C        2.0840     1.5150     0.7650 C.ar  1 <1>  -0.1500 
  5 C        4.7530     0.7610     0.9590 C.ar  1 <1>   0.0860 
  6 C        3.0350     2.1670    -0.0030 C.ar  1 <1>  -0.1500 
  7 C        6.1750     0.6160     0.8270 C.2   1 <1>   0.5440 
  8 C        4.3710     1.7850     0.0990 C.ar  1 <1>   0.0860 
  9 O        6.8910    -0.1760     1.4040 O.2   1 <1>  -0.5700 
 10 N        6.6290     1.5280    -0.0880 N.am  1 <1>  -0.4200 
 11 C        5.5620     2.2550    -0.5490 C.2   1 <1>   0.5440 
 12 C        8.0470     1.7190    -0.4620 C.3   1 <1>   0.1400 
 13 O        5.6460     3.1440    -1.3690 O.2   1 <1>  -0.5700 
 14 C        8.4900     0.6200    -1.4270 C.3   1 <1>  -0.0990 
 15 C        9.9950     0.5680    -1.4660 C.2   1 <1>   0.5690 
 16 O       10.5850     1.2070    -2.3010 O.2   1 <1>  -0.5700 
 17 N       10.6280    -0.1850    -0.5350 N.am  1 <1>  -0.7300 
 18 C       12.0850    -0.3380    -0.4040 C.3   1 <1>   0.2200 
 19 C       12.4210    -1.8240    -0.4020 C.3   1 <1>  -0.1600 
 20 C       12.5010     0.1180     0.9880 C.3   1 <1>  -0.1600 
 21 C       12.1510    -2.3100     1.0280 C.3   1 <1>  -0.1600 
 22 C       12.2020    -1.0620     1.9200 C.3   1 <1>  -0.1600 
 23 H        4.0990    -0.6910     2.4010 H     1 <1>   0.1500 
 24 H        1.0440     1.7880     0.7090 H     1 <1>   0.1500 
 25 H        2.7600     2.9620    -0.6760 H     1 <1>   0.1500 
 26 H        8.6430     1.6820     0.4340 H     1 <1>   0.0800 
 27 H        8.1830     2.6860    -0.9180 H     1 <1>   0.0800 
 28 H        8.1160     0.8250    -2.4130 H     1 <1>   0.0800 
 29 H        8.1240    -0.3380    -1.1070 H     1 <1>   0.0800 
 30 H       10.0900    -0.6970     0.1670 H     1 <1>   0.3700 
 31 H       12.5980     0.2000    -1.1860 H     1 <1>   0.0800 
 32 H       13.4700    -1.9340    -0.6150 H     1 <1>   0.0800 
 33 H       11.8610    -2.3690    -1.1410 H     1 <1>   0.0800 
 34 H       12.0010     1.0230     1.2870 H     1 <1>   0.0800 
 35 H       13.5610     0.2990     0.9830 H     1 <1>   0.0800 
 36 H       12.8830    -3.0400     1.3290 H     1 <1>   0.0800 
 37 H       11.1730    -2.7560     1.0850 H     1 <1>   0.0800 
 38 H       11.2480    -0.9200     2.3980 H     1 <1>   0.0800 
 39 H       12.9600    -1.1520     2.6800 H     1 <1>   0.0800 
@<TRIPOS>BOND
  1   1   2  1   
  2   2   3  ar  
  3   2   4  ar  
  4   3   5  ar  
  5   3  23  1   
  6   4   6  ar  
  7   4  24  1   
  8   5   7  1   
  9   5   8  ar  
 10   6   8  ar  
 11   6  25  1   
 12   7   9  2   
 13   7  10  am  
 14   8  11  1   
 15  10  11  am  
 16  10  12  1   
 17  11  13  2   
 18  12  14  1   
 19  12  26  1   
 20  12  27  1   
 21  14  15  1   
 22  14  28  1   
 23  14  29  1   
 24  15  16  2   
 25  15  17  am  
 26  17  18  1   
 27  17  30  1   
 28  18  19  1   
 29  18  20  1   
 30  18  31  1   
 31  19  21  1   
 32  19  32  1   
 33  19  33  1   
 34  20  22  1   
 35  20  34  1   
 36  20  35  1   
 37  21  22  1   
 38  21  36  1   
 39  21  37  1   
 40  22  38  1   
 41  22  39  1   
@<TRIPOS>SUBSTRUCTURE
  1 ****  10 GROUP 4 **** **** 0

# MOE 2024.06 (io_trps.svl 2023.06)
