@<TRIPOS>MOLECULE
NONAME
40 41 1 0 0 
SMALL
USER_CHARGES


@<TRIPOS>ATOM
  1 S        0.3990     0.5920     1.5350 S.o2  1 <1>   1.4470 
  2 O        0.4460     1.9830     1.9280 O.2   1 <1>  -0.6500 
  3 O        0.0170    -0.4010     2.5110 O.2   1 <1>  -0.6500 
  4 N       -0.7810     0.4640     0.3480 N.am  1 <1>  -0.9140 
  5 C        1.9320     0.1450     0.6650 C.ar  1 <1>  -0.0090 
  6 C       -1.9990     1.1990     0.6820 C.3   1 <1>   0.1960 
  7 C        2.1780    -1.1720     0.1750 C.ar  1 <1>   0.0000 
  8 C        2.8710     1.1260     0.4470 C.ar  1 <1>  -0.1500 
  9 C       -3.0370     1.0300    -0.4280 C.3   1 <1>   0.1200 
 10 C        3.3760    -1.4290    -0.5440 C.ar  1 <1>   0.0000 
 11 C        1.2900    -2.2630     0.3510 C.ar  1 <1>  -0.1500 
 12 C        4.0620     0.8700    -0.2270 C.ar  1 <1>  -0.1500 
 13 O       -4.2200     1.6470    -0.0280 O.3   1 <1>  -0.5600 
 14 C        4.3200    -0.3850    -0.6960 C.ar  1 <1>   0.0830 
 15 C        3.5860    -2.7130    -1.0940 C.ar  1 <1>  -0.1500 
 16 C        1.5340    -3.5010    -0.1750 C.ar  1 <1>  -0.1500 
 17 C       -5.2320     1.6030    -0.9810 C.3   1 <1>   0.0400 
 18 O        5.4930    -0.6070    -1.3230 O.3   1 <1>  -0.3630 
 19 C        2.6930    -3.7290    -0.9160 C.ar  1 <1>  -0.1500 
 20 C        6.5210    -1.2390    -0.5900 C.3   1 <1>   0.1200 
 21 C        7.3020    -0.1870     0.1970 C.3   1 <1>  -0.2400 
 22 H       -1.0210    -0.5230     0.3560 H     1 <1>   0.4200 
 23 H       -1.7760     2.2490     0.7870 H     1 <1>   0.0800 
 24 H       -2.4030     0.8330     1.6130 H     1 <1>   0.0800 
 25 H        2.7000     2.1310     0.7990 H     1 <1>   0.1500 
 26 H       -3.2410    -0.0120    -0.5990 H     1 <1>   0.0800 
 27 H       -2.6890     1.5000    -1.3320 H     1 <1>   0.0800 
 28 H        0.3880    -2.1440     0.9170 H     1 <1>   0.1500 
 29 H        4.7760     1.6610    -0.3730 H     1 <1>   0.1500 
 30 H        4.4750    -2.8860    -1.6740 H     1 <1>   0.1500 
 31 H        0.8420    -4.3120    -0.0270 H     1 <1>   0.1500 
 32 H       -6.0950     2.1000    -0.5750 H     1 <1>   0.0800 
 33 H       -5.4730     0.5770    -1.1980 H     1 <1>   0.0800 
 34 H       -4.9060     2.1130    -1.8710 H     1 <1>   0.0800 
 35 H        2.8670    -4.7040    -1.3370 H     1 <1>   0.1500 
 36 H        7.1650    -1.7300    -1.2980 H     1 <1>   0.0800 
 37 H        6.0890    -1.9750     0.0660 H     1 <1>   0.0800 
 38 H        7.6870     0.5640    -0.4700 H     1 <1>   0.0800 
 39 H        8.1280    -0.6530     0.7010 H     1 <1>   0.0800 
 40 H        6.6720     0.2730     0.9360 H     1 <1>   0.0800 
@<TRIPOS>BOND
  1   1   2  2   
  2   1   3  2   
  3   1   4  am  
  4   1   5  1   
  5   4   6  1   
  6   4  22  1   
  7   5   7  ar  
  8   5   8  ar  
  9   6   9  1   
 10   6  23  1   
 11   6  24  1   
 12   7  10  ar  
 13   7  11  ar  
 14   8  12  ar  
 15   8  25  1   
 16   9  13  1   
 17   9  26  1   
 18   9  27  1   
 19  10  14  ar  
 20  10  15  ar  
 21  11  16  ar  
 22  11  28  1   
 23  12  14  ar  
 24  12  29  1   
 25  13  17  1   
 26  14  18  1   
 27  15  19  ar  
 28  15  30  1   
 29  16  19  ar  
 30  16  31  1   
 31  17  32  1   
 32  17  33  1   
 33  17  34  1   
 34  18  20  1   
 35  19  35  1   
 36  20  21  1   
 37  20  36  1   
 38  20  37  1   
 39  21  38  1   
 40  21  39  1   
 41  21  40  1   
@<TRIPOS>SUBSTRUCTURE
  1 ****   5 GROUP 4 **** **** 0

# MOE 2024.06 (io_trps.svl 2023.06)
