@<TRIPOS>MOLECULE
NONAME
45 47 1 0 0 
SMALL
USER_CHARGES


@<TRIPOS>ATOM
  1 O       -2.5660     0.1810     0.8450 O.3   1 <1>  -0.3630 
  2 C       -2.7930     0.8470    -0.3220 C.ar  1 <1>   0.0830 
  3 C       -1.2610    -0.1780     1.2340 C.3   1 <1>   0.1200 
  4 C       -1.9390     1.8020    -0.8980 C.ar  1 <1>   0.0820 
  5 C       -3.9850     0.5280    -0.9510 C.ar  1 <1>  -0.1500 
  6 C       -1.3640    -1.3370     2.2200 C.3   1 <1>  -0.2400 
  7 O       -0.7820     2.1540    -0.2640 O.3   1 <1>  -0.3620 
  8 C       -2.3080     2.3880    -2.1080 C.ar  1 <1>  -0.1500 
  9 C       -4.3470     1.1170    -2.1510 C.ar  1 <1>  -0.1440 
 10 C        0.0130     3.2350    -0.6980 C.3   1 <1>   0.0400 
 11 C       -3.5000     2.0490    -2.7260 C.ar  1 <1>  -0.1500 
 12 C       -5.6630     0.7440    -2.8110 C.3   1 <1>   0.3530 
 13 N       -6.7390     1.4500    -2.0920 N.pl3 1 <1>  -0.8690 
 14 C       -7.6530     0.6570    -1.4170 C.ar  1 <1>   0.1000 
 15 C       -7.6570     0.6310    -0.0260 C.ar  1 <1>  -0.1500 
 16 C       -8.5690    -0.1270    -2.1140 C.ar  1 <1>  -0.1500 
 17 C       -8.5590    -0.1780     0.6370 C.ar  1 <1>  -0.1430 
 18 C       -9.4710    -0.9360    -1.4430 C.ar  1 <1>  -0.1500 
 19 C       -9.4530    -0.9520    -0.0600 C.ar  1 <1>  -0.1430 
 20 C       -8.7230    -0.3570     2.1250 C.3   1 <1>  -0.0170 
 21 C      -10.3320    -1.7480     0.8720 C.3   1 <1>  -0.0170 
 22 C      -10.0530    -1.1210     2.2490 C.3   1 <1>  -0.1600 
 23 H       -0.7990     0.6750     1.6980 H     1 <1>   0.0800 
 24 H       -0.7070    -0.4680     0.3570 H     1 <1>   0.0800 
 25 H       -4.6350    -0.1940    -0.4890 H     1 <1>   0.1500 
 26 H       -1.9300    -1.0370     3.0830 H     1 <1>   0.0800 
 27 H       -0.3800    -1.6320     2.5390 H     1 <1>   0.0800 
 28 H       -1.8410    -2.1790     1.7510 H     1 <1>   0.0800 
 29 H       -1.6840     3.1150    -2.5900 H     1 <1>   0.1500 
 30 H        0.8170     3.3600     0.0050 H     1 <1>   0.0800 
 31 H       -0.5910     4.1250    -0.7220 H     1 <1>   0.0800 
 32 H        0.4110     3.0090    -1.6710 H     1 <1>   0.0800 
 33 H       -3.7670     2.5200    -3.6570 H     1 <1>   0.1500 
 34 H       -5.8110    -0.3220    -2.7600 H     1 <1>   0.0800 
 35 H       -5.6690     1.0430    -3.8440 H     1 <1>   0.0800 
 36 H       -6.2960     2.1400    -1.4770 H     1 <1>   0.4000 
 37 H       -6.9590     1.2320     0.5240 H     1 <1>   0.1500 
 38 H       -8.5700    -0.0920    -3.1870 H     1 <1>   0.1500 
 39 H      -10.1750    -1.5390    -1.9870 H     1 <1>   0.1500 
 40 H       -8.7600     0.5900     2.6350 H     1 <1>   0.0800 
 41 H       -7.9070    -0.9460     2.5050 H     1 <1>   0.0800 
 42 H      -10.0290    -2.7800     0.8550 H     1 <1>   0.0800 
 43 H      -11.3700    -1.6660     0.6030 H     1 <1>   0.0800 
 44 H      -10.8350    -0.4170     2.4720 H     1 <1>   0.0800 
 45 H      -10.0160    -1.8630     3.0270 H     1 <1>   0.0800 
@<TRIPOS>BOND
  1   1   2  1   
  2   1   3  1   
  3   2   4  ar  
  4   2   5  ar  
  5   3   6  1   
  6   3  23  1   
  7   3  24  1   
  8   4   7  1   
  9   4   8  ar  
 10   5   9  ar  
 11   5  25  1   
 12   6  26  1   
 13   6  27  1   
 14   6  28  1   
 15   7  10  1   
 16   8  11  ar  
 17   8  29  1   
 18   9  11  ar  
 19   9  12  1   
 20  10  30  1   
 21  10  31  1   
 22  10  32  1   
 23  11  33  1   
 24  12  13  1   
 25  12  34  1   
 26  12  35  1   
 27  13  14  1   
 28  13  36  1   
 29  14  15  ar  
 30  14  16  ar  
 31  15  17  ar  
 32  15  37  1   
 33  16  18  ar  
 34  16  38  1   
 35  17  19  ar  
 36  17  20  1   
 37  18  19  ar  
 38  18  39  1   
 39  19  21  1   
 40  20  22  1   
 41  20  40  1   
 42  20  41  1   
 43  21  22  1   
 44  21  42  1   
 45  21  43  1   
 46  22  44  1   
 47  22  45  1   
@<TRIPOS>SUBSTRUCTURE
  1 ****   5 GROUP 4 **** **** 0

# MOE 2024.06 (io_trps.svl 2023.06)
