@<TRIPOS>MOLECULE
NONAME
36 38 1 0 0 
SMALL
USER_CHARGES


@<TRIPOS>ATOM
  1 O       -0.6780     1.7280    -1.8520 O.2   1 <1>  -0.5700 
  2 C       -0.3790     1.8870    -0.6950 C.2   1 <1>   0.5690 
  3 N        0.3390     0.9260    -0.0750 N.am  1 <1>  -0.8000 
  4 C       -0.7900     3.1510     0.0770 C.3   1 <1>   0.1610 
  5 C       -2.2910     3.4640     0.0830 C.2   1 <1>  -0.3320 
  6 C       -0.0090     4.3790    -0.4450 C.3   1 <1>  -0.1600 
  7 N       -3.3230     2.5650     0.1970 N.pl3 1 <1>   0.0480 
  8 C       -2.7960     4.7150    -0.0110 C.2   1 <1>  -0.1810 
  9 C       -0.4980     5.6970     0.1870 C.3   1 <1>  -0.1600 
 10 C       -4.5030     3.2770     0.1640 C.ar  1 <1>  -0.1520 
 11 C       -3.2250     1.0960     0.2830 C.3   1 <1>   0.0160 
 12 C       -4.2010     4.6290     0.0350 C.ar  1 <1>   0.0000 
 13 C       -1.9710     5.9780    -0.1560 C.3   1 <1>   0.0210 
 14 C       -5.8370     2.8610     0.2310 C.ar  1 <1>  -0.1500 
 15 C       -5.2310     5.5740    -0.0220 C.ar  1 <1>  -0.1500 
 16 C       -6.8400     3.8010     0.1740 C.ar  1 <1>  -0.1500 
 17 C       -6.5430     5.1640     0.0480 C.ar  1 <1>  -0.1430 
 18 C       -7.6820     6.1640    -0.0110 C.3   1 <1>  -0.0970 
 19 H        0.6310     0.1090    -0.6130 H     1 <1>   0.3700 
 20 H        0.6720     0.9830     0.8870 H     1 <1>   0.3700 
 21 H       -0.5120     3.0040     1.1040 H     1 <1>   0.0800 
 22 H       -0.1370     4.4390    -1.5130 H     1 <1>   0.0800 
 23 H        1.0390     4.2450    -0.2470 H     1 <1>   0.0800 
 24 H        0.1100     6.5160    -0.1560 H     1 <1>   0.0800 
 25 H       -0.3960     5.6320     1.2560 H     1 <1>   0.0800 
 26 H       -2.4200     0.8290     0.9400 H     1 <1>   0.0800 
 27 H       -3.0410     0.7010    -0.7000 H     1 <1>   0.0800 
 28 H       -4.1410     0.6910     0.6680 H     1 <1>   0.0800 
 29 H       -2.3570     6.7430     0.4930 H     1 <1>   0.0800 
 30 H       -2.0510     6.3200    -1.1720 H     1 <1>   0.0800 
 31 H       -6.0730     1.8180     0.3240 H     1 <1>   0.1500 
 32 H       -4.9700     6.6110    -0.1220 H     1 <1>   0.1500 
 33 H       -7.8680     3.4910     0.2260 H     1 <1>   0.1500 
 34 H       -7.3070     7.1670    -0.1070 H     1 <1>   0.0800 
 35 H       -8.2700     6.1020     0.8870 H     1 <1>   0.0800 
 36 H       -8.3110     5.9510    -0.8570 H     1 <1>   0.0800 
@<TRIPOS>BOND
  1   1   2  2   
  2   2   3  am  
  3   2   4  1   
  4   3  19  1   
  5   3  20  1   
  6   4   5  1   
  7   4   6  1   
  8   4  21  1   
  9   5   7  1   
 10   5   8  2   
 11   6   9  1   
 12   6  22  1   
 13   6  23  1   
 14   7  10  1   
 15   7  11  1   
 16   8  12  1   
 17   8  13  1   
 18   9  13  1   
 19   9  24  1   
 20   9  25  1   
 21  10  12  ar  
 22  10  14  ar  
 23  11  26  1   
 24  11  27  1   
 25  11  28  1   
 26  12  15  ar  
 27  13  29  1   
 28  13  30  1   
 29  14  16  ar  
 30  14  31  1   
 31  15  17  ar  
 32  15  32  1   
 33  16  17  ar  
 34  16  33  1   
 35  17  18  1   
 36  18  34  1   
 37  18  35  1   
 38  18  36  1   
@<TRIPOS>SUBSTRUCTURE
  1 ****   5 GROUP 4 **** **** 0

# MOE 2024.06 (io_trps.svl 2023.06)
