@<TRIPOS>MOLECULE
NONAME
30 30 1 0 0 
SMALL
USER_CHARGES


@<TRIPOS>ATOM
  1 CL      -2.3810    -1.9880     2.4590 Cl    1 <1>  -0.1770 
  2 C       -2.2880    -1.7850     0.7160 C.ar  1 <1>   0.1770 
  3 C       -3.3190    -1.1580     0.0390 C.ar  1 <1>   0.1770 
  4 C       -1.1690    -2.2580     0.0300 C.ar  1 <1>   0.1990 
  5 CL      -4.7230    -0.5690     0.9000 Cl    1 <1>  -0.1770 
  6 C       -3.2630    -0.9840    -1.3320 C.ar  1 <1>  -0.1500 
  7 N       -0.1120    -2.8900     0.6850 N.am  1 <1>  -0.6930 
  8 C       -1.1250    -2.0770    -1.3500 C.ar  1 <1>  -0.1500 
  9 C       -2.1570    -1.4470    -2.0270 C.ar  1 <1>  -0.1500 
 10 S        0.0590    -4.6110     0.6540 S.o2  1 <1>   1.3330 
 11 C        1.1100    -2.0780     0.9860 C.3   1 <1>   0.2570 
 12 O        1.4080    -4.9040     1.0810 O.2   1 <1>  -0.6500 
 13 O       -0.4170    -5.0690    -0.6260 O.2   1 <1>  -0.6500 
 14 C       -1.0660    -5.1290     1.9310 C.3   1 <1>  -0.1350 
 15 C        2.0920    -1.9790    -0.1870 C.2   1 <1>   0.5690 
 16 O        2.1790    -0.9300    -0.7820 O.2   1 <1>  -0.5700 
 17 N        2.8380    -3.0640    -0.5310 N.am  1 <1>  -0.7300 
 18 C        3.7980    -3.1380    -1.6580 C.3   1 <1>   0.0600 
 19 H       -4.0720    -0.4940    -1.8450 H     1 <1>   0.1500 
 20 H       -0.2700    -2.4370    -1.8970 H     1 <1>   0.1500 
 21 H       -2.0980    -1.3200    -3.0950 H     1 <1>   0.1500 
 22 H        1.6220    -2.4960     1.8330 H     1 <1>   0.0800 
 23 H        0.8080    -1.0810     1.2520 H     1 <1>   0.0800 
 24 H       -0.8000    -4.6780     2.8660 H     1 <1>   0.0800 
 25 H       -1.0320    -6.1960     2.0400 H     1 <1>   0.0800 
 26 H       -2.0680    -4.8430     1.6810 H     1 <1>   0.0800 
 27 H        2.6720    -3.9470    -0.0210 H     1 <1>   0.3700 
 28 H        3.4580    -3.8640    -2.3760 H     1 <1>   0.0800 
 29 H        4.7670    -3.4290    -1.2910 H     1 <1>   0.0800 
 30 H        3.8820    -2.1800    -2.1430 H     1 <1>   0.0800 
@<TRIPOS>BOND
  1   1   2  1   
  2   2   3  ar  
  3   2   4  ar  
  4   3   5  1   
  5   3   6  ar  
  6   4   7  1   
  7   4   8  ar  
  8   6   9  ar  
  9   6  19  1   
 10   7  10  am  
 11   7  11  1   
 12   8   9  ar  
 13   8  20  1   
 14   9  21  1   
 15  10  12  2   
 16  10  13  2   
 17  10  14  1   
 18  11  15  1   
 19  11  22  1   
 20  11  23  1   
 21  14  24  1   
 22  14  25  1   
 23  14  26  1   
 24  15  16  2   
 25  15  17  am  
 26  17  18  1   
 27  17  27  1   
 28  18  28  1   
 29  18  29  1   
 30  18  30  1   
@<TRIPOS>SUBSTRUCTURE
  1 ****   4 GROUP 4 **** **** 0

# MOE 2024.06 (io_trps.svl 2023.06)
