@<TRIPOS>MOLECULE
NONAME
31 32 1 0 0 
SMALL
USER_CHARGES


@<TRIPOS>ATOM
  1 S       -6.9220     0.3910    -0.6670 S.3   1 <1>   1.1040 
  2 C       -8.7190     0.2230    -0.4650 C.ar  1 <1>  -0.1200 
  3 C       -6.3500    -1.2930    -0.4820 C.3   1 <1>  -0.1520 
  4 C       -6.4280     1.1820     0.8570 C.3   1 <1>  -0.1530 
  5 C       -9.5600     0.7080    -1.4590 C.ar  1 <1>  -0.1500 
  6 C       -9.2500    -0.3850     0.6690 C.ar  1 <1>  -0.1500 
  7 C       -4.8260    -1.4600    -0.5670 C.3   1 <1>  -0.1600 
  8 C       -5.0020     1.7500     0.8350 C.3   1 <1>  -0.1600 
  9 C      -10.9300     0.5850    -1.3160 C.ar  1 <1>  -0.1500 
 10 C      -10.6220    -0.5050     0.8060 C.ar  1 <1>  -0.1500 
 11 C       -4.0380    -0.6470     0.4750 C.3   1 <1>  -0.1600 
 12 C       -3.9450     0.8580     0.1590 C.3   1 <1>  -0.1600 
 13 C      -11.4550    -0.0200    -0.1890 C.ar  1 <1>   0.0820 
 14 O      -12.7850    -0.1280    -0.0730 O.3   1 <1>  -0.5320 
 15 H       -6.7980    -1.9090    -1.2410 H     1 <1>   0.0800 
 16 H       -6.6750    -1.6780     0.4670 H     1 <1>   0.0800 
 17 H       -6.4890     0.4660     1.6560 H     1 <1>   0.0800 
 18 H       -7.1080     1.9800     1.0940 H     1 <1>   0.0800 
 19 H       -9.1770     1.1830    -2.3480 H     1 <1>   0.1500 
 20 H       -8.6200    -0.7690     1.4540 H     1 <1>   0.1500 
 21 H       -4.4780    -1.2180    -1.5580 H     1 <1>   0.0800 
 22 H       -4.6040    -2.5040    -0.4110 H     1 <1>   0.0800 
 23 H       -4.7020     1.9260     1.8560 H     1 <1>   0.0800 
 24 H       -5.0030     2.7090     0.3450 H     1 <1>   0.0800 
 25 H      -11.6030     0.9530    -2.0730 H     1 <1>   0.1500 
 26 H      -11.0400    -0.9740     1.6790 H     1 <1>   0.1500 
 27 H       -3.0310    -1.0320     0.4710 H     1 <1>   0.0800 
 28 H       -4.4180    -0.8120     1.4700 H     1 <1>   0.0800 
 29 H       -2.9810     1.2060     0.4960 H     1 <1>   0.0800 
 30 H       -3.9500     1.0110    -0.9070 H     1 <1>   0.0800 
 31 H      -13.0800    -0.5640     0.7460 H     1 <1>   0.4500 
@<TRIPOS>BOND
  1   1   2  1   
  2   1   3  1   
  3   1   4  1   
  4   2   5  ar  
  5   2   6  ar  
  6   3   7  1   
  7   3  15  1   
  8   3  16  1   
  9   4   8  1   
 10   4  17  1   
 11   4  18  1   
 12   5   9  ar  
 13   5  19  1   
 14   6  10  ar  
 15   6  20  1   
 16   7  11  1   
 17   7  21  1   
 18   7  22  1   
 19   8  12  1   
 20   8  23  1   
 21   8  24  1   
 22   9  13  ar  
 23   9  25  1   
 24  10  13  ar  
 25  10  26  1   
 26  11  12  1   
 27  11  27  1   
 28  11  28  1   
 29  12  29  1   
 30  12  30  1   
 31  13  14  1   
 32  14  31  1   
@<TRIPOS>SUBSTRUCTURE
  1 ****   2 GROUP 4 **** **** 0

# MOE 2024.06 (io_trps.svl 2023.06)
