@<TRIPOS>MOLECULE
NONAME
29 29 1 0 0 
SMALL
USER_CHARGES


@<TRIPOS>ATOM
  1 CL       0.2210     0.3200    -0.2110 Cl    1 <1>  -0.1770 
  2 C        1.6820    -0.6140    -0.0470 C.ar  1 <1>   0.1770 
  3 C        1.8580    -1.7460    -0.8200 C.ar  1 <1>  -0.1500 
  4 C        2.6490    -0.2150     0.8550 C.ar  1 <1>  -0.1500 
  5 C        3.0210    -2.4850    -0.6870 C.ar  1 <1>  -0.1500 
  6 C        3.8080    -0.9620     0.9790 C.ar  1 <1>  -0.1500 
  7 C        4.0270    -2.1090     0.2110 C.ar  1 <1>   0.0860 
  8 C        5.2580    -2.8710     0.3540 C.2   1 <1>   0.5440 
  9 O        5.9040    -2.8170     1.3810 O.2   1 <1>  -0.5700 
 10 N        5.7210    -3.6610    -0.6610 N.am  1 <1>  -0.7300 
 11 C        7.0080    -4.4230    -0.6420 C.3   1 <1>   0.1400 
 12 C        6.8190    -5.9340    -0.3670 C.3   1 <1>   0.2800 
 13 O        5.8030    -6.4070    -1.1650 O.3   1 <1>  -0.6800 
 14 C        8.0700    -6.7300    -0.7300 C.3   1 <1>  -0.2400 
 15 C        6.4010    -6.2100     1.0770 C.3   1 <1>  -0.2400 
 16 H        1.0890    -2.0390    -1.5120 H     1 <1>   0.1500 
 17 H        2.4930     0.6670     1.4510 H     1 <1>   0.1500 
 18 H        3.1410    -3.3700    -1.2850 H     1 <1>   0.1500 
 19 H        4.5630    -0.6550     1.6830 H     1 <1>   0.1500 
 20 H        5.2470    -3.6540    -1.5650 H     1 <1>   0.3700 
 21 H        7.6630    -4.0120     0.1070 H     1 <1>   0.0800 
 22 H        7.4960    -4.2970    -1.5920 H     1 <1>   0.0800 
 23 H        4.9780    -5.9820    -0.8690 H     1 <1>   0.4000 
 24 H        8.3230    -6.5800    -1.7640 H     1 <1>   0.0800 
 25 H        7.9080    -7.7790    -0.5590 H     1 <1>   0.0800 
 26 H        8.9000    -6.4120    -0.1250 H     1 <1>   0.0800 
 27 H        5.4960    -5.6840     1.3230 H     1 <1>   0.0800 
 28 H        7.1680    -5.8730     1.7500 H     1 <1>   0.0800 
 29 H        6.2520    -7.2640     1.2340 H     1 <1>   0.0800 
@<TRIPOS>BOND
  1   1   2  1   
  2   2   3  ar  
  3   2   4  ar  
  4   3   5  ar  
  5   3  16  1   
  6   4   6  ar  
  7   4  17  1   
  8   5   7  ar  
  9   5  18  1   
 10   6   7  ar  
 11   6  19  1   
 12   7   8  1   
 13   8   9  2   
 14   8  10  am  
 15  10  11  1   
 16  10  20  1   
 17  11  12  1   
 18  11  21  1   
 19  11  22  1   
 20  12  13  1   
 21  12  14  1   
 22  12  15  1   
 23  13  23  1   
 24  14  24  1   
 25  14  25  1   
 26  14  26  1   
 27  15  27  1   
 28  15  28  1   
 29  15  29  1   
@<TRIPOS>SUBSTRUCTURE
  1 ****   8 GROUP 4 **** **** 0

# MOE 2024.06 (io_trps.svl 2023.06)
