@<TRIPOS>MOLECULE
NONAME
51 52 1 0 0 
SMALL
USER_CHARGES


@<TRIPOS>ATOM
  1 O       -1.1570     0.4590    -0.4790 O.3   1 <1>  -0.5600 
  2 C       -1.3410     1.3590     0.5750 C.3   1 <1>   0.1200 
  3 C       -2.1680    -0.4960    -0.6210 C.3   1 <1>   0.1200 
  4 C       -2.6580     2.1370     0.3880 C.3   1 <1>   0.3430 
  5 C       -3.5250     0.1940    -0.8610 C.3   1 <1>   0.3430 
  6 N       -3.8300     1.2090     0.2110 N.4   1 <1>  -0.9590 
  7 C       -5.0740     1.9780    -0.0680 C.3   1 <1>   0.3430 
  8 C       -6.3060     1.0850     0.0940 C.3   1 <1>  -0.1600 
  9 C       -7.5950     1.9010    -0.0830 C.3   1 <1>  -0.1600 
 10 C       -8.8400     1.0190     0.0830 C.3   1 <1>  -0.1600 
 11 C      -10.1230     1.8420    -0.0940 C.3   1 <1>  -0.1600 
 12 C      -11.3730     0.9760     0.0700 C.3   1 <1>   0.1200 
 13 O      -12.5010     1.8010    -0.1060 O.3   1 <1>  -0.3630 
 14 C      -13.7610     1.3030    -0.0150 C.ar  1 <1>   0.0820 
 15 C      -14.7990     2.2000    -0.2040 C.ar  1 <1>  -0.1500 
 16 C      -14.0510    -0.0330     0.2520 C.ar  1 <1>  -0.1500 
 17 C      -16.1170     1.7830    -0.1310 C.ar  1 <1>  -0.1430 
 18 C      -15.3670    -0.4590     0.3300 C.ar  1 <1>  -0.1430 
 19 C      -16.3930     0.4520     0.1360 C.ar  1 <1>  -0.1500 
 20 C      -17.2530     2.7680    -0.3390 C.3   1 <1>  -0.0970 
 21 C      -15.6900    -1.9130     0.6200 C.3   1 <1>  -0.0970 
 22 H       -0.5050     2.0380     0.5730 H     1 <1>   0.0800 
 23 H       -1.3360     0.8140     1.5030 H     1 <1>   0.0800 
 24 H       -2.1930    -1.1110     0.2620 H     1 <1>   0.0800 
 25 H       -1.9140    -1.1170    -1.4630 H     1 <1>   0.0800 
 26 H       -2.5560     2.7660    -0.4810 H     1 <1>   0.0800 
 27 H       -2.8170     2.7750     1.2420 H     1 <1>   0.0800 
 28 H       -4.3000    -0.5540    -0.8950 H     1 <1>   0.0800 
 29 H       -3.4910     0.6790    -1.8230 H     1 <1>   0.0800 
 30 H       -3.9580     0.7010     1.0960 H     1 <1>   0.4500 
 31 H       -5.0440     2.3850    -1.0670 H     1 <1>   0.0800 
 32 H       -5.1520     2.8010     0.6250 H     1 <1>   0.0800 
 33 H       -6.3080     0.6460     1.0770 H     1 <1>   0.0800 
 34 H       -6.2960     0.3000    -0.6410 H     1 <1>   0.0800 
 35 H       -7.6110     2.3490    -1.0630 H     1 <1>   0.0800 
 36 H       -7.6280     2.6940     0.6460 H     1 <1>   0.0800 
 37 H       -8.8390     0.5720     1.0630 H     1 <1>   0.0800 
 38 H       -8.8240     0.2270    -0.6480 H     1 <1>   0.0800 
 39 H      -10.1370     2.2850    -1.0750 H     1 <1>   0.0800 
 40 H      -10.1520     2.6300     0.6390 H     1 <1>   0.0800 
 41 H      -11.4170     0.5500     1.0580 H     1 <1>   0.0800 
 42 H      -11.4030     0.2000    -0.6750 H     1 <1>   0.0800 
 43 H      -14.5590     3.2280    -0.4080 H     1 <1>   0.1500 
 44 H      -13.2660    -0.7480     0.4010 H     1 <1>   0.1500 
 45 H      -17.4160     0.1240     0.1940 H     1 <1>   0.1500 
 46 H      -16.8920     3.6790    -0.7810 H     1 <1>   0.0800 
 47 H      -17.7100     2.9990     0.6060 H     1 <1>   0.0800 
 48 H      -17.9950     2.3430    -0.9910 H     1 <1>   0.0800 
 49 H      -14.8710    -2.3920     1.1260 H     1 <1>   0.0800 
 50 H      -15.8820    -2.4330    -0.3010 H     1 <1>   0.0800 
 51 H      -16.5620    -1.9820     1.2470 H     1 <1>   0.0800 
@<TRIPOS>BOND
  1   1   2  1   
  2   1   3  1   
  3   2   4  1   
  4   2  22  1   
  5   2  23  1   
  6   3   5  1   
  7   3  24  1   
  8   3  25  1   
  9   4   6  1   
 10   4  26  1   
 11   4  27  1   
 12   5   6  1   
 13   5  28  1   
 14   5  29  1   
 15   6   7  1   
 16   6  30  1   
 17   7   8  1   
 18   7  31  1   
 19   7  32  1   
 20   8   9  1   
 21   8  33  1   
 22   8  34  1   
 23   9  10  1   
 24   9  35  1   
 25   9  36  1   
 26  10  11  1   
 27  10  37  1   
 28  10  38  1   
 29  11  12  1   
 30  11  39  1   
 31  11  40  1   
 32  12  13  1   
 33  12  41  1   
 34  12  42  1   
 35  13  14  1   
 36  14  15  ar  
 37  14  16  ar  
 38  15  17  ar  
 39  15  43  1   
 40  16  18  ar  
 41  16  44  1   
 42  17  19  ar  
 43  17  20  1   
 44  18  19  ar  
 45  18  21  1   
 46  19  45  1   
 47  20  46  1   
 48  20  47  1   
 49  20  48  1   
 50  21  49  1   
 51  21  50  1   
 52  21  51  1   
@<TRIPOS>SUBSTRUCTURE
  1 ****  10 GROUP 4 **** **** 0

# MOE 2024.06 (io_trps.svl 2023.06)
