@<TRIPOS>MOLECULE
NONAME
38 38 1 0 0 
SMALL
USER_CHARGES


@<TRIPOS>ATOM
  1 S       -0.3830     0.0350    -0.8020 S.o2  1 <1>   1.4470 
  2 O       -0.6670     0.4550    -2.1540 O.2   1 <1>  -0.6500 
  3 O       -1.1110    -1.0770    -0.2330 O.2   1 <1>  -0.6500 
  4 N       -0.7760     1.3740     0.1340 N.am  1 <1>  -0.9140 
  5 C        1.4040    -0.1480    -0.5570 C.ar  1 <1>  -0.0090 
  6 C       -0.8970     1.1110     1.5670 C.3   1 <1>   0.1160 
  7 C        2.2890     0.8350    -0.9860 C.ar  1 <1>  -0.1500 
  8 C        1.9410    -1.2640     0.0730 C.ar  1 <1>  -0.1500 
  9 C        3.6530     0.7080    -0.7960 C.ar  1 <1>  -0.1500 
 10 C        3.3040    -1.3940     0.2670 C.ar  1 <1>  -0.1500 
 11 C        4.1850    -0.4110    -0.1680 C.ar  1 <1>   0.1170 
 12 N        5.5710    -0.4900     0.0130 N.am  1 <1>  -0.5470 
 13 C        6.4060    -1.5550     0.2040 C.2   1 <1>   0.6900 
 14 O        5.9930    -2.6970     0.1240 O.2   1 <1>  -0.5700 
 15 N        7.7330    -1.3060     0.4570 N.am  1 <1>  -0.6600 
 16 C        8.2170    -0.0310     1.0500 C.3   1 <1>   0.1400 
 17 C        8.7230    -2.4170     0.4080 C.3   1 <1>   0.1400 
 18 C        8.8070     0.8590    -0.0400 C.3   1 <1>  -0.2400 
 19 C        9.1590    -2.6540    -1.0360 C.3   1 <1>  -0.2400 
 20 H       -1.6850     1.6560    -0.2300 H     1 <1>   0.4200 
 21 H        0.0350     0.7350     1.9550 H     1 <1>   0.0800 
 22 H       -1.6740     0.3890     1.7560 H     1 <1>   0.0800 
 23 H       -1.1410     2.0250     2.0830 H     1 <1>   0.0800 
 24 H        1.8970     1.7100    -1.4780 H     1 <1>   0.1500 
 25 H        1.2840    -2.0460     0.4180 H     1 <1>   0.1500 
 26 H        4.3090     1.4850    -1.1440 H     1 <1>   0.1500 
 27 H        3.6840    -2.2700     0.7620 H     1 <1>   0.1500 
 28 H        6.0890     0.3670    -0.1390 H     1 <1>   0.3700 
 29 H        8.9620    -0.2360     1.8000 H     1 <1>   0.0800 
 30 H        7.4040     0.4780     1.5410 H     1 <1>   0.0800 
 31 H        8.2790    -3.3160     0.8030 H     1 <1>   0.0800 
 32 H        9.5810    -2.1810     1.0140 H     1 <1>   0.0800 
 33 H        9.6830     0.4000    -0.4610 H     1 <1>   0.0800 
 34 H        9.0940     1.8050     0.3810 H     1 <1>   0.0800 
 35 H        8.0890     1.0340    -0.8200 H     1 <1>   0.0800 
 36 H        8.3080    -2.9260    -1.6360 H     1 <1>   0.0800 
 37 H        9.8690    -3.4590    -1.0710 H     1 <1>   0.0800 
 38 H        9.6170    -1.7730    -1.4450 H     1 <1>   0.0800 
@<TRIPOS>BOND
  1   1   2  2   
  2   1   3  2   
  3   1   4  am  
  4   1   5  1   
  5   4   6  1   
  6   4  20  1   
  7   5   7  ar  
  8   5   8  ar  
  9   6  21  1   
 10   6  22  1   
 11   6  23  1   
 12   7   9  ar  
 13   7  24  1   
 14   8  10  ar  
 15   8  25  1   
 16   9  11  ar  
 17   9  26  1   
 18  10  11  ar  
 19  10  27  1   
 20  11  12  1   
 21  12  13  am  
 22  12  28  1   
 23  13  14  2   
 24  13  15  am  
 25  15  16  1   
 26  15  17  1   
 27  16  18  1   
 28  16  29  1   
 29  16  30  1   
 30  17  19  1   
 31  17  31  1   
 32  17  32  1   
 33  18  33  1   
 34  18  34  1   
 35  18  35  1   
 36  19  36  1   
 37  19  37  1   
 38  19  38  1   
@<TRIPOS>SUBSTRUCTURE
  1 ****  11 GROUP 4 **** **** 0

# MOE 2024.06 (io_trps.svl 2023.06)
