@<TRIPOS>MOLECULE
NONAME
32 32 1 0 0 
SMALL
USER_CHARGES


@<TRIPOS>ATOM
  1 O        0.0510     0.2390    -0.2640 O.3   1 <1>  -0.0190 
  2 N       -1.1560     0.8110    -0.3030 N.2   1 <1>  -0.5130 
  3 C        1.2130     0.9410    -0.1680 C.ar  1 <1>   0.7020 
  4 C       -2.1850     0.0870    -0.3900 C.2   1 <1>   0.3280 
  5 N        1.1680     2.2500    -0.1010 N.ar  1 <1>  -0.6200 
  6 N        2.2960     0.2070    -0.1510 N.ar  1 <1>  -0.6200 
  7 C       -3.5680     0.7230    -0.4330 C.3   1 <1>  -0.0990 
  8 C       -2.1890    -1.4350    -0.4710 C.3   1 <1>  -0.1790 
  9 C        2.3400     2.8290    -0.0120 C.ar  1 <1>   0.7200 
 10 C        3.3820     0.9130    -0.0690 C.ar  1 <1>   0.7200 
 11 C       -4.3920     0.4560     0.8360 C.3   1 <1>  -0.2400 
 12 N        3.4900     2.2020     0.0140 N.ar  1 <1>  -0.6200 
 13 N        2.3600     4.2070     0.0630 N.pl3 1 <1>  -0.8380 
 14 N        4.5250     0.2240    -0.0450 N.pl3 1 <1>  -0.9000 
 15 C        1.1410     5.0290    -0.1860 C.3   1 <1>   0.1290 
 16 C        3.5920     4.9750     0.3970 C.3   1 <1>   0.1290 
 17 H       -3.4520     1.7870    -0.5480 H     1 <1>   0.0800 
 18 H       -4.0980     0.3630    -1.2970 H     1 <1>   0.0800 
 19 H       -2.7860    -1.7540    -1.3050 H     1 <1>   0.0800 
 20 H       -2.6010    -1.8460     0.4320 H     1 <1>   0.0800 
 21 H       -1.2000    -1.8330    -0.5990 H     1 <1>   0.0800 
 22 H       -3.8520     0.7970     1.7020 H     1 <1>   0.0800 
 23 H       -4.6010    -0.5920     0.9450 H     1 <1>   0.0800 
 24 H       -5.3260     0.9870     0.7850 H     1 <1>   0.0800 
 25 H        4.4610    -0.7690     0.1620 H     1 <1>   0.4000 
 26 H        5.3520     0.7210     0.2740 H     1 <1>   0.4000 
 27 H        1.4150     5.9870    -0.5920 H     1 <1>   0.0800 
 28 H        0.6090     5.1720     0.7380 H     1 <1>   0.0800 
 29 H        0.4900     4.5390    -0.8900 H     1 <1>   0.0800 
 30 H        3.3370     5.8560     0.9600 H     1 <1>   0.0800 
 31 H        4.0920     5.2660    -0.5100 H     1 <1>   0.0800 
 32 H        4.2640     4.3800     0.9920 H     1 <1>   0.0800 
@<TRIPOS>BOND
  1   1   2  1   
  2   1   3  1   
  3   2   4  2   
  4   3   5  ar  
  5   3   6  ar  
  6   4   7  1   
  7   4   8  1   
  8   5   9  ar  
  9   6  10  ar  
 10   7  11  1   
 11   7  17  1   
 12   7  18  1   
 13   8  19  1   
 14   8  20  1   
 15   8  21  1   
 16   9  12  ar  
 17   9  13  1   
 18  10  12  ar  
 19  10  14  1   
 20  11  22  1   
 21  11  23  1   
 22  11  24  1   
 23  13  15  1   
 24  13  16  1   
 25  14  25  1   
 26  14  26  1   
 27  15  27  1   
 28  15  28  1   
 29  15  29  1   
 30  16  30  1   
 31  16  31  1   
 32  16  32  1   
@<TRIPOS>SUBSTRUCTURE
  1 ****   3 GROUP 4 **** **** 0

# MOE 2024.06 (io_trps.svl 2023.06)
