@<TRIPOS>MOLECULE
NONAME
50 52 1 0 0 
SMALL
USER_CHARGES


@<TRIPOS>ATOM
  1 O        0.2840     3.2450    -1.3280 O.2   1 <1>  -0.5700 
  2 C       -0.1190     2.8390    -0.2620 C.2   1 <1>   0.5690 
  3 N        0.5050     1.8180     0.4110 N.am  1 <1>  -0.5470 
  4 C       -1.4160     3.4050     0.3750 C.3   1 <1>   0.2050 
  5 C        1.7200     1.1620     0.1720 C.ar  1 <1>   0.1170 
  6 C       -2.3850     2.2160     0.5740 C.ar  1 <1>  -0.1440 
  7 C       -1.0580     4.1120     1.7050 C.3   1 <1>  -0.1600 
  8 C       -2.1240     4.4630    -0.5130 C.3   1 <1>  -0.1600 
  9 C        2.7730     1.7530    -0.5160 C.ar  1 <1>  -0.1500 
 10 C        1.8940    -0.1250     0.6600 C.ar  1 <1>  -0.1500 
 11 C       -2.7120     1.4450    -0.5360 C.ar  1 <1>  -0.1500 
 12 C       -2.9420     1.8660     1.8020 C.ar  1 <1>  -0.1500 
 13 C       -0.1450     5.3280     1.4780 C.3   1 <1>   0.1200 
 14 C       -1.6330     5.9020    -0.2760 C.3   1 <1>   0.1200 
 15 C        3.9700     1.0850    -0.7200 C.ar  1 <1>  -0.1430 
 16 C        3.0830    -0.8010     0.4640 C.ar  1 <1>  -0.1500 
 17 C       -3.5600     0.3560    -0.4330 C.ar  1 <1>  -0.1500 
 18 C       -3.7910     0.7780     1.9080 C.ar  1 <1>  -0.1500 
 19 O       -0.3310     5.8870     0.2130 O.3   1 <1>  -0.5600 
 20 C        4.1290    -0.2050    -0.2250 C.ar  1 <1>  -0.1430 
 21 C        5.0820     1.7860    -1.4870 C.3   1 <1>  -0.0970 
 22 C       -4.1060     0.0150     0.7980 C.ar  1 <1>   0.0830 
 23 C        5.4240    -0.9800    -0.4230 C.3   1 <1>  -0.0970 
 24 O       -4.9420    -1.0350     0.9930 O.3   1 <1>  -0.3620 
 25 C       -5.3420    -1.8600    -0.0780 C.3   1 <1>   0.0400 
 26 H       -0.0680     1.3970     1.1410 H     1 <1>   0.3700 
 27 H       -0.5770     3.4380     2.3900 H     1 <1>   0.0800 
 28 H       -1.9580     4.4660     2.1750 H     1 <1>   0.0800 
 29 H       -3.1810     4.4490    -0.3160 H     1 <1>   0.0800 
 30 H       -2.0070     4.2170    -1.5530 H     1 <1>   0.0800 
 31 H        2.6510     2.7510    -0.8950 H     1 <1>   0.1500 
 32 H        1.0950    -0.6060     1.1920 H     1 <1>   0.1500 
 33 H       -2.3000     1.6860    -1.5030 H     1 <1>   0.1500 
 34 H       -2.7380     2.4190     2.6990 H     1 <1>   0.1500 
 35 H        0.8900     5.0350     1.5360 H     1 <1>   0.0800 
 36 H       -0.3290     6.0910     2.2150 H     1 <1>   0.0800 
 37 H       -2.2530     6.4120     0.4420 H     1 <1>   0.0800 
 38 H       -1.6350     6.4580    -1.1970 H     1 <1>   0.0800 
 39 H        3.1900    -1.7990     0.8510 H     1 <1>   0.1500 
 40 H       -3.7800    -0.2100    -1.3180 H     1 <1>   0.1500 
 41 H       -4.2190     0.5120     2.8580 H     1 <1>   0.1500 
 42 H        4.7730     2.7670    -1.8010 H     1 <1>   0.0800 
 43 H        5.3390     1.2190    -2.3630 H     1 <1>   0.0800 
 44 H        5.9510     1.8890    -0.8640 H     1 <1>   0.0800 
 45 H        5.6160    -1.1110    -1.4730 H     1 <1>   0.0800 
 46 H        5.3670    -1.9520     0.0330 H     1 <1>   0.0800 
 47 H        6.2440    -0.4460     0.0210 H     1 <1>   0.0800 
 48 H       -6.0050    -2.6130     0.3100 H     1 <1>   0.0800 
 49 H       -4.4710    -2.3250    -0.5050 H     1 <1>   0.0800 
 50 H       -5.8570    -1.2610    -0.8080 H     1 <1>   0.0800 
@<TRIPOS>BOND
  1   1   2  2   
  2   2   3  am  
  3   2   4  1   
  4   3   5  1   
  5   3  26  1   
  6   4   6  1   
  7   4   7  1   
  8   4   8  1   
  9   5   9  ar  
 10   5  10  ar  
 11   6  11  ar  
 12   6  12  ar  
 13   7  13  1   
 14   7  27  1   
 15   7  28  1   
 16   8  14  1   
 17   8  29  1   
 18   8  30  1   
 19   9  15  ar  
 20   9  31  1   
 21  10  16  ar  
 22  10  32  1   
 23  11  17  ar  
 24  11  33  1   
 25  12  18  ar  
 26  12  34  1   
 27  13  19  1   
 28  13  35  1   
 29  13  36  1   
 30  14  19  1   
 31  14  37  1   
 32  14  38  1   
 33  15  20  ar  
 34  15  21  1   
 35  16  20  ar  
 36  16  39  1   
 37  17  22  ar  
 38  17  40  1   
 39  18  22  ar  
 40  18  41  1   
 41  20  23  1   
 42  21  42  1   
 43  21  43  1   
 44  21  44  1   
 45  22  24  1   
 46  23  45  1   
 47  23  46  1   
 48  23  47  1   
 49  24  25  1   
 50  25  48  1   
 51  25  49  1   
 52  25  50  1   
@<TRIPOS>SUBSTRUCTURE
  1 ****   3 GROUP 4 **** **** 0

# MOE 2024.06 (io_trps.svl 2023.06)
