@<TRIPOS>MOLECULE
NONAME
35 36 1 0 0 
SMALL
USER_CHARGES


@<TRIPOS>ATOM
  1 S       -0.0830    -0.4490     0.0040 S.3   1 <1>  -0.0800 
  2 C        0.4640     1.2210    -0.0140 C.2   1 <1>   0.1040 
  3 C       -1.7720     0.0310     0.0120 C.2   1 <1>  -0.1400 
  4 N        1.8130     1.5360    -0.0260 N.am  1 <1>  -0.4940 
  5 C       -0.6060     2.0730    -0.0130 C.2   1 <1>  -0.0860 
  6 C       -1.8650     1.3730     0.0020 C.2   1 <1>  -0.1500 
  7 C       -2.7900    -1.0950     0.0280 C.3   1 <1>   0.0200 
  8 C        2.9730     0.8030    -0.0290 C.2   1 <1>   0.7150 
  9 C       -0.5030     3.5050    -0.0250 C.2   1 <1>   0.8060 
 10 C       -4.2300    -0.5740     0.0350 C.3   1 <1>  -0.2400 
 11 O        2.9430    -0.4110    -0.0190 O.2   1 <1>  -0.5700 
 12 C        4.2150     1.5250    -0.0430 C.2   1 <1>  -0.2370 
 13 O        0.5660     4.0930    -0.0370 O.2   1 <1>  -0.5700 
 14 O       -1.6330     4.2230    -0.0220 O.3   1 <1>  -0.4300 
 15 N        5.4550     0.9610    -0.0480 N.pl3 1 <1>   0.3140 
 16 C        4.4400     2.8720    -0.0540 C.2   1 <1>  -0.1500 
 17 C       -1.6190     5.6380    -0.0330 C.3   1 <1>   0.0400 
 18 N        6.4310     1.8820    -0.0620 N.2   1 <1>  -0.7070 
 19 C        5.8070    -0.4700    -0.0410 C.3   1 <1>   0.0160 
 20 C        5.8120     3.0230    -0.0650 C.2   1 <1>   0.1390 
 21 H        1.9940     2.5420    -0.0350 H     1 <1>   0.3700 
 22 H       -2.7930     1.9200     0.0040 H     1 <1>   0.1500 
 23 H       -2.6260    -1.7010     0.9020 H     1 <1>   0.0800 
 24 H       -2.6390    -1.7150    -0.8380 H     1 <1>   0.0800 
 25 H       -4.4030     0.0310     0.9070 H     1 <1>   0.0800 
 26 H       -4.9190    -1.4000     0.0460 H     1 <1>   0.0800 
 27 H       -4.4160     0.0170    -0.8450 H     1 <1>   0.0800 
 28 H        3.7310     3.6810    -0.0550 H     1 <1>   0.1500 
 29 H       -2.6360     5.9880    -0.0290 H     1 <1>   0.0800 
 30 H       -1.1160     5.9750    -0.9230 H     1 <1>   0.0800 
 31 H       -1.1030     5.9890     0.8430 H     1 <1>   0.0800 
 32 H        5.3930    -0.9400    -0.9130 H     1 <1>   0.0800 
 33 H        5.4060    -0.9280     0.8440 H     1 <1>   0.0800 
 34 H        6.8760    -0.5740    -0.0480 H     1 <1>   0.0800 
 35 H        6.3280     3.9700    -0.0760 H     1 <1>   0.1500 
@<TRIPOS>BOND
  1   1   2  1   
  2   1   3  1   
  3   2   4  1   
  4   2   5  2   
  5   3   6  2   
  6   3   7  1   
  7   4   8  am  
  8   4  21  1   
  9   5   6  1   
 10   5   9  1   
 11   6  22  1   
 12   7  10  1   
 13   7  23  1   
 14   7  24  1   
 15   8  11  2   
 16   8  12  1   
 17   9  13  2   
 18   9  14  1   
 19  10  25  1   
 20  10  26  1   
 21  10  27  1   
 22  12  15  1   
 23  12  16  2   
 24  14  17  1   
 25  15  18  1   
 26  15  19  1   
 27  16  20  1   
 28  16  28  1   
 29  17  29  1   
 30  17  30  1   
 31  17  31  1   
 32  18  20  2   
 33  19  32  1   
 34  19  33  1   
 35  19  34  1   
 36  20  35  1   
@<TRIPOS>SUBSTRUCTURE
  1 ****   4 GROUP 4 **** **** 0

# MOE 2024.06 (io_trps.svl 2023.06)
