@<TRIPOS>MOLECULE
NONAME
58 62 1 0 0 
SMALL
USER_CHARGES


@<TRIPOS>ATOM
  1 N       -0.2020     0.3740    -0.2440 N.4   1 <1>  -0.9590 
  2 C        0.8110     1.4340     0.0550 C.3   1 <1>   0.4230 
  3 C        0.2370    -0.9260    -0.8450 C.3   1 <1>   0.3430 
  4 C       -1.3620     0.9180    -1.0230 C.3   1 <1>   0.3430 
  5 C        1.8450     1.7260    -1.0600 C.3   1 <1>  -0.0800 
  6 C        1.5370     1.2260     1.4010 C.3   1 <1>  -0.0800 
  7 C       -0.9260    -1.9500    -0.8660 C.3   1 <1>   0.1100 
  8 C       -2.5100    -0.1170    -1.1150 C.3   1 <1>   0.1100 
  9 C        2.9850     0.6780    -1.1320 C.3   1 <1>  -0.1600 
 10 C        2.4930     3.0830    -0.7010 C.3   1 <1>  -0.1600 
 11 C        2.6580     0.1650     1.3190 C.3   1 <1>  -0.1600 
 12 C        2.1870     2.5790     1.7630 C.3   1 <1>  -0.1600 
 13 N       -2.1970    -1.3670    -0.3750 N.3   1 <1>  -0.8100 
 14 C        3.6820     0.5540     0.2350 C.3   1 <1>  -0.0800 
 15 C        3.1980     2.9900     0.6710 C.3   1 <1>  -0.0800 
 16 C       -3.2970    -2.3400    -0.4400 C.3   1 <1>   0.2480 
 17 C        4.3000     1.9180     0.5960 C.3   1 <1>  -0.1600 
 18 C       -4.4960    -1.7660     0.2810 C.2   1 <1>  -0.2880 
 19 C       -5.6930    -1.5230    -0.2820 C.2   1 <1>  -0.1780 
 20 C       -6.8770    -0.9630     0.3360 C.ar  1 <1>   0.0280 
 21 C       -8.0050    -0.6970    -0.4370 C.ar  1 <1>  -0.1500 
 22 C       -6.9450    -0.6660     1.6960 C.ar  1 <1>  -0.1500 
 23 C       -9.1500    -0.1550     0.1180 C.ar  1 <1>  -0.1500 
 24 C       -8.0860    -0.1220     2.2580 C.ar  1 <1>  -0.1500 
 25 C       -9.1920     0.1350     1.4700 C.ar  1 <1>  -0.1500 
 26 H       -0.6400     0.0840     0.6440 H     1 <1>   0.4500 
 27 H        0.2510     2.3460     0.1800 H     1 <1>   0.0800 
 28 H        0.5810    -0.7630    -1.8520 H     1 <1>   0.0800 
 29 H        1.0530    -1.3460    -0.2860 H     1 <1>   0.0800 
 30 H       -1.7400     1.8060    -0.5440 H     1 <1>   0.0800 
 31 H       -1.0470     1.1900    -2.0160 H     1 <1>   0.0800 
 32 H        1.3550     1.8160    -2.0120 H     1 <1>   0.0800 
 33 H        0.8300     0.9650     2.1690 H     1 <1>   0.0800 
 34 H       -0.6580    -2.7880    -0.2450 H     1 <1>   0.0800 
 35 H       -1.0510    -2.3180    -1.8700 H     1 <1>   0.0800 
 36 H       -2.7040    -0.3420    -2.1500 H     1 <1>   0.0800 
 37 H       -3.4020     0.3330    -0.7130 H     1 <1>   0.0800 
 38 H        2.6360    -0.2820    -1.4500 H     1 <1>   0.0800 
 39 H        3.7080     0.9920    -1.8670 H     1 <1>   0.0800 
 40 H        3.2100     3.3590    -1.4560 H     1 <1>   0.0800 
 41 H        1.7460     3.8580    -0.6720 H     1 <1>   0.0800 
 42 H        3.1600     0.1040     2.2700 H     1 <1>   0.0800 
 43 H        2.2580    -0.8100     1.1240 H     1 <1>   0.0800 
 44 H        1.4330     3.3410     1.8650 H     1 <1>   0.0800 
 45 H        2.6920     2.5020     2.7120 H     1 <1>   0.0800 
 46 H        4.4620    -0.1880     0.1830 H     1 <1>   0.0800 
 47 H        3.6380     3.9410     0.9210 H     1 <1>   0.0800 
 48 H       -3.5410    -2.5640    -1.4650 H     1 <1>   0.0800 
 49 H       -3.0040    -3.2550     0.0490 H     1 <1>   0.0800 
 50 H        5.0310     2.1970    -0.1440 H     1 <1>   0.0800 
 51 H        4.8100     1.8500     1.5410 H     1 <1>   0.0800 
 52 H       -4.2760    -1.5640     1.3130 H     1 <1>   0.1500 
 53 H       -5.8330    -1.7560    -1.3230 H     1 <1>   0.1500 
 54 H       -7.9910    -0.9160    -1.4890 H     1 <1>   0.1500 
 55 H       -6.1010    -0.8610     2.3300 H     1 <1>   0.1500 
 56 H      -10.0080     0.0420    -0.5000 H     1 <1>   0.1500 
 57 H       -8.1140     0.0990     3.3110 H     1 <1>   0.1500 
 58 H      -10.0800     0.5580     1.9050 H     1 <1>   0.1500 
@<TRIPOS>BOND
  1   1   2  1   
  2   1   3  1   
  3   1   4  1   
  4   1  26  1   
  5   2   5  1   
  6   2   6  1   
  7   2  27  1   
  8   3   7  1   
  9   3  28  1   
 10   3  29  1   
 11   4   8  1   
 12   4  30  1   
 13   4  31  1   
 14   5   9  1   
 15   5  10  1   
 16   5  32  1   
 17   6  11  1   
 18   6  12  1   
 19   6  33  1   
 20   7  13  1   
 21   7  34  1   
 22   7  35  1   
 23   8  13  1   
 24   8  36  1   
 25   8  37  1   
 26   9  14  1   
 27   9  38  1   
 28   9  39  1   
 29  10  15  1   
 30  10  40  1   
 31  10  41  1   
 32  11  14  1   
 33  11  42  1   
 34  11  43  1   
 35  12  15  1   
 36  12  44  1   
 37  12  45  1   
 38  13  16  1   
 39  14  17  1   
 40  14  46  1   
 41  15  17  1   
 42  15  47  1   
 43  16  18  1   
 44  16  48  1   
 45  16  49  1   
 46  17  50  1   
 47  17  51  1   
 48  18  19  2   
 49  18  52  1   
 50  19  20  1   
 51  19  53  1   
 52  20  21  ar  
 53  20  22  ar  
 54  21  23  ar  
 55  21  54  1   
 56  22  24  ar  
 57  22  55  1   
 58  23  25  ar  
 59  23  56  1   
 60  24  25  ar  
 61  24  57  1   
 62  25  58  1   
@<TRIPOS>SUBSTRUCTURE
  1 ****   4 GROUP 4 **** **** 0

# MOE 2024.06 (io_trps.svl 2023.06)
