@<TRIPOS>MOLECULE
NONAME
36 36 1 0 0 
SMALL
USER_CHARGES


@<TRIPOS>ATOM
  1 O        0.0140    -1.8990     1.9860 O.2   1 <1>  -0.5700 
  2 C        0.0860    -2.0500     0.7910 C.2   1 <1>   0.5690 
  3 N       -0.9210    -1.7180    -0.0530 N.am  1 <1>  -0.7300 
  4 C        1.3520    -2.6130     0.2110 C.3   1 <1>  -0.0380 
  5 C       -2.2150    -1.1340     0.3430 C.3   1 <1>   0.2200 
  6 C        2.0040    -1.5450    -0.6270 C.2   1 <1>   0.4480 
  7 C       -3.3240    -2.0370    -0.2140 C.3   1 <1>  -0.1600 
  8 C       -2.2310     0.3070    -0.1820 C.3   1 <1>  -0.1600 
  9 O        1.8980    -1.5490    -1.8150 O.2   1 <1>  -0.5700 
 10 C        2.7830    -0.4650     0.0920 C.3   1 <1>  -0.1790 
 11 C       -4.6480    -1.9620     0.5740 C.3   1 <1>  -0.1600 
 12 C       -3.4570     1.1390     0.2270 C.3   1 <1>  -0.1600 
 13 C       -5.7990    -1.2950    -0.1930 C.3   1 <1>  -0.1600 
 14 C       -4.6700     0.9790    -0.7090 C.3   1 <1>  -0.1600 
 15 C       -5.8550     0.2340    -0.0770 C.3   1 <1>  -0.1600 
 16 H       -0.7750    -1.7950    -1.0630 H     1 <1>   0.3700 
 17 H        1.1150    -3.4630    -0.4000 H     1 <1>   0.0800 
 18 H        2.0130    -2.9260     0.9960 H     1 <1>   0.0800 
 19 H       -2.2710    -1.1220     1.4190 H     1 <1>   0.0800 
 20 H       -2.9830    -3.0560    -0.1410 H     1 <1>   0.0800 
 21 H       -3.4810    -1.8290    -1.2570 H     1 <1>   0.0800 
 22 H       -2.1240     0.3140    -1.2520 H     1 <1>   0.0800 
 23 H       -1.3660     0.7990     0.2290 H     1 <1>   0.0800 
 24 H        3.6040    -0.9000     0.6310 H     1 <1>   0.0800 
 25 H        2.1420     0.0550     0.7800 H     1 <1>   0.0800 
 26 H        3.1690     0.2390    -0.6220 H     1 <1>   0.0800 
 27 H       -4.5110    -1.4850     1.5290 H     1 <1>   0.0800 
 28 H       -4.9520    -2.9730     0.7810 H     1 <1>   0.0800 
 29 H       -3.1610     2.1740     0.1870 H     1 <1>   0.0800 
 30 H       -3.7180     0.9380     1.2510 H     1 <1>   0.0800 
 31 H       -6.7210    -1.6760     0.2100 H     1 <1>   0.0800 
 32 H       -5.7740    -1.5850    -1.2300 H     1 <1>   0.0800 
 33 H       -4.3940     0.5180    -1.6410 H     1 <1>   0.0800 
 34 H       -5.0160     1.9700    -0.9510 H     1 <1>   0.0800 
 35 H       -5.9680     0.5210     0.9550 H     1 <1>   0.0800 
 36 H       -6.7480     0.5560    -0.5850 H     1 <1>   0.0800 
@<TRIPOS>BOND
  1   1   2  2   
  2   2   3  am  
  3   2   4  1   
  4   3   5  1   
  5   3  16  1   
  6   4   6  1   
  7   4  17  1   
  8   4  18  1   
  9   5   7  1   
 10   5   8  1   
 11   5  19  1   
 12   6   9  2   
 13   6  10  1   
 14   7  11  1   
 15   7  20  1   
 16   7  21  1   
 17   8  12  1   
 18   8  22  1   
 19   8  23  1   
 20  10  24  1   
 21  10  25  1   
 22  10  26  1   
 23  11  13  1   
 24  11  27  1   
 25  11  28  1   
 26  12  14  1   
 27  12  29  1   
 28  12  30  1   
 29  13  15  1   
 30  13  31  1   
 31  13  32  1   
 32  14  15  1   
 33  14  33  1   
 34  14  34  1   
 35  15  35  1   
 36  15  36  1   
@<TRIPOS>SUBSTRUCTURE
  1 ****   5 GROUP 4 **** **** 0

# MOE 2024.06 (io_trps.svl 2023.06)
