@<TRIPOS>MOLECULE
NONAME
38 38 1 0 0 
SMALL
USER_CHARGES


@<TRIPOS>ATOM
  1 S        2.5940    -1.7010    -1.3840 S.2   1 <1>  -0.3800 
  2 C        1.4370    -2.5360    -0.6180 C.2   1 <1>   0.5810 
  3 S        1.9180    -3.8090     0.4840 S.3   1 <1>  -0.3710 
  4 N        0.1150    -2.3730    -0.7040 N.am  1 <1>  -0.3510 
  5 C        0.2070    -4.3810     0.8230 C.3   1 <1>   0.2300 
  6 N       -0.5590    -1.3430    -1.5190 N.3   1 <1>  -0.7290 
  7 C       -0.7030    -3.2690     0.1990 C.3   1 <1>   0.5200 
  8 C        0.0690    -4.4770     2.3480 C.3   1 <1>  -0.2400 
  9 C        0.1120    -5.7760     0.1800 C.3   1 <1>  -0.2400 
 10 N       -1.8940    -3.8220    -0.5090 N.am  1 <1>  -0.3250 
 11 O       -1.7490    -4.0280    -1.9040 O.3   1 <1>  -0.4360 
 12 C       -3.0810    -3.9790     0.1650 C.2   1 <1>   0.6900 
 13 O       -3.1670    -3.6510     1.3350 O.2   1 <1>  -0.5700 
 14 N       -4.1970    -4.5110    -0.3970 N.am  1 <1>  -0.7300 
 15 C       -4.2210    -5.6280    -1.3640 C.3   1 <1>   0.1400 
 16 C       -5.2310    -6.6860    -0.9130 C.3   1 <1>  -0.1600 
 17 C       -4.8620    -7.3300     0.4330 C.3   1 <1>  -0.1600 
 18 C       -5.8630    -8.4240     0.8130 C.3   1 <1>  -0.2400 
 19 H       -0.0230    -1.2520    -2.3970 H     1 <1>   0.3600 
 20 H       -0.4340    -0.4350    -1.0460 H     1 <1>   0.3600 
 21 H       -1.0570    -2.6460     1.0010 H     1 <1>   0.0800 
 22 H       -0.9220    -4.8050     2.6090 H     1 <1>   0.0800 
 23 H        0.2420    -3.5180     2.8040 H     1 <1>   0.0800 
 24 H        0.7780    -5.1800     2.7470 H     1 <1>   0.0800 
 25 H        0.2620    -5.7090    -0.8830 H     1 <1>   0.0800 
 26 H       -0.8550    -6.2090     0.3620 H     1 <1>   0.0800 
 27 H        0.8600    -6.4310     0.5910 H     1 <1>   0.0800 
 28 H       -1.7520    -3.1520    -2.3510 H     1 <1>   0.4000 
 29 H       -4.9990    -4.4960     0.2320 H     1 <1>   0.3700 
 30 H       -3.2420    -6.0720    -1.4390 H     1 <1>   0.0800 
 31 H       -4.4950    -5.2460    -2.3320 H     1 <1>   0.0800 
 32 H       -5.2680    -7.4540    -1.6670 H     1 <1>   0.0800 
 33 H       -6.2110    -6.2430    -0.8570 H     1 <1>   0.0800 
 34 H       -4.8470    -6.5840     1.2110 H     1 <1>   0.0800 
 35 H       -3.8760    -7.7590     0.3700 H     1 <1>   0.0800 
 36 H       -6.8540    -8.0140     0.9030 H     1 <1>   0.0800 
 37 H       -5.5880    -8.8620     1.7570 H     1 <1>   0.0800 
 38 H       -5.8760    -9.2000     0.0680 H     1 <1>   0.0800 
@<TRIPOS>BOND
  1   1   2  2   
  2   2   3  1   
  3   2   4  am  
  4   3   5  1   
  5   4   6  1   
  6   4   7  1   
  7   5   7  1   
  8   5   8  1   
  9   5   9  1   
 10   6  19  1   
 11   6  20  1   
 12   7  10  1   
 13   7  21  1   
 14   8  22  1   
 15   8  23  1   
 16   8  24  1   
 17   9  25  1   
 18   9  26  1   
 19   9  27  1   
 20  10  11  1   
 21  10  12  am  
 22  11  28  1   
 23  12  13  2   
 24  12  14  am  
 25  14  15  1   
 26  14  29  1   
 27  15  16  1   
 28  15  30  1   
 29  15  31  1   
 30  16  17  1   
 31  16  32  1   
 32  16  33  1   
 33  17  18  1   
 34  17  34  1   
 35  17  35  1   
 36  18  36  1   
 37  18  37  1   
 38  18  38  1   
@<TRIPOS>SUBSTRUCTURE
  1 ****  10 GROUP 4 **** **** 0

# MOE 2024.06 (io_trps.svl 2023.06)
