@<TRIPOS>MOLECULE
NONAME
40 42 1 0 0 
SMALL
USER_CHARGES


@<TRIPOS>ATOM
  1 F        1.3800    -0.1830    -1.2810 F     1 <1>  -0.3400 
  2 C        1.9340    -0.8670    -0.2830 C.3   1 <1>   1.0200 
  3 F        3.2020    -1.0590    -0.6450 F     1 <1>  -0.3400 
  4 F        1.9900    -0.0200     0.7440 F     1 <1>  -0.3400 
  5 C        1.1720    -2.2160     0.0620 C.3   1 <1>   0.5800 
  6 O        1.8010    -2.9440     1.0780 O.3   1 <1>  -0.6800 
  7 N        1.0680    -3.1300    -1.1200 N.am  1 <1>  -0.2980 
  8 C       -0.3140    -2.0530     0.4840 C.3   1 <1>  -0.0190 
  9 N       -0.2520    -3.2480    -1.5190 N.2   1 <1>  -0.5120 
 10 C        2.1470    -3.5940    -1.8610 C.2   1 <1>   0.5690 
 11 C       -1.0090    -2.6700    -0.7020 C.2   1 <1>   0.3280 
 12 C       -0.9360    -0.6700     0.7760 C.3   1 <1>  -0.1600 
 13 O        2.1690    -3.5290    -3.0670 O.2   1 <1>  -0.5700 
 14 C        3.3360    -4.2660    -1.1820 C.3   1 <1>   0.0450 
 15 C       -2.5150    -2.5180    -0.8150 C.3   1 <1>  -0.0990 
 16 C       -2.4510    -0.7710     1.0610 C.3   1 <1>  -0.1600 
 17 C        2.9210    -5.3730    -0.2140 C.ar  1 <1>  -0.1440 
 18 C       -3.1280    -2.0470     0.5140 C.3   1 <1>  -0.1600 
 19 C        3.5490    -5.4920     1.0180 C.ar  1 <1>  -0.1500 
 20 C        1.9090    -6.2620    -0.5470 C.ar  1 <1>  -0.1500 
 21 C        3.1610    -6.4780     1.9090 C.ar  1 <1>  -0.1500 
 22 C        1.5220    -7.2480     0.3440 C.ar  1 <1>  -0.1500 
 23 C        2.1460    -7.3550     1.5730 C.ar  1 <1>  -0.1500 
 24 H        1.5930    -3.8960     0.9590 H     1 <1>   0.4000 
 25 H       -0.5090    -2.6830     1.3350 H     1 <1>   0.0800 
 26 H       -0.8080    -0.0270    -0.0780 H     1 <1>   0.0800 
 27 H       -0.4490    -0.2060     1.6180 H     1 <1>   0.0800 
 28 H        3.9210    -3.5220    -0.6760 H     1 <1>   0.0800 
 29 H        3.9610    -4.7000    -1.9420 H     1 <1>   0.0800 
 30 H       -2.9460    -3.4560    -1.1150 H     1 <1>   0.0800 
 31 H       -2.7250    -1.7940    -1.5820 H     1 <1>   0.0800 
 32 H       -2.9350     0.0930     0.6370 H     1 <1>   0.0800 
 33 H       -2.6170    -0.7310     2.1250 H     1 <1>   0.0800 
 34 H       -3.0200    -2.8370     1.2380 H     1 <1>   0.0800 
 35 H       -4.1830    -1.8720     0.3890 H     1 <1>   0.0800 
 36 H        4.3410    -4.8170     1.2940 H     1 <1>   0.1500 
 37 H        1.4130    -6.1950    -1.5020 H     1 <1>   0.1500 
 38 H        3.6520    -6.5630     2.8630 H     1 <1>   0.1500 
 39 H        0.7350    -7.9320     0.0770 H     1 <1>   0.1500 
 40 H        1.8450    -8.1220     2.2660 H     1 <1>   0.1500 
@<TRIPOS>BOND
  1   1   2  1   
  2   2   3  1   
  3   2   4  1   
  4   2   5  1   
  5   5   6  1   
  6   5   7  1   
  7   5   8  1   
  8   6  24  1   
  9   7   9  1   
 10   7  10  am  
 11   8  11  1   
 12   8  12  1   
 13   8  25  1   
 14   9  11  2   
 15  10  13  2   
 16  10  14  1   
 17  11  15  1   
 18  12  16  1   
 19  12  26  1   
 20  12  27  1   
 21  14  17  1   
 22  14  28  1   
 23  14  29  1   
 24  15  18  1   
 25  15  30  1   
 26  15  31  1   
 27  16  18  1   
 28  16  32  1   
 29  16  33  1   
 30  17  19  ar  
 31  17  20  ar  
 32  18  34  1   
 33  18  35  1   
 34  19  21  ar  
 35  19  36  1   
 36  20  22  ar  
 37  20  37  1   
 38  21  23  ar  
 39  21  38  1   
 40  22  23  ar  
 41  22  39  1   
 42  23  40  1   
@<TRIPOS>SUBSTRUCTURE
  1 ****   7 GROUP 4 **** **** 0

# MOE 2024.06 (io_trps.svl 2023.06)
