@<TRIPOS>MOLECULE
NONAME
36 36 1 0 0 
SMALL
USER_CHARGES


@<TRIPOS>ATOM
  1 P       -0.0420     1.0930    -0.5900 P.3   1 <1>  -0.2120 
  2 N        1.1680     0.6830     0.6960 N.pl3 1 <1>  -0.6220 
  3 C       -1.0230     2.5060     0.1420 C.3   1 <1>   0.0870 
  4 C       -1.1570    -0.4040    -0.5730 C.3   1 <1>   0.0870 
  5 C        2.4890     1.0410     0.6360 C.ar  1 <1>   0.4100 
  6 C       -1.3970     3.4400    -1.0100 C.3   1 <1>  -0.2400 
  7 C       -0.2080     3.2570     1.2000 C.3   1 <1>  -0.2400 
  8 C       -2.3840    -0.1250    -1.4440 C.3   1 <1>  -0.2400 
  9 C       -1.5510    -0.8110     0.8520 C.3   1 <1>  -0.2400 
 10 N        3.0760     1.1470     1.8200 N.ar  1 <1>  -0.6200 
 11 C        3.1470     1.2730    -0.5710 C.ar  1 <1>  -0.1500 
 12 C        4.3510     1.4980     1.7980 C.ar  1 <1>   0.1600 
 13 C        4.4720     1.6380    -0.5740 C.ar  1 <1>  -0.1500 
 14 C        5.0930     1.7540     0.6550 C.ar  1 <1>  -0.1440 
 15 C        6.5560     2.1540     0.7280 C.3   1 <1>  -0.0970 
 16 H        0.7740     0.6030     1.6340 H     1 <1>   0.4000 
 17 H       -1.9170     2.1100     0.5880 H     1 <1>   0.0800 
 18 H       -0.5830    -1.1980    -1.0190 H     1 <1>   0.0800 
 19 H       -0.5090     3.8300    -1.4750 H     1 <1>   0.0800 
 20 H       -1.9890     4.2610    -0.6490 H     1 <1>   0.0800 
 21 H       -1.9650     2.9080    -1.7510 H     1 <1>   0.0800 
 22 H        0.7390     3.5660     0.7920 H     1 <1>   0.0800 
 23 H       -0.0270     2.6310     2.0540 H     1 <1>   0.0800 
 24 H       -0.7410     4.1290     1.5320 H     1 <1>   0.0800 
 25 H       -2.9930     0.6480    -1.0130 H     1 <1>   0.0800 
 26 H       -2.9790    -1.0160    -1.5380 H     1 <1>   0.0800 
 27 H       -2.0750     0.1830    -2.4260 H     1 <1>   0.0800 
 28 H       -2.0580    -0.0130     1.3600 H     1 <1>   0.0800 
 29 H       -0.6790    -1.0860     1.4170 H     1 <1>   0.0800 
 30 H       -2.2050    -1.6630     0.8200 H     1 <1>   0.0800 
 31 H        2.6090     1.1610    -1.4920 H     1 <1>   0.1500 
 32 H        4.8350     1.5860     2.7560 H     1 <1>   0.1500 
 33 H        4.9990     1.8230    -1.4930 H     1 <1>   0.1500 
 34 H        6.8890     2.2140     1.7480 H     1 <1>   0.0800 
 35 H        6.6970     3.1140     0.2640 H     1 <1>   0.0800 
 36 H        7.1600     1.4280     0.2120 H     1 <1>   0.0800 
@<TRIPOS>BOND
  1   1   2  1   
  2   1   3  1   
  3   1   4  1   
  4   2   5  1   
  5   2  16  1   
  6   3   6  1   
  7   3   7  1   
  8   3  17  1   
  9   4   8  1   
 10   4   9  1   
 11   4  18  1   
 12   5  10  ar  
 13   5  11  ar  
 14   6  19  1   
 15   6  20  1   
 16   6  21  1   
 17   7  22  1   
 18   7  23  1   
 19   7  24  1   
 20   8  25  1   
 21   8  26  1   
 22   8  27  1   
 23   9  28  1   
 24   9  29  1   
 25   9  30  1   
 26  10  12  ar  
 27  11  13  ar  
 28  11  31  1   
 29  12  14  ar  
 30  12  32  1   
 31  13  14  ar  
 32  13  33  1   
 33  14  15  1   
 34  15  34  1   
 35  15  35  1   
 36  15  36  1   
@<TRIPOS>SUBSTRUCTURE
  1 ****   2 GROUP 4 **** **** 0

# MOE 2024.06 (io_trps.svl 2023.06)
