@<TRIPOS>MOLECULE
NONAME
32 33 1 0 0 
SMALL
USER_CHARGES


@<TRIPOS>ATOM
  1 O        0.2400     1.7750    -1.4230 O.2   1 <1>  -0.5700 
  2 C       -0.1360     2.7300    -0.7750 C.2   1 <1>   0.6900 
  3 N       -1.1940     2.6340     0.0880 N.am  1 <1>  -0.6600 
  4 N        0.5430     3.8830    -0.9160 N.am  1 <1>  -0.7300 
  5 C       -2.1330     3.7670     0.3320 C.3   1 <1>   0.1400 
  6 C       -1.7660     1.3070     0.4620 C.3   1 <1>   0.1400 
  7 C        1.0890     4.6060     0.2410 C.3   1 <1>   0.2840 
  8 C       -3.5220     3.4520    -0.2520 C.3   1 <1>   0.1200 
  9 C       -3.1710     1.1370    -0.1370 C.3   1 <1>   0.1200 
 10 C        2.5730     4.8230     0.0100 C.ar  1 <1>  -0.1440 
 11 O       -3.9890     2.2190     0.2150 O.3   1 <1>  -0.5600 
 12 C        3.0820     6.0990    -0.1770 C.ar  1 <1>  -0.1500 
 13 C        3.4350     3.7360    -0.0200 C.ar  1 <1>  -0.1500 
 14 C        4.4380     6.2870    -0.3860 C.ar  1 <1>  -0.1500 
 15 C        4.7900     3.9230    -0.2300 C.ar  1 <1>  -0.1500 
 16 C        5.2920     5.1990    -0.4120 C.ar  1 <1>  -0.1500 
 17 H        1.2360     3.8220    -1.6640 H     1 <1>   0.3700 
 18 H       -1.7630     4.6700    -0.1200 H     1 <1>   0.0800 
 19 H       -2.2220     3.9320     1.3910 H     1 <1>   0.0800 
 20 H       -1.8280     1.2390     1.5330 H     1 <1>   0.0800 
 21 H       -1.1310     0.5090     0.1180 H     1 <1>   0.0800 
 22 H        0.9400     4.0330     1.1410 H     1 <1>   0.0800 
 23 H        0.5810     5.5490     0.3440 H     1 <1>   0.0800 
 24 H       -3.4800     3.4210    -1.3270 H     1 <1>   0.0800 
 25 H       -4.2290     4.2060     0.0450 H     1 <1>   0.0800 
 26 H       -3.6300     0.2410     0.2380 H     1 <1>   0.0800 
 27 H       -3.1170     1.0760    -1.2110 H     1 <1>   0.0800 
 28 H        2.4290     6.9540    -0.1610 H     1 <1>   0.1500 
 29 H        3.0500     2.7380     0.1160 H     1 <1>   0.1500 
 30 H        4.8280     7.2790    -0.5300 H     1 <1>   0.1500 
 31 H        5.4520     3.0750    -0.2530 H     1 <1>   0.1500 
 32 H        6.3460     5.3440    -0.5750 H     1 <1>   0.1500 
@<TRIPOS>BOND
  1   1   2  2   
  2   2   3  am  
  3   2   4  am  
  4   3   5  1   
  5   3   6  1   
  6   4   7  1   
  7   4  17  1   
  8   5   8  1   
  9   5  18  1   
 10   5  19  1   
 11   6   9  1   
 12   6  20  1   
 13   6  21  1   
 14   7  10  1   
 15   7  22  1   
 16   7  23  1   
 17   8  11  1   
 18   8  24  1   
 19   8  25  1   
 20   9  11  1   
 21   9  26  1   
 22   9  27  1   
 23  10  12  ar  
 24  10  13  ar  
 25  12  14  ar  
 26  12  28  1   
 27  13  15  ar  
 28  13  29  1   
 29  14  16  ar  
 30  14  30  1   
 31  15  16  ar  
 32  15  31  1   
 33  16  32  1   
@<TRIPOS>SUBSTRUCTURE
  1 ****   4 GROUP 4 **** **** 0

# MOE 2024.06 (io_trps.svl 2023.06)
