@<TRIPOS>MOLECULE
NONAME
41 42 1 0 0 
SMALL
USER_CHARGES


@<TRIPOS>ATOM
  1 O       -0.2220    -0.1830    -0.1920 O.3   1 <1>  -0.0190 
  2 N       -0.7240     0.6630    -1.0570 N.2   1 <1>  -0.4100 
  3 C       -1.1350    -0.9900     0.2910 C.2   1 <1>   0.2240 
  4 C       -1.9740     0.3840    -1.1290 C.2   1 <1>   0.1390 
  5 N       -0.8040    -1.9370     1.2410 N.pl3 1 <1>  -0.8840 
  6 C       -2.3220    -0.6760    -0.2870 C.2   1 <1>  -0.0540 
  7 C       -3.6280    -1.2610    -0.1130 C.ar  1 <1>   0.0540 
  8 C       -4.7630    -0.4620    -0.0050 C.ar  1 <1>  -0.1500 
  9 C       -3.7800    -2.6430    -0.0540 C.ar  1 <1>  -0.1500 
 10 C       -6.0230    -1.0220     0.1670 C.ar  1 <1>   0.0830 
 11 C       -5.0300    -3.2260     0.1160 C.ar  1 <1>   0.0830 
 12 O       -7.1530    -0.2630     0.2700 O.3   1 <1>  -0.3630 
 13 C       -6.1530    -2.4080     0.2320 C.ar  1 <1>   0.0830 
 14 O       -5.2130    -4.5780     0.1680 O.3   1 <1>  -0.3630 
 15 C       -7.0900     1.1070     0.5870 C.3   1 <1>   0.1200 
 16 O       -7.3780    -2.9640     0.4330 O.3   1 <1>  -0.3630 
 17 C       -4.1330    -5.4770     0.0770 C.3   1 <1>   0.1200 
 18 C       -8.5140     1.5970     0.8310 C.3   1 <1>  -0.2400 
 19 C       -8.0970    -3.2570    -0.7380 C.3   1 <1>   0.1200 
 20 C       -4.6920    -6.8920     0.1800 C.3   1 <1>  -0.2400 
 21 C       -9.4330    -3.8700    -0.3330 C.3   1 <1>  -0.2400 
 22 H       -2.6680     0.9010    -1.7670 H     1 <1>   0.1500 
 23 H       -1.5380    -2.2580     1.8770 H     1 <1>   0.4000 
 24 H        0.1160    -1.8490     1.6850 H     1 <1>   0.4000 
 25 H       -4.6390     0.6010    -0.0560 H     1 <1>   0.1500 
 26 H       -2.8970    -3.2450    -0.1510 H     1 <1>   0.1500 
 27 H       -6.6460     1.6310    -0.2420 H     1 <1>   0.0800 
 28 H       -6.4900     1.2250     1.4730 H     1 <1>   0.0800 
 29 H       -3.4530    -5.2770     0.8870 H     1 <1>   0.0800 
 30 H       -3.6430    -5.3290    -0.8700 H     1 <1>   0.0800 
 31 H       -9.1090     1.4590    -0.0540 H     1 <1>   0.0800 
 32 H       -8.5030     2.6420     1.0810 H     1 <1>   0.0800 
 33 H       -8.9540     1.0520     1.6470 H     1 <1>   0.0800 
 34 H       -7.5180    -3.9480    -1.3260 H     1 <1>   0.0800 
 35 H       -8.2430    -2.3410    -1.2840 H     1 <1>   0.0800 
 36 H       -5.1960    -7.0220     1.1210 H     1 <1>   0.0800 
 37 H       -3.8910    -7.6070     0.1170 H     1 <1>   0.0800 
 38 H       -5.3820    -7.0760    -0.6240 H     1 <1>   0.0800 
 39 H       -9.2670    -4.7730     0.2270 H     1 <1>   0.0800 
 40 H      -10.0060    -4.1070    -1.2100 H     1 <1>   0.0800 
 41 H       -9.9900    -3.1720     0.2670 H     1 <1>   0.0800 
@<TRIPOS>BOND
  1   1   2  1   
  2   1   3  1   
  3   2   4  2   
  4   3   5  1   
  5   3   6  2   
  6   4   6  1   
  7   4  22  1   
  8   5  23  1   
  9   5  24  1   
 10   6   7  1   
 11   7   8  ar  
 12   7   9  ar  
 13   8  10  ar  
 14   8  25  1   
 15   9  11  ar  
 16   9  26  1   
 17  10  12  1   
 18  10  13  ar  
 19  11  13  ar  
 20  11  14  1   
 21  12  15  1   
 22  13  16  1   
 23  14  17  1   
 24  15  18  1   
 25  15  27  1   
 26  15  28  1   
 27  16  19  1   
 28  17  20  1   
 29  17  29  1   
 30  17  30  1   
 31  18  31  1   
 32  18  32  1   
 33  18  33  1   
 34  19  21  1   
 35  19  34  1   
 36  19  35  1   
 37  20  36  1   
 38  20  37  1   
 39  20  38  1   
 40  21  39  1   
 41  21  40  1   
 42  21  41  1   
@<TRIPOS>SUBSTRUCTURE
  1 ****   7 GROUP 4 **** **** 0

# MOE 2024.06 (io_trps.svl 2023.06)
