@<TRIPOS>MOLECULE
NONAME
42 45 1 0 0 
SMALL
USER_CHARGES


@<TRIPOS>ATOM
  1 BR       1.5000    -2.7500     1.7540 Br    1 <1>  -0.1110 
  2 C        1.2170    -2.8230    -0.1510 C.ar  1 <1>   0.1110 
  3 C        1.8900    -1.9330    -0.9740 C.ar  1 <1>  -0.1440 
  4 C        0.3490    -3.7790    -0.6410 C.ar  1 <1>  -0.1500 
  5 C        1.6740    -2.0180    -2.3430 C.ar  1 <1>  -0.1500 
  6 C        2.8320    -0.9020    -0.3980 C.3   1 <1>   0.4870 
  7 C        0.1470    -3.8510    -2.0080 C.ar  1 <1>  -0.1500 
  8 C        0.8070    -2.9730    -2.8530 C.ar  1 <1>  -0.1500 
  9 N        4.0890    -1.6000    -0.0640 N.4   1 <1>  -0.9060 
 10 C        5.1440    -0.7460     0.5210 C.3   1 <1>   0.4230 
 11 C        5.7040     0.2460    -0.5270 C.3   1 <1>  -0.0800 
 12 C        6.2890    -1.6430     1.0390 C.3   1 <1>  -0.0800 
 13 C        6.3840    -0.5090    -1.6940 C.3   1 <1>  -0.1600 
 14 C        6.7590     1.1370     0.1610 C.3   1 <1>  -0.1600 
 15 C        6.9710    -2.4000    -0.1260 C.3   1 <1>  -0.1600 
 16 C        7.3410    -0.7470     1.7230 C.3   1 <1>  -0.1600 
 17 C        7.5250    -1.3930    -1.1530 C.3   1 <1>  -0.0800 
 18 C        7.9060     0.2690     0.7120 C.3   1 <1>  -0.0800 
 19 C        8.5620    -0.4940    -0.4540 C.3   1 <1>  -0.1600 
 20 H       -0.1580    -4.4540     0.0280 H     1 <1>   0.1500 
 21 H        2.1660    -1.3480    -3.0290 H     1 <1>   0.1500 
 22 H        2.3990    -0.4600     0.4850 H     1 <1>   0.0800 
 23 H        3.0110    -0.1260    -1.1240 H     1 <1>   0.0800 
 24 H       -0.5260    -4.5880    -2.4150 H     1 <1>   0.1500 
 25 H        0.6400    -3.0350    -3.9160 H     1 <1>   0.1500 
 26 H        4.4650    -2.0440    -0.9080 H     1 <1>   0.4500 
 27 H        3.8650    -2.3600     0.5880 H     1 <1>   0.4500 
 28 H        4.7390    -0.1910     1.3520 H     1 <1>   0.0800 
 29 H        4.9250     0.8840    -0.9030 H     1 <1>   0.0800 
 30 H        5.9120    -2.3420     1.7660 H     1 <1>   0.0800 
 31 H        5.6770    -1.1100    -2.2360 H     1 <1>   0.0800 
 32 H        6.7910     0.2020    -2.3940 H     1 <1>   0.0800 
 33 H        6.3100     1.6970     0.9640 H     1 <1>   0.0800 
 34 H        7.1550     1.8500    -0.5430 H     1 <1>   0.0800 
 35 H        6.2890    -3.0790    -0.6050 H     1 <1>   0.0800 
 36 H        7.7820    -2.9950     0.2590 H     1 <1>   0.0800 
 37 H        6.9030    -0.2250     2.5570 H     1 <1>   0.0800 
 38 H        8.1430    -1.3530     2.1110 H     1 <1>   0.0800 
 39 H        7.9980    -1.9200    -1.9650 H     1 <1>   0.0800 
 40 H        8.6400     0.8950     1.1930 H     1 <1>   0.0800 
 41 H        8.9760     0.2060    -1.1610 H     1 <1>   0.0800 
 42 H        9.3770    -1.0930    -0.0850 H     1 <1>   0.0800 
@<TRIPOS>BOND
  1   1   2  1   
  2   2   3  ar  
  3   2   4  ar  
  4   3   5  ar  
  5   3   6  1   
  6   4   7  ar  
  7   4  20  1   
  8   5   8  ar  
  9   5  21  1   
 10   6   9  1   
 11   6  22  1   
 12   6  23  1   
 13   7   8  ar  
 14   7  24  1   
 15   8  25  1   
 16   9  10  1   
 17   9  26  1   
 18   9  27  1   
 19  10  11  1   
 20  10  12  1   
 21  10  28  1   
 22  11  13  1   
 23  11  14  1   
 24  11  29  1   
 25  12  15  1   
 26  12  16  1   
 27  12  30  1   
 28  13  17  1   
 29  13  31  1   
 30  13  32  1   
 31  14  18  1   
 32  14  33  1   
 33  14  34  1   
 34  15  17  1   
 35  15  35  1   
 36  15  36  1   
 37  16  18  1   
 38  16  37  1   
 39  16  38  1   
 40  17  19  1   
 41  17  39  1   
 42  18  19  1   
 43  18  40  1   
 44  19  41  1   
 45  19  42  1   
@<TRIPOS>SUBSTRUCTURE
  1 ****   9 GROUP 4 **** **** 0

# MOE 2024.06 (io_trps.svl 2023.06)
