@<TRIPOS>MOLECULE
NONAME
32 34 1 0 0 
SMALL
USER_CHARGES


@<TRIPOS>ATOM
  1 S        1.9870     0.8430    -1.0390 S.3   1 <1>  -0.3710 
  2 C        0.6050     1.8270    -0.5840 C.2   1 <1>   0.6510 
  3 C        3.2260     1.8930    -0.1560 C.3   1 <1>   0.0700 
  4 N       -0.6140     1.6920    -0.8610 N.2   1 <1>  -0.6960 
  5 N        0.9990     2.8690     0.1790 N.am  1 <1>  -0.4200 
  6 C        2.4160     2.9740     0.5940 C.3   1 <1>   0.1400 
  7 C       -1.3000     2.8290    -0.1690 C.3   1 <1>   0.6760 
  8 C       -0.1180     3.5440     0.5150 C.2   1 <1>   0.5690 
  9 N       -2.1770     2.1600     0.8560 N.pl3 1 <1>  -0.8690 
 10 C       -1.9410     3.9110    -1.1340 C.3   1 <1>   1.0200 
 11 O       -0.1550     4.5000     1.2550 O.2   1 <1>  -0.5700 
 12 C       -3.4130     1.7720     0.4570 C.ar  1 <1>   0.4100 
 13 F       -2.5630     4.9000    -0.4960 F     1 <1>  -0.3400 
 14 F       -2.8330     3.4140    -1.9910 F     1 <1>  -0.3400 
 15 F       -1.0240     4.5070    -1.9000 F     1 <1>  -0.3400 
 16 N       -4.3690     2.5580     0.9070 N.ar  1 <1>  -0.6200 
 17 C       -3.6240     0.6600    -0.3520 C.ar  1 <1>  -0.1500 
 18 C       -5.5970     2.2420     0.5310 C.ar  1 <1>   0.1670 
 19 C       -4.9030     0.3370    -0.7360 C.ar  1 <1>  -0.1500 
 20 C       -5.9120     1.1610    -0.2770 C.ar  1 <1>  -0.1500 
 21 C       -6.6920     3.1540     1.0410 C.3   1 <1>  -0.0970 
 22 H        3.8750     2.3220    -0.8990 H     1 <1>   0.0800 
 23 H        3.7850     1.2630     0.5130 H     1 <1>   0.0800 
 24 H        2.7900     3.9570     0.3650 H     1 <1>   0.0800 
 25 H        2.4830     2.8160     1.6570 H     1 <1>   0.0800 
 26 H       -2.3110     2.8120     1.6350 H     1 <1>   0.4000 
 27 H       -2.7830     0.0700    -0.6640 H     1 <1>   0.1500 
 28 H       -5.1080    -0.5130    -1.3630 H     1 <1>   0.1500 
 29 H       -6.9320     0.9580    -0.5480 H     1 <1>   0.1500 
 30 H       -6.5100     4.1570     0.6990 H     1 <1>   0.0800 
 31 H       -6.6890     3.1500     2.1160 H     1 <1>   0.0800 
 32 H       -7.6570     2.8370     0.6930 H     1 <1>   0.0800 
@<TRIPOS>BOND
  1   1   2  1   
  2   1   3  1   
  3   2   4  2   
  4   2   5  1   
  5   3   6  1   
  6   3  22  1   
  7   3  23  1   
  8   4   7  1   
  9   5   6  1   
 10   5   8  am  
 11   6  24  1   
 12   6  25  1   
 13   7   8  1   
 14   7   9  1   
 15   7  10  1   
 16   8  11  2   
 17   9  12  1   
 18   9  26  1   
 19  10  13  1   
 20  10  14  1   
 21  10  15  1   
 22  12  16  ar  
 23  12  17  ar  
 24  16  18  ar  
 25  17  19  ar  
 26  17  27  1   
 27  18  20  ar  
 28  18  21  1   
 29  19  20  ar  
 30  19  28  1   
 31  20  29  1   
 32  21  30  1   
 33  21  31  1   
 34  21  32  1   
@<TRIPOS>SUBSTRUCTURE
  1 ****   7 GROUP 4 **** **** 0

# MOE 2024.06 (io_trps.svl 2023.06)
