@<TRIPOS>MOLECULE
NONAME
34 34 1 0 0 
SMALL
USER_CHARGES


@<TRIPOS>ATOM
  1 O       -0.2550    -0.0550     0.4530 O.2   1 <1>  -0.5700 
  2 C       -0.6550    -1.0690    -0.0840 C.2   1 <1>   0.6900 
  3 N        0.1570    -2.1340    -0.3310 N.am  1 <1>  -0.5470 
  4 N       -1.9540    -1.1800    -0.4570 N.am  1 <1>  -0.7300 
  5 C        1.5440    -2.2960    -0.1720 C.ar  1 <1>   0.1170 
  6 C       -2.9770    -0.1370    -0.2400 C.3   1 <1>   0.1400 
  7 C        2.0730    -3.5700     0.0520 C.ar  1 <1>  -0.1430 
  8 C        2.4170    -1.2150    -0.2550 C.ar  1 <1>  -0.1500 
  9 C       -4.3130    -0.8070     0.0810 C.3   1 <1>  -0.1600 
 10 C        3.4430    -3.7320     0.1860 C.ar  1 <1>  -0.1500 
 11 C        1.1750    -4.7960     0.1590 C.3   1 <1>  -0.0970 
 12 C        3.7820    -1.3820    -0.1180 C.ar  1 <1>  -0.1500 
 13 C       -5.4140     0.2330     0.3160 C.3   1 <1>  -0.2400 
 14 C        4.3050    -2.6510     0.1050 C.ar  1 <1>   0.0830 
 15 O        5.6310    -2.9110     0.2520 O.3   1 <1>  -0.3630 
 16 C        6.5780    -1.8660     0.2280 C.3   1 <1>   0.0400 
 17 H       -0.3420    -2.9900    -0.5350 H     1 <1>   0.3700 
 18 H       -2.2230    -1.9310    -1.0880 H     1 <1>   0.3700 
 19 H       -3.0640     0.4640    -1.1290 H     1 <1>   0.0800 
 20 H       -2.6810     0.5020     0.5760 H     1 <1>   0.0800 
 21 H        2.0270    -0.2300    -0.4320 H     1 <1>   0.1500 
 22 H       -4.2030    -1.4070     0.9680 H     1 <1>   0.0800 
 23 H       -4.6030    -1.4460    -0.7350 H     1 <1>   0.0800 
 24 H        3.8680    -4.7040     0.3590 H     1 <1>   0.1500 
 25 H        0.4360    -4.6450     0.9260 H     1 <1>   0.0800 
 26 H        1.7480    -5.6690     0.4140 H     1 <1>   0.0800 
 27 H        0.6840    -4.9770    -0.7800 H     1 <1>   0.0800 
 28 H        4.4140    -0.5180    -0.1870 H     1 <1>   0.1500 
 29 H       -5.1560     0.8740     1.1410 H     1 <1>   0.0800 
 30 H       -6.3430    -0.2590     0.5450 H     1 <1>   0.0800 
 31 H       -5.5560     0.8390    -0.5620 H     1 <1>   0.0800 
 32 H        7.5520    -2.2950     0.3800 H     1 <1>   0.0800 
 33 H        6.3540    -1.1760     1.0220 H     1 <1>   0.0800 
 34 H        6.5370    -1.3800    -0.7300 H     1 <1>   0.0800 
@<TRIPOS>BOND
  1   1   2  2   
  2   2   3  am  
  3   2   4  am  
  4   3   5  1   
  5   3  17  1   
  6   4   6  1   
  7   4  18  1   
  8   5   7  ar  
  9   5   8  ar  
 10   6   9  1   
 11   6  19  1   
 12   6  20  1   
 13   7  10  ar  
 14   7  11  1   
 15   8  12  ar  
 16   8  21  1   
 17   9  13  1   
 18   9  22  1   
 19   9  23  1   
 20  10  14  ar  
 21  10  24  1   
 22  11  25  1   
 23  11  26  1   
 24  11  27  1   
 25  12  14  ar  
 26  12  28  1   
 27  13  29  1   
 28  13  30  1   
 29  13  31  1   
 30  14  15  1   
 31  15  16  1   
 32  16  32  1   
 33  16  33  1   
 34  16  34  1   
@<TRIPOS>SUBSTRUCTURE
  1 ****   5 GROUP 4 **** **** 0

# MOE 2024.06 (io_trps.svl 2023.06)
