@<TRIPOS>MOLECULE
NONAME
36 37 1 0 0 
SMALL
USER_CHARGES


@<TRIPOS>ATOM
  1 O       -1.0190    -0.4860    -1.5750 O.3   1 <1>  -0.6800 
  2 C       -1.5240     0.2610    -0.5190 C.3   1 <1>   0.2800 
  3 C       -2.8380    -0.6050    -0.6070 C.3   1 <1>  -0.1600 
  4 C       -2.1510     1.1670     0.6220 C.3   1 <1>  -0.1600 
  5 C       -0.1380     1.0380    -0.4400 C.3   1 <1>  -0.1600 
  6 C       -3.6640    -0.5990     0.6660 C.3   1 <1>  -0.1600 
  7 C       -3.5750     0.8340     1.0440 C.3   1 <1>  -0.1600 
  8 C        0.9450     0.2120     0.3040 C.3   1 <1>  -0.1600 
  9 C        2.2900     0.9350     0.4880 C.3   1 <1>   0.2800 
 10 O        2.0900     2.0600     1.2630 O.3   1 <1>  -0.6800 
 11 C        3.3530     0.0820     1.1750 C.3   1 <1>  -0.1600 
 12 C        2.9720     1.3760    -0.8040 C.3   1 <1>  -0.1600 
 13 C        4.6950     0.7380     0.8290 C.3   1 <1>  -0.1600 
 14 C        4.4610     1.5300    -0.4650 C.3   1 <1>  -0.1600 
 15 H       -1.5720    -0.3380    -2.3620 H     1 <1>   0.4000 
 16 H       -2.6720    -1.6560    -0.8090 H     1 <1>   0.0800 
 17 H       -3.4560    -0.2080    -1.3960 H     1 <1>   0.0800 
 18 H       -2.1800     2.2040     0.3270 H     1 <1>   0.0800 
 19 H       -1.5540     1.0830     1.5160 H     1 <1>   0.0800 
 20 H       -0.1510     2.0080     0.0290 H     1 <1>   0.0800 
 21 H        0.2330     1.2900    -1.4230 H     1 <1>   0.0800 
 22 H       -3.1960    -1.2160     1.4150 H     1 <1>   0.0800 
 23 H       -4.6780    -0.9210     0.5040 H     1 <1>   0.0800 
 24 H       -4.2800     1.4120     0.4690 H     1 <1>   0.0800 
 25 H       -3.7460     0.9950     2.0950 H     1 <1>   0.0800 
 26 H        1.1290    -0.6930    -0.2470 H     1 <1>   0.0800 
 27 H        0.5740    -0.0840     1.2680 H     1 <1>   0.0800 
 28 H        1.7800     1.7880     2.1440 H     1 <1>   0.4000 
 29 H        3.3380    -0.9040     0.7460 H     1 <1>   0.0800 
 30 H        3.1960    -0.0030     2.2350 H     1 <1>   0.0800 
 31 H        2.5470     2.2820    -1.1960 H     1 <1>   0.0800 
 32 H        2.8640     0.5970    -1.5380 H     1 <1>   0.0800 
 33 H        5.4710     0.0010     0.7100 H     1 <1>   0.0800 
 34 H        4.9750     1.4190     1.6140 H     1 <1>   0.0800 
 35 H        4.6860     2.5690    -0.2940 H     1 <1>   0.0800 
 36 H        5.0770     1.1650    -1.2680 H     1 <1>   0.0800 
@<TRIPOS>BOND
  1   1   2  1   
  2   1  15  1   
  3   2   3  1   
  4   2   4  1   
  5   2   5  1   
  6   3   6  1   
  7   3  16  1   
  8   3  17  1   
  9   4   7  1   
 10   4  18  1   
 11   4  19  1   
 12   5   8  1   
 13   5  20  1   
 14   5  21  1   
 15   6   7  1   
 16   6  22  1   
 17   6  23  1   
 18   7  24  1   
 19   7  25  1   
 20   8   9  1   
 21   8  26  1   
 22   8  27  1   
 23   9  10  1   
 24   9  11  1   
 25   9  12  1   
 26  10  28  1   
 27  11  13  1   
 28  11  29  1   
 29  11  30  1   
 30  12  14  1   
 31  12  31  1   
 32  12  32  1   
 33  13  14  1   
 34  13  33  1   
 35  13  34  1   
 36  14  35  1   
 37  14  36  1   
@<TRIPOS>SUBSTRUCTURE
  1 ****   8 GROUP 4 **** **** 0

# MOE 2024.06 (io_trps.svl 2023.06)
