@<TRIPOS>MOLECULE
NONAME
51 54 1 0 0 
SMALL
USER_CHARGES


@<TRIPOS>ATOM
  1 O       -0.8430     1.0620     0.4550 O.2   1 <1>  -0.5700 
  2 C       -0.6180     2.0480    -0.2090 C.2   1 <1>   0.5690 
  3 N       -1.5250     3.0990    -0.3150 N.am  1 <1>  -0.2980 
  4 C        0.7090     2.0510    -0.9680 C.3   1 <1>  -0.0990 
  5 N       -2.8410     3.0440     0.0940 N.2   1 <1>  -0.5120 
  6 C       -1.2490     4.3940    -0.9880 C.3   1 <1>   0.3640 
  7 C        1.9310     2.2400    -0.0540 C.3   1 <1>  -0.2400 
  8 C       -3.4430     4.1300    -0.1790 C.2   1 <1>   0.3030 
  9 C       -0.0600     5.1390    -0.3810 C.ar  1 <1>  -0.1440 
 10 C       -2.5460     5.1780    -0.7790 C.3   1 <1>  -0.0190 
 11 C       -4.8380     4.4500    -0.0270 C.ar  1 <1>   0.0860 
 12 C        0.0980     5.2280     0.9970 C.ar  1 <1>  -0.1500 
 13 C        0.8750     5.7440    -1.2080 C.ar  1 <1>  -0.1500 
 14 C       -3.2090     5.7590    -2.0350 C.3   1 <1>  -0.1600 
 15 C       -5.3970     5.5340    -0.7210 C.ar  1 <1>  -0.1440 
 16 C       -5.6660     3.6830     0.7900 C.ar  1 <1>  -0.1500 
 17 C        1.1740     5.9060     1.5410 C.ar  1 <1>  -0.1500 
 18 C        1.9520     6.4220    -0.6660 C.ar  1 <1>  -0.1500 
 19 C       -4.5470     6.4100    -1.6450 C.3   1 <1>  -0.0170 
 20 C       -6.7410     5.8310    -0.5750 C.ar  1 <1>  -0.1500 
 21 C       -7.0140     3.9830     0.9320 C.ar  1 <1>   0.0820 
 22 C        2.1110     6.5090     0.7070 C.ar  1 <1>   0.0820 
 23 C       -7.5450     5.0620     0.2470 C.ar  1 <1>  -0.1500 
 24 O       -7.8680     3.2740     1.7120 O.3   1 <1>  -0.3620 
 25 O        3.1940     7.1900     1.1550 O.3   1 <1>  -0.3620 
 26 C       -7.4360     2.1240     2.4060 C.3   1 <1>   0.0400 
 27 C        3.4620     7.3160     2.5340 C.3   1 <1>   0.0400 
 28 H        0.7980     1.0960    -1.4540 H     1 <1>   0.0800 
 29 H        0.7180     2.7930    -1.7400 H     1 <1>   0.0800 
 30 H       -1.0950     4.2080    -2.0360 H     1 <1>   0.0800 
 31 H        1.9490     1.4700     0.6990 H     1 <1>   0.0800 
 32 H        1.8970     3.1950     0.4360 H     1 <1>   0.0800 
 33 H        2.8370     2.1820    -0.6280 H     1 <1>   0.0800 
 34 H       -2.3970     5.9590    -0.0540 H     1 <1>   0.0800 
 35 H       -0.6180     4.7600     1.6540 H     1 <1>   0.1500 
 36 H        0.7760     5.6940    -2.2790 H     1 <1>   0.1500 
 37 H       -3.3920     4.9690    -2.7440 H     1 <1>   0.0800 
 38 H       -2.5660     6.4890    -2.4950 H     1 <1>   0.0800 
 39 H       -5.2250     2.8500     1.3050 H     1 <1>   0.1500 
 40 H        1.2650     5.9520     2.6090 H     1 <1>   0.1500 
 41 H        2.6800     6.8910    -1.3030 H     1 <1>   0.1500 
 42 H       -5.1020     6.6370    -2.5400 H     1 <1>   0.0800 
 43 H       -4.3520     7.3400    -1.1390 H     1 <1>   0.0800 
 44 H       -7.1750     6.6640    -1.1000 H     1 <1>   0.1500 
 45 H       -8.5890     5.2920     0.3610 H     1 <1>   0.1500 
 46 H       -8.2780     1.7160     2.9350 H     1 <1>   0.0800 
 47 H       -6.6670     2.4050     3.1040 H     1 <1>   0.0800 
 48 H       -7.0670     1.4050     1.6960 H     1 <1>   0.0800 
 49 H        4.3690     7.8820     2.6470 H     1 <1>   0.0800 
 50 H        3.5880     6.3350     2.9570 H     1 <1>   0.0800 
 51 H        2.6450     7.8370     3.0020 H     1 <1>   0.0800 
@<TRIPOS>BOND
  1   1   2  2   
  2   2   3  am  
  3   2   4  1   
  4   3   5  1   
  5   3   6  1   
  6   4   7  1   
  7   4  28  1   
  8   4  29  1   
  9   5   8  2   
 10   6   9  1   
 11   6  10  1   
 12   6  30  1   
 13   7  31  1   
 14   7  32  1   
 15   7  33  1   
 16   8  10  1   
 17   8  11  1   
 18   9  12  ar  
 19   9  13  ar  
 20  10  14  1   
 21  10  34  1   
 22  11  15  ar  
 23  11  16  ar  
 24  12  17  ar  
 25  12  35  1   
 26  13  18  ar  
 27  13  36  1   
 28  14  19  1   
 29  14  37  1   
 30  14  38  1   
 31  15  19  1   
 32  15  20  ar  
 33  16  21  ar  
 34  16  39  1   
 35  17  22  ar  
 36  17  40  1   
 37  18  22  ar  
 38  18  41  1   
 39  19  42  1   
 40  19  43  1   
 41  20  23  ar  
 42  20  44  1   
 43  21  23  ar  
 44  21  24  1   
 45  22  25  1   
 46  23  45  1   
 47  24  26  1   
 48  25  27  1   
 49  26  46  1   
 50  26  47  1   
 51  26  48  1   
 52  27  49  1   
 53  27  50  1   
 54  27  51  1   
@<TRIPOS>SUBSTRUCTURE
  1 ****  10 GROUP 4 **** **** 0

# MOE 2024.06 (io_trps.svl 2023.06)
