@<TRIPOS>MOLECULE
NONAME
40 42 1 0 0 
SMALL
USER_CHARGES


@<TRIPOS>ATOM
  1 O        1.8740    -1.3200     2.4460 O.co2 1 <1>  -0.9000 
  2 C        1.1340    -1.5670     1.4880 C.2   1 <1>   0.9060 
  3 O       -0.0540    -1.2310     1.4620 O.co2 1 <1>  -0.9000 
  4 C        1.6960    -2.3120     0.2820 C.3   1 <1>  -0.1860 
  5 C        1.9100    -3.8080     0.5850 C.3   1 <1>  -0.1600 
  6 C        3.0070    -1.6830    -0.2320 C.3   1 <1>  -0.1600 
  7 C        2.5030    -4.5580    -0.6130 C.3   1 <1>   0.1400 
  8 C        3.5590    -2.4610    -1.4270 C.3   1 <1>   0.1400 
  9 N        3.7630    -3.8870    -1.0450 N.am  1 <1>  -0.6600 
 10 C        4.9650    -4.5500    -0.9960 C.2   1 <1>   0.5690 
 11 O        5.0060    -5.7610    -0.9750 O.2   1 <1>  -0.5700 
 12 C        6.2910    -3.7860    -0.9990 C.3   1 <1>   0.0820 
 13 C        7.3730    -4.3270    -0.0690 C.2   1 <1>  -0.1810 
 14 C        8.6830    -3.8020    -0.0110 C.ar  1 <1>   0.0000 
 15 C        7.3340    -5.3260     0.8360 C.2   1 <1>  -0.0100 
 16 C        9.3280    -4.5570     0.9520 C.ar  1 <1>   0.1400 
 17 C        9.3850    -2.7850    -0.6580 C.ar  1 <1>  -0.1500 
 18 O        8.5010    -5.4740     1.4550 O.3   1 <1>  -0.2800 
 19 C       10.6550    -4.3360     1.2960 C.ar  1 <1>  -0.1500 
 20 C       10.7050    -2.5570    -0.3220 C.ar  1 <1>  -0.1500 
 21 C       11.3470    -3.3270     0.6540 C.ar  1 <1>  -0.1440 
 22 C       12.7990    -3.0420     0.9910 C.3   1 <1>  -0.0970 
 23 H        0.9580    -2.2300    -0.4950 H     1 <1>   0.0800 
 24 H        0.9690    -4.2510     0.8580 H     1 <1>   0.0800 
 25 H        2.5720    -3.9090     1.4280 H     1 <1>   0.0800 
 26 H        3.7370    -1.6750     0.5600 H     1 <1>   0.0800 
 27 H        2.8220    -0.6620    -0.5140 H     1 <1>   0.0800 
 28 H        1.8030    -4.5540    -1.4300 H     1 <1>   0.0800 
 29 H        2.6910    -5.5810    -0.3360 H     1 <1>   0.0800 
 30 H        4.4670    -2.0090    -1.7790 H     1 <1>   0.0800 
 31 H        2.8450    -2.4200    -2.2330 H     1 <1>   0.0800 
 32 H        6.1220    -2.7700    -0.7030 H     1 <1>   0.0800 
 33 H        6.6660    -3.7880    -2.0050 H     1 <1>   0.0800 
 34 H        6.5270    -5.9850     1.1080 H     1 <1>   0.1500 
 35 H        8.8950    -2.1920    -1.4080 H     1 <1>   0.1500 
 36 H       11.1070    -4.9520     2.0510 H     1 <1>   0.1500 
 37 H       11.2530    -1.7740    -0.8170 H     1 <1>   0.1500 
 38 H       13.1540    -3.7100     1.7550 H     1 <1>   0.0800 
 39 H       12.9010    -2.0320     1.3450 H     1 <1>   0.0800 
 40 H       13.4100    -3.1680     0.1150 H     1 <1>   0.0800 
@<TRIPOS>BOND
  1   1   2  ar  
  2   2   3  ar  
  3   2   4  1   
  4   4   5  1   
  5   4   6  1   
  6   4  23  1   
  7   5   7  1   
  8   5  24  1   
  9   5  25  1   
 10   6   8  1   
 11   6  26  1   
 12   6  27  1   
 13   7   9  1   
 14   7  28  1   
 15   7  29  1   
 16   8   9  1   
 17   8  30  1   
 18   8  31  1   
 19   9  10  am  
 20  10  11  2   
 21  10  12  1   
 22  12  13  1   
 23  12  32  1   
 24  12  33  1   
 25  13  14  1   
 26  13  15  2   
 27  14  16  ar  
 28  14  17  ar  
 29  15  18  1   
 30  15  34  1   
 31  16  18  1   
 32  16  19  ar  
 33  17  20  ar  
 34  17  35  1   
 35  19  21  ar  
 36  19  36  1   
 37  20  21  ar  
 38  20  37  1   
 39  21  22  1   
 40  22  38  1   
 41  22  39  1   
 42  22  40  1   
@<TRIPOS>SUBSTRUCTURE
  1 ****  12 GROUP 4 **** **** 0

# MOE 2024.06 (io_trps.svl 2023.06)
