@<TRIPOS>MOLECULE
NONAME
35 35 1 0 0 
SMALL
USER_CHARGES


@<TRIPOS>ATOM
  1 S       -0.1580    -0.3100    -0.0270 S.3   1 <1>  -0.0800 
  2 C        1.1760     0.8680     0.0550 C.2   1 <1>  -0.0450 
  3 C       -1.4070     0.9300     0.0280 C.2   1 <1>  -0.1400 
  4 C        2.5680     0.5650     0.0540 C.2   1 <1>   0.4740 
  5 C        0.5890     2.1060     0.1170 C.2   1 <1>  -0.1500 
  6 C       -0.8290     2.1440     0.1030 C.2   1 <1>  -0.1500 
  7 C       -2.8460     0.4470    -0.0150 C.3   1 <1>   0.0200 
  8 N        3.4130     1.5810     0.1200 N.2   1 <1>  -0.8000 
  9 C        3.1760    -0.8580    -0.0190 C.3   1 <1>  -0.0990 
 10 C       -3.8470     1.6060     0.0380 C.3   1 <1>  -0.1600 
 11 O        4.6050     1.3050     0.1180 O.3   1 <1>  -0.6500 
 12 C        2.3220    -2.1350    -0.1000 C.3   1 <1>  -0.2400 
 13 C       -5.2950     1.1020    -0.0070 C.3   1 <1>  -0.1600 
 14 C       -6.2860     2.2700     0.0470 C.3   1 <1>  -0.1600 
 15 C       -7.7390     1.7720     0.0030 C.3   1 <1>  -0.2660 
 16 C       -8.7350     2.9090     0.0550 C.2   1 <1>   0.9060 
 17 O       -9.1100     3.4130    -1.0080 O.co2 1 <1>  -0.9000 
 18 O       -9.1350     3.2910     1.1580 O.co2 1 <1>  -0.9000 
 19 H        1.1780     3.0060     0.1740 H     1 <1>   0.1500 
 20 H       -1.3510     3.0820     0.1500 H     1 <1>   0.1500 
 21 H       -2.9930    -0.1140    -0.9210 H     1 <1>   0.0800 
 22 H       -3.0130    -0.2120     0.8190 H     1 <1>   0.0800 
 23 H        3.8300    -0.8580    -0.8720 H     1 <1>   0.0800 
 24 H        3.8100    -0.9540     0.8440 H     1 <1>   0.0800 
 25 H       -3.6930     2.1660     0.9450 H     1 <1>   0.0800 
 26 H       -3.6730     2.2640    -0.7960 H     1 <1>   0.0800 
 27 H        1.7200    -2.1270    -0.9900 H     1 <1>   0.0800 
 28 H        1.6990    -2.2250     0.7720 H     1 <1>   0.0800 
 29 H        2.9690    -2.9920    -0.1400 H     1 <1>   0.0800 
 30 H       -5.4580     0.5450    -0.9140 H     1 <1>   0.0800 
 31 H       -5.4780     0.4480     0.8280 H     1 <1>   0.0800 
 32 H       -6.1230     2.9330    -0.7860 H     1 <1>   0.0800 
 33 H       -6.1430     2.8360     0.9530 H     1 <1>   0.0800 
 34 H       -7.9370     1.1280     0.8370 H     1 <1>   0.0800 
 35 H       -7.9170     1.2250    -0.9030 H     1 <1>   0.0800 
@<TRIPOS>BOND
  1   1   2  1   
  2   1   3  1   
  3   2   4  1   
  4   2   5  2   
  5   3   6  2   
  6   3   7  1   
  7   4   8  2   
  8   4   9  1   
  9   5   6  1   
 10   5  19  1   
 11   6  20  1   
 12   7  10  1   
 13   7  21  1   
 14   7  22  1   
 15   8  11  1   
 16   9  12  1   
 17   9  23  1   
 18   9  24  1   
 19  10  13  1   
 20  10  25  1   
 21  10  26  1   
 22  12  27  1   
 23  12  28  1   
 24  12  29  1   
 25  13  14  1   
 26  13  30  1   
 27  13  31  1   
 28  14  15  1   
 29  14  32  1   
 30  14  33  1   
 31  15  16  1   
 32  15  34  1   
 33  15  35  1   
 34  16  17  ar  
 35  16  18  ar  
@<TRIPOS>SUBSTRUCTURE
  1 ****   3 GROUP 4 **** **** 0

# MOE 2024.06 (io_trps.svl 2023.06)
