@<TRIPOS>MOLECULE
NONAME
39 40 1 0 0 
SMALL
USER_CHARGES


@<TRIPOS>ATOM
  1 CL       0.0940    -0.3130     0.3930 Cl    1 <1>  -0.1770 
  2 C        1.5180     0.6640     0.1440 C.ar  1 <1>   0.1770 
  3 C        1.4090     1.8510    -0.5600 C.ar  1 <1>  -0.1500 
  4 C        2.7300     0.2360     0.6550 C.ar  1 <1>  -0.1500 
  5 C        2.5410     2.6250    -0.7570 C.ar  1 <1>  -0.1500 
  6 C        3.8630     1.0090     0.4590 C.ar  1 <1>  -0.1500 
  7 C        3.7570     2.2000    -0.2480 C.ar  1 <1>   0.1020 
  8 S        5.1800     3.2640    -0.5480 S.3   1 <1>  -0.3320 
  9 C        6.6390     2.4210     0.2080 C.3   1 <1>   0.0700 
 10 C        7.8650     3.3050    -0.0140 C.3   1 <1>  -0.0990 
 11 C        9.1140     2.6300     0.5070 C.2   1 <1>   0.5690 
 12 O        9.0850     2.1030     1.5920 O.2   1 <1>  -0.5700 
 13 N       10.2250     2.6390    -0.2690 N.am  1 <1>  -0.7300 
 14 C       11.5150     2.0280     0.0920 C.3   1 <1>   0.2200 
 15 C       12.5880     3.1200     0.1290 C.3   1 <1>  -0.1600 
 16 C       11.8560     0.9470    -0.9380 C.3   1 <1>  -0.1600 
 17 C       13.9780     2.5240     0.3970 C.3   1 <1>  -0.1600 
 18 C       13.2450     0.3460    -0.6730 C.3   1 <1>  -0.1600 
 19 C       14.3230     1.4370    -0.6310 C.3   1 <1>  -0.1600 
 20 H        0.4540     2.1590    -0.9460 H     1 <1>   0.1500 
 21 H        2.7820    -0.6910     1.1990 H     1 <1>   0.1500 
 22 H        2.4850     3.5510    -1.3010 H     1 <1>   0.1500 
 23 H        4.8010     0.6750     0.8580 H     1 <1>   0.1500 
 24 H        6.7490     1.4670    -0.2750 H     1 <1>   0.0800 
 25 H        6.4360     2.2920     1.2580 H     1 <1>   0.0800 
 26 H        7.7360     4.2350     0.5090 H     1 <1>   0.0800 
 27 H        7.9720     3.5100    -1.0620 H     1 <1>   0.0800 
 28 H       10.2110     3.1030    -1.1760 H     1 <1>   0.3700 
 29 H       11.4420     1.5730     1.0670 H     1 <1>   0.0800 
 30 H       12.3490     3.8250     0.9070 H     1 <1>   0.0800 
 31 H       12.6070     3.6410    -0.8120 H     1 <1>   0.0800 
 32 H       11.8430     1.3710    -1.9270 H     1 <1>   0.0800 
 33 H       11.1170     0.1660    -0.8910 H     1 <1>   0.0800 
 34 H       13.9970     2.0970     1.3860 H     1 <1>   0.0800 
 35 H       14.7190     3.3040     0.3610 H     1 <1>   0.0800 
 36 H       13.4830    -0.3680    -1.4420 H     1 <1>   0.0800 
 37 H       13.2310    -0.1770     0.2690 H     1 <1>   0.0800 
 38 H       15.2730     0.9950    -0.3820 H     1 <1>   0.0800 
 39 H       14.4150     1.8850    -1.6060 H     1 <1>   0.0800 
@<TRIPOS>BOND
  1   1   2  1   
  2   2   3  ar  
  3   2   4  ar  
  4   3   5  ar  
  5   3  20  1   
  6   4   6  ar  
  7   4  21  1   
  8   5   7  ar  
  9   5  22  1   
 10   6   7  ar  
 11   6  23  1   
 12   7   8  1   
 13   8   9  1   
 14   9  10  1   
 15   9  24  1   
 16   9  25  1   
 17  10  11  1   
 18  10  26  1   
 19  10  27  1   
 20  11  12  2   
 21  11  13  am  
 22  13  14  1   
 23  13  28  1   
 24  14  15  1   
 25  14  16  1   
 26  14  29  1   
 27  15  17  1   
 28  15  30  1   
 29  15  31  1   
 30  16  18  1   
 31  16  32  1   
 32  16  33  1   
 33  17  19  1   
 34  17  34  1   
 35  17  35  1   
 36  18  19  1   
 37  18  36  1   
 38  18  37  1   
 39  19  38  1   
 40  19  39  1   
@<TRIPOS>SUBSTRUCTURE
  1 ****   9 GROUP 4 **** **** 0

# MOE 2024.06 (io_trps.svl 2023.06)
