@<TRIPOS>MOLECULE
NONAME
50 53 1 0 0 
SMALL
USER_CHARGES


@<TRIPOS>ATOM
  1 BR       0.4850     0.7200     2.8530 Br    1 <1>  -0.1110 
  2 C        2.0880     1.1030     1.8560 C.ar  1 <1>   0.1110 
  3 C        2.9310     0.0650     1.5230 C.ar  1 <1>  -0.1500 
  4 C        2.3550     2.4040     1.4980 C.ar  1 <1>  -0.1500 
  5 C        4.0960     0.3010     0.7980 C.ar  1 <1>  -0.1440 
  6 C        3.5110     2.6530     0.7850 C.ar  1 <1>  -0.1500 
  7 C        4.3920     1.6330     0.4260 C.ar  1 <1>   0.1170 
  8 C        4.9150    -0.9830     0.5290 C.3   1 <1>   0.5070 
  9 N        5.5260     2.0780    -0.2770 N.am  1 <1>  -0.5470 
 10 N        6.2170    -0.7760    -0.1570 N.am  1 <1>  -0.6600 
 11 C        4.1400    -2.0370    -0.2690 C.ar  1 <1>  -0.1430 
 12 C        6.3730     1.4350    -1.1130 C.2   1 <1>   0.5690 
 13 C        7.4030    -1.0520     0.4660 C.2   1 <1>   0.5690 
 14 C        6.1220    -0.0170    -1.4340 C.3   1 <1>   0.2010 
 15 C        4.4730    -3.3750    -0.1000 C.ar  1 <1>  -0.1500 
 16 C        3.1230    -1.7080    -1.1590 C.ar  1 <1>  -0.1500 
 17 O        7.3840     1.9570    -1.5130 O.2   1 <1>  -0.5700 
 18 O        7.4480    -1.6790     1.5000 O.2   1 <1>  -0.5700 
 19 C        8.7470    -0.5560    -0.1170 C.3   1 <1>   0.4040 
 20 C        3.8070    -4.3630    -0.8030 C.ar  1 <1>  -0.1500 
 21 C        2.4570    -2.6960    -1.8630 C.ar  1 <1>  -0.1500 
 22 N        9.9640    -1.1570     0.5460 N.4   1 <1>  -0.9590 
 23 C        2.7990    -4.0240    -1.6860 C.ar  1 <1>  -0.1500 
 24 C       11.2400    -0.4810     0.2240 C.3   1 <1>   0.3430 
 25 C       10.1490    -2.5960     0.2500 C.3   1 <1>   0.3430 
 26 C       12.3080    -1.5080     0.5790 C.3   1 <1>  -0.1600 
 27 C       11.5980    -2.8650     0.6300 C.3   1 <1>  -0.1600 
 28 H        2.6590    -0.9300     1.8360 H     1 <1>   0.1500 
 29 H        1.6780     3.1940     1.7710 H     1 <1>   0.1500 
 30 H        3.7260     3.6680     0.5020 H     1 <1>   0.1500 
 31 H        5.1030    -1.4130     1.4990 H     1 <1>   0.0800 
 32 H        5.7610     3.0660    -0.1600 H     1 <1>   0.3700 
 33 H        5.1490    -0.1200    -1.8790 H     1 <1>   0.0800 
 34 H        6.8490    -0.3710    -2.1410 H     1 <1>   0.0800 
 35 H        5.2560    -3.6560     0.5850 H     1 <1>   0.1500 
 36 H        2.8320    -0.6840    -1.3140 H     1 <1>   0.1500 
 37 H        8.7730     0.5140     0.0000 H     1 <1>   0.0800 
 38 H        8.7690    -0.7710    -1.1710 H     1 <1>   0.0800 
 39 H        4.0720    -5.3970    -0.6620 H     1 <1>   0.1500 
 40 H        1.6700    -2.4330    -2.5480 H     1 <1>   0.1500 
 41 H        9.7970    -1.1010     1.5640 H     1 <1>   0.4500 
 42 H        2.2800    -4.7930    -2.2330 H     1 <1>   0.1500 
 43 H       11.3610     0.4330     0.7840 H     1 <1>   0.0800 
 44 H       11.2850    -0.2650    -0.8310 H     1 <1>   0.0800 
 45 H       10.0120    -2.7760    -0.8040 H     1 <1>   0.0800 
 46 H        9.4630    -3.2090     0.8150 H     1 <1>   0.0800 
 47 H       12.7380    -1.2720     1.5380 H     1 <1>   0.0800 
 48 H       13.0940    -1.4960    -0.1570 H     1 <1>   0.0800 
 49 H       12.0400    -3.5760    -0.0480 H     1 <1>   0.0800 
 50 H       11.6390    -3.2720     1.6250 H     1 <1>   0.0800 
@<TRIPOS>BOND
  1   1   2  1   
  2   2   3  ar  
  3   2   4  ar  
  4   3   5  ar  
  5   3  28  1   
  6   4   6  ar  
  7   4  29  1   
  8   5   7  ar  
  9   5   8  1   
 10   6   7  ar  
 11   6  30  1   
 12   7   9  1   
 13   8  10  1   
 14   8  11  1   
 15   8  31  1   
 16   9  12  am  
 17   9  32  1   
 18  10  13  am  
 19  10  14  1   
 20  11  15  ar  
 21  11  16  ar  
 22  12  14  1   
 23  12  17  2   
 24  13  18  2   
 25  13  19  1   
 26  14  33  1   
 27  14  34  1   
 28  15  20  ar  
 29  15  35  1   
 30  16  21  ar  
 31  16  36  1   
 32  19  22  1   
 33  19  37  1   
 34  19  38  1   
 35  20  23  ar  
 36  20  39  1   
 37  21  23  ar  
 38  21  40  1   
 39  22  24  1   
 40  22  25  1   
 41  22  41  1   
 42  23  42  1   
 43  24  26  1   
 44  24  43  1   
 45  24  44  1   
 46  25  27  1   
 47  25  45  1   
 48  25  46  1   
 49  26  27  1   
 50  26  47  1   
 51  26  48  1   
 52  27  49  1   
 53  27  50  1   
@<TRIPOS>SUBSTRUCTURE
  1 ****  10 GROUP 4 **** **** 0

# MOE 2024.06 (io_trps.svl 2023.06)
