@<TRIPOS>MOLECULE
NONAME
38 38 1 0 0 
SMALL
USER_CHARGES


@<TRIPOS>ATOM
  1 O       -0.5620    -0.9010     1.9350 O.2   1 <1>  -0.5700 
  2 C       -0.7850    -1.8180     1.1770 C.2   1 <1>   0.4950 
  3 C       -1.8960    -1.8480     0.2750 C.2   1 <1>   0.0290 
  4 C        0.1670    -3.0030     1.2850 C.3   1 <1>  -0.0990 
  5 C       -1.7320    -2.6970    -0.8620 C.2   1 <1>   0.4950 
  6 C       -3.0030    -1.0690     0.5550 C.2   1 <1>  -0.0500 
  7 C        0.3890    -3.7530    -0.0380 C.3   1 <1>   0.0000 
  8 O       -2.0600    -2.4180    -1.9940 O.2   1 <1>  -0.5700 
  9 C       -0.9780    -4.0010    -0.6920 C.3   1 <1>  -0.0990 
 10 N       -4.2770    -1.0900     0.0720 N.pl3 1 <1>  -0.8690 
 11 C        1.0810    -5.0970     0.2360 C.3   1 <1>  -0.2400 
 12 C        1.2900    -2.9240    -0.9720 C.3   1 <1>  -0.2400 
 13 C       -4.9410    -2.0920    -0.8000 C.3   1 <1>   0.2890 
 14 C       -5.3030    -3.3770    -0.0220 C.3   1 <1>   0.1200 
 15 C       -6.1980    -1.4230    -1.3470 C.3   1 <1>  -0.2400 
 16 O       -4.1640    -4.0750     0.4060 O.3   1 <1>  -0.5600 
 17 C       -4.4520    -5.1790     1.2010 C.3   1 <1>   0.0400 
 18 H        1.1110    -2.6600     1.6720 H     1 <1>   0.0800 
 19 H       -0.2500    -3.6720     2.0150 H     1 <1>   0.0800 
 20 H       -2.8570    -0.3250     1.3240 H     1 <1>   0.1500 
 21 H       -1.5730    -4.6560    -0.0830 H     1 <1>   0.0800 
 22 H       -0.8520    -4.4700    -1.6510 H     1 <1>   0.0800 
 23 H       -4.9450    -0.3890     0.4110 H     1 <1>   0.4000 
 24 H        2.0340    -4.9420     0.7120 H     1 <1>   0.0800 
 25 H        1.2460    -5.6310    -0.6840 H     1 <1>   0.0800 
 26 H        0.4790    -5.7140     0.8800 H     1 <1>   0.0800 
 27 H        0.8690    -1.9540    -1.1750 H     1 <1>   0.0800 
 28 H        2.2600    -2.7770    -0.5300 H     1 <1>   0.0800 
 29 H        1.4250    -3.4300    -1.9120 H     1 <1>   0.0800 
 30 H       -4.3220    -2.3480    -1.6350 H     1 <1>   0.0800 
 31 H       -5.8700    -4.0330    -0.6580 H     1 <1>   0.0800 
 32 H       -5.8930    -3.1180     0.8390 H     1 <1>   0.0800 
 33 H       -6.8700    -1.1610    -0.5510 H     1 <1>   0.0800 
 34 H       -6.7030    -2.0930    -2.0200 H     1 <1>   0.0800 
 35 H       -5.9270    -0.5390    -1.8970 H     1 <1>   0.0800 
 36 H       -3.5230    -5.6510     1.4690 H     1 <1>   0.0800 
 37 H       -5.0630    -5.8690     0.6450 H     1 <1>   0.0800 
 38 H       -4.9610    -4.8510     2.0910 H     1 <1>   0.0800 
@<TRIPOS>BOND
  1   1   2  2   
  2   2   3  1   
  3   2   4  1   
  4   3   5  1   
  5   3   6  2   
  6   4   7  1   
  7   4  18  1   
  8   4  19  1   
  9   5   8  2   
 10   5   9  1   
 11   6  10  1   
 12   6  20  1   
 13   7   9  1   
 14   7  11  1   
 15   7  12  1   
 16   9  21  1   
 17   9  22  1   
 18  10  13  1   
 19  10  23  1   
 20  11  24  1   
 21  11  25  1   
 22  11  26  1   
 23  12  27  1   
 24  12  28  1   
 25  12  29  1   
 26  13  14  1   
 27  13  15  1   
 28  13  30  1   
 29  14  16  1   
 30  14  31  1   
 31  14  32  1   
 32  15  33  1   
 33  15  34  1   
 34  15  35  1   
 35  16  17  1   
 36  17  36  1   
 37  17  37  1   
 38  17  38  1   
@<TRIPOS>SUBSTRUCTURE
  1 ****   3 GROUP 4 **** **** 0

# MOE 2024.06 (io_trps.svl 2023.06)
