@<TRIPOS>MOLECULE
NONAME
35 36 1 0 0 
SMALL
USER_CHARGES


@<TRIPOS>ATOM
  1 CL      -2.4740    -2.0660    -1.9670 Cl    1 <1>  -0.2900 
  2 C       -1.4650    -1.4800    -0.6380 C.3   1 <1>   0.1910 
  3 C       -2.0560    -0.2350     0.0080 C.2   1 <1>   0.5690 
  4 O       -1.5210     0.2020     0.9980 O.2   1 <1>  -0.5700 
  5 N       -3.1560     0.3480    -0.5340 N.am  1 <1>  -0.7300 
  6 C       -3.8740     1.5200     0.0100 C.3   1 <1>   0.2200 
  7 C       -5.3190     1.2060     0.4930 C.3   1 <1>   0.0000 
  8 C       -4.0990     2.5850    -1.0790 C.3   1 <1>  -0.1600 
  9 C       -5.9780     2.6060     0.4460 C.3   1 <1>   0.0000 
 10 C       -6.0620     0.4590    -0.6450 C.3   1 <1>  -0.1600 
 11 C       -5.3700     0.4640     1.8360 C.3   1 <1>  -0.2400 
 12 C       -5.6290     2.7990    -1.0420 C.3   1 <1>  -0.0800 
 13 C       -7.4990     2.6480     0.7470 C.3   1 <1>  -0.2400 
 14 C       -5.3570     3.6740     1.3850 C.3   1 <1>  -0.2400 
 15 C       -6.2460     1.5530    -1.7140 C.3   1 <1>  -0.1600 
 16 H       -0.4930    -1.2600    -1.0390 H     1 <1>   0.0800 
 17 H       -1.3900    -2.2690     0.0860 H     1 <1>   0.0800 
 18 H       -3.5940    -0.0850    -1.3500 H     1 <1>   0.3700 
 19 H       -3.2990     1.9380     0.8190 H     1 <1>   0.0800 
 20 H       -3.7580     2.2660    -2.0470 H     1 <1>   0.0800 
 21 H       -3.5850     3.4920    -0.8200 H     1 <1>   0.0800 
 22 H       -7.0170     0.0990    -0.3050 H     1 <1>   0.0800 
 23 H       -5.5220    -0.3900    -1.0230 H     1 <1>   0.0800 
 24 H       -6.3880     0.3080     2.1450 H     1 <1>   0.0800 
 25 H       -4.8880    -0.4920     1.7450 H     1 <1>   0.0800 
 26 H       -4.8610     1.0280     2.5960 H     1 <1>   0.0800 
 27 H       -5.9500     3.7310    -1.4740 H     1 <1>   0.0800 
 28 H       -7.6750     2.4220     1.7840 H     1 <1>   0.0800 
 29 H       -8.0870     1.9640     0.1680 H     1 <1>   0.0800 
 30 H       -7.8810     3.6350     0.5540 H     1 <1>   0.0800 
 31 H       -4.2930     3.7810     1.3020 H     1 <1>   0.0800 
 32 H       -5.5730     3.4300     2.4100 H     1 <1>   0.0800 
 33 H       -5.7880     4.6360     1.1760 H     1 <1>   0.0800 
 34 H       -7.2890     1.7070    -1.9280 H     1 <1>   0.0800 
 35 H       -5.7470     1.3010    -2.6340 H     1 <1>   0.0800 
@<TRIPOS>BOND
  1   1   2  1   
  2   2   3  1   
  3   2  16  1   
  4   2  17  1   
  5   3   4  2   
  6   3   5  am  
  7   5   6  1   
  8   5  18  1   
  9   6   7  1   
 10   6   8  1   
 11   6  19  1   
 12   7   9  1   
 13   7  10  1   
 14   7  11  1   
 15   8  12  1   
 16   8  20  1   
 17   8  21  1   
 18   9  12  1   
 19   9  13  1   
 20   9  14  1   
 21  10  15  1   
 22  10  22  1   
 23  10  23  1   
 24  11  24  1   
 25  11  25  1   
 26  11  26  1   
 27  12  15  1   
 28  12  27  1   
 29  13  28  1   
 30  13  29  1   
 31  13  30  1   
 32  14  31  1   
 33  14  32  1   
 34  14  33  1   
 35  15  34  1   
 36  15  35  1   
@<TRIPOS>SUBSTRUCTURE
  1 ****   6 GROUP 4 **** **** 0

# MOE 2024.06 (io_trps.svl 2023.06)
