@<TRIPOS>MOLECULE
NONAME
36 37 1 0 0 
SMALL
USER_CHARGES


@<TRIPOS>ATOM
  1 S       -0.6570    -0.6940    -0.0500 S.3   1 <1>  -0.2860 
  2 C        1.1290    -0.7250     0.0990 C.2   1 <1>   0.2420 
  3 C       -1.1670     0.2620     1.4640 C.3   1 <1>   0.1310 
  4 N        1.7890    -0.1450     1.0360 N.2   1 <1>  -0.3380 
  5 N        1.8990    -1.3640    -0.7690 N.pl3 1 <1>   0.0330 
  6 C       -2.6730     0.4670     1.5230 C.2   1 <1>   0.5690 
  7 N        3.0780    -0.4080     0.7840 N.2   1 <1>  -0.3380 
  8 C        3.1230    -1.1310    -0.2860 C.2   1 <1>   0.0060 
  9 O       -3.1650     0.7010     2.5990 O.2   1 <1>  -0.5700 
 10 N       -3.3950     0.3820     0.3620 N.am  1 <1>  -0.5470 
 11 C        4.3970    -1.6540    -0.9250 C.3   1 <1>   0.0200 
 12 C       -4.7650     0.5560     0.1010 C.ar  1 <1>   0.1170 
 13 C        4.4630    -3.1840    -0.8760 C.3   1 <1>  -0.2400 
 14 C       -5.2950     0.0070    -1.0610 C.ar  1 <1>  -0.1500 
 15 C       -5.6150     1.2690     0.9420 C.ar  1 <1>  -0.1500 
 16 C       -6.6340     0.1560    -1.3780 C.ar  1 <1>  -0.1500 
 17 C       -6.9540     1.4210     0.6300 C.ar  1 <1>  -0.1500 
 18 C       -7.4750     0.8690    -0.5280 C.ar  1 <1>   0.0820 
 19 O       -8.8000     1.0650    -0.7590 O.3   1 <1>  -0.3620 
 20 C       -9.4260     0.5230    -1.9000 C.3   1 <1>   0.0400 
 21 H       -0.6630     1.2100     1.4310 H     1 <1>   0.0800 
 22 H       -0.8320    -0.2950     2.3190 H     1 <1>   0.0800 
 23 H        1.6100    -1.8980    -1.5890 H     1 <1>   0.2700 
 24 H       -2.8440     0.0840    -0.4430 H     1 <1>   0.3700 
 25 H        5.2420    -1.2470    -0.3960 H     1 <1>   0.0800 
 26 H        4.4540    -1.3150    -1.9440 H     1 <1>   0.0800 
 27 H        4.4010    -3.5210     0.1450 H     1 <1>   0.0800 
 28 H        5.3940    -3.5250    -1.2920 H     1 <1>   0.0800 
 29 H        3.6560    -3.6210    -1.4350 H     1 <1>   0.0800 
 30 H       -4.6580    -0.5470    -1.7240 H     1 <1>   0.1500 
 31 H       -5.2370     1.7120     1.8440 H     1 <1>   0.1500 
 32 H       -7.0030    -0.2850    -2.2840 H     1 <1>   0.1500 
 33 H       -7.6040     1.9710     1.2860 H     1 <1>   0.1500 
 34 H      -10.4660     0.7960    -1.8710 H     1 <1>   0.0800 
 35 H       -9.3290    -0.5480    -1.8760 H     1 <1>   0.0800 
 36 H       -8.9650     0.9350    -2.7800 H     1 <1>   0.0800 
@<TRIPOS>BOND
  1   1   2  1   
  2   1   3  1   
  3   2   4  2   
  4   2   5  1   
  5   3   6  1   
  6   3  21  1   
  7   3  22  1   
  8   4   7  1   
  9   5   8  1   
 10   5  23  1   
 11   6   9  2   
 12   6  10  am  
 13   7   8  2   
 14   8  11  1   
 15  10  12  1   
 16  10  24  1   
 17  11  13  1   
 18  11  25  1   
 19  11  26  1   
 20  12  14  ar  
 21  12  15  ar  
 22  13  27  1   
 23  13  28  1   
 24  13  29  1   
 25  14  16  ar  
 26  14  30  1   
 27  15  17  ar  
 28  15  31  1   
 29  16  18  ar  
 30  16  32  1   
 31  17  18  ar  
 32  17  33  1   
 33  18  19  1   
 34  19  20  1   
 35  20  34  1   
 36  20  35  1   
 37  20  36  1   
@<TRIPOS>SUBSTRUCTURE
  1 ****  10 GROUP 4 **** **** 0

# MOE 2024.06 (io_trps.svl 2023.06)
