@<TRIPOS>MOLECULE
NONAME
39 40 1 0 0 
SMALL
USER_CHARGES


@<TRIPOS>ATOM
  1 O       -0.3470    -0.0210     0.1080 O.2   1 <1>  -0.5700 
  2 C       -1.2980    -0.7600    -0.0700 C.2   1 <1>   0.7150 
  3 N       -1.0710    -2.0640    -0.4080 N.am  1 <1>  -0.7300 
  4 C       -2.6530    -0.2810     0.0700 C.2   1 <1>   0.0550 
  5 C        0.2450    -2.7140    -0.5690 C.3   1 <1>   0.1400 
  6 O       -3.6950    -1.0890    -0.1230 O.3   1 <1>  -0.2800 
  7 C       -3.1240     0.9560     0.3920 C.2   1 <1>  -0.1500 
  8 C        0.2740    -3.9920     0.2690 C.3   1 <1>  -0.1600 
  9 C       -4.8050    -0.4080     0.0660 C.2   1 <1>  -0.0400 
 10 C       -4.5160     0.8720     0.3880 C.2   1 <1>  -0.1500 
 11 C        1.6200    -4.7130     0.1370 C.3   1 <1>  -0.2400 
 12 C       -6.1390    -1.1160    -0.0970 C.3   1 <1>   0.3000 
 13 O       -7.1930    -0.2070     0.1480 O.3   1 <1>  -0.3630 
 14 C       -8.4890    -0.5980     0.0650 C.ar  1 <1>   0.0820 
 15 C       -9.4470     0.3680     0.3230 C.ar  1 <1>  -0.1500 
 16 C       -8.8940    -1.8910    -0.2580 C.ar  1 <1>  -0.1500 
 17 C      -10.7940     0.0570     0.2600 C.ar  1 <1>  -0.1500 
 18 C      -10.2420    -2.1980    -0.3190 C.ar  1 <1>  -0.1500 
 19 C      -11.1980    -1.2280    -0.0630 C.ar  1 <1>  -0.1430 
 20 C      -12.6750    -1.5710    -0.1300 C.3   1 <1>  -0.0970 
 21 H       -1.8940    -2.6490    -0.5590 H     1 <1>   0.3700 
 22 H        1.0280    -2.0460    -0.2490 H     1 <1>   0.0800 
 23 H        0.4000    -2.9460    -1.6090 H     1 <1>   0.0800 
 24 H       -2.5440     1.8360     0.6090 H     1 <1>   0.1500 
 25 H       -0.5110    -4.6530    -0.0530 H     1 <1>   0.0800 
 26 H        0.1120    -3.7400     1.3030 H     1 <1>   0.0800 
 27 H       -5.2000     1.6750     0.6030 H     1 <1>   0.1500 
 28 H        1.8020    -4.9910    -0.8870 H     1 <1>   0.0800 
 29 H        1.6200    -5.6060     0.7380 H     1 <1>   0.0800 
 30 H        2.4210    -4.0770     0.4720 H     1 <1>   0.0800 
 31 H       -6.2150    -1.9230     0.6090 H     1 <1>   0.0800 
 32 H       -6.2370    -1.4870    -1.1010 H     1 <1>   0.0800 
 33 H       -9.1320     1.3650     0.5730 H     1 <1>   0.1500 
 34 H       -8.1850    -2.6690    -0.4640 H     1 <1>   0.1500 
 35 H      -11.5240     0.8200     0.4650 H     1 <1>   0.1500 
 36 H      -10.5470    -3.1990    -0.5680 H     1 <1>   0.1500 
 37 H      -13.2490    -0.7090    -0.4190 H     1 <1>   0.0800 
 38 H      -13.0150    -1.9070     0.8340 H     1 <1>   0.0800 
 39 H      -12.8490    -2.3500    -0.8500 H     1 <1>   0.0800 
@<TRIPOS>BOND
  1   1   2  2   
  2   2   3  am  
  3   2   4  1   
  4   3   5  1   
  5   3  21  1   
  6   4   6  1   
  7   4   7  2   
  8   5   8  1   
  9   5  22  1   
 10   5  23  1   
 11   6   9  1   
 12   7  10  1   
 13   7  24  1   
 14   8  11  1   
 15   8  25  1   
 16   8  26  1   
 17   9  10  2   
 18   9  12  1   
 19  10  27  1   
 20  11  28  1   
 21  11  29  1   
 22  11  30  1   
 23  12  13  1   
 24  12  31  1   
 25  12  32  1   
 26  13  14  1   
 27  14  15  ar  
 28  14  16  ar  
 29  15  17  ar  
 30  15  33  1   
 31  16  18  ar  
 32  16  34  1   
 33  17  19  ar  
 34  17  35  1   
 35  18  19  ar  
 36  18  36  1   
 37  19  20  1   
 38  20  37  1   
 39  20  38  1   
 40  20  39  1   
@<TRIPOS>SUBSTRUCTURE
  1 ****   9 GROUP 4 **** **** 0

# MOE 2024.06 (io_trps.svl 2023.06)
