@<TRIPOS>MOLECULE
NONAME
32 32 1 0 0 
SMALL
USER_CHARGES


@<TRIPOS>ATOM
  1 O       -0.4900     0.0690     1.9030 O.2   1 <1>  -0.5700 
  2 C       -1.4520    -0.0960     1.1780 C.2   1 <1>   0.5690 
  3 N       -2.1110     0.9440     0.5690 N.am  1 <1>  -0.3510 
  4 C       -1.8720    -1.5350     0.9720 C.3   1 <1>   0.1010 
  5 N       -1.7150     2.3720     0.7100 N.3   1 <1>  -0.5490 
  6 C       -3.4400     0.8340    -0.0510 C.3   1 <1>   0.5000 
  7 C       -1.2380    -2.0420    -0.2690 C.1   1 <1>   0.3570 
  8 C       -3.0450     3.0570     0.7150 C.3   1 <1>   0.1900 
  9 C       -0.8090     2.7970    -0.4280 C.3   1 <1>   0.1900 
 10 O       -3.2870     0.2090    -1.2570 O.3   1 <1>  -0.6800 
 11 C       -3.9150     2.2610    -0.2510 C.3   1 <1>  -0.1600 
 12 N       -0.7680    -2.4380    -1.2260 N.1   1 <1>  -0.5570 
 13 C       -3.0550     4.5650     0.4460 C.3   1 <1>  -0.2400 
 14 C       -0.0010     1.6600    -1.0790 C.3   1 <1>  -0.2400 
 15 C        0.1960     3.8030     0.1380 C.3   1 <1>  -0.2400 
 16 H       -2.9370    -1.6330     0.9020 H     1 <1>   0.0800 
 17 H       -1.5320    -2.1270     1.8000 H     1 <1>   0.0800 
 18 H       -4.1170     0.2700     0.5680 H     1 <1>   0.0800 
 19 H       -3.4450     2.9180     1.7070 H     1 <1>   0.0800 
 20 H       -1.3840     3.2680    -1.2050 H     1 <1>   0.0800 
 21 H       -2.5480     0.6430    -1.7240 H     1 <1>   0.4000 
 22 H       -4.9560     2.3630    -0.0090 H     1 <1>   0.0800 
 23 H       -3.7510     2.5900    -1.2610 H     1 <1>   0.0800 
 24 H       -2.7150     4.8090    -0.5430 H     1 <1>   0.0800 
 25 H       -2.4480     5.0690     1.1750 H     1 <1>   0.0800 
 26 H       -4.0590     4.9360     0.5470 H     1 <1>   0.0800 
 27 H        0.5940     1.1510    -0.3410 H     1 <1>   0.0800 
 28 H        0.6670     2.0650    -1.8170 H     1 <1>   0.0800 
 29 H       -0.6340     0.9540    -1.5800 H     1 <1>   0.0800 
 30 H        0.7840     3.3360     0.9080 H     1 <1>   0.0800 
 31 H       -0.3000     4.6580     0.5540 H     1 <1>   0.0800 
 32 H        0.8570     4.1480    -0.6360 H     1 <1>   0.0800 
@<TRIPOS>BOND
  1   1   2  2   
  2   2   3  am  
  3   2   4  1   
  4   3   5  1   
  5   3   6  1   
  6   4   7  1   
  7   4  16  1   
  8   4  17  1   
  9   5   8  1   
 10   5   9  1   
 11   6  10  1   
 12   6  11  1   
 13   6  18  1   
 14   7  12  3   
 15   8  11  1   
 16   8  13  1   
 17   8  19  1   
 18   9  14  1   
 19   9  15  1   
 20   9  20  1   
 21  10  21  1   
 22  11  22  1   
 23  11  23  1   
 24  13  24  1   
 25  13  25  1   
 26  13  26  1   
 27  14  27  1   
 28  14  28  1   
 29  14  29  1   
 30  15  30  1   
 31  15  31  1   
 32  15  32  1   
@<TRIPOS>SUBSTRUCTURE
  1 ****   3 GROUP 4 **** **** 0

# MOE 2024.06 (io_trps.svl 2023.06)
