@<TRIPOS>MOLECULE
NONAME
41 43 1 0 0 
SMALL
USER_CHARGES


@<TRIPOS>ATOM
  1 F        4.9850    -2.8680     0.0030 F     1 <1>  -0.1900 
  2 C        3.6890    -2.6710    -0.0410 C.ar  1 <1>   0.1900 
  3 C        3.2100    -1.4270    -0.4510 C.ar  1 <1>   0.1170 
  4 C        2.8640    -3.7160     0.3250 C.ar  1 <1>  -0.1500 
  5 N        4.1110    -0.4080    -0.8140 N.am  1 <1>  -0.5470 
  6 C        1.8270    -1.2680    -0.4820 C.ar  1 <1>  -0.1500 
  7 C        1.4930    -3.5270     0.2850 C.ar  1 <1>  -0.1500 
  8 C        3.9780     0.9350    -1.0190 C.2   1 <1>   0.5690 
  9 C        0.9800    -2.3040    -0.1180 C.ar  1 <1>  -0.1500 
 10 O        2.9340     1.5370    -0.9360 O.2   1 <1>  -0.5700 
 11 C        5.2580     1.6990    -1.3700 C.3   1 <1>   0.1710 
 12 N        6.5110     0.9750    -0.9970 N.3   1 <1>  -0.8100 
 13 C        7.6790     1.5420    -1.7090 C.3   1 <1>   0.1100 
 14 C        6.7550     1.0450     0.4670 C.3   1 <1>   0.1100 
 15 C        8.9880     0.8070    -1.3640 C.3   1 <1>   0.2090 
 16 C        8.0330     0.2940     0.8850 C.3   1 <1>   0.2090 
 17 N        9.2200     0.7810     0.1140 N.pl3 1 <1>  -0.8380 
 18 C       10.4580     0.9920     0.6880 C.ar  1 <1>   0.7200 
 19 N       11.4510     1.3630    -0.1210 N.ar  1 <1>  -0.6200 
 20 N       10.5600     0.8060     2.0040 N.ar  1 <1>  -0.6200 
 21 C       12.6200     1.5580     0.4370 C.ar  1 <1>   0.1600 
 22 C       11.7410     1.0060     2.5350 C.ar  1 <1>   0.1600 
 23 C       12.8230     1.3900     1.7840 C.ar  1 <1>  -0.1500 
 24 H        3.2860    -4.6560     0.6330 H     1 <1>   0.1500 
 25 H        5.0970    -0.6930    -0.8700 H     1 <1>   0.3700 
 26 H        1.4000    -0.3320    -0.7940 H     1 <1>   0.1500 
 27 H        0.8270    -4.3260     0.5650 H     1 <1>   0.1500 
 28 H       -0.0860    -2.1550    -0.1500 H     1 <1>   0.1500 
 29 H        5.2320     2.6630    -0.8940 H     1 <1>   0.0800 
 30 H        5.2420     1.8560    -2.4330 H     1 <1>   0.0800 
 31 H        7.7940     2.5820    -1.4560 H     1 <1>   0.0800 
 32 H        7.5190     1.4720    -2.7710 H     1 <1>   0.0800 
 33 H        5.9220     0.6190     0.9980 H     1 <1>   0.0800 
 34 H        6.8510     2.0720     0.7730 H     1 <1>   0.0800 
 35 H        9.7960     1.2950    -1.8780 H     1 <1>   0.0800 
 36 H        8.9310    -0.2040    -1.7260 H     1 <1>   0.0800 
 37 H        7.9030    -0.7580     0.7010 H     1 <1>   0.0800 
 38 H        8.1730     0.4280     1.9420 H     1 <1>   0.0800 
 39 H       13.4370     1.8580    -0.1970 H     1 <1>   0.1500 
 40 H       11.8470     0.8610     3.5970 H     1 <1>   0.1500 
 41 H       13.7860     1.5520     2.2290 H     1 <1>   0.1500 
@<TRIPOS>BOND
  1   1   2  1   
  2   2   3  ar  
  3   2   4  ar  
  4   3   5  1   
  5   3   6  ar  
  6   4   7  ar  
  7   4  24  1   
  8   5   8  am  
  9   5  25  1   
 10   6   9  ar  
 11   6  26  1   
 12   7   9  ar  
 13   7  27  1   
 14   8  10  2   
 15   8  11  1   
 16   9  28  1   
 17  11  12  1   
 18  11  29  1   
 19  11  30  1   
 20  12  13  1   
 21  12  14  1   
 22  13  15  1   
 23  13  31  1   
 24  13  32  1   
 25  14  16  1   
 26  14  33  1   
 27  14  34  1   
 28  15  17  1   
 29  15  35  1   
 30  15  36  1   
 31  16  17  1   
 32  16  37  1   
 33  16  38  1   
 34  17  18  1   
 35  18  19  ar  
 36  18  20  ar  
 37  19  21  ar  
 38  20  22  ar  
 39  21  23  ar  
 40  21  39  1   
 41  22  23  ar  
 42  22  40  1   
 43  23  41  1   
@<TRIPOS>SUBSTRUCTURE
  1 ****  14 GROUP 4 **** **** 0

# MOE 2024.06 (io_trps.svl 2023.06)
