@<TRIPOS>MOLECULE
NONAME
42 44 1 0 0 
SMALL
USER_CHARGES


@<TRIPOS>ATOM
  1 O       -0.3090    -0.8160     0.7060 O.3   1 <1>  -0.3630 
  2 C       -1.4840    -1.1720     0.1230 C.ar  1 <1>   0.0830 
  3 C        0.5580     0.1330     0.1250 C.3   1 <1>   0.0400 
  4 C       -2.2190    -2.1900     0.7230 C.ar  1 <1>  -0.1440 
  5 C       -1.9670    -0.5670    -1.0330 C.ar  1 <1>  -0.1500 
  6 C       -3.4240    -2.5860     0.1690 C.ar  1 <1>  -0.1500 
  7 C       -1.7010    -2.8720     1.9830 C.3   1 <1>  -0.0960 
  8 C       -3.1720    -0.9670    -1.5790 C.ar  1 <1>  -0.1500 
  9 C       -3.9110    -1.9740    -0.9770 C.ar  1 <1>  -0.1440 
 10 C       -5.2460    -2.3940    -1.5590 C.3   1 <1>   0.4860 
 11 N       -6.3230    -1.9340    -0.6450 N.4   1 <1>  -0.9590 
 12 C       -7.6590    -2.4490    -1.0440 C.3   1 <1>   0.4860 
 13 C       -6.3590    -0.4490    -0.4890 C.3   1 <1>   0.3430 
 14 C       -8.7130    -2.0000    -0.0460 C.ar  1 <1>  -0.1430 
 15 C       -7.2370    -0.0720     0.7060 C.3   1 <1>  -0.0170 
 16 C       -8.5240    -0.8830     0.7630 C.ar  1 <1>  -0.1430 
 17 C       -9.8950    -2.7210     0.0480 C.ar  1 <1>  -0.1500 
 18 C       -9.5170    -0.5030     1.6520 C.ar  1 <1>  -0.1500 
 19 C      -10.8810    -2.3360     0.9380 C.ar  1 <1>  -0.1500 
 20 C      -10.6920    -1.2260     1.7400 C.ar  1 <1>  -0.1500 
 21 H        1.4300     0.2130     0.7480 H     1 <1>   0.0800 
 22 H        0.0560     1.0830     0.0780 H     1 <1>   0.0800 
 23 H        0.8400    -0.2060    -0.8560 H     1 <1>   0.0800 
 24 H       -1.4150     0.2160    -1.5190 H     1 <1>   0.1500 
 25 H       -3.9750    -3.3810     0.6400 H     1 <1>   0.1500 
 26 H       -1.5750    -2.1450     2.7650 H     1 <1>   0.0800 
 27 H       -0.7460    -3.3260     1.7830 H     1 <1>   0.0800 
 28 H       -2.3760    -3.6340     2.3270 H     1 <1>   0.0800 
 29 H       -3.5200    -0.4830    -2.4760 H     1 <1>   0.1500 
 30 H       -5.2680    -3.4680    -1.6530 H     1 <1>   0.0800 
 31 H       -5.3740    -1.9600    -2.5370 H     1 <1>   0.0800 
 32 H       -6.1220    -2.3160     0.2870 H     1 <1>   0.4500 
 33 H       -7.6430    -3.5260    -1.0810 H     1 <1>   0.0800 
 34 H       -7.9210    -2.0780    -2.0220 H     1 <1>   0.0800 
 35 H       -6.7600     0.0000    -1.3830 H     1 <1>   0.0800 
 36 H       -5.3650    -0.0600    -0.3290 H     1 <1>   0.0800 
 37 H       -7.4700     0.9770     0.6500 H     1 <1>   0.0800 
 38 H       -6.6820    -0.2310     1.6140 H     1 <1>   0.0800 
 39 H      -10.0670    -3.5880    -0.5670 H     1 <1>   0.1500 
 40 H       -9.3840     0.3580     2.2860 H     1 <1>   0.1500 
 41 H      -11.7970    -2.8970     1.0080 H     1 <1>   0.1500 
 42 H      -11.4600    -0.9260     2.4320 H     1 <1>   0.1500 
@<TRIPOS>BOND
  1   1   2  1   
  2   1   3  1   
  3   2   4  ar  
  4   2   5  ar  
  5   3  21  1   
  6   3  22  1   
  7   3  23  1   
  8   4   6  ar  
  9   4   7  1   
 10   5   8  ar  
 11   5  24  1   
 12   6   9  ar  
 13   6  25  1   
 14   7  26  1   
 15   7  27  1   
 16   7  28  1   
 17   8   9  ar  
 18   8  29  1   
 19   9  10  1   
 20  10  11  1   
 21  10  30  1   
 22  10  31  1   
 23  11  12  1   
 24  11  13  1   
 25  11  32  1   
 26  12  14  1   
 27  12  33  1   
 28  12  34  1   
 29  13  15  1   
 30  13  35  1   
 31  13  36  1   
 32  14  16  ar  
 33  14  17  ar  
 34  15  16  1   
 35  15  37  1   
 36  15  38  1   
 37  16  18  ar  
 38  17  19  ar  
 39  17  39  1   
 40  18  20  ar  
 41  18  40  1   
 42  19  20  ar  
 43  19  41  1   
 44  20  42  1   
@<TRIPOS>SUBSTRUCTURE
  1 ****  11 GROUP 4 **** **** 0

# MOE 2024.06 (io_trps.svl 2023.06)
