@<TRIPOS>MOLECULE
NONAME
34 35 1 0 0 
SMALL
USER_CHARGES


@<TRIPOS>ATOM
  1 BR       0.4220    -0.3180     1.5460 Br    1 <1>  -0.0580 
  2 C        1.7310     0.9370     0.9060 C.2   1 <1>   0.1980 
  3 O        2.9600     0.4780     0.7420 O.3   1 <1>  -0.2800 
  4 C        1.5720     2.2320     0.5830 C.2   1 <1>  -0.1810 
  5 C        3.6640     1.5190     0.2920 C.ar  1 <1>   0.1400 
  6 C        2.8630     2.6510     0.1760 C.ar  1 <1>   0.0000 
  7 C        0.2840     3.0480     0.6310 C.3   1 <1>   0.0820 
  8 C        5.0130     1.5320    -0.0300 C.ar  1 <1>  -0.1500 
  9 C        3.4510     3.8400    -0.2600 C.ar  1 <1>  -0.1500 
 10 C        0.4550     4.4760     1.1370 C.2   1 <1>   0.5690 
 11 C        5.5710     2.7130    -0.4720 C.ar  1 <1>  -0.1500 
 12 C        4.7940     3.8700    -0.5860 C.ar  1 <1>  -0.1440 
 13 O        0.5960     4.6200     2.3290 O.2   1 <1>  -0.5700 
 14 N        0.4140     5.5590     0.2820 N.am  1 <1>  -0.6600 
 15 C        5.4370     5.1630    -1.0600 C.3   1 <1>  -0.0170 
 16 C        0.4920     6.9540     0.8040 C.3   1 <1>   0.0600 
 17 C        0.2860     5.4760    -1.2020 C.3   1 <1>   0.0600 
 18 C        6.0520     5.9180     0.1200 C.3   1 <1>  -0.2400 
 19 H       -0.4050     2.5600     1.2960 H     1 <1>   0.0800 
 20 H       -0.1730     3.0410    -0.3380 H     1 <1>   0.0800 
 21 H        5.5920     0.6320     0.0710 H     1 <1>   0.1500 
 22 H        2.8590     4.7310    -0.3290 H     1 <1>   0.1500 
 23 H        6.6170     2.7470    -0.7250 H     1 <1>   0.1500 
 24 H        4.6990     5.7840    -1.5370 H     1 <1>   0.0800 
 25 H        6.1990     4.9440    -1.7880 H     1 <1>   0.0800 
 26 H        0.4900     6.9660     1.8810 H     1 <1>   0.0800 
 27 H       -0.3530     7.5220     0.4570 H     1 <1>   0.0800 
 28 H        1.3990     7.4200     0.4610 H     1 <1>   0.0800 
 29 H       -0.7550     5.4520    -1.4750 H     1 <1>   0.0800 
 30 H        0.7760     4.5960    -1.5800 H     1 <1>   0.0800 
 31 H        0.7460     6.3350    -1.6600 H     1 <1>   0.0800 
 32 H        5.2920     6.1500     0.8460 H     1 <1>   0.0800 
 33 H        6.5010     6.8350    -0.2180 H     1 <1>   0.0800 
 34 H        6.8060     5.3160     0.5940 H     1 <1>   0.0800 
@<TRIPOS>BOND
  1   1   2  1   
  2   2   3  1   
  3   2   4  2   
  4   3   5  1   
  5   4   6  1   
  6   4   7  1   
  7   5   6  ar  
  8   5   8  ar  
  9   6   9  ar  
 10   7  10  1   
 11   7  19  1   
 12   7  20  1   
 13   8  11  ar  
 14   8  21  1   
 15   9  12  ar  
 16   9  22  1   
 17  10  13  2   
 18  10  14  am  
 19  11  12  ar  
 20  11  23  1   
 21  12  15  1   
 22  14  16  1   
 23  14  17  1   
 24  15  18  1   
 25  15  24  1   
 26  15  25  1   
 27  16  26  1   
 28  16  27  1   
 29  16  28  1   
 30  17  29  1   
 31  17  30  1   
 32  17  31  1   
 33  18  32  1   
 34  18  33  1   
 35  18  34  1   
@<TRIPOS>SUBSTRUCTURE
  1 ****   6 GROUP 4 **** **** 0

# MOE 2024.06 (io_trps.svl 2023.06)
