@<TRIPOS>MOLECULE
NONAME
39 40 1 0 0 
SMALL
USER_CHARGES


@<TRIPOS>ATOM
  1 O        3.4400    -2.4900    -0.5680 O.3   1 <1>  -0.3620 
  2 C        3.5100    -1.2070    -0.1410 C.ar  1 <1>   0.0830 
  3 C        2.9280    -3.5160     0.2510 C.3   1 <1>   0.2580 
  4 C        3.0490    -0.7710     1.0970 C.ar  1 <1>  -0.1500 
  5 C        4.0830    -0.2960    -1.0120 C.ar  1 <1>  -0.1500 
  6 C        3.0080    -4.8180    -0.5210 C.2   1 <1>  -0.2880 
  7 C        3.1600     0.5640     1.4470 C.ar  1 <1>  -0.1500 
  8 C        4.1960     1.0380    -0.6620 C.ar  1 <1>  -0.1500 
  9 C        1.9760    -5.6240    -0.7950 C.2   1 <1>  -0.3000 
 10 C        3.7280     1.4770     0.5680 C.ar  1 <1>  -0.1430 
 11 C        3.8320     2.9430     0.9460 C.3   1 <1>   0.4860 
 12 N        2.8410     3.7140     0.1480 N.4   1 <1>  -0.9590 
 13 C        3.0460     5.1830     0.2930 C.3   1 <1>   0.3430 
 14 C        1.4390     3.3040     0.4620 C.3   1 <1>   0.3430 
 15 C        2.1050     5.9300    -0.6540 C.3   1 <1>  -0.1600 
 16 C        0.4700     4.0200    -0.4800 C.3   1 <1>  -0.1600 
 17 C        0.6390     5.5430    -0.4230 C.3   1 <1>  -0.1600 
 18 H        1.9080    -3.2810     0.4990 H     1 <1>   0.0800 
 19 H        3.5280    -3.5710     1.1430 H     1 <1>   0.0800 
 20 H        2.6060    -1.4540     1.7980 H     1 <1>   0.1500 
 21 H        4.4420    -0.6450    -1.9640 H     1 <1>   0.1500 
 22 H        4.0130    -5.0340    -0.8420 H     1 <1>   0.1500 
 23 H        2.8010     0.8770     2.4130 H     1 <1>   0.1500 
 24 H        4.6560     1.7160    -1.3610 H     1 <1>   0.1500 
 25 H        2.0660    -6.5420    -1.3500 H     1 <1>   0.1500 
 26 H        0.9600    -5.4370    -0.4940 H     1 <1>   0.1500 
 27 H        4.8300     3.2910     0.7360 H     1 <1>   0.0800 
 28 H        3.6420     3.0670     2.0000 H     1 <1>   0.0800 
 29 H        2.9980     3.4630    -0.8350 H     1 <1>   0.4500 
 30 H        4.0670     5.4410     0.0610 H     1 <1>   0.0800 
 31 H        2.8410     5.4820     1.3090 H     1 <1>   0.0800 
 32 H        1.2030     3.5580     1.4830 H     1 <1>   0.0800 
 33 H        1.3270     2.2370     0.3420 H     1 <1>   0.0800 
 34 H        2.3840     5.7210    -1.6730 H     1 <1>   0.0800 
 35 H        2.2210     6.9900    -0.5020 H     1 <1>   0.0800 
 36 H       -0.5390     3.7630    -0.2070 H     1 <1>   0.0800 
 37 H        0.6270     3.6690    -1.4860 H     1 <1>   0.0800 
 38 H        0.0150     6.0090    -1.1690 H     1 <1>   0.0800 
 39 H        0.3190     5.9050     0.5410 H     1 <1>   0.0800 
@<TRIPOS>BOND
  1   1   2  1   
  2   1   3  1   
  3   2   4  ar  
  4   2   5  ar  
  5   3   6  1   
  6   3  18  1   
  7   3  19  1   
  8   4   7  ar  
  9   4  20  1   
 10   5   8  ar  
 11   5  21  1   
 12   6   9  2   
 13   6  22  1   
 14   7  10  ar  
 15   7  23  1   
 16   8  10  ar  
 17   8  24  1   
 18   9  25  1   
 19   9  26  1   
 20  10  11  1   
 21  11  12  1   
 22  11  27  1   
 23  11  28  1   
 24  12  13  1   
 25  12  14  1   
 26  12  29  1   
 27  13  15  1   
 28  13  30  1   
 29  13  31  1   
 30  14  16  1   
 31  14  32  1   
 32  14  33  1   
 33  15  17  1   
 34  15  34  1   
 35  15  35  1   
 36  16  17  1   
 37  16  36  1   
 38  16  37  1   
 39  17  38  1   
 40  17  39  1   
@<TRIPOS>SUBSTRUCTURE
  1 ****  10 GROUP 4 **** **** 0

# MOE 2024.06 (io_trps.svl 2023.06)
