@<TRIPOS>MOLECULE
NONAME
26 26 1 0 0 
SMALL
USER_CHARGES


@<TRIPOS>ATOM
  1 S       -0.0050    -1.1190    -0.1550 S.3   1 <1>  -0.4600 
  2 C       -1.0730     0.0350     0.7340 C.3   1 <1>   0.0700 
  3 C        1.0730     0.0930    -0.9500 C.3   1 <1>   0.0700 
  4 C       -0.7850     1.3870     0.0820 C.3   1 <1>   0.2000 
  5 C        0.7120     1.4270    -0.2890 C.3   1 <1>   0.2200 
  6 O       -1.0930     2.4080     1.0110 O.3   1 <1>  -0.4300 
  7 N        1.0300     2.5570    -1.1990 N.am  1 <1>  -0.7300 
  8 C       -1.4520     3.6540     0.7270 C.2   1 <1>   0.6590 
  9 C        1.6480     3.7240    -0.9180 C.2   1 <1>   0.5690 
 10 O       -1.3060     4.5150     1.5480 O.2   1 <1>  -0.5700 
 11 C       -2.0790     3.9740    -0.6120 C.3   1 <1>  -0.1790 
 12 O        1.7690     4.5460    -1.7870 O.2   1 <1>  -0.5700 
 13 C        2.1850     4.0190     0.4610 C.3   1 <1>  -0.1790 
 14 H       -0.7700     0.0120     1.7670 H     1 <1>   0.0800 
 15 H       -2.0930    -0.2830     0.6130 H     1 <1>   0.0800 
 16 H        0.8380     0.0780    -1.9990 H     1 <1>   0.0800 
 17 H        2.0940    -0.1940    -0.7730 H     1 <1>   0.0800 
 18 H       -1.3970     1.4830    -0.7960 H     1 <1>   0.0800 
 19 H        1.2830     1.5080     0.6200 H     1 <1>   0.0800 
 20 H        0.7440     2.4560    -2.1760 H     1 <1>   0.3700 
 21 H       -2.9050     3.3150    -0.8000 H     1 <1>   0.0800 
 22 H       -1.3530     3.8900    -1.3970 H     1 <1>   0.0800 
 23 H       -2.4430     4.9850    -0.5980 H     1 <1>   0.0800 
 24 H        2.9770     3.3350     0.6970 H     1 <1>   0.0800 
 25 H        1.4040     3.9360     1.1920 H     1 <1>   0.0800 
 26 H        2.5730     5.0210     0.4890 H     1 <1>   0.0800 
@<TRIPOS>BOND
  1   1   2  1   
  2   1   3  1   
  3   2   4  1   
  4   2  14  1   
  5   2  15  1   
  6   3   5  1   
  7   3  16  1   
  8   3  17  1   
  9   4   5  1   
 10   4   6  1   
 11   4  18  1   
 12   5   7  1   
 13   5  19  1   
 14   6   8  1   
 15   7   9  am  
 16   7  20  1   
 17   8  10  2   
 18   8  11  1   
 19   9  12  2   
 20   9  13  1   
 21  11  21  1   
 22  11  22  1   
 23  11  23  1   
 24  13  24  1   
 25  13  25  1   
 26  13  26  1   
@<TRIPOS>SUBSTRUCTURE
  1 ****   5 GROUP 4 **** **** 0

# MOE 2024.06 (io_trps.svl 2023.06)
