@<TRIPOS>MOLECULE
NONAME
36 37 1 0 0 
SMALL
USER_CHARGES


@<TRIPOS>ATOM
  1 O       -0.0850     1.1110     1.8620 O.2   1 <1>  -0.5700 
  2 C        0.0520     1.7610     0.8420 C.2   1 <1>   0.5440 
  3 N       -1.0270     1.9160    -0.0040 N.am  1 <1>  -0.6600 
  4 C        1.3380     2.3640     0.5360 C.ar  1 <1>   0.0860 
  5 C       -2.3690     1.3330     0.2910 C.3   1 <1>   0.1400 
  6 C       -0.9960     2.7240    -1.2590 C.3   1 <1>   0.1400 
  7 C        2.2720     1.6980    -0.2660 C.ar  1 <1>  -0.1440 
  8 C        1.6640     3.6380     1.0170 C.ar  1 <1>  -0.1440 
  9 C       -3.4600     2.4090     0.1710 C.3   1 <1>   0.1200 
 10 C       -2.1680     3.7180    -1.2890 C.3   1 <1>   0.1200 
 11 C        3.4770     2.2990    -0.5860 C.ar  1 <1>  -0.1500 
 12 C        1.9760     0.3000    -0.7950 C.3   1 <1>  -0.0960 
 13 C        2.8740     4.2240     0.6880 C.ar  1 <1>  -0.1500 
 14 C        0.6930     4.3950     1.9150 C.3   1 <1>  -0.0960 
 15 O       -3.3840     3.0610    -1.0670 O.3   1 <1>  -0.5600 
 16 C        3.7850     3.5620    -0.1140 C.ar  1 <1>  -0.1440 
 17 C        5.1100     4.2120    -0.4710 C.3   1 <1>  -0.0970 
 18 H       -2.3930     0.9130     1.2810 H     1 <1>   0.0800 
 19 H       -2.5710     0.5410    -0.4090 H     1 <1>   0.0800 
 20 H       -1.0740     2.0630    -2.1040 H     1 <1>   0.0800 
 21 H       -0.0720     3.2670    -1.3480 H     1 <1>   0.0800 
 22 H       -3.3540     3.1400     0.9540 H     1 <1>   0.0800 
 23 H       -4.4340     1.9590     0.2470 H     1 <1>   0.0800 
 24 H       -2.2240     4.1970    -2.2500 H     1 <1>   0.0800 
 25 H       -2.0420     4.4740    -0.5330 H     1 <1>   0.0800 
 26 H        4.1870     1.7810    -1.2070 H     1 <1>   0.1500 
 27 H        1.1240     0.3240    -1.4510 H     1 <1>   0.0800 
 28 H        1.7610    -0.3620     0.0250 H     1 <1>   0.0800 
 29 H        2.8140    -0.0970    -1.3380 H     1 <1>   0.0800 
 30 H        3.1160     5.2040     1.0600 H     1 <1>   0.1500 
 31 H        0.4840     3.8150     2.7970 H     1 <1>   0.0800 
 32 H       -0.2310     4.5740     1.3940 H     1 <1>   0.0800 
 33 H        1.1010     5.3410     2.2210 H     1 <1>   0.0800 
 34 H        5.8710     3.4650    -0.6090 H     1 <1>   0.0800 
 35 H        5.4270     4.8750     0.3140 H     1 <1>   0.0800 
 36 H        5.0050     4.7750    -1.3810 H     1 <1>   0.0800 
@<TRIPOS>BOND
  1   1   2  2   
  2   2   3  am  
  3   2   4  1   
  4   3   5  1   
  5   3   6  1   
  6   4   7  ar  
  7   4   8  ar  
  8   5   9  1   
  9   5  18  1   
 10   5  19  1   
 11   6  10  1   
 12   6  20  1   
 13   6  21  1   
 14   7  11  ar  
 15   7  12  1   
 16   8  13  ar  
 17   8  14  1   
 18   9  15  1   
 19   9  22  1   
 20   9  23  1   
 21  10  15  1   
 22  10  24  1   
 23  10  25  1   
 24  11  16  ar  
 25  11  26  1   
 26  12  27  1   
 27  12  28  1   
 28  12  29  1   
 29  13  16  ar  
 30  13  30  1   
 31  14  31  1   
 32  14  32  1   
 33  14  33  1   
 34  16  17  1   
 35  17  34  1   
 36  17  35  1   
 37  17  36  1   
@<TRIPOS>SUBSTRUCTURE
  1 ****   4 GROUP 4 **** **** 0

# MOE 2024.06 (io_trps.svl 2023.06)
