@<TRIPOS>MOLECULE
NONAME
51 53 1 0 0 
SMALL
USER_CHARGES


@<TRIPOS>ATOM
  1 CL      -0.1060     0.8040     1.2060 Cl    1 <1>  -0.1770 
  2 C       -1.7520     1.2660     0.8210 C.ar  1 <1>   0.1770 
  3 C       -2.7350     0.2980     0.6580 C.ar  1 <1>   0.0830 
  4 C       -2.0320     2.6120     0.6880 C.ar  1 <1>  -0.1500 
  5 O       -2.3830    -1.0110     0.8050 O.3   1 <1>  -0.3630 
  6 C       -4.0290     0.7090     0.3550 C.ar  1 <1>  -0.1500 
  7 C       -3.3270     3.0130     0.3810 C.ar  1 <1>   0.0830 
  8 C       -3.3090    -2.0480     0.5610 C.3   1 <1>   0.0400 
  9 C       -4.3370     2.0580     0.2050 C.ar  1 <1>   0.1170 
 10 O       -3.6800     4.3290     0.2390 O.3   1 <1>  -0.3630 
 11 N       -5.6280     2.5250    -0.1060 N.am  1 <1>  -0.5470 
 12 C       -2.7100     5.3530     0.3150 C.3   1 <1>   0.0400 
 13 C       -6.7820     1.9160    -0.5360 C.2   1 <1>   0.5440 
 14 O       -6.7950     0.7310    -0.7990 O.2   1 <1>  -0.5700 
 15 C       -7.9900     2.7060    -0.6960 C.ar  1 <1>   0.0860 
 16 C       -8.2790     3.8000     0.1220 C.ar  1 <1>  -0.1500 
 17 C       -8.9210     2.3900    -1.6850 C.ar  1 <1>  -0.1500 
 18 C       -9.4360     4.5410    -0.0430 C.ar  1 <1>  -0.1500 
 19 C      -10.0790     3.1250    -1.8570 C.ar  1 <1>  -0.1500 
 20 C      -10.3490     4.2060    -1.0310 C.ar  1 <1>  -0.1430 
 21 C      -11.6320     4.9990    -1.2050 C.3   1 <1>   0.4860 
 22 N      -12.5630     4.6590    -0.0970 N.4   1 <1>  -0.9590 
 23 C      -12.8930     3.1950    -0.0060 C.3   1 <1>   0.3430 
 24 C      -13.8130     5.4910    -0.0830 C.3   1 <1>   0.3430 
 25 C      -13.8210     2.9050     1.1970 C.3   1 <1>   0.1200 
 26 C      -14.7720     5.0550     1.0500 C.3   1 <1>   0.1200 
 27 O      -14.1760     4.0860     1.8680 O.3   1 <1>  -0.5600 
 28 H       -1.2300     3.3100     0.8290 H     1 <1>   0.1500 
 29 H       -4.8080    -0.0150     0.2360 H     1 <1>   0.1500 
 30 H       -2.8020    -2.9860     0.6930 H     1 <1>   0.0800 
 31 H       -3.6680    -1.9660    -0.4500 H     1 <1>   0.0800 
 32 H       -4.1180    -1.9670     1.2640 H     1 <1>   0.0800 
 33 H       -5.6550     3.5460    -0.0990 H     1 <1>   0.3700 
 34 H       -3.2010     6.2940     0.1410 H     1 <1>   0.0800 
 35 H       -1.9650     5.1860    -0.4430 H     1 <1>   0.0800 
 36 H       -2.2710     5.3480     1.2970 H     1 <1>   0.0800 
 37 H       -7.5910     4.0710     0.9050 H     1 <1>   0.1500 
 38 H       -8.7220     1.5480    -2.3300 H     1 <1>   0.1500 
 39 H       -9.6110     5.3810     0.6100 H     1 <1>   0.1500 
 40 H      -10.7610     2.8410    -2.6420 H     1 <1>   0.1500 
 41 H      -12.0810     4.7620    -2.1560 H     1 <1>   0.0800 
 42 H      -11.4040     6.0530    -1.1890 H     1 <1>   0.0800 
 43 H      -12.0860     4.8610     0.7930 H     1 <1>   0.4500 
 44 H      -11.9900     2.6160     0.1030 H     1 <1>   0.0800 
 45 H      -13.3800     2.8690    -0.9110 H     1 <1>   0.0800 
 46 H      -14.3290     5.4040    -1.0250 H     1 <1>   0.0800 
 47 H      -13.5620     6.5300     0.0550 H     1 <1>   0.0800 
 48 H      -13.3190     2.2670     1.9040 H     1 <1>   0.0800 
 49 H      -14.7190     2.4060     0.8750 H     1 <1>   0.0800 
 50 H      -15.6850     4.6510     0.6460 H     1 <1>   0.0800 
 51 H      -15.0250     5.8990     1.6690 H     1 <1>   0.0800 
@<TRIPOS>BOND
  1   1   2  1   
  2   2   3  ar  
  3   2   4  ar  
  4   3   5  1   
  5   3   6  ar  
  6   4   7  ar  
  7   4  28  1   
  8   5   8  1   
  9   6   9  ar  
 10   6  29  1   
 11   7   9  ar  
 12   7  10  1   
 13   8  30  1   
 14   8  31  1   
 15   8  32  1   
 16   9  11  1   
 17  10  12  1   
 18  11  13  am  
 19  11  33  1   
 20  12  34  1   
 21  12  35  1   
 22  12  36  1   
 23  13  14  2   
 24  13  15  1   
 25  15  16  ar  
 26  15  17  ar  
 27  16  18  ar  
 28  16  37  1   
 29  17  19  ar  
 30  17  38  1   
 31  18  20  ar  
 32  18  39  1   
 33  19  20  ar  
 34  19  40  1   
 35  20  21  1   
 36  21  22  1   
 37  21  41  1   
 38  21  42  1   
 39  22  23  1   
 40  22  24  1   
 41  22  43  1   
 42  23  25  1   
 43  23  44  1   
 44  23  45  1   
 45  24  26  1   
 46  24  46  1   
 47  24  47  1   
 48  25  27  1   
 49  25  48  1   
 50  25  49  1   
 51  26  27  1   
 52  26  50  1   
 53  26  51  1   
@<TRIPOS>SUBSTRUCTURE
  1 ****  15 GROUP 4 **** **** 0

# MOE 2024.06 (io_trps.svl 2023.06)
