@<TRIPOS>MOLECULE
NONAME
42 44 1 0 0 
SMALL
USER_CHARGES


@<TRIPOS>ATOM
  1 S        0.0100    -0.1120    -1.6390 S.o   1 <1>   0.3680 
  2 O        0.0900     1.3440    -1.2690 O.2   1 <1>  -0.5000 
  3 N        1.5890    -0.7890    -1.4490 N.am  1 <1>  -0.6020 
  4 C       -1.0290    -1.0010    -0.4140 C.3   1 <1>   0.1930 
  5 C        2.4710     0.0420    -0.5820 C.3   1 <1>   0.1100 
  6 C        2.2010    -1.0780    -2.7460 C.3   1 <1>   0.0300 
  7 C       -0.4980    -0.8390     1.0310 C.3   1 <1>  -0.1600 
  8 C       -1.0800    -2.5120    -0.7390 C.3   1 <1>  -0.1600 
  9 C       -2.4730    -0.4500    -0.4590 C.3   1 <1>  -0.1600 
 10 C        3.6880    -0.6560     0.0750 C.3   1 <1>   0.6800 
 11 C       -1.3980    -1.5770     2.0400 C.3   1 <1>  -0.0800 
 12 C       -1.9810    -3.2650     0.2580 C.3   1 <1>  -0.0800 
 13 C       -3.3850    -1.1880     0.5380 C.3   1 <1>  -0.0800 
 14 F        3.3170    -1.8360     0.5770 F     1 <1>  -0.3400 
 15 F        4.5860    -0.9780    -0.8580 F     1 <1>  -0.3400 
 16 C        4.3850     0.1720     1.1780 C.3   1 <1>   0.6000 
 17 C       -1.4280    -3.0740     1.6830 C.3   1 <1>  -0.1600 
 18 C       -2.8250    -1.0060     1.9600 C.3   1 <1>  -0.1600 
 19 C       -3.4070    -2.6870     0.1880 C.3   1 <1>  -0.1600 
 20 F        3.5460     0.4750     2.1680 F     1 <1>  -0.3400 
 21 F        4.7870     1.3550     0.7150 F     1 <1>  -0.3400 
 22 H        1.8750     0.4270     0.2250 H     1 <1>   0.0800 
 23 H        2.8100     0.9020    -1.1320 H     1 <1>   0.0800 
 24 H        1.5160    -1.6490    -3.3480 H     1 <1>   0.0800 
 25 H        3.0970    -1.6580    -2.6230 H     1 <1>   0.0800 
 26 H        2.4330    -0.1600    -3.2600 H     1 <1>   0.0800 
 27 H       -0.4510     0.2070     1.2800 H     1 <1>   0.0800 
 28 H        0.4970    -1.2380     1.0970 H     1 <1>   0.0800 
 29 H       -0.0850    -2.9200    -0.7020 H     1 <1>   0.0800 
 30 H       -1.4510    -2.6530    -1.7390 H     1 <1>   0.0800 
 31 H       -2.8670    -0.5550    -1.4540 H     1 <1>   0.0800 
 32 H       -2.4600     0.6010    -0.2270 H     1 <1>   0.0800 
 33 H       -1.0090    -1.4470     3.0360 H     1 <1>   0.0800 
 34 H       -2.0000    -4.3140     0.0130 H     1 <1>   0.0800 
 35 H       -4.3830    -0.7870     0.4860 H     1 <1>   0.0800 
 36 H        5.2350    -0.3300     1.6010 H     1 <1>   0.0800 
 37 H       -2.0450    -3.6040     2.3870 H     1 <1>   0.0800 
 38 H       -0.4350    -3.4840     1.7460 H     1 <1>   0.0800 
 39 H       -3.4590    -1.5100     2.6690 H     1 <1>   0.0800 
 40 H       -2.8140     0.0390     2.2170 H     1 <1>   0.0800 
 41 H       -4.0460    -3.2130     0.8760 H     1 <1>   0.0800 
 42 H       -3.8090    -2.8260    -0.8010 H     1 <1>   0.0800 
@<TRIPOS>BOND
  1   1   2  2   
  2   1   3  am  
  3   1   4  1   
  4   3   5  1   
  5   3   6  1   
  6   4   7  1   
  7   4   8  1   
  8   4   9  1   
  9   5  10  1   
 10   5  22  1   
 11   5  23  1   
 12   6  24  1   
 13   6  25  1   
 14   6  26  1   
 15   7  11  1   
 16   7  27  1   
 17   7  28  1   
 18   8  12  1   
 19   8  29  1   
 20   8  30  1   
 21   9  13  1   
 22   9  31  1   
 23   9  32  1   
 24  10  14  1   
 25  10  15  1   
 26  10  16  1   
 27  11  17  1   
 28  11  18  1   
 29  11  33  1   
 30  12  17  1   
 31  12  19  1   
 32  12  34  1   
 33  13  18  1   
 34  13  19  1   
 35  13  35  1   
 36  16  20  1   
 37  16  21  1   
 38  16  36  1   
 39  17  37  1   
 40  17  38  1   
 41  18  39  1   
 42  18  40  1   
 43  19  41  1   
 44  19  42  1   
@<TRIPOS>SUBSTRUCTURE
  1 ****   7 GROUP 4 **** **** 0

# MOE 2024.06 (io_trps.svl 2023.06)
