@<TRIPOS>MOLECULE
NONAME
40 40 1 0 0 
SMALL
USER_CHARGES


@<TRIPOS>ATOM
  1 O       -0.4810     5.2870     1.3490 O.2   1 <1>  -0.5700 
  2 C       -0.3060     5.7640     0.2560 C.2   1 <1>   0.5690 
  3 N       -1.1260     5.5340    -0.8100 N.am  1 <1>  -0.7300 
  4 C        0.9380     6.6500     0.0810 C.3   1 <1>   0.4040 
  5 C       -2.4540     4.8740    -0.8210 C.3   1 <1>   0.3640 
  6 N        2.2260     5.8960    -0.2010 N.4   1 <1>  -0.9590 
  7 C       -3.5100     5.8960    -0.4170 C.ar  1 <1>  -0.1440 
  8 C       -2.5010     3.5820    -0.0030 C.3   1 <1>  -0.2400 
  9 C        2.5190     4.9260     0.8940 C.3   1 <1>   0.3430 
 10 C        3.3500     6.8400    -0.4320 C.3   1 <1>   0.3430 
 11 C       -3.6220     6.3450     0.8930 C.ar  1 <1>  -0.1500 
 12 C       -4.3760     6.4050    -1.3750 C.ar  1 <1>  -0.1500 
 13 C        2.3040     3.5180     0.3560 C.3   1 <1>  -0.2400 
 14 C        4.4960     6.1090    -1.1220 C.3   1 <1>  -0.2400 
 15 C       -4.5780     7.2850     1.2370 C.ar  1 <1>  -0.1500 
 16 C       -5.3320     7.3460    -1.0330 C.ar  1 <1>  -0.1500 
 17 C       -5.4330     7.7870     0.2740 C.ar  1 <1>  -0.1500 
 18 H       -0.9950     6.0720    -1.6670 H     1 <1>   0.3700 
 19 H        1.0530     7.2200     0.9870 H     1 <1>   0.0800 
 20 H        0.7430     7.3430    -0.7180 H     1 <1>   0.0800 
 21 H       -2.6500     4.5860    -1.8410 H     1 <1>   0.0800 
 22 H        2.0890     5.3400    -1.0550 H     1 <1>   0.4500 
 23 H       -2.4290     3.7730     1.0510 H     1 <1>   0.0800 
 24 H       -1.7110     2.9200    -0.3020 H     1 <1>   0.0800 
 25 H       -3.4410     3.0910    -0.1770 H     1 <1>   0.0800 
 26 H        1.8720     5.0970     1.7410 H     1 <1>   0.0800 
 27 H        3.5400     5.0290     1.2260 H     1 <1>   0.0800 
 28 H        3.6850     7.2580     0.5050 H     1 <1>   0.0800 
 29 H        3.0240     7.6490    -1.0660 H     1 <1>   0.0800 
 30 H       -2.9660     5.9670     1.6580 H     1 <1>   0.1500 
 31 H       -4.3180     6.0740    -2.3980 H     1 <1>   0.1500 
 32 H        1.2810     3.3720     0.0550 H     1 <1>   0.0800 
 33 H        2.5190     2.8090     1.1350 H     1 <1>   0.0800 
 34 H        2.9630     3.3150    -0.4690 H     1 <1>   0.0800 
 35 H        4.9050     5.3350    -0.4980 H     1 <1>   0.0800 
 36 H        5.2850     6.8110    -1.3300 H     1 <1>   0.0800 
 37 H        4.1740     5.6880    -2.0580 H     1 <1>   0.0800 
 38 H       -4.6560     7.6240     2.2560 H     1 <1>   0.1500 
 39 H       -5.9990     7.7340    -1.7830 H     1 <1>   0.1500 
 40 H       -6.1760     8.5180     0.5410 H     1 <1>   0.1500 
@<TRIPOS>BOND
  1   1   2  2   
  2   2   3  am  
  3   2   4  1   
  4   3   5  1   
  5   3  18  1   
  6   4   6  1   
  7   4  19  1   
  8   4  20  1   
  9   5   7  1   
 10   5   8  1   
 11   5  21  1   
 12   6   9  1   
 13   6  10  1   
 14   6  22  1   
 15   7  11  ar  
 16   7  12  ar  
 17   8  23  1   
 18   8  24  1   
 19   8  25  1   
 20   9  13  1   
 21   9  26  1   
 22   9  27  1   
 23  10  14  1   
 24  10  28  1   
 25  10  29  1   
 26  11  15  ar  
 27  11  30  1   
 28  12  16  ar  
 29  12  31  1   
 30  13  32  1   
 31  13  33  1   
 32  13  34  1   
 33  14  35  1   
 34  14  36  1   
 35  14  37  1   
 36  15  17  ar  
 37  15  38  1   
 38  16  17  ar  
 39  16  39  1   
 40  17  40  1   
@<TRIPOS>SUBSTRUCTURE
  1 ****   2 GROUP 4 **** **** 0

# MOE 2024.06 (io_trps.svl 2023.06)
