@<TRIPOS>MOLECULE
NONAME
31 31 1 0 0 
SMALL
USER_CHARGES


@<TRIPOS>ATOM
  1 I       -0.5140     0.0110     0.0480 I     1 <1>  -0.0810 
  2 C        1.4020     0.9610     0.0180 C.ar  1 <1>   0.0810 
  3 C        1.5160     2.3460    -0.0390 C.ar  1 <1>  -0.1440 
  4 C        2.5030     0.1240     0.0580 C.ar  1 <1>  -0.1500 
  5 C        2.7960     2.8800    -0.0540 C.ar  1 <1>  -0.1500 
  6 C        0.3140     3.2810    -0.0840 C.3   1 <1>  -0.0960 
  7 C        3.7700     0.6790     0.0420 C.ar  1 <1>  -0.1500 
  8 C        3.9190     2.0640    -0.0150 C.ar  1 <1>   0.0830 
  9 O        5.1220     2.6920    -0.0350 O.3   1 <1>  -0.3630 
 10 C        6.3270     1.9710     0.0020 C.3   1 <1>   0.1200 
 11 C        7.4630     2.9960    -0.0350 C.3   1 <1>   0.3430 
 12 N        8.8070     2.3430     0.0000 N.4   1 <1>  -0.9060 
 13 C        9.9050     3.3340    -0.0350 C.3   1 <1>   0.3430 
 14 C       11.2240     2.5790     0.0030 C.3   1 <1>  -0.2400 
 15 H        2.3710    -0.9430     0.1020 H     1 <1>   0.1500 
 16 H        2.9360     3.9450    -0.0980 H     1 <1>   0.1500 
 17 H       -0.2820     3.0790    -0.9550 H     1 <1>   0.0800 
 18 H        0.6280     4.3090    -0.1250 H     1 <1>   0.0800 
 19 H       -0.2910     3.1520     0.7960 H     1 <1>   0.0800 
 20 H        4.6130     0.0160     0.0740 H     1 <1>   0.1500 
 21 H        6.3560     1.3270    -0.8600 H     1 <1>   0.0800 
 22 H        6.3460     1.4010     0.9140 H     1 <1>   0.0800 
 23 H        7.3580     3.6540     0.8130 H     1 <1>   0.0800 
 24 H        7.3680     3.5810    -0.9350 H     1 <1>   0.0800 
 25 H        8.9130     1.7060    -0.8010 H     1 <1>   0.4500 
 26 H        8.9040     1.7750     0.8520 H     1 <1>   0.4500 
 27 H        9.8380     3.9970     0.8140 H     1 <1>   0.0800 
 28 H        9.8470     3.9240    -0.9370 H     1 <1>   0.0800 
 29 H       11.3160     2.0050     0.9090 H     1 <1>   0.0800 
 30 H       12.0360     3.2850    -0.0220 H     1 <1>   0.0800 
 31 H       11.3260     1.9320    -0.8500 H     1 <1>   0.0800 
@<TRIPOS>BOND
  1   1   2  1   
  2   2   3  ar  
  3   2   4  ar  
  4   3   5  ar  
  5   3   6  1   
  6   4   7  ar  
  7   4  15  1   
  8   5   8  ar  
  9   5  16  1   
 10   6  17  1   
 11   6  18  1   
 12   6  19  1   
 13   7   8  ar  
 14   7  20  1   
 15   8   9  1   
 16   9  10  1   
 17  10  11  1   
 18  10  21  1   
 19  10  22  1   
 20  11  12  1   
 21  11  23  1   
 22  11  24  1   
 23  12  13  1   
 24  12  25  1   
 25  12  26  1   
 26  13  14  1   
 27  13  27  1   
 28  13  28  1   
 29  14  29  1   
 30  14  30  1   
 31  14  31  1   
@<TRIPOS>SUBSTRUCTURE
  1 ****   8 GROUP 4 **** **** 0

# MOE 2024.06 (io_trps.svl 2023.06)
