@<TRIPOS>MOLECULE
NONAME
52 55 1 0 0 
SMALL
USER_CHARGES


@<TRIPOS>ATOM
  1 O       -1.8670     1.0570    -0.8930 O.2   1 <1>  -0.5700 
  2 C       -2.7680     1.6800    -0.3760 C.2   1 <1>   0.5690 
  3 N       -2.4470     2.7480     0.4120 N.am  1 <1>  -0.6600 
  4 C       -4.2460     1.2920    -0.5920 C.3   1 <1>   0.0610 
  5 C       -1.7600     2.4430     1.6990 C.3   1 <1>   0.1400 
  6 C       -1.8650     3.9340    -0.2780 C.3   1 <1>   0.1400 
  7 C       -5.0210     2.4650    -1.2420 C.3   1 <1>  -0.1600 
  8 C       -4.9170     0.9530     0.7620 C.3   1 <1>  -0.1600 
  9 C       -4.3810     0.0550    -1.5180 C.3   1 <1>  -0.1600 
 10 C       -0.2460     2.2450     1.4710 C.3   1 <1>   0.3430 
 11 C       -0.3510     3.7380    -0.5080 C.3   1 <1>   0.3430 
 12 C       -6.5070     2.1070    -1.4510 C.3   1 <1>   0.0000 
 13 C       -6.4010     0.5790     0.5750 C.3   1 <1>   0.0000 
 14 C       -5.8580    -0.3210    -1.7250 C.3   1 <1>  -0.0800 
 15 N        0.3840     3.4240     0.7710 N.4   1 <1>  -0.9590 
 16 C       -7.1330     1.7660    -0.0830 C.3   1 <1>  -0.1600 
 17 C       -6.5980     0.8680    -2.3630 C.3   1 <1>  -0.1600 
 18 C       -7.2480     3.2870    -2.0920 C.3   1 <1>  -0.2400 
 19 C       -6.4930    -0.6430    -0.3610 C.3   1 <1>  -0.1600 
 20 C       -7.0380     0.2520     1.9310 C.3   1 <1>  -0.2400 
 21 C        1.8260     3.1540     0.4910 C.3   1 <1>   0.2630 
 22 H       -2.1730     1.5400     2.1180 H     1 <1>   0.0800 
 23 H       -1.9320     3.2400     2.4000 H     1 <1>   0.0800 
 24 H       -2.0430     4.8180     0.3080 H     1 <1>   0.0800 
 25 H       -2.3510     4.0660    -1.2300 H     1 <1>   0.0800 
 26 H       -4.5720     2.7080    -2.1890 H     1 <1>   0.0800 
 27 H       -4.9540     3.3360    -0.6140 H     1 <1>   0.0800 
 28 H       -4.3940     0.1330     1.2240 H     1 <1>   0.0800 
 29 H       -4.8480     1.8000     1.4220 H     1 <1>   0.0800 
 30 H       -3.8560    -0.7800    -1.0890 H     1 <1>   0.0800 
 31 H       -3.9280     0.2630    -2.4720 H     1 <1>   0.0800 
 32 H       -0.1130     1.3590     0.8710 H     1 <1>   0.0800 
 33 H        0.2370     2.0780     2.4200 H     1 <1>   0.0800 
 34 H        0.0580     4.6270    -0.9590 H     1 <1>   0.0800 
 35 H       -0.2230     2.9240    -1.2040 H     1 <1>   0.0800 
 36 H       -5.9270    -1.1800    -2.3700 H     1 <1>   0.0800 
 37 H        0.3060     4.2410     1.3920 H     1 <1>   0.4500 
 38 H       -8.1720     1.5200    -0.2150 H     1 <1>   0.0800 
 39 H       -7.0840     2.6260     0.5620 H     1 <1>   0.0800 
 40 H       -7.6290     0.6040    -2.5210 H     1 <1>   0.0800 
 41 H       -6.1670     1.0850    -3.3250 H     1 <1>   0.0800 
 42 H       -6.8180     3.5300    -3.0470 H     1 <1>   0.0800 
 43 H       -7.1920     4.1560    -1.4610 H     1 <1>   0.0800 
 44 H       -8.2850     3.0420    -2.2400 H     1 <1>   0.0800 
 45 H       -7.5230    -0.9190    -0.5020 H     1 <1>   0.0800 
 46 H       -5.9890    -1.4840     0.0810 H     1 <1>   0.0800 
 47 H       -6.9800     1.1010     2.5900 H     1 <1>   0.0800 
 48 H       -6.5330    -0.5760     2.3950 H     1 <1>   0.0800 
 49 H       -8.0740    -0.0090     1.8050 H     1 <1>   0.0800 
 50 H        1.9260     2.2990    -0.1590 H     1 <1>   0.0800 
 51 H        2.3560     2.9520     1.4080 H     1 <1>   0.0800 
 52 H        2.2820     4.0050     0.0120 H     1 <1>   0.0800 
@<TRIPOS>BOND
  1   1   2  2   
  2   2   3  am  
  3   2   4  1   
  4   3   5  1   
  5   3   6  1   
  6   4   7  1   
  7   4   8  1   
  8   4   9  1   
  9   5  10  1   
 10   5  22  1   
 11   5  23  1   
 12   6  11  1   
 13   6  24  1   
 14   6  25  1   
 15   7  12  1   
 16   7  26  1   
 17   7  27  1   
 18   8  13  1   
 19   8  28  1   
 20   8  29  1   
 21   9  14  1   
 22   9  30  1   
 23   9  31  1   
 24  10  15  1   
 25  10  32  1   
 26  10  33  1   
 27  11  15  1   
 28  11  34  1   
 29  11  35  1   
 30  12  16  1   
 31  12  17  1   
 32  12  18  1   
 33  13  16  1   
 34  13  19  1   
 35  13  20  1   
 36  14  17  1   
 37  14  19  1   
 38  14  36  1   
 39  15  21  1   
 40  15  37  1   
 41  16  38  1   
 42  16  39  1   
 43  17  40  1   
 44  17  41  1   
 45  18  42  1   
 46  18  43  1   
 47  18  44  1   
 48  19  45  1   
 49  19  46  1   
 50  20  47  1   
 51  20  48  1   
 52  20  49  1   
 53  21  50  1   
 54  21  51  1   
 55  21  52  1   
@<TRIPOS>SUBSTRUCTURE
  1 ****   4 GROUP 4 **** **** 0

# MOE 2024.06 (io_trps.svl 2023.06)
