@<TRIPOS>MOLECULE
NONAME
43 45 1 0 0 
SMALL
USER_CHARGES


@<TRIPOS>ATOM
  1 CL      -1.5200     0.1680     1.6350 Cl    1 <1>  -0.1770 
  2 C       -2.6400     0.5910     0.3610 C.ar  1 <1>   0.1770 
  3 C       -3.3700    -0.4050    -0.2690 C.ar  1 <1>  -0.1440 
  4 C       -2.7860     1.9210     0.0170 C.ar  1 <1>  -0.1500 
  5 C       -4.2630    -0.0470    -1.2690 C.ar  1 <1>  -0.1500 
  6 C       -3.1970    -1.8590     0.1200 C.3   1 <1>   0.4870 
  7 C       -3.6820     2.2680    -0.9790 C.ar  1 <1>  -0.1500 
  8 C       -4.4170     1.2840    -1.6190 C.ar  1 <1>  -0.1500 
  9 N       -3.7240    -2.0790     1.5030 N.4   1 <1>  -0.9590 
 10 C       -3.3080    -3.4570     1.9840 C.3   1 <1>   0.3430 
 11 C       -5.2020    -1.7220     1.5700 C.3   1 <1>   0.3430 
 12 C       -4.4480    -4.4820     2.2260 C.3   1 <1>   0.1960 
 13 C       -6.1840    -2.8850     1.8610 C.3   1 <1>   0.1960 
 14 N       -5.6690    -4.2020     1.4560 N.am  1 <1>  -0.8490 
 15 S       -5.5350    -4.4400    -0.2260 S.o2  1 <1>   1.4470 
 16 O       -4.1590    -4.8270    -0.4640 O.2   1 <1>  -0.6500 
 17 O       -5.9860    -3.2110    -0.8440 O.2   1 <1>  -0.6500 
 18 C       -6.6760    -5.8090    -0.5700 C.ar  1 <1>  -0.0090 
 19 C       -6.2360    -7.1310    -0.5530 C.ar  1 <1>  -0.1500 
 20 C       -8.0220    -5.5680    -0.8340 C.ar  1 <1>  -0.1500 
 21 C       -7.1080    -8.1800    -0.7930 C.ar  1 <1>  -0.1500 
 22 C       -8.9040    -6.6080    -1.0750 C.ar  1 <1>  -0.1500 
 23 C       -8.4370    -7.9080    -1.0520 C.ar  1 <1>   0.1770 
 24 CL      -9.5410    -9.2230    -1.3550 Cl    1 <1>  -0.1770 
 25 H       -2.2070     2.6760     0.5200 H     1 <1>   0.1500 
 26 H       -4.8450    -0.7960    -1.7870 H     1 <1>   0.1500 
 27 H       -2.1490    -2.1100     0.0800 H     1 <1>   0.0800 
 28 H       -3.7150    -2.4850    -0.5860 H     1 <1>   0.0800 
 29 H       -3.8050     3.3010    -1.2590 H     1 <1>   0.1500 
 30 H       -5.1110     1.5590    -2.3980 H     1 <1>   0.1500 
 31 H       -3.2180    -1.3830     2.0710 H     1 <1>   0.4500 
 32 H       -2.7460    -3.3620     2.8990 H     1 <1>   0.0800 
 33 H       -2.6370    -3.8910     1.2600 H     1 <1>   0.0800 
 34 H       -5.5020    -1.2850     0.6310 H     1 <1>   0.0800 
 35 H       -5.3530    -0.9600     2.3170 H     1 <1>   0.0800 
 36 H       -4.6920    -4.4790     3.2750 H     1 <1>   0.0800 
 37 H       -4.0910    -5.4730     2.0010 H     1 <1>   0.0800 
 38 H       -7.1230    -2.6900     1.3700 H     1 <1>   0.0800 
 39 H       -6.3910    -2.9020     2.9180 H     1 <1>   0.0800 
 40 H       -5.2000    -7.3460    -0.3530 H     1 <1>   0.1500 
 41 H       -8.3880    -4.5550    -0.8540 H     1 <1>   0.1500 
 42 H       -6.7670    -9.2010    -0.7810 H     1 <1>   0.1500 
 43 H       -9.9430    -6.4200    -1.2810 H     1 <1>   0.1500 
@<TRIPOS>BOND
  1   1   2  1   
  2   2   3  ar  
  3   2   4  ar  
  4   3   5  ar  
  5   3   6  1   
  6   4   7  ar  
  7   4  25  1   
  8   5   8  ar  
  9   5  26  1   
 10   6   9  1   
 11   6  27  1   
 12   6  28  1   
 13   7   8  ar  
 14   7  29  1   
 15   8  30  1   
 16   9  10  1   
 17   9  11  1   
 18   9  31  1   
 19  10  12  1   
 20  10  32  1   
 21  10  33  1   
 22  11  13  1   
 23  11  34  1   
 24  11  35  1   
 25  12  14  1   
 26  12  36  1   
 27  12  37  1   
 28  13  14  1   
 29  13  38  1   
 30  13  39  1   
 31  14  15  am  
 32  15  16  2   
 33  15  17  2   
 34  15  18  1   
 35  18  19  ar  
 36  18  20  ar  
 37  19  21  ar  
 38  19  40  1   
 39  20  22  ar  
 40  20  41  1   
 41  21  23  ar  
 42  21  42  1   
 43  22  23  ar  
 44  22  43  1   
 45  23  24  1   
@<TRIPOS>SUBSTRUCTURE
  1 ****  17 GROUP 4 **** **** 0

# MOE 2024.06 (io_trps.svl 2023.06)
