@<TRIPOS>MOLECULE
NONAME
38 40 1 0 0 
SMALL
USER_CHARGES


@<TRIPOS>ATOM
  1 O        3.0460    -1.1940     0.4390 O.3   1 <1>  -0.6800 
  2 C        2.2100    -0.2430    -0.1390 C.3   1 <1>   0.2000 
  3 C        3.0320     0.4560    -1.2390 C.3   1 <1>   0.3430 
  4 C        1.7980     0.7500     0.9680 C.3   1 <1>  -0.1600 
  5 N        4.2470     1.0060    -0.5710 N.4   1 <1>  -0.9590 
  6 C        2.4800     2.1320     0.8320 C.3   1 <1>  -0.1600 
  7 C        3.9640     2.0870     0.4260 C.3   1 <1>   0.3430 
  8 C        5.3760     1.3040    -1.4880 C.3   1 <1>   0.4860 
  9 C        6.6130     1.5740    -0.6550 C.ar  1 <1>  -0.1440 
 10 C        7.2400     0.5160     0.0540 C.ar  1 <1>   0.0000 
 11 C        7.0990     2.8540    -0.5840 C.ar  1 <1>  -0.1500 
 12 C        8.3480     0.8280     0.8750 C.ar  1 <1>   0.0000 
 13 C        6.8280    -0.8390    -0.0050 C.ar  1 <1>  -0.1500 
 14 C        8.2100     3.1480     0.2090 C.ar  1 <1>  -0.1500 
 15 C        8.8150     2.1560     0.9250 C.ar  1 <1>  -0.1500 
 16 C        8.9650    -0.1960     1.6210 C.ar  1 <1>  -0.1500 
 17 C        7.4480    -1.8120     0.7280 C.ar  1 <1>  -0.1500 
 18 C        8.5260    -1.4870     1.5550 C.ar  1 <1>  -0.1500 
 19 H        2.5540    -1.7360     1.0930 H     1 <1>   0.4000 
 20 H        1.3540    -0.7490    -0.5550 H     1 <1>   0.0800 
 21 H        2.4580     1.2420    -1.6990 H     1 <1>   0.0800 
 22 H        3.3020    -0.2680    -1.9890 H     1 <1>   0.0800 
 23 H        2.0140     0.3390     1.9410 H     1 <1>   0.0800 
 24 H        0.7330     0.9000     0.9210 H     1 <1>   0.0800 
 25 H        4.5520     0.2050     0.0120 H     1 <1>   0.4500 
 26 H        2.3860     2.6740     1.7580 H     1 <1>   0.0800 
 27 H        1.9530     2.7080     0.0900 H     1 <1>   0.0800 
 28 H        4.2450     3.0460     0.0220 H     1 <1>   0.0800 
 29 H        4.5690     1.9150     1.3030 H     1 <1>   0.0800 
 30 H        5.1440     2.1650    -2.0920 H     1 <1>   0.0800 
 31 H        5.5610     0.4670    -2.1410 H     1 <1>   0.0800 
 32 H        6.6460     3.6660    -1.1280 H     1 <1>   0.1500 
 33 H        6.0150    -1.1330    -0.6400 H     1 <1>   0.1500 
 34 H        8.5800     4.1590     0.2500 H     1 <1>   0.1500 
 35 H        9.6680     2.3760     1.5430 H     1 <1>   0.1500 
 36 H        9.8000     0.0590     2.2500 H     1 <1>   0.1500 
 37 H        7.1250    -2.8380     0.6790 H     1 <1>   0.1500 
 38 H        9.0030    -2.2650     2.1280 H     1 <1>   0.1500 
@<TRIPOS>BOND
  1   1   2  1   
  2   1  19  1   
  3   2   3  1   
  4   2   4  1   
  5   2  20  1   
  6   3   5  1   
  7   3  21  1   
  8   3  22  1   
  9   4   6  1   
 10   4  23  1   
 11   4  24  1   
 12   5   7  1   
 13   5   8  1   
 14   5  25  1   
 15   6   7  1   
 16   6  26  1   
 17   6  27  1   
 18   7  28  1   
 19   7  29  1   
 20   8   9  1   
 21   8  30  1   
 22   8  31  1   
 23   9  10  ar  
 24   9  11  ar  
 25  10  12  ar  
 26  10  13  ar  
 27  11  14  ar  
 28  11  32  1   
 29  12  15  ar  
 30  12  16  ar  
 31  13  17  ar  
 32  13  33  1   
 33  14  15  ar  
 34  14  34  1   
 35  15  35  1   
 36  16  18  ar  
 37  16  36  1   
 38  17  18  ar  
 39  17  37  1   
 40  18  38  1   
@<TRIPOS>SUBSTRUCTURE
  1 ****   9 GROUP 4 **** **** 0

# MOE 2024.06 (io_trps.svl 2023.06)
