@<TRIPOS>MOLECULE
NONAME
34 35 1 0 0 
SMALL
USER_CHARGES


@<TRIPOS>ATOM
  1 O       -0.7610     0.6960    -0.9270 O.2   1 <1>  -0.5700 
  2 C       -0.8410     1.7250    -0.2990 C.2   1 <1>   0.5690 
  3 N       -1.8230     2.0110     0.5910 N.am  1 <1>  -0.4200 
  4 C        0.1160     2.9240    -0.4540 C.3   1 <1>   0.2510 
  5 C       -1.7340     3.2880     1.0310 C.2   1 <1>   0.5690 
  6 C       -2.9050     1.0850     0.9590 C.3   1 <1>   0.2780 
  7 N        1.5170     2.7610     0.0430 N.3   1 <1>  -0.8100 
  8 C       -0.5810     4.0130     0.3850 C.3   1 <1>  -0.0990 
  9 O       -2.4790     3.8120     1.8180 O.2   1 <1>  -0.5700 
 10 C       -4.1450     1.4190     0.1500 C.2   1 <1>  -0.2880 
 11 C        2.3690     3.8700    -0.4330 C.3   1 <1>   0.1100 
 12 C        2.1110     1.4600    -0.3270 C.3   1 <1>   0.1100 
 13 C       -4.6930     0.6330    -0.7820 C.2   1 <1>  -0.3000 
 14 C        3.7570     3.7930     0.2080 C.3   1 <1>  -0.1600 
 15 C        3.5030     1.3060     0.2950 C.3   1 <1>  -0.1600 
 16 C        4.4330     2.4550    -0.1040 C.3   1 <1>  -0.1600 
 17 H        0.1300     3.1990    -1.4950 H     1 <1>   0.0800 
 18 H       -3.1150     1.1780     2.0110 H     1 <1>   0.0800 
 19 H       -2.5930     0.0740     0.7620 H     1 <1>   0.0800 
 20 H       -0.9620     4.7980    -0.2400 H     1 <1>   0.0800 
 21 H        0.0540     4.4180     1.1510 H     1 <1>   0.0800 
 22 H       -4.5510     2.3830     0.4110 H     1 <1>   0.1500 
 23 H        1.9270     4.8160    -0.1760 H     1 <1>   0.0800 
 24 H        2.4640     3.8220    -1.5060 H     1 <1>   0.0800 
 25 H        2.1720     1.3730    -1.3990 H     1 <1>   0.0800 
 26 H        1.5020     0.6550     0.0450 H     1 <1>   0.0800 
 27 H       -5.5760     0.8920    -1.3430 H     1 <1>   0.1500 
 28 H       -4.3060    -0.3310    -1.0670 H     1 <1>   0.1500 
 29 H        3.6540     3.9110     1.2730 H     1 <1>   0.0800 
 30 H        4.3660     4.6000    -0.1580 H     1 <1>   0.0800 
 31 H        3.9300     0.3690    -0.0150 H     1 <1>   0.0800 
 32 H        3.3980     1.2800     1.3660 H     1 <1>   0.0800 
 33 H        5.3640     2.3780     0.4300 H     1 <1>   0.0800 
 34 H        4.6430     2.3960    -1.1590 H     1 <1>   0.0800 
@<TRIPOS>BOND
  1   1   2  2   
  2   2   3  am  
  3   2   4  1   
  4   3   5  am  
  5   3   6  1   
  6   4   7  1   
  7   4   8  1   
  8   4  17  1   
  9   5   8  1   
 10   5   9  2   
 11   6  10  1   
 12   6  18  1   
 13   6  19  1   
 14   7  11  1   
 15   7  12  1   
 16   8  20  1   
 17   8  21  1   
 18  10  13  2   
 19  10  22  1   
 20  11  14  1   
 21  11  23  1   
 22  11  24  1   
 23  12  15  1   
 24  12  25  1   
 25  12  26  1   
 26  13  27  1   
 27  13  28  1   
 28  14  16  1   
 29  14  29  1   
 30  14  30  1   
 31  15  16  1   
 32  15  31  1   
 33  15  32  1   
 34  16  33  1   
 35  16  34  1   
@<TRIPOS>SUBSTRUCTURE
  1 ****   4 GROUP 4 **** **** 0

# MOE 2024.06 (io_trps.svl 2023.06)
