@<TRIPOS>MOLECULE
NONAME
40 42 1 0 0 
SMALL
USER_CHARGES


@<TRIPOS>ATOM
  1 O       -1.0350    -0.4700    -1.1260 O.3   1 <1>  -0.5600 
  2 C       -1.5440    -0.3070     0.1570 C.3   1 <1>   0.5600 
  3 C        0.1620    -1.1670    -1.0700 C.3   1 <1>   0.1200 
  4 O       -0.6180    -0.8360     1.0340 O.3   1 <1>  -0.5600 
  5 C       -1.7090     1.1760     0.4330 C.3   1 <1>  -0.1600 
  6 C       -2.8640    -1.0550     0.2650 C.3   1 <1>  -0.1600 
  7 C        0.2240    -1.6860     0.3480 C.3   1 <1>   0.1200 
  8 C       -2.7230     1.7550    -0.5430 C.3   1 <1>   0.3430 
  9 C       -3.8650    -0.4410    -0.7030 C.3   1 <1>   0.3430 
 10 N       -4.0190     1.0230    -0.4290 N.4   1 <1>  -0.9590 
 11 C       -5.0510     1.6260    -1.3160 C.3   1 <1>   0.4860 
 12 C       -6.3920     1.0070    -0.9780 C.ar  1 <1>  -0.1440 
 13 C       -7.0500     1.3590     0.1920 C.ar  1 <1>  -0.1500 
 14 C       -6.9680     0.0790    -1.8340 C.ar  1 <1>  -0.1500 
 15 C       -8.2660     0.7810     0.5160 C.ar  1 <1>  -0.1440 
 16 C       -8.1810    -0.5000    -1.5120 C.ar  1 <1>  -0.1500 
 17 C       -8.8260    -0.1520    -0.3390 C.ar  1 <1>  -0.1500 
 18 C       -8.9870     1.1620     1.7980 C.3   1 <1>  -0.0970 
 19 H        0.9690    -0.4820    -1.2660 H     1 <1>   0.0800 
 20 H        0.1610    -1.9590    -1.7990 H     1 <1>   0.0800 
 21 H       -0.7610     1.6680     0.3090 H     1 <1>   0.0800 
 22 H       -2.0400     1.3290     1.4430 H     1 <1>   0.0800 
 23 H       -3.2410    -0.9940     1.2690 H     1 <1>   0.0800 
 24 H       -2.7150    -2.0910     0.0210 H     1 <1>   0.0800 
 25 H        1.2140    -1.6360     0.7680 H     1 <1>   0.0800 
 26 H       -0.1610    -2.6890     0.4170 H     1 <1>   0.0800 
 27 H       -2.3370     1.6580    -1.5460 H     1 <1>   0.0800 
 28 H       -2.8660     2.8030    -0.3330 H     1 <1>   0.0800 
 29 H       -4.8160    -0.9410    -0.5980 H     1 <1>   0.0800 
 30 H       -3.5140    -0.5870    -1.7130 H     1 <1>   0.0800 
 31 H       -4.3780     1.1150     0.5290 H     1 <1>   0.4500 
 32 H       -4.8090     1.4450    -2.3500 H     1 <1>   0.0800 
 33 H       -5.1040     2.6900    -1.1570 H     1 <1>   0.0800 
 34 H       -6.6270     2.0880     0.8620 H     1 <1>   0.1500 
 35 H       -6.4870    -0.2030    -2.7550 H     1 <1>   0.1500 
 36 H       -8.6300    -1.2220    -2.1730 H     1 <1>   0.1500 
 37 H       -9.7710    -0.6090    -0.0970 H     1 <1>   0.1500 
 38 H       -8.7120     2.1530     2.1110 H     1 <1>   0.0800 
 39 H       -8.7360     0.4680     2.5790 H     1 <1>   0.0800 
 40 H      -10.0520     1.1420     1.6470 H     1 <1>   0.0800 
@<TRIPOS>BOND
  1   1   2  1   
  2   1   3  1   
  3   2   4  1   
  4   2   5  1   
  5   2   6  1   
  6   3   7  1   
  7   3  19  1   
  8   3  20  1   
  9   4   7  1   
 10   5   8  1   
 11   5  21  1   
 12   5  22  1   
 13   6   9  1   
 14   6  23  1   
 15   6  24  1   
 16   7  25  1   
 17   7  26  1   
 18   8  10  1   
 19   8  27  1   
 20   8  28  1   
 21   9  10  1   
 22   9  29  1   
 23   9  30  1   
 24  10  11  1   
 25  10  31  1   
 26  11  12  1   
 27  11  32  1   
 28  11  33  1   
 29  12  13  ar  
 30  12  14  ar  
 31  13  15  ar  
 32  13  34  1   
 33  14  16  ar  
 34  14  35  1   
 35  15  17  ar  
 36  15  18  1   
 37  16  17  ar  
 38  16  36  1   
 39  17  37  1   
 40  18  38  1   
 41  18  39  1   
 42  18  40  1   
@<TRIPOS>SUBSTRUCTURE
  1 ****   9 GROUP 4 **** **** 0

# MOE 2024.06 (io_trps.svl 2023.06)
