@<TRIPOS>MOLECULE
NONAME
46 47 1 0 0 
SMALL
USER_CHARGES


@<TRIPOS>ATOM
  1 S        0.0020     0.1040     0.7840 S.o2  1 <1>   1.4470 
  2 O       -0.8160     1.2410     0.4330 O.2   1 <1>  -0.6500 
  3 O        0.6880     0.0630     2.0560 O.2   1 <1>  -0.6500 
  4 N        1.1700     0.0650    -0.4160 N.am  1 <1>  -0.9140 
  5 C       -0.9160    -1.4390     0.5230 C.ar  1 <1>  -0.0090 
  6 C        2.2900     0.9380    -0.1370 C.3   1 <1>   0.1960 
  7 C       -2.2130    -1.4340     0.0290 C.ar  1 <1>  -0.1500 
  8 C       -0.3350    -2.6680     0.7980 C.ar  1 <1>  -0.1500 
  9 C        3.2030     0.9390    -1.3550 C.3   1 <1>  -0.2400 
 10 C       -2.9420    -2.6030    -0.1920 C.ar  1 <1>   0.0860 
 11 C       -1.0280    -3.8460     0.5890 C.ar  1 <1>  -0.1500 
 12 C       -2.3220    -3.8230     0.0990 C.ar  1 <1>  -0.1430 
 13 C       -4.2970    -2.5030    -0.7010 C.2   1 <1>   0.5440 
 14 C       -3.0540    -5.1430    -0.1150 C.3   1 <1>  -0.0960 
 15 O       -4.6290    -3.0680    -1.7240 O.2   1 <1>  -0.5700 
 16 N       -5.2150    -1.7530    -0.0240 N.am  1 <1>  -0.7300 
 17 C       -6.6150    -1.5400    -0.4260 C.3   1 <1>   0.2200 
 18 C       -6.8870    -0.0330    -0.4880 C.3   1 <1>  -0.1600 
 19 C       -7.5320    -2.2300     0.5890 C.3   1 <1>  -0.1600 
 20 C       -8.3640     0.2510    -0.7980 C.3   1 <1>  -0.1600 
 21 C       -9.0100    -1.9490     0.2820 C.3   1 <1>  -0.1600 
 22 C       -9.2870    -0.4410     0.2140 C.3   1 <1>  -0.1600 
 23 H        0.6930     0.4510    -1.2280 H     1 <1>   0.4200 
 24 H        2.8290     0.5760     0.7250 H     1 <1>   0.0800 
 25 H        1.9420     1.9390     0.0680 H     1 <1>   0.0800 
 26 H       -2.6790    -0.4910    -0.2010 H     1 <1>   0.1500 
 27 H        0.6730    -2.7020     1.1790 H     1 <1>   0.1500 
 28 H        3.5510    -0.0580    -1.5580 H     1 <1>   0.0800 
 29 H        4.0570     1.5640    -1.1630 H     1 <1>   0.0800 
 30 H        2.6870     1.3230    -2.2160 H     1 <1>   0.0800 
 31 H       -0.5470    -4.7840     0.8110 H     1 <1>   0.1500 
 32 H       -4.0200    -5.1160     0.3590 H     1 <1>   0.0800 
 33 H       -2.5000    -5.9680     0.2950 H     1 <1>   0.0800 
 34 H       -3.1940    -5.3160    -1.1670 H     1 <1>   0.0800 
 35 H       -4.9550    -1.3320     0.8670 H     1 <1>   0.3700 
 36 H       -6.7850    -1.9670    -1.4010 H     1 <1>   0.0800 
 37 H       -6.2730     0.4060    -1.2550 H     1 <1>   0.0800 
 38 H       -6.6340     0.4190     0.4540 H     1 <1>   0.0800 
 39 H       -7.3070    -1.8750     1.5790 H     1 <1>   0.0800 
 40 H       -7.3580    -3.2910     0.5570 H     1 <1>   0.0800 
 41 H       -8.5940    -0.1040    -1.7890 H     1 <1>   0.0800 
 42 H       -8.5400     1.3130    -0.7800 H     1 <1>   0.0800 
 43 H       -9.6280    -2.3970     1.0410 H     1 <1>   0.0800 
 44 H       -9.2680    -2.4010    -0.6620 H     1 <1>   0.0800 
 45 H      -10.3140    -0.2760    -0.0630 H     1 <1>   0.0800 
 46 H       -9.1350    -0.0080     1.1880 H     1 <1>   0.0800 
@<TRIPOS>BOND
  1   1   2  2   
  2   1   3  2   
  3   1   4  am  
  4   1   5  1   
  5   4   6  1   
  6   4  23  1   
  7   5   7  ar  
  8   5   8  ar  
  9   6   9  1   
 10   6  24  1   
 11   6  25  1   
 12   7  10  ar  
 13   7  26  1   
 14   8  11  ar  
 15   8  27  1   
 16   9  28  1   
 17   9  29  1   
 18   9  30  1   
 19  10  12  ar  
 20  10  13  1   
 21  11  12  ar  
 22  11  31  1   
 23  12  14  1   
 24  13  15  2   
 25  13  16  am  
 26  14  32  1   
 27  14  33  1   
 28  14  34  1   
 29  16  17  1   
 30  16  35  1   
 31  17  18  1   
 32  17  19  1   
 33  17  36  1   
 34  18  20  1   
 35  18  37  1   
 36  18  38  1   
 37  19  21  1   
 38  19  39  1   
 39  19  40  1   
 40  20  22  1   
 41  20  41  1   
 42  20  42  1   
 43  21  22  1   
 44  21  43  1   
 45  21  44  1   
 46  22  45  1   
 47  22  46  1   
@<TRIPOS>SUBSTRUCTURE
  1 ****   7 GROUP 4 **** **** 0

# MOE 2024.06 (io_trps.svl 2023.06)
