@<TRIPOS>MOLECULE
NONAME
56 58 1 0 0 
SMALL
USER_CHARGES


@<TRIPOS>ATOM
  1 O       -1.7610     0.7820    -1.3590 O.3   1 <1>  -0.3630 
  2 C       -2.2880     0.8850    -0.1070 C.ar  1 <1>   0.0820 
  3 C       -0.6850    -0.1230    -1.5170 C.3   1 <1>   0.0400 
  4 C       -3.5890     0.4330     0.1800 C.ar  1 <1>   0.0820 
  5 C       -1.5220     1.4570     0.9160 C.ar  1 <1>   0.0820 
  6 O       -4.4790    -0.0950    -0.7230 O.3   1 <1>  -0.3630 
  7 C       -4.0650     0.5150     1.4890 C.ar  1 <1>  -0.1430 
  8 O       -0.2830     1.9670     0.7110 O.3   1 <1>  -0.3630 
  9 C       -2.0100     1.5170     2.2080 C.ar  1 <1>  -0.1500 
 10 C       -4.2010    -0.2690    -2.0980 C.3   1 <1>   0.0400 
 11 C       -3.2750     1.0470     2.4970 C.ar  1 <1>  -0.1500 
 12 C       -5.4590     0.0210     1.8290 C.3   1 <1>   0.4860 
 13 C       -0.2000     3.1470    -0.0570 C.3   1 <1>   0.0400 
 14 N       -6.4420     0.8330     1.0740 N.4   1 <1>  -0.9590 
 15 C       -6.4170     2.2890     1.4610 C.3   1 <1>   0.3430 
 16 C       -7.8340     0.2670     1.1270 C.3   1 <1>   0.3430 
 17 C       -7.4120     3.1280     0.6350 C.3   1 <1>   0.2090 
 18 C       -8.8330     1.1000     0.2980 C.3   1 <1>   0.2090 
 19 N       -8.7850     2.5410     0.6870 N.pl3 1 <1>  -0.8380 
 20 C       -9.7770     3.3340     0.0920 C.ar  1 <1>   0.1000 
 21 C       -9.8420     3.6100    -1.2870 C.ar  1 <1>   0.0820 
 22 C      -10.7460     3.8720     0.9270 C.ar  1 <1>  -0.1500 
 23 O       -8.8800     3.0750    -2.1050 O.3   1 <1>  -0.3620 
 24 C      -10.8700     4.4090    -1.7800 C.ar  1 <1>  -0.1500 
 25 C      -11.7620     4.6660     0.4290 C.ar  1 <1>  -0.1500 
 26 C       -8.8630     3.3490    -3.4900 C.3   1 <1>   0.0400 
 27 C      -11.8240     4.9340    -0.9250 C.ar  1 <1>  -0.1500 
 28 H        0.1800     0.2510    -1.0000 H     1 <1>   0.0800 
 29 H       -0.4690    -0.2100    -2.5660 H     1 <1>   0.0800 
 30 H       -0.9720    -1.0800    -1.1180 H     1 <1>   0.0800 
 31 H       -1.3900     1.9370     2.9810 H     1 <1>   0.1500 
 32 H       -3.9570     0.6840    -2.5330 H     1 <1>   0.0800 
 33 H       -5.0770    -0.6720    -2.5740 H     1 <1>   0.0800 
 34 H       -3.3840    -0.9590    -2.2060 H     1 <1>   0.0800 
 35 H       -3.6280     1.1030     3.5130 H     1 <1>   0.1500 
 36 H       -5.6400     0.1030     2.8890 H     1 <1>   0.0800 
 37 H       -5.5400    -1.0150     1.5430 H     1 <1>   0.0800 
 38 H        0.8260     3.4670    -0.0720 H     1 <1>   0.0800 
 39 H       -0.8140     3.9030     0.3990 H     1 <1>   0.0800 
 40 H       -0.5340     2.9470    -1.0590 H     1 <1>   0.0800 
 41 H       -6.1080     0.7780     0.0970 H     1 <1>   0.4500 
 42 H       -5.4260     2.6890     1.3240 H     1 <1>   0.0800 
 43 H       -6.6760     2.3910     2.5010 H     1 <1>   0.0800 
 44 H       -8.1800     0.2530     2.1480 H     1 <1>   0.0800 
 45 H       -7.8350    -0.7450     0.7600 H     1 <1>   0.0800 
 46 H       -7.0730     3.1830    -0.3840 H     1 <1>   0.0800 
 47 H       -7.4440     4.1310     1.0250 H     1 <1>   0.0800 
 48 H       -9.8300     0.7270     0.4580 H     1 <1>   0.0800 
 49 H       -8.6060     0.9940    -0.7480 H     1 <1>   0.0800 
 50 H      -10.6970     3.6640     1.9790 H     1 <1>   0.1500 
 51 H      -10.9540     4.6410    -2.8240 H     1 <1>   0.1500 
 52 H      -12.5040     5.0730     1.0950 H     1 <1>   0.1500 
 53 H       -8.0170     2.8460    -3.9220 H     1 <1>   0.0800 
 54 H       -8.7680     4.4110    -3.6350 H     1 <1>   0.0800 
 55 H       -9.7710     2.9790    -3.9310 H     1 <1>   0.0800 
 56 H      -12.6160     5.5520    -1.3140 H     1 <1>   0.1500 
@<TRIPOS>BOND
  1   1   2  1   
  2   1   3  1   
  3   2   4  ar  
  4   2   5  ar  
  5   3  28  1   
  6   3  29  1   
  7   3  30  1   
  8   4   6  1   
  9   4   7  ar  
 10   5   8  1   
 11   5   9  ar  
 12   6  10  1   
 13   7  11  ar  
 14   7  12  1   
 15   8  13  1   
 16   9  11  ar  
 17   9  31  1   
 18  10  32  1   
 19  10  33  1   
 20  10  34  1   
 21  11  35  1   
 22  12  14  1   
 23  12  36  1   
 24  12  37  1   
 25  13  38  1   
 26  13  39  1   
 27  13  40  1   
 28  14  15  1   
 29  14  16  1   
 30  14  41  1   
 31  15  17  1   
 32  15  42  1   
 33  15  43  1   
 34  16  18  1   
 35  16  44  1   
 36  16  45  1   
 37  17  19  1   
 38  17  46  1   
 39  17  47  1   
 40  18  19  1   
 41  18  48  1   
 42  18  49  1   
 43  19  20  1   
 44  20  21  ar  
 45  20  22  ar  
 46  21  23  1   
 47  21  24  ar  
 48  22  25  ar  
 49  22  50  1   
 50  23  26  1   
 51  24  27  ar  
 52  24  51  1   
 53  25  27  ar  
 54  25  52  1   
 55  26  53  1   
 56  26  54  1   
 57  26  55  1   
 58  27  56  1   
@<TRIPOS>SUBSTRUCTURE
  1 ****  15 GROUP 4 **** **** 0

# MOE 2024.06 (io_trps.svl 2023.06)
