@<TRIPOS>MOLECULE
NONAME
24 25 1 0 0 
SMALL
USER_CHARGES


@<TRIPOS>ATOM
  1 P        0.0470     0.2910     0.7930 P.3   1 <1>   0.7000 
  2 O       -0.6240     0.0170     2.0580 O.2   1 <1>  -0.7000 
  3 C        1.2310     1.6210     0.8350 C.3   1 <1>   0.1200 
  4 C        0.9080    -1.0930     0.0750 C.3   1 <1>   0.1200 
  5 C       -1.1250     0.7770    -0.4430 C.3   1 <1>  -0.2400 
  6 O        2.4260     1.3030     1.5210 O.3   1 <1>  -0.3630 
  7 O        2.0990    -1.4410     0.7520 O.3   1 <1>  -0.3630 
  8 C        3.3700     0.6140     0.8350 C.ar  1 <1>   0.0830 
  9 C        3.2110    -0.7240     0.4610 C.ar  1 <1>   0.0830 
 10 C        4.5470     1.2770     0.5280 C.ar  1 <1>  -0.1500 
 11 C        4.2310    -1.3730    -0.2150 C.ar  1 <1>  -0.1500 
 12 C        5.5580     0.6240    -0.1580 C.ar  1 <1>  -0.1500 
 13 C        5.4000    -0.7010    -0.5290 C.ar  1 <1>  -0.1500 
 14 H        0.8240     2.4750     1.3430 H     1 <1>   0.0800 
 15 H        1.5210     1.9430    -0.1480 H     1 <1>   0.0800 
 16 H        1.1800    -0.9190    -0.9500 H     1 <1>   0.0800 
 17 H        0.2940    -1.9740     0.0960 H     1 <1>   0.0800 
 18 H       -1.6600     1.6580    -0.1410 H     1 <1>   0.0800 
 19 H       -1.8570     0.0080    -0.6030 H     1 <1>   0.0800 
 20 H       -0.6600     0.9870    -1.3880 H     1 <1>   0.0800 
 21 H        4.6700     2.3010     0.8310 H     1 <1>   0.1500 
 22 H        4.1080    -2.4060    -0.4880 H     1 <1>   0.1500 
 23 H        6.4690     1.1450    -0.3960 H     1 <1>   0.1500 
 24 H        6.1880    -1.2100    -1.0560 H     1 <1>   0.1500 
@<TRIPOS>BOND
  1   1   2  2   
  2   1   3  1   
  3   1   4  1   
  4   1   5  1   
  5   3   6  1   
  6   3  14  1   
  7   3  15  1   
  8   4   7  1   
  9   4  16  1   
 10   4  17  1   
 11   5  18  1   
 12   5  19  1   
 13   5  20  1   
 14   6   8  1   
 15   7   9  1   
 16   8   9  ar  
 17   8  10  ar  
 18   9  11  ar  
 19  10  12  ar  
 20  10  21  1   
 21  11  13  ar  
 22  11  22  1   
 23  12  13  ar  
 24  12  23  1   
 25  13  24  1   
@<TRIPOS>SUBSTRUCTURE
  1 ****   8 GROUP 4 **** **** 0

# MOE 2024.06 (io_trps.svl 2023.06)
