@<TRIPOS>MOLECULE
NONAME
45 46 1 0 0 
SMALL
USER_CHARGES


@<TRIPOS>ATOM
  1 O       -0.0130     0.7840     1.0690 O.2   1 <1>  -0.5700 
  2 C       -0.1540     1.8020     0.4220 C.2   1 <1>   0.5440 
  3 N        0.8710     2.2350    -0.3700 N.am  1 <1>  -0.7300 
  4 C       -1.3960     2.5500     0.5000 C.ar  1 <1>   0.0860 
  5 C        2.1560     1.5450    -0.5570 C.3   1 <1>   0.2200 
  6 C       -2.1380     2.5750     1.6800 C.ar  1 <1>  -0.1500 
  7 C       -1.9060     3.2580    -0.5880 C.ar  1 <1>  -0.1500 
  8 C        3.2410     2.3440     0.1770 C.3   1 <1>  -0.1600 
  9 C        2.4040     1.4400    -2.0600 C.3   1 <1>  -0.2400 
 10 C       -3.3320     3.2660     1.7730 C.ar  1 <1>  -0.1500 
 11 C       -3.1010     3.9510    -0.5050 C.ar  1 <1>  -0.1500 
 12 C        4.6180     1.6650     0.1560 C.3   1 <1>  -0.2400 
 13 C       -3.8290     3.9510     0.6750 C.ar  1 <1>  -0.1430 
 14 C       -5.1590     4.6750     0.7660 C.3   1 <1>   0.4860 
 15 N       -6.1880     3.8530     0.0720 N.4   1 <1>  -0.9590 
 16 C       -7.5070     4.5680    -0.0270 C.3   1 <1>   0.3430 
 17 C       -6.3600     2.5030     0.7210 C.3   1 <1>   0.3430 
 18 C       -8.5940     3.6670    -0.6450 C.3   1 <1>   0.1200 
 19 C       -7.5000     1.7020     0.0660 C.3   1 <1>   0.1200 
 20 O       -8.6760     2.4600     0.0540 O.3   1 <1>  -0.5600 
 21 H        0.8200     3.1540    -0.8050 H     1 <1>   0.3700 
 22 H        2.0980     0.5530    -0.1370 H     1 <1>   0.0800 
 23 H       -1.7600     2.0370     2.5350 H     1 <1>   0.1500 
 24 H       -1.3600     3.2560    -1.5160 H     1 <1>   0.1500 
 25 H        2.9390     2.4530     1.2060 H     1 <1>   0.0800 
 26 H        3.3250     3.3270    -0.2530 H     1 <1>   0.0800 
 27 H        2.5290     2.4140    -2.4970 H     1 <1>   0.0800 
 28 H        1.5790     0.9380    -2.5320 H     1 <1>   0.0800 
 29 H        3.2900     0.8630    -2.2490 H     1 <1>   0.0800 
 30 H       -3.8620     3.2560     2.7120 H     1 <1>   0.1500 
 31 H       -3.4500     4.4860    -1.3730 H     1 <1>   0.1500 
 32 H        4.5490     0.6670     0.5530 H     1 <1>   0.0800 
 33 H        5.3090     2.2240     0.7610 H     1 <1>   0.0800 
 34 H        5.0090     1.6170    -0.8440 H     1 <1>   0.0800 
 35 H       -5.0730     5.6410     0.2950 H     1 <1>   0.0800 
 36 H       -5.4310     4.8200     1.7990 H     1 <1>   0.0800 
 37 H       -5.8400     3.6780    -0.8790 H     1 <1>   0.4500 
 38 H       -7.4030     5.4600    -0.6230 H     1 <1>   0.0800 
 39 H       -7.8370     4.8630     0.9560 H     1 <1>   0.0800 
 40 H       -6.5910     2.6270     1.7660 H     1 <1>   0.0800 
 41 H       -5.4440     1.9380     0.6490 H     1 <1>   0.0800 
 42 H       -8.3870     3.4570    -1.6810 H     1 <1>   0.0800 
 43 H       -9.5550     4.1480    -0.5800 H     1 <1>   0.0800 
 44 H       -7.6940     0.8060     0.6290 H     1 <1>   0.0800 
 45 H       -7.2540     1.4240    -0.9440 H     1 <1>   0.0800 
@<TRIPOS>BOND
  1   1   2  2   
  2   2   3  am  
  3   2   4  1   
  4   3   5  1   
  5   3  21  1   
  6   4   6  ar  
  7   4   7  ar  
  8   5   8  1   
  9   5   9  1   
 10   5  22  1   
 11   6  10  ar  
 12   6  23  1   
 13   7  11  ar  
 14   7  24  1   
 15   8  12  1   
 16   8  25  1   
 17   8  26  1   
 18   9  27  1   
 19   9  28  1   
 20   9  29  1   
 21  10  13  ar  
 22  10  30  1   
 23  11  13  ar  
 24  11  31  1   
 25  12  32  1   
 26  12  33  1   
 27  12  34  1   
 28  13  14  1   
 29  14  15  1   
 30  14  35  1   
 31  14  36  1   
 32  15  16  1   
 33  15  17  1   
 34  15  37  1   
 35  16  18  1   
 36  16  38  1   
 37  16  39  1   
 38  17  19  1   
 39  17  40  1   
 40  17  41  1   
 41  18  20  1   
 42  18  42  1   
 43  18  43  1   
 44  19  20  1   
 45  19  44  1   
 46  19  45  1   
@<TRIPOS>SUBSTRUCTURE
  1 ****   7 GROUP 4 **** **** 0

# MOE 2024.06 (io_trps.svl 2023.06)
