@<TRIPOS>MOLECULE
NONAME
40 41 1 0 0 
SMALL
USER_CHARGES


@<TRIPOS>ATOM
  1 O        0.1640     1.5520     1.9700 O.2   1 <1>  -0.5700 
  2 C       -0.3480     2.4360     1.3220 C.2   1 <1>   0.5690 
  3 N        0.0190     2.6790     0.0340 N.am  1 <1>  -0.7300 
  4 C       -1.4350     3.3020     1.9810 C.3   1 <1>   0.2610 
  5 C        1.0360     1.9200    -0.7420 C.3   1 <1>   0.1400 
  6 O       -2.2100     3.9970     1.0120 O.3   1 <1>  -0.3620 
  7 C       -0.8330     4.3650     2.9040 C.3   1 <1>  -0.2400 
  8 C        2.3520     2.7020    -0.8430 C.3   1 <1>   0.2000 
  9 C       -3.1090     3.3760     0.2000 C.ar  1 <1>   0.0820 
 10 O        3.2570     1.9860    -1.6280 O.3   1 <1>  -0.5600 
 11 C        3.0540     2.9340     0.4900 C.3   1 <1>  -0.1600 
 12 C       -3.7990     4.1700    -0.7130 C.ar  1 <1>  -0.1440 
 13 C       -3.3540     2.0040     0.2410 C.ar  1 <1>  -0.1500 
 14 C        4.5510     2.0300    -1.1070 C.3   1 <1>   0.1200 
 15 C        4.5120     2.9740     0.0870 C.3   1 <1>  -0.1600 
 16 C       -4.7200     3.5890    -1.5700 C.ar  1 <1>  -0.1500 
 17 C       -3.5540     5.6710    -0.7770 C.3   1 <1>  -0.0970 
 18 C       -4.2750     1.4350    -0.6190 C.ar  1 <1>  -0.1500 
 19 C       -4.9580     2.2260    -1.5250 C.ar  1 <1>  -0.1500 
 20 H       -0.5180     3.3850    -0.4800 H     1 <1>   0.3700 
 21 H       -2.0960     2.6760     2.5520 H     1 <1>   0.0800 
 22 H        0.6550     1.7330    -1.7300 H     1 <1>   0.0800 
 23 H        1.2230     0.9750    -0.2610 H     1 <1>   0.0800 
 24 H       -0.1830     5.0150     2.3480 H     1 <1>   0.0800 
 25 H       -0.2600     3.8880     3.6780 H     1 <1>   0.0800 
 26 H       -1.6160     4.9420     3.3630 H     1 <1>   0.0800 
 27 H        2.1870     3.6410    -1.3440 H     1 <1>   0.0800 
 28 H        2.8700     2.1020     1.1490 H     1 <1>   0.0800 
 29 H        2.7240     3.8400     0.9660 H     1 <1>   0.0800 
 30 H       -2.8420     1.3580     0.9280 H     1 <1>   0.1500 
 31 H        5.2280     2.3660    -1.8730 H     1 <1>   0.0800 
 32 H        4.8100     1.0310    -0.7990 H     1 <1>   0.0800 
 33 H        5.1700     2.6570     0.8750 H     1 <1>   0.0800 
 34 H        4.7870     3.9640    -0.2330 H     1 <1>   0.0800 
 35 H       -5.2590     4.1920    -2.2780 H     1 <1>   0.1500 
 36 H       -2.5270     5.8640    -1.0270 H     1 <1>   0.0800 
 37 H       -3.7660     6.1150     0.1790 H     1 <1>   0.0800 
 38 H       -4.1810     6.1370    -1.5160 H     1 <1>   0.0800 
 39 H       -4.4600     0.3760    -0.5850 H     1 <1>   0.1500 
 40 H       -5.6750     1.7830    -2.1940 H     1 <1>   0.1500 
@<TRIPOS>BOND
  1   1   2  2   
  2   2   3  am  
  3   2   4  1   
  4   3   5  1   
  5   3  20  1   
  6   4   6  1   
  7   4   7  1   
  8   4  21  1   
  9   5   8  1   
 10   5  22  1   
 11   5  23  1   
 12   6   9  1   
 13   7  24  1   
 14   7  25  1   
 15   7  26  1   
 16   8  10  1   
 17   8  11  1   
 18   8  27  1   
 19   9  12  ar  
 20   9  13  ar  
 21  10  14  1   
 22  11  15  1   
 23  11  28  1   
 24  11  29  1   
 25  12  16  ar  
 26  12  17  1   
 27  13  18  ar  
 28  13  30  1   
 29  14  15  1   
 30  14  31  1   
 31  14  32  1   
 32  15  33  1   
 33  15  34  1   
 34  16  19  ar  
 35  16  35  1   
 36  17  36  1   
 37  17  37  1   
 38  17  38  1   
 39  18  19  ar  
 40  18  39  1   
 41  19  40  1   
@<TRIPOS>SUBSTRUCTURE
  1 ****   3 GROUP 4 **** **** 0

# MOE 2024.06 (io_trps.svl 2023.06)
