@<TRIPOS>MOLECULE
NONAME
45 47 1 0 0 
SMALL
USER_CHARGES


@<TRIPOS>ATOM
  1 CL       0.2950    -0.6210     1.6840 Cl    1 <1>  -0.1770 
  2 C        1.7730    -1.3350     1.0830 C.ar  1 <1>   0.1770 
  3 C        2.0490    -1.2840    -0.2710 C.ar  1 <1>  -0.1500 
  4 C        2.6430    -1.9400     1.9700 C.ar  1 <1>  -0.1500 
  5 C        3.2210    -1.8510    -0.7410 C.ar  1 <1>  -0.1500 
  6 C        3.8130    -2.5050     1.4910 C.ar  1 <1>  -0.1500 
  7 C        4.1120    -2.4650     0.1310 C.ar  1 <1>   0.1000 
  8 N        5.2800    -3.0270    -0.3710 N.pl3 1 <1>  -0.8380 
  9 C        5.3450    -4.5170    -0.3790 C.3   1 <1>   0.2090 
 10 C        6.5580    -2.3570     0.0120 C.3   1 <1>   0.2090 
 11 C        6.5150    -5.0070    -1.2590 C.3   1 <1>   0.3430 
 12 C        7.7230    -2.8600    -0.8670 C.3   1 <1>   0.3430 
 13 N        7.8300    -4.3690    -0.8840 N.4   1 <1>  -0.9590 
 14 C        8.9410    -4.8280    -1.7600 C.3   1 <1>   0.4860 
 15 C       10.2440    -4.3040    -1.1900 C.ar  1 <1>  -0.1430 
 16 C       10.7130    -4.7880     0.0230 C.ar  1 <1>  -0.1500 
 17 C       10.9740    -3.3350    -1.8610 C.ar  1 <1>  -0.1500 
 18 C       11.8840    -4.3110     0.5870 C.ar  1 <1>   0.0830 
 19 C       12.1500    -2.8500    -1.3160 C.ar  1 <1>  -0.1500 
 20 O       12.1930    -4.8820     1.7870 O.3   1 <1>  -0.3630 
 21 C       12.6110    -3.3230    -0.0970 C.ar  1 <1>   0.0830 
 22 C       13.4420    -4.7120     2.4190 C.3   1 <1>   0.0400 
 23 O       13.7570    -2.7850     0.3720 O.3   1 <1>  -0.5330 
 24 H        1.3560    -0.8070    -0.9400 H     1 <1>   0.1500 
 25 H        2.4020    -1.9640     3.0180 H     1 <1>   0.1500 
 26 H        3.4520    -1.8200    -1.7900 H     1 <1>   0.1500 
 27 H        4.4940    -2.9760     2.1740 H     1 <1>   0.1500 
 28 H        4.4180    -4.9080    -0.7660 H     1 <1>   0.0800 
 29 H        5.4630    -4.8810     0.6270 H     1 <1>   0.0800 
 30 H        6.7730    -2.5480     1.0490 H     1 <1>   0.0800 
 31 H        6.4500    -1.2920    -0.1120 H     1 <1>   0.0800 
 32 H        6.2790    -4.7690    -2.2830 H     1 <1>   0.0800 
 33 H        6.5890    -6.0790    -1.1770 H     1 <1>   0.0800 
 34 H        8.6430    -2.4300    -0.5050 H     1 <1>   0.0800 
 35 H        7.5620    -2.4980    -1.8690 H     1 <1>   0.0800 
 36 H        8.0720    -4.6550     0.0720 H     1 <1>   0.4500 
 37 H        8.8020    -4.4630    -2.7650 H     1 <1>   0.0800 
 38 H        8.9740    -5.9050    -1.7870 H     1 <1>   0.0800 
 39 H       10.1830    -5.5530     0.5600 H     1 <1>   0.1500 
 40 H       10.6430    -2.9490    -2.8110 H     1 <1>   0.1500 
 41 H       12.7070    -2.0990    -1.8490 H     1 <1>   0.1500 
 42 H       13.4780    -5.3610     3.2750 H     1 <1>   0.0800 
 43 H       13.5370    -3.6880     2.7350 H     1 <1>   0.0800 
 44 H       14.2240    -4.9740     1.7280 H     1 <1>   0.0800 
 45 H       14.1540    -2.1290    -0.2290 H     1 <1>   0.4500 
@<TRIPOS>BOND
  1   1   2  1   
  2   2   3  ar  
  3   2   4  ar  
  4   3   5  ar  
  5   3  24  1   
  6   4   6  ar  
  7   4  25  1   
  8   5   7  ar  
  9   5  26  1   
 10   6   7  ar  
 11   6  27  1   
 12   7   8  1   
 13   8   9  1   
 14   8  10  1   
 15   9  11  1   
 16   9  28  1   
 17   9  29  1   
 18  10  12  1   
 19  10  30  1   
 20  10  31  1   
 21  11  13  1   
 22  11  32  1   
 23  11  33  1   
 24  12  13  1   
 25  12  34  1   
 26  12  35  1   
 27  13  14  1   
 28  13  36  1   
 29  14  15  1   
 30  14  37  1   
 31  14  38  1   
 32  15  16  ar  
 33  15  17  ar  
 34  16  18  ar  
 35  16  39  1   
 36  17  19  ar  
 37  17  40  1   
 38  18  20  1   
 39  18  21  ar  
 40  19  21  ar  
 41  19  41  1   
 42  20  22  1   
 43  21  23  1   
 44  22  42  1   
 45  22  43  1   
 46  22  44  1   
 47  23  45  1   
@<TRIPOS>SUBSTRUCTURE
  1 ****  12 GROUP 4 **** **** 0

# MOE 2024.06 (io_trps.svl 2023.06)
