@<TRIPOS>MOLECULE
NONAME
35 35 1 0 0 
SMALL
USER_CHARGES


@<TRIPOS>ATOM
  1 S       -0.2710    -0.4500     0.1900 S.3   1 <1>  -0.0800 
  2 C        1.0040     0.7200     0.4410 C.2   1 <1>  -0.1400 
  3 C       -1.4270     0.8080    -0.1760 C.2   1 <1>  -0.1400 
  4 C        0.5660     1.9960     0.2570 C.2   1 <1>  -0.0860 
  5 C        2.3620     0.1420     0.8080 C.3   1 <1>   0.0200 
  6 C       -0.8360     2.0130    -0.0980 C.2   1 <1>  -0.1500 
  7 C       -2.8380     0.3530    -0.5030 C.3   1 <1>   0.0200 
  8 C        1.3550     3.2060     0.4010 C.2   1 <1>   0.5950 
  9 C        2.4160    -0.2100     2.2970 C.3   1 <1>  -0.2400 
 10 C       -3.7730     1.5280    -0.8040 C.3   1 <1>  -0.2400 
 11 O        2.4500     3.2340     0.8990 O.2   1 <1>  -0.5700 
 12 C        0.8070     4.5400    -0.0770 C.3   1 <1>  -0.0990 
 13 C        0.0000     5.2470     1.0240 C.3   1 <1>  -0.0990 
 14 C       -0.6690     6.4950     0.4950 C.2   1 <1>   0.6590 
 15 O       -1.8010     6.4700     0.0890 O.2   1 <1>  -0.5700 
 16 O        0.0700     7.5960     0.4900 O.3   1 <1>  -0.4300 
 17 C       -0.4370     8.8240     0.0090 C.3   1 <1>   0.0400 
 18 H        3.1410     0.8470     0.5820 H     1 <1>   0.0800 
 19 H        2.5450    -0.7400     0.2190 H     1 <1>   0.0800 
 20 H       -1.3610     2.9330    -0.2790 H     1 <1>   0.1500 
 21 H       -3.2250    -0.2060     0.3320 H     1 <1>   0.0800 
 22 H       -2.8040    -0.3030    -1.3550 H     1 <1>   0.0800 
 23 H        2.2510     0.6750     2.8860 H     1 <1>   0.0800 
 24 H        3.3790    -0.6170     2.5460 H     1 <1>   0.0800 
 25 H        1.6580    -0.9340     2.5380 H     1 <1>   0.0800 
 26 H       -3.8340     2.1830     0.0460 H     1 <1>   0.0800 
 27 H       -4.7590     1.1640    -1.0290 H     1 <1>   0.0800 
 28 H       -3.4110     2.0850    -1.6500 H     1 <1>   0.0800 
 29 H        0.2040     4.3930    -0.9540 H     1 <1>   0.0800 
 30 H        1.6340     5.1660    -0.3640 H     1 <1>   0.0800 
 31 H        0.6470     5.5120     1.8400 H     1 <1>   0.0800 
 32 H       -0.7630     4.5920     1.4040 H     1 <1>   0.0800 
 33 H       -1.2970     9.0990     0.5960 H     1 <1>   0.0800 
 34 H       -0.7160     8.7060    -1.0240 H     1 <1>   0.0800 
 35 H        0.3300     9.5710     0.1040 H     1 <1>   0.0800 
@<TRIPOS>BOND
  1   1   2  1   
  2   1   3  1   
  3   2   4  2   
  4   2   5  1   
  5   3   6  2   
  6   3   7  1   
  7   4   6  1   
  8   4   8  1   
  9   5   9  1   
 10   5  18  1   
 11   5  19  1   
 12   6  20  1   
 13   7  10  1   
 14   7  21  1   
 15   7  22  1   
 16   8  11  2   
 17   8  12  1   
 18   9  23  1   
 19   9  24  1   
 20   9  25  1   
 21  10  26  1   
 22  10  27  1   
 23  10  28  1   
 24  12  13  1   
 25  12  29  1   
 26  12  30  1   
 27  13  14  1   
 28  13  31  1   
 29  13  32  1   
 30  14  15  2   
 31  14  16  1   
 32  16  17  1   
 33  17  33  1   
 34  17  34  1   
 35  17  35  1   
@<TRIPOS>SUBSTRUCTURE
  1 ****   4 GROUP 4 **** **** 0

# MOE 2024.06 (io_trps.svl 2023.06)
