@<TRIPOS>MOLECULE
Structure2443
32 33 1 0 0 
SMALL
USER_CHARGES


@<TRIPOS>ATOM
  1 BR      -0.4670    -0.1270     1.0930 Br    1 <1>  -0.1110 
  2 C        0.5890    -1.5920     0.4090 C.ar  1 <1>   0.1110 
  3 C       -0.0140    -2.8230     0.1850 C.ar  1 <1>   0.0820 
  4 C        1.9280    -1.3630     0.1550 C.ar  1 <1>  -0.1500 
  5 O       -1.3380    -2.9510     0.4630 O.3   1 <1>  -0.3630 
  6 C        0.7740    -3.8570    -0.3130 C.ar  1 <1>  -0.1500 
  7 C        2.6970    -2.4030    -0.3420 C.ar  1 <1>  -0.1500 
  8 C       -2.0740    -4.0780     0.0550 C.3   1 <1>   0.1200 
  9 C        2.1190    -3.6420    -0.5740 C.ar  1 <1>  -0.1500 
 10 C       -3.5520    -3.8320     0.4000 C.3   1 <1>  -0.0800 
 11 C       -4.4270    -5.0170    -0.0420 C.3   1 <1>  -0.1600 
 12 C       -4.0780    -2.5280    -0.2320 C.3   1 <1>  -0.1600 
 13 C       -5.9090    -4.7630     0.2430 C.3   1 <1>   0.3430 
 14 C       -5.5630    -2.3150     0.0560 C.3   1 <1>   0.3430 
 15 N       -6.3360    -3.4970    -0.4140 N.4   1 <1>  -0.9060 
 16 H        2.3580    -0.3950     0.3420 H     1 <1>   0.1500 
 17 H        0.3650    -4.8320    -0.5010 H     1 <1>   0.1500 
 18 H        3.7420    -2.2480    -0.5470 H     1 <1>   0.1500 
 19 H       -1.6950    -4.9370     0.5810 H     1 <1>   0.0800 
 20 H       -1.9390    -4.2030    -1.0060 H     1 <1>   0.0800 
 21 H        2.7250    -4.4450    -0.9590 H     1 <1>   0.1500 
 22 H       -3.6190    -3.7460     1.4730 H     1 <1>   0.0800 
 23 H       -4.1210    -5.9040     0.4870 H     1 <1>   0.0800 
 24 H       -4.2940    -5.2080    -1.0940 H     1 <1>   0.0800 
 25 H       -3.9130    -2.5350    -1.2960 H     1 <1>   0.0800 
 26 H       -3.5350    -1.6880     0.1680 H     1 <1>   0.0800 
 27 H       -6.0610    -4.6890     1.3090 H     1 <1>   0.0800 
 28 H       -6.4970    -5.5890    -0.1260 H     1 <1>   0.0800 
 29 H       -5.9040    -1.4220    -0.4450 H     1 <1>   0.0800 
 30 H       -5.7050    -2.1820     1.1170 H     1 <1>   0.0800 
 31 H       -7.3390    -3.3410    -0.2520 H     1 <1>   0.4500 
 32 H       -6.2050    -3.5890    -1.4290 H     1 <1>   0.4500 
@<TRIPOS>BOND
  1   1   2  1   
  2   2   3  ar  
  3   2   4  ar  
  4   3   5  1   
  5   3   6  ar  
  6   4   7  ar  
  7   4  16  1   
  8   5   8  1   
  9   6   9  ar  
 10   6  17  1   
 11   7   9  ar  
 12   7  18  1   
 13   8  10  1   
 14   8  19  1   
 15   8  20  1   
 16   9  21  1   
 17  10  11  1   
 18  10  12  1   
 19  10  22  1   
 20  11  13  1   
 21  11  23  1   
 22  11  24  1   
 23  12  14  1   
 24  12  25  1   
 25  12  26  1   
 26  13  15  1   
 27  13  27  1   
 28  13  28  1   
 29  14  15  1   
 30  14  29  1   
 31  14  30  1   
 32  15  31  1   
 33  15  32  1   
@<TRIPOS>SUBSTRUCTURE
  1 ****   5 GROUP 4 **** **** 0

# MOE 2024.06 (io_trps.svl 2023.06)
