@<TRIPOS>MOLECULE
NONAME
57 60 1 0 0 
SMALL
USER_CHARGES


@<TRIPOS>ATOM
  1 O       -0.9300     0.1940     0.6210 O.2   1 <1>  -0.5700 
  2 C       -1.8110     1.0110     0.4940 C.2   1 <1>   0.6900 
  3 N       -1.6990     2.3030     0.9850 N.am  1 <1>  -0.4360 
  4 N       -2.9520     0.6400    -0.1580 N.am  1 <1>  -0.4900 
  5 C       -2.7700     3.1630     0.7840 C.2   1 <1>   0.4260 
  6 C       -0.4750     2.7560     1.7080 C.3   1 <1>   0.0600 
  7 C       -4.0150     1.4700    -0.3640 C.2   1 <1>   0.7030 
  8 N       -2.8870     4.4580     1.1680 N.pl3 1 <1>  -0.7000 
  9 C       -3.9110     2.8130     0.1370 C.2   1 <1>   0.2770 
 10 O       -4.9900     1.0450    -0.9500 O.2   1 <1>  -0.5700 
 11 C       -4.0720     4.9080     0.7690 C.cat 1 <1>   0.6560 
 12 N       -4.7350     3.9440     0.1340 N.pl3 1 <1>  -0.7640 
 13 C       -4.5280     6.3500     1.0380 C.3   1 <1>   0.2540 
 14 C       -6.0800     3.9830    -0.5150 C.3   1 <1>   0.3540 
 15 N       -3.3900     7.3150     1.0860 N.3   1 <1>  -0.8100 
 16 C       -7.1400     3.3720     0.4020 C.3   1 <1>  -0.0160 
 17 C       -3.8320     8.6270     1.6180 C.3   1 <1>   0.1100 
 18 C       -2.7870     7.5570    -0.2500 C.3   1 <1>   0.1100 
 19 C       -8.4860     3.4050    -0.2970 C.ar  1 <1>  -0.1440 
 20 C       -4.6740     9.4770     0.6230 C.3   1 <1>   0.2000 
 21 C       -3.6970     8.3450    -1.2340 C.3   1 <1>   0.2000 
 22 C       -9.3660     4.4560    -0.0880 C.ar  1 <1>  -0.1500 
 23 C       -8.8400     2.3810    -1.1630 C.ar  1 <1>  -0.1500 
 24 O       -4.8520     8.8250    -0.6050 O.3   1 <1>  -0.5600 
 25 C       -4.0840    10.8680     0.3700 C.3   1 <1>  -0.2400 
 26 C       -4.1690     7.4840    -2.4050 C.3   1 <1>  -0.2400 
 27 C      -10.5860     4.4850    -0.7420 C.ar  1 <1>  -0.1500 
 28 C      -10.0600     2.4100    -1.8160 C.ar  1 <1>  -0.1500 
 29 C      -10.9330     3.4620    -1.6070 C.ar  1 <1>  -0.1500 
 30 H       -3.0020    -0.3170    -0.5030 H     1 <1>   0.3700 
 31 H        0.2550     1.9660     1.7600 H     1 <1>   0.0800 
 32 H       -0.7310     3.0470     2.7120 H     1 <1>   0.0800 
 33 H       -0.0340     3.5910     1.1940 H     1 <1>   0.0800 
 34 H       -2.2100     5.0570     1.6510 H     1 <1>   0.4500 
 35 H       -5.0260     6.3540     1.9910 H     1 <1>   0.0800 
 36 H       -5.2470     6.6430     0.2970 H     1 <1>   0.0800 
 37 H       -6.0500     3.4350    -1.4430 H     1 <1>   0.0800 
 38 H       -6.3530     4.9980    -0.7480 H     1 <1>   0.0800 
 39 H       -7.1970     3.9240     1.3220 H     1 <1>   0.0800 
 40 H       -6.8880     2.3520     0.6300 H     1 <1>   0.0800 
 41 H       -2.9570     9.1910     1.8940 H     1 <1>   0.0800 
 42 H       -4.3930     8.4880     2.5270 H     1 <1>   0.0800 
 43 H       -2.4810     6.6280    -0.6990 H     1 <1>   0.0800 
 44 H       -1.8870     8.1310    -0.1130 H     1 <1>   0.0800 
 45 H       -5.6590     9.6080     1.0380 H     1 <1>   0.0800 
 46 H       -3.1560     9.1890    -1.6270 H     1 <1>   0.0800 
 47 H       -9.1170     5.2600     0.5820 H     1 <1>   0.1500 
 48 H       -8.1730     1.5530    -1.3360 H     1 <1>   0.1500 
 49 H       -3.0710    10.8060     0.0190 H     1 <1>   0.0800 
 50 H       -4.0860    11.4340     1.2840 H     1 <1>   0.0800 
 51 H       -4.6830    11.3940    -0.3520 H     1 <1>   0.0800 
 52 H       -4.7330     6.6400    -2.0570 H     1 <1>   0.0800 
 53 H       -3.3240     7.1310    -2.9670 H     1 <1>   0.0800 
 54 H       -4.7840     8.0750    -3.0600 H     1 <1>   0.0800 
 55 H      -11.2670     5.3020    -0.5780 H     1 <1>   0.1500 
 56 H      -10.3320     1.6120    -2.4860 H     1 <1>   0.1500 
 57 H      -11.8820     3.4840    -2.1140 H     1 <1>   0.1500 
@<TRIPOS>BOND
  1   1   2  2   
  2   2   3  am  
  3   2   4  am  
  4   3   5  1   
  5   3   6  1   
  6   4   7  am  
  7   4  30  1   
  8   5   8  1   
  9   5   9  2   
 10   6  31  1   
 11   6  32  1   
 12   6  33  1   
 13   7   9  1   
 14   7  10  2   
 15   8  11  ar  
 16   8  34  1   
 17   9  12  1   
 18  11  12  ar  
 19  11  13  1   
 20  12  14  1   
 21  13  15  1   
 22  13  35  1   
 23  13  36  1   
 24  14  16  1   
 25  14  37  1   
 26  14  38  1   
 27  15  17  1   
 28  15  18  1   
 29  16  19  1   
 30  16  39  1   
 31  16  40  1   
 32  17  20  1   
 33  17  41  1   
 34  17  42  1   
 35  18  21  1   
 36  18  43  1   
 37  18  44  1   
 38  19  22  ar  
 39  19  23  ar  
 40  20  24  1   
 41  20  25  1   
 42  20  45  1   
 43  21  24  1   
 44  21  26  1   
 45  21  46  1   
 46  22  27  ar  
 47  22  47  1   
 48  23  28  ar  
 49  23  48  1   
 50  25  49  1   
 51  25  50  1   
 52  25  51  1   
 53  26  52  1   
 54  26  53  1   
 55  26  54  1   
 56  27  29  ar  
 57  27  55  1   
 58  28  29  ar  
 59  28  56  1   
 60  29  57  1   
@<TRIPOS>SUBSTRUCTURE
  1 ****  12 GROUP 4 **** **** 0

# MOE 2024.06 (io_trps.svl 2023.06)
