@<TRIPOS>MOLECULE
NONAME
41 43 1 0 0 
SMALL
USER_CHARGES


@<TRIPOS>ATOM
  1 CL      -1.7750     1.3620    -0.9980 Cl    1 <1>  -0.1770 
  2 C       -0.0320     1.5530    -0.9790 C.ar  1 <1>   0.1770 
  3 C        0.5180     2.7130    -0.4340 C.ar  1 <1>   0.1170 
  4 C        0.7460     0.5420    -1.5070 C.ar  1 <1>  -0.1500 
  5 N       -0.3450     3.6960     0.0870 N.am  1 <1>  -0.5470 
  6 C        1.9080     2.8180    -0.4310 C.ar  1 <1>  -0.1500 
  7 C        2.1240     0.6730    -1.4970 C.ar  1 <1>  -0.1500 
  8 C       -0.1710     5.0120     0.4350 C.2   1 <1>   0.7150 
  9 C        2.7000     1.8110    -0.9580 C.ar  1 <1>  -0.1500 
 10 O        0.9170     5.5410     0.3200 O.2   1 <1>  -0.5700 
 11 C       -1.3170     5.7420     0.9180 C.2   1 <1>  -0.0450 
 12 S       -1.1480     7.4540     1.3130 S.3   1 <1>  -0.0800 
 13 C       -2.6050     5.3780     1.1540 C.2   1 <1>  -0.1500 
 14 C       -2.8280     7.5880     1.7750 C.2   1 <1>  -0.1100 
 15 C       -3.4730     6.4120     1.6310 C.2   1 <1>  -0.0630 
 16 S       -5.2160     6.0990     2.0030 S.o2  1 <1>   1.5010 
 17 O       -5.2970     5.3710     3.2500 O.2   1 <1>  -0.6500 
 18 O       -5.9830     7.3140     1.8300 O.2   1 <1>  -0.6500 
 19 N       -5.6710     5.0370     0.7610 N.am  1 <1>  -0.8490 
 20 C       -5.8100     5.7270    -0.5270 C.3   1 <1>   0.1960 
 21 C       -6.9010     4.3130     1.0990 C.3   1 <1>   0.1960 
 22 C       -6.0500     4.7100    -1.6470 C.3   1 <1>  -0.1600 
 23 C       -7.2000     3.2490     0.0350 C.3   1 <1>  -0.1600 
 24 C       -7.2960     3.8630    -1.3660 C.3   1 <1>  -0.1600 
 25 H        0.2800    -0.3350    -1.9190 H     1 <1>   0.1500 
 26 H       -1.3130     3.3860     0.1470 H     1 <1>   0.3700 
 27 H        2.3870     3.6860    -0.0150 H     1 <1>   0.1500 
 28 H        2.7460    -0.1060    -1.9060 H     1 <1>   0.1500 
 29 H        3.7720     1.9160    -0.9470 H     1 <1>   0.1500 
 30 H       -3.0040     4.3870     1.0100 H     1 <1>   0.1500 
 31 H       -3.1780     8.5480     2.1130 H     1 <1>   0.1500 
 32 H       -4.9120     6.2810    -0.7460 H     1 <1>   0.0800 
 33 H       -6.6320     6.4240    -0.4870 H     1 <1>   0.0800 
 34 H       -7.7250     5.0040     1.1750 H     1 <1>   0.0800 
 35 H       -6.7870     3.8200     2.0510 H     1 <1>   0.0800 
 36 H       -5.1870     4.0740    -1.7320 H     1 <1>   0.0800 
 37 H       -6.1700     5.2290    -2.5820 H     1 <1>   0.0800 
 38 H       -8.1230     2.7540     0.2780 H     1 <1>   0.0800 
 39 H       -6.4170     2.5110     0.0570 H     1 <1>   0.0800 
 40 H       -7.3880     3.0840    -2.1040 H     1 <1>   0.0800 
 41 H       -8.1730     4.4850    -1.4250 H     1 <1>   0.0800 
@<TRIPOS>BOND
  1   1   2  1   
  2   2   3  ar  
  3   2   4  ar  
  4   3   5  1   
  5   3   6  ar  
  6   4   7  ar  
  7   4  25  1   
  8   5   8  am  
  9   5  26  1   
 10   6   9  ar  
 11   6  27  1   
 12   7   9  ar  
 13   7  28  1   
 14   8  10  2   
 15   8  11  1   
 16   9  29  1   
 17  11  12  1   
 18  11  13  2   
 19  12  14  1   
 20  13  15  1   
 21  13  30  1   
 22  14  15  2   
 23  14  31  1   
 24  15  16  1   
 25  16  17  2   
 26  16  18  2   
 27  16  19  am  
 28  19  20  1   
 29  19  21  1   
 30  20  22  1   
 31  20  32  1   
 32  20  33  1   
 33  21  23  1   
 34  21  34  1   
 35  21  35  1   
 36  22  24  1   
 37  22  36  1   
 38  22  37  1   
 39  23  24  1   
 40  23  38  1   
 41  23  39  1   
 42  24  40  1   
 43  24  41  1   
@<TRIPOS>SUBSTRUCTURE
  1 ****  13 GROUP 4 **** **** 0

# MOE 2024.06 (io_trps.svl 2023.06)
