@<TRIPOS>MOLECULE
NONAME
44 45 1 0 0 
SMALL
USER_CHARGES


@<TRIPOS>ATOM
  1 F        7.4100    -3.6300     0.8150 F     1 <1>  -0.1900 
  2 C        6.1600    -3.9270     0.5790 C.ar  1 <1>   0.1900 
  3 C        5.1770    -3.0500     0.9950 C.ar  1 <1>  -0.1500 
  4 C        5.8680    -5.1070    -0.0780 C.ar  1 <1>  -0.1500 
  5 C        3.8510    -3.3650     0.7440 C.ar  1 <1>  -0.1500 
  6 C        4.5410    -5.4150    -0.3250 C.ar  1 <1>  -0.1500 
  7 C        3.5300    -4.5520     0.0810 C.ar  1 <1>   0.0830 
  8 O        2.2600    -4.9360    -0.2040 O.3   1 <1>  -0.3630 
  9 C        1.1540    -4.1390     0.1400 C.3   1 <1>   0.1200 
 10 C       -0.1010    -4.8820    -0.3310 C.3   1 <1>   0.3430 
 11 N       -1.3760    -4.1610     0.0030 N.4   1 <1>  -0.9590 
 12 C       -2.5430    -5.0750    -0.2480 C.3   1 <1>   0.3430 
 13 C       -1.5170    -2.8840    -0.7630 C.3   1 <1>   0.3430 
 14 C       -3.8720    -4.4180     0.1410 C.3   1 <1>  -0.0190 
 15 C       -2.8070    -2.1710    -0.3500 C.3   1 <1>  -0.1600 
 16 C       -5.0030    -5.3710    -0.2030 C.2   1 <1>   0.6590 
 17 C       -4.0420    -3.0580    -0.5630 C.3   1 <1>  -0.1600 
 18 O       -4.8090    -6.3480    -0.8780 O.2   1 <1>  -0.5700 
 19 O       -6.1920    -5.0610     0.2860 O.3   1 <1>  -0.4300 
 20 C       -7.3260    -5.8600     0.0350 C.3   1 <1>   0.1200 
 21 C       -8.5210    -5.2170     0.7320 C.3   1 <1>  -0.2400 
 22 H        5.4510    -2.1430     1.5030 H     1 <1>   0.1500 
 23 H        6.6620    -5.7640    -0.3860 H     1 <1>   0.1500 
 24 H        3.0970    -2.6770     1.0730 H     1 <1>   0.1500 
 25 H        4.2860    -6.3270    -0.8340 H     1 <1>   0.1500 
 26 H        1.2620    -3.1930    -0.3600 H     1 <1>   0.0800 
 27 H        1.1510    -4.0160     1.2090 H     1 <1>   0.0800 
 28 H       -0.1080    -5.8510     0.1410 H     1 <1>   0.0800 
 29 H       -0.0390    -5.0300    -1.3970 H     1 <1>   0.0800 
 30 H       -1.3730    -3.9340     1.0060 H     1 <1>   0.4500 
 31 H       -2.4260    -5.9890     0.3110 H     1 <1>   0.0800 
 32 H       -2.5790    -5.3350    -1.2950 H     1 <1>   0.0800 
 33 H       -1.5470    -3.0930    -1.8210 H     1 <1>   0.0800 
 34 H       -0.6770    -2.2360    -0.5710 H     1 <1>   0.0800 
 35 H       -3.8880    -4.2760     1.2070 H     1 <1>   0.0800 
 36 H       -2.9130    -1.2740    -0.9360 H     1 <1>   0.0800 
 37 H       -2.7390    -1.8720     0.6820 H     1 <1>   0.0800 
 38 H       -4.9200    -2.5580    -0.1840 H     1 <1>   0.0800 
 39 H       -4.1900    -3.2160    -1.6190 H     1 <1>   0.0800 
 40 H       -7.1420    -6.8500     0.4190 H     1 <1>   0.0800 
 41 H       -7.4830    -5.9100    -1.0300 H     1 <1>   0.0800 
 42 H       -8.3500    -5.1660     1.7930 H     1 <1>   0.0800 
 43 H       -9.4020    -5.8070     0.5570 H     1 <1>   0.0800 
 44 H       -8.6900    -4.2280     0.3460 H     1 <1>   0.0800 
@<TRIPOS>BOND
  1   1   2  1   
  2   2   3  ar  
  3   2   4  ar  
  4   3   5  ar  
  5   3  22  1   
  6   4   6  ar  
  7   4  23  1   
  8   5   7  ar  
  9   5  24  1   
 10   6   7  ar  
 11   6  25  1   
 12   7   8  1   
 13   8   9  1   
 14   9  10  1   
 15   9  26  1   
 16   9  27  1   
 17  10  11  1   
 18  10  28  1   
 19  10  29  1   
 20  11  12  1   
 21  11  13  1   
 22  11  30  1   
 23  12  14  1   
 24  12  31  1   
 25  12  32  1   
 26  13  15  1   
 27  13  33  1   
 28  13  34  1   
 29  14  16  1   
 30  14  17  1   
 31  14  35  1   
 32  15  17  1   
 33  15  36  1   
 34  15  37  1   
 35  16  18  2   
 36  16  19  1   
 37  17  38  1   
 38  17  39  1   
 39  19  20  1   
 40  20  21  1   
 41  20  40  1   
 42  20  41  1   
 43  21  42  1   
 44  21  43  1   
 45  21  44  1   
@<TRIPOS>SUBSTRUCTURE
  1 ****  10 GROUP 4 **** **** 0

# MOE 2024.06 (io_trps.svl 2023.06)
