@<TRIPOS>MOLECULE
NONAME
37 37 1 0 0 
SMALL
USER_CHARGES


@<TRIPOS>ATOM
  1 CL      -0.2590    -0.0520    -1.1720 Cl    1 <1>  -0.1770 
  2 C        1.3510     0.3480    -0.6280 C.ar  1 <1>   0.1770 
  3 C        1.5640     0.6370     0.7060 C.ar  1 <1>  -0.1500 
  4 C        2.3870     0.3680    -1.5410 C.ar  1 <1>  -0.1500 
  5 C        2.8400     0.9550     1.1460 C.ar  1 <1>  -0.1440 
  6 C        3.6640     0.6850    -1.1090 C.ar  1 <1>  -0.1500 
  7 C        3.8960     0.9800     0.2350 C.ar  1 <1>   0.0830 
  8 C        3.0650     1.2710     2.6180 C.3   1 <1>  -0.0960 
  9 O        5.1270     1.2990     0.7170 O.3   1 <1>  -0.3630 
 10 C        6.2520     1.3870    -0.1220 C.3   1 <1>   0.1200 
 11 C        7.4430     1.7780     0.7590 C.3   1 <1>   0.3430 
 12 N        8.7420     1.8610     0.0060 N.4   1 <1>  -0.9590 
 13 C        9.8660     1.9940     0.9720 C.3   1 <1>   0.3430 
 14 C        8.7470     2.9660    -0.9940 C.3   1 <1>   0.3430 
 15 C       11.1780     1.6280     0.2860 C.3   1 <1>  -0.2400 
 16 C        8.7200     2.3550    -2.3880 C.3   1 <1>  -0.2400 
 17 H        0.7310     0.6100     1.3850 H     1 <1>   0.1500 
 18 H        2.1890     0.1380    -2.5720 H     1 <1>   0.1500 
 19 H        4.4520     0.6920    -1.8370 H     1 <1>   0.1500 
 20 H        2.1470     1.2040     3.1740 H     1 <1>   0.0800 
 21 H        3.4540     2.2680     2.7230 H     1 <1>   0.0800 
 22 H        3.7690     0.5760     3.0380 H     1 <1>   0.0800 
 23 H        6.0510     2.1370    -0.8650 H     1 <1>   0.0800 
 24 H        6.4080     0.4230    -0.5730 H     1 <1>   0.0800 
 25 H        7.5330     1.0390     1.5380 H     1 <1>   0.0800 
 26 H        7.2340     2.7290     1.2210 H     1 <1>   0.0800 
 27 H        8.8870     0.9770    -0.4990 H     1 <1>   0.4500 
 28 H        9.7140     1.3230     1.8030 H     1 <1>   0.0800 
 29 H        9.9140     3.0010     1.3570 H     1 <1>   0.0800 
 30 H        9.6380     3.5650    -0.8870 H     1 <1>   0.0800 
 31 H        7.8930     3.6090    -0.8530 H     1 <1>   0.0800 
 32 H       11.1420     0.6250    -0.0990 H     1 <1>   0.0800 
 33 H       11.9760     1.6770     1.0060 H     1 <1>   0.0800 
 34 H       11.4140     2.3130    -0.5080 H     1 <1>   0.0800 
 35 H        9.5910     1.7460    -2.5550 H     1 <1>   0.0800 
 36 H        8.7270     3.1450    -3.1190 H     1 <1>   0.0800 
 37 H        7.8330     1.7690    -2.5440 H     1 <1>   0.0800 
@<TRIPOS>BOND
  1   1   2  1   
  2   2   3  ar  
  3   2   4  ar  
  4   3   5  ar  
  5   3  17  1   
  6   4   6  ar  
  7   4  18  1   
  8   5   7  ar  
  9   5   8  1   
 10   6   7  ar  
 11   6  19  1   
 12   7   9  1   
 13   8  20  1   
 14   8  21  1   
 15   8  22  1   
 16   9  10  1   
 17  10  11  1   
 18  10  23  1   
 19  10  24  1   
 20  11  12  1   
 21  11  25  1   
 22  11  26  1   
 23  12  13  1   
 24  12  14  1   
 25  12  27  1   
 26  13  15  1   
 27  13  28  1   
 28  13  29  1   
 29  14  16  1   
 30  14  30  1   
 31  14  31  1   
 32  15  32  1   
 33  15  33  1   
 34  15  34  1   
 35  16  35  1   
 36  16  36  1   
 37  16  37  1   
@<TRIPOS>SUBSTRUCTURE
  1 ****   9 GROUP 4 **** **** 0

# MOE 2024.06 (io_trps.svl 2023.06)
