@<TRIPOS>MOLECULE
NONAME
32 33 1 0 0 
SMALL
USER_CHARGES


@<TRIPOS>ATOM
  1 O        0.3880    -2.3430     2.7170 O.2   1 <1>  -0.5700 
  2 C        0.3730    -2.4600     1.5130 C.2   1 <1>   0.5690 
  3 N       -0.7080    -2.3030     0.7230 N.am  1 <1>  -0.6600 
  4 C        1.5830    -2.8170     0.6910 C.3   1 <1>  -0.0990 
  5 C       -0.4100    -2.5840    -0.6920 C.3   1 <1>   0.1400 
  6 C       -2.1040    -2.1540     1.1780 C.3   1 <1>   0.2840 
  7 C        1.1170    -2.5460    -0.7570 C.3   1 <1>  -0.1860 
  8 C       -2.8270    -3.4900     1.0840 C.ar  1 <1>  -0.1440 
  9 C        1.6480    -3.4950    -1.8110 C.2   1 <1>   0.9060 
 10 C       -3.5680    -3.8370    -0.0410 C.ar  1 <1>   0.0830 
 11 C       -2.7300    -4.3870     2.1370 C.ar  1 <1>  -0.1500 
 12 O        2.7620    -4.0010    -1.6540 O.co2 1 <1>  -0.9000 
 13 O        0.9540    -3.7130    -2.8110 O.co2 1 <1>  -0.9000 
 14 O       -3.6390    -2.9690    -1.0790 O.3   1 <1>  -0.3630 
 15 C       -4.2200    -5.0640    -0.0930 C.ar  1 <1>  -0.1500 
 16 C       -3.3750    -5.6100     2.0810 C.ar  1 <1>  -0.1500 
 17 C       -3.3770    -3.4630    -2.3770 C.3   1 <1>   0.0400 
 18 C       -4.1230    -5.9480     0.9660 C.ar  1 <1>  -0.1500 
 19 H        1.8070    -3.8580     0.8330 H     1 <1>   0.0800 
 20 H        2.4340    -2.2190     0.9540 H     1 <1>   0.0800 
 21 H       -0.8530    -1.8540    -1.3470 H     1 <1>   0.0800 
 22 H       -0.7740    -3.5670    -0.9410 H     1 <1>   0.0800 
 23 H       -2.5970    -1.4110     0.5770 H     1 <1>   0.0800 
 24 H       -2.1090    -1.8110     2.1980 H     1 <1>   0.0800 
 25 H        1.4160    -1.5560    -1.0420 H     1 <1>   0.0800 
 26 H       -2.1390    -4.1320     3.0010 H     1 <1>   0.1500 
 27 H       -4.8050    -5.3280    -0.9530 H     1 <1>   0.1500 
 28 H       -3.2910    -6.2980     2.9040 H     1 <1>   0.1500 
 29 H       -3.1960    -2.6240    -3.0250 H     1 <1>   0.0800 
 30 H       -4.2300    -4.0170    -2.7230 H     1 <1>   0.0800 
 31 H       -2.5030    -4.0910    -2.3470 H     1 <1>   0.0800 
 32 H       -4.6260    -6.8980     0.9240 H     1 <1>   0.1500 
@<TRIPOS>BOND
  1   1   2  2   
  2   2   3  am  
  3   2   4  1   
  4   3   5  1   
  5   3   6  1   
  6   4   7  1   
  7   4  19  1   
  8   4  20  1   
  9   5   7  1   
 10   5  21  1   
 11   5  22  1   
 12   6   8  1   
 13   6  23  1   
 14   6  24  1   
 15   7   9  1   
 16   7  25  1   
 17   8  10  ar  
 18   8  11  ar  
 19   9  12  ar  
 20   9  13  ar  
 21  10  14  1   
 22  10  15  ar  
 23  11  16  ar  
 24  11  26  1   
 25  14  17  1   
 26  15  18  ar  
 27  15  27  1   
 28  16  18  ar  
 29  16  28  1   
 30  17  29  1   
 31  17  30  1   
 32  17  31  1   
 33  18  32  1   
@<TRIPOS>SUBSTRUCTURE
  1 ****   3 GROUP 4 **** **** 0

# MOE 2024.06 (io_trps.svl 2023.06)
