@<TRIPOS>MOLECULE
NONAME
56 58 1 0 0 
SMALL
USER_CHARGES


@<TRIPOS>ATOM
  1 O       -0.1460    -0.8920     1.0910 O.2   1 <1>  -0.5700 
  2 C       -0.9370    -1.7600     0.7850 C.2   1 <1>   0.6900 
  3 N       -0.5810    -2.7280    -0.1480 N.am  1 <1>  -0.4200 
  4 N       -2.1990    -1.7790     1.3620 N.am  1 <1>  -0.4360 
  5 C       -1.4900    -3.6880    -0.5730 C.2   1 <1>   0.7030 
  6 C        0.7970    -2.6960    -0.7320 C.3   1 <1>   0.0600 
  7 C       -3.0930    -2.7430     0.9380 C.2   1 <1>   0.4260 
  8 C       -2.5900    -0.7680     2.3890 C.3   1 <1>   0.0600 
  9 O       -1.1770    -4.5040    -1.4240 O.2   1 <1>  -0.5700 
 10 C       -2.8030    -3.6850     0.0090 C.2   1 <1>   0.2770 
 11 N       -4.3750    -2.9260     1.3400 N.pl3 1 <1>  -0.7000 
 12 N       -3.9590    -4.4600    -0.1480 N.pl3 1 <1>  -0.7640 
 13 C       -4.8750    -3.9630     0.6780 C.cat 1 <1>   0.6560 
 14 C       -4.0670    -5.6110    -1.0850 C.3   1 <1>   0.3540 
 15 C       -6.3150    -4.4530     0.8920 C.3   1 <1>   0.2540 
 16 C       -3.5370    -6.8720    -0.4010 C.3   1 <1>  -0.1600 
 17 N       -7.2570    -3.3510     1.2490 N.3   1 <1>  -0.8100 
 18 C       -3.6480    -8.0960    -1.3200 C.3   1 <1>  -0.1600 
 19 C       -7.5020    -2.4130     0.1230 C.3   1 <1>   0.1100 
 20 C       -8.5710    -3.9000     1.6640 C.3   1 <1>   0.1100 
 21 C       -3.1170    -9.3520    -0.6240 C.3   1 <1>  -0.2400 
 22 C       -8.3120    -3.0210    -1.0560 C.3   1 <1>   0.2000 
 23 C       -9.4480    -4.4310     0.4930 C.3   1 <1>   0.2000 
 24 O       -8.8100    -4.2920    -0.7480 O.3   1 <1>  -0.5600 
 25 C       -7.4640    -3.1830    -2.3170 C.3   1 <1>  -0.2400 
 26 C      -10.8270    -3.7690     0.4240 C.3   1 <1>  -0.2400 
 27 H        1.5130    -2.3990     0.0160 H     1 <1>   0.0800 
 28 H        0.8290    -1.9890    -1.5430 H     1 <1>   0.0800 
 29 H        1.0830    -3.6660    -1.1020 H     1 <1>   0.0800 
 30 H       -1.7170    -0.3350     2.8480 H     1 <1>   0.0800 
 31 H       -3.1780    -1.2290     3.1630 H     1 <1>   0.0800 
 32 H       -3.1590     0.0190     1.9260 H     1 <1>   0.0800 
 33 H       -4.9310    -2.3820     2.0050 H     1 <1>   0.4500 
 34 H       -3.4990    -5.4100    -1.9790 H     1 <1>   0.0800 
 35 H       -5.0930    -5.7580    -1.3760 H     1 <1>   0.0800 
 36 H       -6.2930    -5.1650     1.6970 H     1 <1>   0.0800 
 37 H       -6.6490    -4.9720     0.0140 H     1 <1>   0.0800 
 38 H       -4.0970    -7.0560     0.4990 H     1 <1>   0.0800 
 39 H       -2.5030    -6.7260    -0.1400 H     1 <1>   0.0800 
 40 H       -3.0780    -7.9300    -2.2200 H     1 <1>   0.0800 
 41 H       -4.6750    -8.2590    -1.5990 H     1 <1>   0.0800 
 42 H       -6.5740    -2.0080    -0.2390 H     1 <1>   0.0800 
 43 H       -8.0630    -1.5750     0.5010 H     1 <1>   0.0800 
 44 H       -9.1150    -3.1220     2.1730 H     1 <1>   0.0800 
 45 H       -8.4330    -4.6860     2.3870 H     1 <1>   0.0800 
 46 H       -2.0820    -9.2280    -0.3560 H     1 <1>   0.0800 
 47 H       -3.1960   -10.1990    -1.2840 H     1 <1>   0.0800 
 48 H       -3.6830    -9.5630     0.2670 H     1 <1>   0.0800 
 49 H       -9.1470    -2.3810    -1.2860 H     1 <1>   0.0800 
 50 H       -9.5980    -5.4880     0.6350 H     1 <1>   0.0800 
 51 H       -6.6270    -3.8290    -2.1350 H     1 <1>   0.0800 
 52 H       -7.1010    -2.2250    -2.6430 H     1 <1>   0.0800 
 53 H       -8.0680    -3.5980    -3.1050 H     1 <1>   0.0800 
 54 H      -10.7450    -2.7000     0.3520 H     1 <1>   0.0800 
 55 H      -11.3860    -4.0010     1.3120 H     1 <1>   0.0800 
 56 H      -11.3720    -4.1450    -0.4240 H     1 <1>   0.0800 
@<TRIPOS>BOND
  1   1   2  2   
  2   2   3  am  
  3   2   4  am  
  4   3   5  am  
  5   3   6  1   
  6   4   7  1   
  7   4   8  1   
  8   5   9  2   
  9   5  10  1   
 10   6  27  1   
 11   6  28  1   
 12   6  29  1   
 13   7  10  2   
 14   7  11  1   
 15   8  30  1   
 16   8  31  1   
 17   8  32  1   
 18  10  12  1   
 19  11  13  ar  
 20  11  33  1   
 21  12  13  ar  
 22  12  14  1   
 23  13  15  1   
 24  14  16  1   
 25  14  34  1   
 26  14  35  1   
 27  15  17  1   
 28  15  36  1   
 29  15  37  1   
 30  16  18  1   
 31  16  38  1   
 32  16  39  1   
 33  17  19  1   
 34  17  20  1   
 35  18  21  1   
 36  18  40  1   
 37  18  41  1   
 38  19  22  1   
 39  19  42  1   
 40  19  43  1   
 41  20  23  1   
 42  20  44  1   
 43  20  45  1   
 44  21  46  1   
 45  21  47  1   
 46  21  48  1   
 47  22  24  1   
 48  22  25  1   
 49  22  49  1   
 50  23  24  1   
 51  23  26  1   
 52  23  50  1   
 53  25  51  1   
 54  25  52  1   
 55  25  53  1   
 56  26  54  1   
 57  26  55  1   
 58  26  56  1   
@<TRIPOS>SUBSTRUCTURE
  1 ****  13 GROUP 4 **** **** 0

# MOE 2024.06 (io_trps.svl 2023.06)
