@<TRIPOS>MOLECULE
NONAME
55 56 1 0 0 
SMALL
USER_CHARGES


@<TRIPOS>ATOM
  1 S        0.2720     1.0510     2.0290 S.o2  1 <1>   1.3330 
  2 O        1.5370     0.3820     1.8400 O.2   1 <1>  -0.6500 
  3 O        0.0430     1.8150     3.2300 O.2   1 <1>  -0.6500 
  4 N        0.1310     2.1450     0.7020 N.am  1 <1>  -0.6930 
  5 C       -1.0520    -0.1140     1.7760 C.3   1 <1>  -0.1350 
  6 C       -1.0790     2.3650     0.0400 C.ar  1 <1>   0.1990 
  7 C        1.1790     3.2070     0.6190 C.3   1 <1>   0.2570 
  8 C       -1.2690     1.8100    -1.2300 C.ar  1 <1>  -0.1440 
  9 C       -2.1110     3.1170     0.6170 C.ar  1 <1>  -0.1440 
 10 C        2.3950     2.8530    -0.2410 C.2   1 <1>   0.5690 
 11 C       -2.4690     1.9910    -1.8950 C.ar  1 <1>  -0.1500 
 12 C       -0.1730     1.0050    -1.9190 C.3   1 <1>  -0.0970 
 13 C       -3.3050     3.2810    -0.0640 C.ar  1 <1>  -0.1500 
 14 C       -1.9920     3.7790     1.9860 C.3   1 <1>  -0.0960 
 15 O        2.5820     3.4910    -1.2500 O.2   1 <1>  -0.5700 
 16 N        3.2440     1.8610     0.1700 N.am  1 <1>  -0.5470 
 17 C       -3.4880     2.7220    -1.3140 C.ar  1 <1>  -0.1500 
 18 C        4.4460     1.4340    -0.4220 C.ar  1 <1>   0.1170 
 19 C        5.5730     2.2650    -0.5210 C.ar  1 <1>  -0.1440 
 20 C        4.5170     0.1240    -0.9070 C.ar  1 <1>  -0.1440 
 21 C        6.7200     1.7760    -1.1310 C.ar  1 <1>  -0.1500 
 22 C        5.6060     3.6970     0.0350 C.3   1 <1>   0.0630 
 23 C        5.6770    -0.3390    -1.5030 C.ar  1 <1>  -0.1500 
 24 C        3.3310    -0.8270    -0.7990 C.3   1 <1>  -0.0970 
 25 C        6.7760     0.4860    -1.6220 C.ar  1 <1>  -0.1500 
 26 C        5.7950     4.7200    -1.0910 C.3   1 <1>  -0.2400 
 27 C        6.6990     3.8550     1.0990 C.3   1 <1>  -0.2400 
 28 H       -0.9520    -0.5890     0.8200 H     1 <1>   0.0800 
 29 H       -2.0000     0.3840     1.8160 H     1 <1>   0.0800 
 30 H       -1.0290    -0.8670     2.5380 H     1 <1>   0.0800 
 31 H        1.5210     3.4480     1.6090 H     1 <1>   0.0800 
 32 H        0.7370     4.0980     0.2070 H     1 <1>   0.0800 
 33 H       -2.6220     1.5690    -2.8730 H     1 <1>   0.1500 
 34 H        0.1730     0.2200    -1.2740 H     1 <1>   0.0800 
 35 H        0.6550     1.6470    -2.1630 H     1 <1>   0.0800 
 36 H       -0.5300     0.5600    -2.8290 H     1 <1>   0.0800 
 37 H       -4.1070     3.8510     0.3720 H     1 <1>   0.1500 
 38 H       -2.2400     3.0740     2.7580 H     1 <1>   0.0800 
 39 H       -2.6630     4.6150     2.0640 H     1 <1>   0.0800 
 40 H       -0.9970     4.1440     2.1590 H     1 <1>   0.0800 
 41 H        2.8630     1.2190     0.8790 H     1 <1>   0.3700 
 42 H       -4.4190     2.8580    -1.8360 H     1 <1>   0.1500 
 43 H        7.5900     2.4000    -1.2290 H     1 <1>   0.1500 
 44 H        4.6770     3.9270     0.5210 H     1 <1>   0.0800 
 45 H        5.7330    -1.3430    -1.8820 H     1 <1>   0.1500 
 46 H        3.5260    -1.7510    -1.3110 H     1 <1>   0.0800 
 47 H        3.1310    -1.0470     0.2340 H     1 <1>   0.0800 
 48 H        2.4620    -0.3760    -1.2390 H     1 <1>   0.0800 
 49 H        7.6750     0.1260    -2.0910 H     1 <1>   0.1500 
 50 H        6.7480     4.5950    -1.5710 H     1 <1>   0.0800 
 51 H        5.7310     5.7190    -0.7010 H     1 <1>   0.0800 
 52 H        5.0220     4.5910    -1.8270 H     1 <1>   0.0800 
 53 H        7.6770     3.7290     0.6730 H     1 <1>   0.0800 
 54 H        6.5630     3.1180     1.8700 H     1 <1>   0.0800 
 55 H        6.6430     4.8310     1.5450 H     1 <1>   0.0800 
@<TRIPOS>BOND
  1   1   2  2   
  2   1   3  2   
  3   1   4  am  
  4   1   5  1   
  5   4   6  1   
  6   4   7  1   
  7   5  28  1   
  8   5  29  1   
  9   5  30  1   
 10   6   8  ar  
 11   6   9  ar  
 12   7  10  1   
 13   7  31  1   
 14   7  32  1   
 15   8  11  ar  
 16   8  12  1   
 17   9  13  ar  
 18   9  14  1   
 19  10  15  2   
 20  10  16  am  
 21  11  17  ar  
 22  11  33  1   
 23  12  34  1   
 24  12  35  1   
 25  12  36  1   
 26  13  17  ar  
 27  13  37  1   
 28  14  38  1   
 29  14  39  1   
 30  14  40  1   
 31  16  18  1   
 32  16  41  1   
 33  17  42  1   
 34  18  19  ar  
 35  18  20  ar  
 36  19  21  ar  
 37  19  22  1   
 38  20  23  ar  
 39  20  24  1   
 40  21  25  ar  
 41  21  43  1   
 42  22  26  1   
 43  22  27  1   
 44  22  44  1   
 45  23  25  ar  
 46  23  45  1   
 47  24  46  1   
 48  24  47  1   
 49  24  48  1   
 50  25  49  1   
 51  26  50  1   
 52  26  51  1   
 53  26  52  1   
 54  27  53  1   
 55  27  54  1   
 56  27  55  1   
@<TRIPOS>SUBSTRUCTURE
  1 ****  10 GROUP 4 **** **** 0

# MOE 2024.06 (io_trps.svl 2023.06)
