@<TRIPOS>MOLECULE
NONAME
53 53 1 0 0 
SMALL
USER_CHARGES


@<TRIPOS>ATOM
  1 O       -0.1630     0.4910    -0.6480 O.3   1 <1>  -0.5600 
  2 C       -0.6950    -0.6700    -0.0680 C.3   1 <1>   0.1200 
  3 C        1.1770     0.3680    -1.0280 C.3   1 <1>   0.1200 
  4 C       -2.1540    -0.4380     0.3450 C.3   1 <1>   0.1200 
  5 C        1.6890     1.7190    -1.5550 C.3   1 <1>   0.3430 
  6 O       -2.2580     0.7550     1.0680 O.3   1 <1>  -0.5600 
  7 N        1.2190     2.8810    -0.7320 N.4   1 <1>  -0.9590 
  8 C       -3.5580     1.0730     1.4870 C.3   1 <1>   0.1200 
  9 C        1.2190     4.1520    -1.5230 C.3   1 <1>   0.3430 
 10 C        1.8750     3.0130     0.6110 C.3   1 <1>   0.3430 
 11 C       -3.6500     2.5880     1.7400 C.3   1 <1>   0.3430 
 12 C        0.2890     5.2220    -0.9170 C.3   1 <1>   0.1200 
 13 C        1.0600     2.3000     1.7090 C.3   1 <1>   0.1200 
 14 N       -3.0090     3.3700     0.6310 N.4   1 <1>  -0.9590 
 15 O       -0.9120     4.6310    -0.5050 O.3   1 <1>  -0.5600 
 16 O       -0.3030     2.5320     1.5290 O.3   1 <1>  -0.6800 
 17 C       -2.8300     4.8090     0.9790 C.3   1 <1>   0.3430 
 18 C       -3.6100     3.1270    -0.7290 C.3   1 <1>   0.3430 
 19 C       -1.8600     5.5300     0.0170 C.3   1 <1>   0.1200 
 20 C       -5.0330     3.6930    -0.9440 C.3   1 <1>   0.1200 
 21 O       -5.9250     3.2030     0.0060 O.3   1 <1>  -0.6800 
 22 H       -0.1120    -0.9270     0.8000 H     1 <1>   0.0800 
 23 H       -0.6390    -1.4750    -0.7820 H     1 <1>   0.0800 
 24 H        1.2540    -0.3820    -1.7960 H     1 <1>   0.0800 
 25 H        1.7570     0.0570    -0.1770 H     1 <1>   0.0800 
 26 H       -2.5010    -1.2520     0.9590 H     1 <1>   0.0800 
 27 H       -2.7710    -0.3700    -0.5350 H     1 <1>   0.0800 
 28 H        1.3190     1.8300    -2.5610 H     1 <1>   0.0800 
 29 H        2.7660     1.7070    -1.6070 H     1 <1>   0.0800 
 30 H        0.2230     2.6890    -0.4970 H     1 <1>   0.4500 
 31 H       -3.7770     0.5230     2.3860 H     1 <1>   0.0800 
 32 H       -4.2660     0.7920     0.7260 H     1 <1>   0.0800 
 33 H        0.8690     3.9460    -2.5210 H     1 <1>   0.0800 
 34 H        2.2200     4.5430    -1.6040 H     1 <1>   0.0800 
 35 H        1.9340     4.0540     0.8800 H     1 <1>   0.0800 
 36 H        2.8800     2.6270     0.5840 H     1 <1>   0.0800 
 37 H       -3.1410     2.8030     2.6660 H     1 <1>   0.0800 
 38 H       -4.6800     2.8740     1.8620 H     1 <1>   0.0800 
 39 H        0.0750     5.9820    -1.6490 H     1 <1>   0.0800 
 40 H        0.7590     5.6780    -0.0620 H     1 <1>   0.0800 
 41 H        1.3410     2.6680     2.6820 H     1 <1>   0.0800 
 42 H        1.2290     1.2380     1.6860 H     1 <1>   0.0800 
 43 H       -2.0380     3.0010     0.5860 H     1 <1>   0.4500 
 44 H       -0.7920     1.6680     1.4250 H     1 <1>   0.4000 
 45 H       -2.4170     4.8750     1.9720 H     1 <1>   0.0800 
 46 H       -3.7810     5.3140     0.9920 H     1 <1>   0.0800 
 47 H       -3.6340     2.0680    -0.9220 H     1 <1>   0.0800 
 48 H       -2.9630     3.5620    -1.4730 H     1 <1>   0.0800 
 49 H       -2.4020     5.9600    -0.8080 H     1 <1>   0.0800 
 50 H       -1.3600     6.3210     0.5500 H     1 <1>   0.0800 
 51 H       -5.3920     3.4000    -1.9160 H     1 <1>   0.0800 
 52 H       -5.0310     4.7670    -0.8880 H     1 <1>   0.0800 
 53 H       -6.8450     3.4790    -0.2000 H     1 <1>   0.4000 
@<TRIPOS>BOND
  1   1   2  1   
  2   1   3  1   
  3   2   4  1   
  4   2  22  1   
  5   2  23  1   
  6   3   5  1   
  7   3  24  1   
  8   3  25  1   
  9   4   6  1   
 10   4  26  1   
 11   4  27  1   
 12   5   7  1   
 13   5  28  1   
 14   5  29  1   
 15   6   8  1   
 16   7   9  1   
 17   7  10  1   
 18   7  30  1   
 19   8  11  1   
 20   8  31  1   
 21   8  32  1   
 22   9  12  1   
 23   9  33  1   
 24   9  34  1   
 25  10  13  1   
 26  10  35  1   
 27  10  36  1   
 28  11  14  1   
 29  11  37  1   
 30  11  38  1   
 31  12  15  1   
 32  12  39  1   
 33  12  40  1   
 34  13  16  1   
 35  13  41  1   
 36  13  42  1   
 37  14  17  1   
 38  14  18  1   
 39  14  43  1   
 40  15  19  1   
 41  16  44  1   
 42  17  19  1   
 43  17  45  1   
 44  17  46  1   
 45  18  20  1   
 46  18  47  1   
 47  18  48  1   
 48  19  49  1   
 49  19  50  1   
 50  20  21  1   
 51  20  51  1   
 52  20  52  1   
 53  21  53  1   
@<TRIPOS>SUBSTRUCTURE
  1 ****  16 GROUP 4 **** **** 0

# MOE 2024.06 (io_trps.svl 2023.06)
