@<TRIPOS>MOLECULE
NONAME
54 58 1 0 0 
SMALL
USER_CHARGES


@<TRIPOS>ATOM
  1 F       -1.6740     0.9590     0.0760 F     1 <1>  -0.1900 
  2 C       -2.6580     1.8120     0.2360 C.ar  1 <1>   0.1900 
  3 C       -2.3880     3.1510     0.5520 C.ar  1 <1>   0.1000 
  4 C       -3.9400     1.3230     0.0690 C.ar  1 <1>  -0.1500 
  5 N       -1.1110     3.7080     0.7330 N.pl3 1 <1>  -0.8380 
  6 C       -3.4910     3.9870     0.6910 C.ar  1 <1>  -0.1500 
  7 C       -5.0140     2.1860     0.2140 C.ar  1 <1>  -0.1500 
  8 C       -0.0490     2.9990     1.5190 C.3   1 <1>   0.2090 
  9 C       -0.5970     4.6850    -0.2780 C.3   1 <1>   0.2090 
 10 C       -4.7840     3.5160     0.5250 C.ar  1 <1>  -0.1500 
 11 C        1.0880     2.4480     0.6350 C.3   1 <1>   0.1400 
 12 C        0.4970     4.0660    -1.1620 C.3   1 <1>   0.1400 
 13 N        1.5840     3.4750    -0.3290 N.am  1 <1>  -0.6600 
 14 C        2.8160     4.0630    -0.2330 C.2   1 <1>   0.6900 
 15 O        3.0280     5.1590    -0.7120 O.2   1 <1>  -0.5700 
 16 N        3.8340     3.4660     0.4210 N.am  1 <1>  -0.7300 
 17 C        4.6490     2.3670    -0.1260 C.3   1 <1>   0.3000 
 18 C        3.9980     1.6570    -1.3340 C.3   1 <1>  -0.1600 
 19 C        4.8890     1.3380     0.9930 C.3   1 <1>  -0.1600 
 20 C        6.0030     2.9550    -0.5640 C.3   1 <1>  -0.1600 
 21 C        4.9160     0.5310    -1.8480 C.3   1 <1>  -0.0800 
 22 C        5.8110     0.2080     0.4920 C.3   1 <1>  -0.0800 
 23 C        6.9330     1.8380    -1.0760 C.3   1 <1>  -0.0800 
 24 C        5.1500    -0.4860    -0.7140 C.3   1 <1>  -0.1600 
 25 C        6.2670     1.1360    -2.2740 C.3   1 <1>  -0.1600 
 26 C        7.1580     0.8120     0.0510 C.3   1 <1>  -0.1600 
 27 H       -4.0920     0.2870    -0.1730 H     1 <1>   0.1500 
 28 H       -3.3240     5.0190     0.9400 H     1 <1>   0.1500 
 29 H       -6.0200     1.8240     0.0880 H     1 <1>   0.1500 
 30 H       -0.4890     2.1950     2.0810 H     1 <1>   0.0800 
 31 H        0.3720     3.6940     2.2240 H     1 <1>   0.0800 
 32 H       -0.1910     5.5400     0.2340 H     1 <1>   0.0800 
 33 H       -1.4050     5.0230    -0.9020 H     1 <1>   0.0800 
 34 H       -5.6160     4.1890     0.6410 H     1 <1>   0.1500 
 35 H        0.7310     1.5990     0.0810 H     1 <1>   0.0800 
 36 H        1.8850     2.1090     1.2700 H     1 <1>   0.0800 
 37 H        0.8950     4.8190    -1.8200 H     1 <1>   0.0800 
 38 H        0.0610     3.2940    -1.7700 H     1 <1>   0.0800 
 39 H        4.4560     4.1770     0.7950 H     1 <1>   0.3700 
 40 H        3.8270     2.3630    -2.1280 H     1 <1>   0.0800 
 41 H        3.0540     1.2330    -1.0490 H     1 <1>   0.0800 
 42 H        5.3430     1.8200     1.8410 H     1 <1>   0.0800 
 43 H        3.9510     0.9190     1.3070 H     1 <1>   0.0800 
 44 H        6.4740     3.4540     0.2650 H     1 <1>   0.0800 
 45 H        5.8460     3.6780    -1.3460 H     1 <1>   0.0800 
 46 H        4.4550     0.0410    -2.6880 H     1 <1>   0.0800 
 47 H        5.9730    -0.5070     1.2800 H     1 <1>   0.0800 
 48 H        7.8770     2.2590    -1.3800 H     1 <1>   0.0800 
 49 H        5.7820    -1.2830    -1.0660 H     1 <1>   0.0800 
 50 H        4.2120    -0.9220    -0.4160 H     1 <1>   0.0800 
 51 H        6.9130     0.3590    -2.6460 H     1 <1>   0.0800 
 52 H        6.1140     1.8420    -3.0720 H     1 <1>   0.0800 
 53 H        7.8120     0.0300    -0.2940 H     1 <1>   0.0800 
 54 H        7.6360     1.2890     0.8890 H     1 <1>   0.0800 
@<TRIPOS>BOND
  1   1   2  1   
  2   2   3  ar  
  3   2   4  ar  
  4   3   5  1   
  5   3   6  ar  
  6   4   7  ar  
  7   4  27  1   
  8   5   8  1   
  9   5   9  1   
 10   6  10  ar  
 11   6  28  1   
 12   7  10  ar  
 13   7  29  1   
 14   8  11  1   
 15   8  30  1   
 16   8  31  1   
 17   9  12  1   
 18   9  32  1   
 19   9  33  1   
 20  10  34  1   
 21  11  13  1   
 22  11  35  1   
 23  11  36  1   
 24  12  13  1   
 25  12  37  1   
 26  12  38  1   
 27  13  14  am  
 28  14  15  2   
 29  14  16  am  
 30  16  17  1   
 31  16  39  1   
 32  17  18  1   
 33  17  19  1   
 34  17  20  1   
 35  18  21  1   
 36  18  40  1   
 37  18  41  1   
 38  19  22  1   
 39  19  42  1   
 40  19  43  1   
 41  20  23  1   
 42  20  44  1   
 43  20  45  1   
 44  21  24  1   
 45  21  25  1   
 46  21  46  1   
 47  22  24  1   
 48  22  26  1   
 49  22  47  1   
 50  23  25  1   
 51  23  26  1   
 52  23  48  1   
 53  24  49  1   
 54  24  50  1   
 55  25  51  1   
 56  25  52  1   
 57  26  53  1   
 58  26  54  1   
@<TRIPOS>SUBSTRUCTURE
  1 ****  11 GROUP 4 **** **** 0

# MOE 2024.06 (io_trps.svl 2023.06)
