@<TRIPOS>MOLECULE
NONAME
36 36 1 0 0 
SMALL
USER_CHARGES


@<TRIPOS>ATOM
  1 O        0.2070     0.0480    -0.5290 O.2   1 <1>  -0.5700 
  2 C        0.6990     1.1260    -0.2580 C.2   1 <1>   0.5440 
  3 N       -0.1410     2.1750    -0.0210 N.am  1 <1>  -0.7300 
  4 C        2.1400     1.2890    -0.1680 C.ar  1 <1>   0.0860 
  5 C       -1.6050     2.1060    -0.0890 C.3   1 <1>   0.2780 
  6 C        2.9650     0.2060     0.1380 C.ar  1 <1>  -0.1500 
  7 C        2.7620     2.5230    -0.3830 C.ar  1 <1>  -0.1500 
  8 C       -2.1050     3.5010    -0.3930 C.2   1 <1>  -0.2880 
  9 C        4.3360     0.3460     0.2390 C.ar  1 <1>  -0.1500 
 10 C        4.1340     2.6720    -0.2830 C.ar  1 <1>  -0.1500 
 11 C       -2.8440     4.2570     0.4260 C.2   1 <1>  -0.3000 
 12 C        4.9340     1.5780     0.0320 C.ar  1 <1>   0.0830 
 13 O        6.2790     1.6350     0.1490 O.3   1 <1>  -0.3630 
 14 C        6.9980     2.8290    -0.0730 C.3   1 <1>   0.1200 
 15 C        8.5010     2.5590     0.0990 C.3   1 <1>  -0.0800 
 16 C        9.2940     3.8630    -0.0530 C.3   1 <1>  -0.2400 
 17 C        9.0130     1.5210    -0.9110 C.3   1 <1>  -0.2400 
 18 H        0.2200     3.0520     0.3500 H     1 <1>   0.3700 
 19 H       -1.9900     1.7600     0.8550 H     1 <1>   0.0800 
 20 H       -1.9110     1.4180    -0.8610 H     1 <1>   0.0800 
 21 H        2.5170    -0.7600     0.2990 H     1 <1>   0.1500 
 22 H        2.1640     3.3780    -0.6400 H     1 <1>   0.1500 
 23 H       -1.7950     3.8350    -1.3690 H     1 <1>   0.1500 
 24 H        4.9550    -0.5000     0.4770 H     1 <1>   0.1500 
 25 H        4.5630     3.6410    -0.4560 H     1 <1>   0.1500 
 26 H       -3.1870     5.2480     0.1820 H     1 <1>   0.1500 
 27 H       -3.1690     3.9520     1.4060 H     1 <1>   0.1500 
 28 H        6.6640     3.5580     0.6430 H     1 <1>   0.0800 
 29 H        6.7900     3.1680    -1.0730 H     1 <1>   0.0800 
 30 H        8.6610     2.1840     1.0960 H     1 <1>   0.0800 
 31 H        9.1620     4.2760    -1.0380 H     1 <1>   0.0800 
 32 H       10.3430     3.6810     0.1040 H     1 <1>   0.0800 
 33 H        8.9670     4.5880     0.6720 H     1 <1>   0.0800 
 34 H        8.8550     1.8620    -1.9190 H     1 <1>   0.0800 
 35 H        8.4960     0.5860    -0.7810 H     1 <1>   0.0800 
 36 H       10.0640     1.3450    -0.7670 H     1 <1>   0.0800 
@<TRIPOS>BOND
  1   1   2  2   
  2   2   3  am  
  3   2   4  1   
  4   3   5  1   
  5   3  18  1   
  6   4   6  ar  
  7   4   7  ar  
  8   5   8  1   
  9   5  19  1   
 10   5  20  1   
 11   6   9  ar  
 12   6  21  1   
 13   7  10  ar  
 14   7  22  1   
 15   8  11  2   
 16   8  23  1   
 17   9  12  ar  
 18   9  24  1   
 19  10  12  ar  
 20  10  25  1   
 21  11  26  1   
 22  11  27  1   
 23  12  13  1   
 24  13  14  1   
 25  14  15  1   
 26  14  28  1   
 27  14  29  1   
 28  15  16  1   
 29  15  17  1   
 30  15  30  1   
 31  16  31  1   
 32  16  32  1   
 33  16  33  1   
 34  17  34  1   
 35  17  35  1   
 36  17  36  1   
@<TRIPOS>SUBSTRUCTURE
  1 ****   7 GROUP 4 **** **** 0

# MOE 2024.06 (io_trps.svl 2023.06)
