@<TRIPOS>MOLECULE
NONAME
49 51 1 0 0 
SMALL
USER_CHARGES


@<TRIPOS>ATOM
  1 O        1.3640    -0.2960     0.4630 O.2   1 <1>  -0.5700 
  2 C        2.1540    -1.1560     0.8030 C.2   1 <1>   0.5440 
  3 N        3.3970    -0.7310     1.2150 N.am  1 <1>  -0.6600 
  4 C        1.8280    -2.5660     0.6960 C.ar  1 <1>   0.0860 
  5 C        4.5800    -1.1190     0.4000 C.3   1 <1>   0.1400 
  6 C        3.5240     0.6290     1.8140 C.3   1 <1>   0.1400 
  7 C        0.9450    -3.0280    -0.2770 C.ar  1 <1>  -0.1500 
  8 C        2.3870    -3.5160     1.5510 C.ar  1 <1>  -0.1500 
  9 C        4.7960    -0.0820    -0.7250 C.3   1 <1>   0.3430 
 10 C        3.7110     1.6700     0.6950 C.3   1 <1>   0.3430 
 11 C        0.6380    -4.3680    -0.4180 C.ar  1 <1>   0.0830 
 12 C        2.0980    -4.8630     1.4250 C.ar  1 <1>  -0.1500 
 13 N        4.8790     1.3340    -0.2080 N.4   1 <1>  -0.9590 
 14 O       -0.2350    -4.6560    -1.4220 O.3   1 <1>  -0.3620 
 15 C        1.2290    -5.3150     0.4350 C.ar  1 <1>   0.0830 
 16 C        4.9790     2.3080    -1.3320 C.3   1 <1>   0.4860 
 17 C       -1.2150    -5.6580    -1.2550 C.3   1 <1>   0.0400 
 18 O        0.9610    -6.6390     0.2720 O.3   1 <1>  -0.3630 
 19 C        5.2180     3.6940    -0.7730 C.ar  1 <1>  -0.1430 
 20 C        1.5620    -7.6420     1.0600 C.3   1 <1>   0.0400 
 21 C        6.4810     4.0580    -0.3300 C.ar  1 <1>   0.1600 
 22 C        4.1900     4.6160    -0.6880 C.ar  1 <1>  -0.1500 
 23 N        6.7840     5.2260     0.2010 N.ar  1 <1>  -0.6200 
 24 C        4.4980     5.8450    -0.1450 C.ar  1 <1>  -0.1500 
 25 C        5.7900     6.0960     0.2800 C.ar  1 <1>   0.1600 
 26 H        4.4260    -2.0910    -0.0370 H     1 <1>   0.0800 
 27 H        5.4520    -1.1750     1.0290 H     1 <1>   0.0800 
 28 H        4.3550     0.6540     2.4960 H     1 <1>   0.0800 
 29 H        2.6320     0.8620     2.3720 H     1 <1>   0.0800 
 30 H        0.4790    -2.3230    -0.9420 H     1 <1>   0.1500 
 31 H        3.0570    -3.1950     2.3290 H     1 <1>   0.1500 
 32 H        3.9670    -0.1630    -1.4110 H     1 <1>   0.0800 
 33 H        5.6950    -0.3300    -1.2650 H     1 <1>   0.0800 
 34 H        3.8540     2.6410     1.1410 H     1 <1>   0.0800 
 35 H        2.8010     1.7020     0.1180 H     1 <1>   0.0800 
 36 H        2.5610    -5.5460     2.1110 H     1 <1>   0.1500 
 37 H        5.7280     1.4260     0.3620 H     1 <1>   0.4500 
 38 H        4.0680     2.3010    -1.9100 H     1 <1>   0.0800 
 39 H        5.7960     2.0420    -1.9840 H     1 <1>   0.0800 
 40 H       -2.0160    -5.4600    -1.9430 H     1 <1>   0.0800 
 41 H       -1.5800    -5.6300    -0.2430 H     1 <1>   0.0800 
 42 H       -0.7750    -6.6140    -1.4760 H     1 <1>   0.0800 
 43 H        1.2020    -8.5950     0.7180 H     1 <1>   0.0800 
 44 H        1.2820    -7.4950     2.0880 H     1 <1>   0.0800 
 45 H        2.6290    -7.5910     0.9370 H     1 <1>   0.0800 
 46 H        7.2960     3.3580    -0.4100 H     1 <1>   0.1500 
 47 H        3.1890     4.4050    -1.0270 H     1 <1>   0.1500 
 48 H        3.7460     6.6090    -0.0510 H     1 <1>   0.1500 
 49 H        6.0190     7.0600     0.7050 H     1 <1>   0.1500 
@<TRIPOS>BOND
  1   1   2  2   
  2   2   3  am  
  3   2   4  1   
  4   3   5  1   
  5   3   6  1   
  6   4   7  ar  
  7   4   8  ar  
  8   5   9  1   
  9   5  26  1   
 10   5  27  1   
 11   6  10  1   
 12   6  28  1   
 13   6  29  1   
 14   7  11  ar  
 15   7  30  1   
 16   8  12  ar  
 17   8  31  1   
 18   9  13  1   
 19   9  32  1   
 20   9  33  1   
 21  10  13  1   
 22  10  34  1   
 23  10  35  1   
 24  11  14  1   
 25  11  15  ar  
 26  12  15  ar  
 27  12  36  1   
 28  13  16  1   
 29  13  37  1   
 30  14  17  1   
 31  15  18  1   
 32  16  19  1   
 33  16  38  1   
 34  16  39  1   
 35  17  40  1   
 36  17  41  1   
 37  17  42  1   
 38  18  20  1   
 39  19  21  ar  
 40  19  22  ar  
 41  20  43  1   
 42  20  44  1   
 43  20  45  1   
 44  21  23  ar  
 45  21  46  1   
 46  22  24  ar  
 47  22  47  1   
 48  23  25  ar  
 49  24  25  ar  
 50  24  48  1   
 51  25  49  1   
@<TRIPOS>SUBSTRUCTURE
  1 ****   3 GROUP 4 **** **** 0

# MOE 2024.06 (io_trps.svl 2023.06)
