@<TRIPOS>MOLECULE
NONAME
48 50 1 0 0 
SMALL
USER_CHARGES


@<TRIPOS>ATOM
  1 S        0.2970    -0.5680     0.6730 S.o2  1 <1>   1.4470 
  2 O        0.9640    -0.3070    -0.5840 O.2   1 <1>  -0.6500 
  3 O        0.9650    -1.3640     1.6760 O.2   1 <1>  -0.6500 
  4 N        0.0810     0.9910     1.3900 N.am  1 <1>  -0.6930 
  5 C       -1.4050    -1.1430     0.4360 C.ar  1 <1>  -0.0090 
  6 C       -0.7590     1.9330     0.8120 C.ar  1 <1>   0.1990 
  7 C        1.1460     1.4660     2.3280 C.3   1 <1>   0.2570 
  8 C       -2.0250    -1.9630     1.3720 C.ar  1 <1>  -0.1500 
  9 C       -2.1470    -0.7500    -0.6740 C.ar  1 <1>  -0.1500 
 10 C       -1.9840     2.2150     1.4040 C.ar  1 <1>  -0.1500 
 11 C       -0.4130     2.5980    -0.3590 C.ar  1 <1>  -0.1500 
 12 C        2.4120     2.0370     1.6740 C.2   1 <1>   0.5690 
 13 C       -3.3350    -2.3780     1.2060 C.ar  1 <1>  -0.1500 
 14 C       -3.4590    -1.1580    -0.8490 C.ar  1 <1>  -0.1500 
 15 C       -2.8460     3.1380     0.8410 C.ar  1 <1>  -0.1500 
 16 C       -1.2720     3.5220    -0.9250 C.ar  1 <1>  -0.1500 
 17 O        3.0270     2.8770     2.2900 O.2   1 <1>  -0.5700 
 18 N        2.8230     1.6050     0.4480 N.am  1 <1>  -0.5790 
 19 C       -4.0620    -1.9800     0.0980 C.ar  1 <1>   0.0830 
 20 C       -2.4900     3.7930    -0.3260 C.ar  1 <1>  -0.1500 
 21 C        4.0020     2.0790    -0.2850 C.3   1 <1>   0.0490 
 22 O       -5.3380    -2.4260     0.0100 O.3   1 <1>  -0.3630 
 23 C        3.9040     2.1660    -1.7710 C.3   1 <1>  -0.2000 
 24 C        4.7350     1.0940    -1.1330 C.3   1 <1>  -0.2000 
 25 C       -6.1620    -2.0940    -1.0830 C.3   1 <1>   0.1200 
 26 C       -7.5180    -2.7620    -0.8720 C.3   1 <1>  -0.2400 
 27 H        1.4390     0.6650     2.9820 H     1 <1>   0.0800 
 28 H        0.7290     2.2390     2.9480 H     1 <1>   0.0800 
 29 H       -1.4780    -2.2830     2.2440 H     1 <1>   0.1500 
 30 H       -1.6930    -0.1100    -1.4110 H     1 <1>   0.1500 
 31 H       -2.2600     1.7040     2.3090 H     1 <1>   0.1500 
 32 H        0.5300     2.3930    -0.8310 H     1 <1>   0.1500 
 33 H       -3.8040    -3.0140     1.9360 H     1 <1>   0.1500 
 34 H       -3.9900    -0.8270    -1.7210 H     1 <1>   0.1500 
 35 H       -3.7930     3.3470     1.3080 H     1 <1>   0.1500 
 36 H       -0.9930     4.0330    -1.8310 H     1 <1>   0.1500 
 37 H        2.2700     0.9010    -0.0580 H     1 <1>   0.3700 
 38 H       -3.1590     4.5130    -0.7660 H     1 <1>   0.1500 
 39 H        4.5670     2.8300     0.2460 H     1 <1>   0.1000 
 40 H        4.4100     2.9700    -2.2760 H     1 <1>   0.1000 
 41 H        2.9820     1.8890    -2.2510 H     1 <1>   0.1000 
 42 H        4.3880     0.0760    -1.1600 H     1 <1>   0.1000 
 43 H        5.8060     1.1710    -1.2020 H     1 <1>   0.1000 
 44 H       -5.6960    -2.4560    -1.9830 H     1 <1>   0.0800 
 45 H       -6.2670    -1.0240    -1.1180 H     1 <1>   0.0800 
 46 H       -7.4000    -3.8300    -0.8220 H     1 <1>   0.0800 
 47 H       -8.1710    -2.5270    -1.6920 H     1 <1>   0.0800 
 48 H       -7.9670    -2.4070     0.0380 H     1 <1>   0.0800 
@<TRIPOS>BOND
  1   1   2  2   
  2   1   3  2   
  3   1   4  am  
  4   1   5  1   
  5   4   6  1   
  6   4   7  1   
  7   5   8  ar  
  8   5   9  ar  
  9   6  10  ar  
 10   6  11  ar  
 11   7  12  1   
 12   7  27  1   
 13   7  28  1   
 14   8  13  ar  
 15   8  29  1   
 16   9  14  ar  
 17   9  30  1   
 18  10  15  ar  
 19  10  31  1   
 20  11  16  ar  
 21  11  32  1   
 22  12  17  2   
 23  12  18  am  
 24  13  19  ar  
 25  13  33  1   
 26  14  19  ar  
 27  14  34  1   
 28  15  20  ar  
 29  15  35  1   
 30  16  20  ar  
 31  16  36  1   
 32  18  21  1   
 33  18  37  1   
 34  19  22  1   
 35  20  38  1   
 36  21  23  1   
 37  21  24  1   
 38  21  39  1   
 39  22  25  1   
 40  23  24  1   
 41  23  40  1   
 42  23  41  1   
 43  24  42  1   
 44  24  43  1   
 45  25  26  1   
 46  25  44  1   
 47  25  45  1   
 48  26  46  1   
 49  26  47  1   
 50  26  48  1   
@<TRIPOS>SUBSTRUCTURE
  1 ****   4 GROUP 4 **** **** 0

# MOE 2024.06 (io_trps.svl 2023.06)
