@<TRIPOS>MOLECULE
NONAME
29 29 1 0 0 
SMALL
USER_CHARGES


@<TRIPOS>ATOM
  1 S       -1.3050    -2.4510    -2.5340 S.2   1 <1>  -0.6770 
  2 P       -1.7610    -1.6410    -0.8250 P.3   1 <1>   0.8160 
  3 C       -3.2950    -2.2640    -0.1560 C.ar  1 <1>  -0.1390 
  4 C       -1.9080     0.1270    -0.9420 C.3   1 <1>   0.1200 
  5 C       -0.5510    -1.9210     0.4490 C.3   1 <1>   0.1200 
  6 C       -4.0210    -3.2510    -0.8150 C.ar  1 <1>  -0.1500 
  7 C       -3.8230    -1.8030     1.0470 C.ar  1 <1>  -0.1500 
  8 O       -2.1740     0.7620     0.2840 O.3   1 <1>  -0.5600 
  9 O        0.6840    -1.3100     0.1840 O.3   1 <1>  -0.5600 
 10 C       -5.2060    -3.7540    -0.3080 C.ar  1 <1>  -0.1500 
 11 C       -5.0070    -2.2970     1.5670 C.ar  1 <1>  -0.1500 
 12 C       -2.2390     2.1500     0.2020 C.3   1 <1>   0.0400 
 13 C        1.6630    -1.5560     1.1420 C.3   1 <1>   0.0400 
 14 C       -5.7030    -3.2770     0.8880 C.ar  1 <1>  -0.1500 
 15 H       -2.6980     0.4010    -1.6170 H     1 <1>   0.0800 
 16 H       -0.9930     0.5490    -1.3190 H     1 <1>   0.0800 
 17 H       -0.3650    -2.9730     0.5710 H     1 <1>   0.0800 
 18 H       -0.8900    -1.5320     1.3920 H     1 <1>   0.0800 
 19 H       -3.6600    -3.6460    -1.7510 H     1 <1>   0.1500 
 20 H       -3.3090    -1.0370     1.6030 H     1 <1>   0.1500 
 21 H       -5.7390    -4.5180    -0.8470 H     1 <1>   0.1500 
 22 H       -5.3870    -1.9150     2.4990 H     1 <1>   0.1500 
 23 H       -2.4500     2.5350     1.1840 H     1 <1>   0.0800 
 24 H       -3.0270     2.4310    -0.4750 H     1 <1>   0.0800 
 25 H       -1.2910     2.5310    -0.1400 H     1 <1>   0.0800 
 26 H        2.5590    -1.0410     0.8430 H     1 <1>   0.0800 
 27 H        1.8540    -2.6140     1.1920 H     1 <1>   0.0800 
 28 H        1.3310    -1.1830     2.0960 H     1 <1>   0.0800 
 29 H       -6.6250    -3.6640     1.2870 H     1 <1>   0.1500 
@<TRIPOS>BOND
  1   1   2  2   
  2   2   3  1   
  3   2   4  1   
  4   2   5  1   
  5   3   6  ar  
  6   3   7  ar  
  7   4   8  1   
  8   4  15  1   
  9   4  16  1   
 10   5   9  1   
 11   5  17  1   
 12   5  18  1   
 13   6  10  ar  
 14   6  19  1   
 15   7  11  ar  
 16   7  20  1   
 17   8  12  1   
 18   9  13  1   
 19  10  14  ar  
 20  10  21  1   
 21  11  14  ar  
 22  11  22  1   
 23  12  23  1   
 24  12  24  1   
 25  12  25  1   
 26  13  26  1   
 27  13  27  1   
 28  13  28  1   
 29  14  29  1   
@<TRIPOS>SUBSTRUCTURE
  1 ****   3 GROUP 4 **** **** 0

# MOE 2024.06 (io_trps.svl 2023.06)
