@<TRIPOS>MOLECULE
NONAME
35 37 1 0 0 
SMALL
USER_CHARGES


@<TRIPOS>ATOM
  1 N       -6.4320     0.8050    -0.4710 N.pl3 1 <1>  -0.7050 
  2 C       -7.6830     1.2460    -0.4670 C.cat 1 <1>   1.0690 
  3 C       -5.6330     1.8420    -0.0110 C.2   1 <1>   0.1720 
  4 N       -7.7410     2.5000    -0.0340 N.pl3 1 <1>  -0.6430 
  5 N       -8.8880     0.7440    -0.7890 N.pl3 1 <1>  -0.5810 
  6 C       -6.4450     2.8880     0.2590 C.2   1 <1>   0.1900 
  7 C       -4.1100     1.7030     0.1250 C.3   1 <1>   0.1580 
  8 C       -9.0800     2.8670    -0.0670 C.ar  1 <1>   0.3790 
  9 C       -9.7930     1.7710    -0.5380 C.ar  1 <1>   0.3020 
 10 C       -9.2310    -0.6050    -1.3030 C.3   1 <1>   0.0770 
 11 C       -3.4950     1.3890    -1.2470 C.3   1 <1>  -0.2490 
 12 C       -3.4890     3.0040     0.6560 C.3   1 <1>  -0.2490 
 13 C       -3.7790     0.5650     1.1000 C.3   1 <1>  -0.2490 
 14 C       -9.7200     4.0500     0.2710 C.ar  1 <1>  -0.1600 
 15 C      -11.1750     1.8410    -0.6800 C.ar  1 <1>  -0.1600 
 16 C      -11.0930     4.1170     0.1290 C.ar  1 <1>  -0.1600 
 17 C      -11.8150     3.0190    -0.3440 C.ar  1 <1>  -0.1600 
 18 H       -6.1230    -0.1210    -0.7580 H     1 <1>   0.4430 
 19 H       -6.2060     3.8710     0.6320 H     1 <1>   0.1400 
 20 H       -8.3450    -1.2070    -1.4080 H     1 <1>   0.0690 
 21 H       -9.7090    -0.5170    -2.2650 H     1 <1>   0.0690 
 22 H       -9.9070    -1.0940    -0.6220 H     1 <1>   0.0690 
 23 H       -3.7260     2.1690    -1.9510 H     1 <1>   0.0690 
 24 H       -3.8690     0.4580    -1.6350 H     1 <1>   0.0690 
 25 H       -2.4250     1.3110    -1.1700 H     1 <1>   0.0690 
 26 H       -2.4210     2.8990     0.7480 H     1 <1>   0.0690 
 27 H       -3.8820     3.2480     1.6270 H     1 <1>   0.0690 
 28 H       -3.6840     3.8230    -0.0130 H     1 <1>   0.0690 
 29 H       -2.7130     0.4720     1.2210 H     1 <1>   0.0690 
 30 H       -4.1560    -0.3750     0.7410 H     1 <1>   0.0690 
 31 H       -4.2110     0.7590     2.0670 H     1 <1>   0.0690 
 32 H       -9.1550     4.8900     0.6340 H     1 <1>   0.1400 
 33 H      -11.7290     0.9940    -1.0440 H     1 <1>   0.1400 
 34 H      -11.6200     5.0230     0.3830 H     1 <1>   0.1400 
 35 H      -12.8860     3.0990    -0.4450 H     1 <1>   0.1400 
@<TRIPOS>BOND
  1   1   2  ar  
  2   1   3  1   
  3   1  18  1   
  4   2   4  ar  
  5   2   5  ar  
  6   3   6  2   
  7   3   7  1   
  8   4   6  1   
  9   4   8  1   
 10   5   9  1   
 11   5  10  1   
 12   6  19  1   
 13   7  11  1   
 14   7  12  1   
 15   7  13  1   
 16   8   9  ar  
 17   8  14  ar  
 18   9  15  ar  
 19  10  20  1   
 20  10  21  1   
 21  10  22  1   
 22  11  23  1   
 23  11  24  1   
 24  11  25  1   
 25  12  26  1   
 26  12  27  1   
 27  12  28  1   
 28  13  29  1   
 29  13  30  1   
 30  13  31  1   
 31  14  16  ar  
 32  14  32  1   
 33  15  17  ar  
 34  15  33  1   
 35  16  17  ar  
 36  16  34  1   
 37  17  35  1   
@<TRIPOS>SUBSTRUCTURE
  1 ****   4 GROUP 4 **** **** 0

# MOE 2024.06 (io_trps.svl 2023.06)
