@<TRIPOS>MOLECULE
NONAME
45 47 1 0 0 
SMALL
USER_CHARGES


@<TRIPOS>ATOM
  1 CL      -1.6870    -0.8970    -3.7270 Cl    1 <1>  -0.1770 
  2 C       -2.5290    -0.2970    -2.3210 C.ar  1 <1>   0.1770 
  3 C       -3.2530    -1.1740    -1.5380 C.ar  1 <1>  -0.1500 
  4 C       -2.4590     1.0450    -2.0120 C.ar  1 <1>  -0.1500 
  5 C       -3.9300    -0.7280    -0.4070 C.ar  1 <1>  -0.0090 
  6 C       -3.1330     1.5120    -0.9000 C.ar  1 <1>  -0.1500 
  7 S       -4.8720    -1.9210     0.5900 S.o2  1 <1>   1.4470 
  8 C       -3.8680     0.6340    -0.1020 C.ar  1 <1>   0.0830 
  9 O       -5.0550    -1.5210     1.9690 O.2   1 <1>  -0.6500 
 10 O       -4.3060    -3.2310     0.3460 O.2   1 <1>  -0.6500 
 11 N       -6.4150    -1.9330    -0.1180 N.am  1 <1>  -0.8490 
 12 O       -4.5510     1.0770     0.9820 O.3   1 <1>  -0.3630 
 13 C       -7.1590    -0.7020     0.1700 C.3   1 <1>   0.1960 
 14 C       -7.1640    -3.1250     0.2910 C.3   1 <1>   0.1960 
 15 C       -4.2340     2.2950     1.6210 C.3   1 <1>   0.0400 
 16 C       -8.5030    -0.6980    -0.5620 C.3   1 <1>  -0.1600 
 17 C       -8.5110    -3.1950    -0.4340 C.3   1 <1>  -0.1600 
 18 C       -9.3440    -1.9280    -0.1880 C.3   1 <1>  -0.0190 
 19 C      -10.6670    -1.9660    -0.9510 C.2   1 <1>   0.5690 
 20 O      -10.6550    -1.9860    -2.1590 O.2   1 <1>  -0.5700 
 21 N      -11.8250    -1.9770    -0.2360 N.am  1 <1>  -0.5790 
 22 C      -13.1780    -2.0120    -0.8070 C.3   1 <1>   0.0490 
 23 C      -14.2590    -1.2700    -0.0950 C.3   1 <1>  -0.2000 
 24 C      -14.2310    -2.7690    -0.0700 C.3   1 <1>  -0.2000 
 25 H       -3.2860    -2.2150    -1.8120 H     1 <1>   0.1500 
 26 H       -1.8890     1.7090    -2.6380 H     1 <1>   0.1500 
 27 H       -3.0820     2.5610    -0.6750 H     1 <1>   0.1500 
 28 H       -6.5940     0.1510    -0.1640 H     1 <1>   0.0800 
 29 H       -7.3180    -0.6050     1.2320 H     1 <1>   0.0800 
 30 H       -7.3150    -3.1110     1.3590 H     1 <1>   0.0800 
 31 H       -6.6010    -4.0110     0.0450 H     1 <1>   0.0800 
 32 H       -4.7810     2.3370     2.5460 H     1 <1>   0.0800 
 33 H       -4.5280     3.1120     0.9870 H     1 <1>   0.0800 
 34 H       -3.1770     2.3210     1.8220 H     1 <1>   0.0800 
 35 H       -8.3190    -0.6890    -1.6230 H     1 <1>   0.0800 
 36 H       -9.0410     0.2000    -0.3160 H     1 <1>   0.0800 
 37 H       -9.0530    -4.0600    -0.0950 H     1 <1>   0.0800 
 38 H       -8.3300    -3.3150    -1.4890 H     1 <1>   0.0800 
 39 H       -9.5610    -1.8730     0.8640 H     1 <1>   0.0800 
 40 H      -11.7930    -1.9610     0.7820 H     1 <1>   0.3700 
 41 H      -13.1870    -2.0300    -1.8870 H     1 <1>   0.1000 
 42 H      -15.0210    -0.7860    -0.6810 H     1 <1>   0.1000 
 43 H      -14.0160    -0.7250     0.8000 H     1 <1>   0.1000 
 44 H      -13.9690    -3.2740     0.8430 H     1 <1>   0.1000 
 45 H      -14.9740    -3.3010    -0.6390 H     1 <1>   0.1000 
@<TRIPOS>BOND
  1   1   2  1   
  2   2   3  ar  
  3   2   4  ar  
  4   3   5  ar  
  5   3  25  1   
  6   4   6  ar  
  7   4  26  1   
  8   5   7  1   
  9   5   8  ar  
 10   6   8  ar  
 11   6  27  1   
 12   7   9  2   
 13   7  10  2   
 14   7  11  am  
 15   8  12  1   
 16  11  13  1   
 17  11  14  1   
 18  12  15  1   
 19  13  16  1   
 20  13  28  1   
 21  13  29  1   
 22  14  17  1   
 23  14  30  1   
 24  14  31  1   
 25  15  32  1   
 26  15  33  1   
 27  15  34  1   
 28  16  18  1   
 29  16  35  1   
 30  16  36  1   
 31  17  18  1   
 32  17  37  1   
 33  17  38  1   
 34  18  19  1   
 35  18  39  1   
 36  19  20  2   
 37  19  21  am  
 38  21  22  1   
 39  21  40  1   
 40  22  23  1   
 41  22  24  1   
 42  22  41  1   
 43  23  24  1   
 44  23  42  1   
 45  23  43  1   
 46  24  44  1   
 47  24  45  1   
@<TRIPOS>SUBSTRUCTURE
  1 ****  13 GROUP 4 **** **** 0

# MOE 2024.06 (io_trps.svl 2023.06)
