@<TRIPOS>MOLECULE
NONAME
42 44 1 0 0 
SMALL
USER_CHARGES


@<TRIPOS>ATOM
  1 CL       3.6250    -3.9850    -2.3000 Cl    1 <1>  -0.1770 
  2 C        2.1230    -3.5950    -1.4840 C.ar  1 <1>   0.1770 
  3 C        2.1560    -2.8140    -0.3290 C.ar  1 <1>   0.1170 
  4 C        0.9410    -4.0810    -2.0090 C.ar  1 <1>  -0.1500 
  5 N        3.3860    -2.3390     0.1550 N.am  1 <1>  -0.5470 
  6 C        0.9430    -2.5340     0.2920 C.ar  1 <1>  -0.1500 
  7 C       -0.2540    -3.7900    -1.3740 C.ar  1 <1>  -0.1500 
  8 C        3.8020    -1.9160     1.3830 C.2   1 <1>   0.5690 
  9 C       -0.2490    -3.0170    -0.2240 C.ar  1 <1>  -0.1500 
 10 O        3.0830    -1.8150     2.3480 O.2   1 <1>  -0.5700 
 11 C        5.2880    -1.5740     1.5120 C.3   1 <1>   0.1710 
 12 N        6.1380    -2.1950     0.4490 N.3   1 <1>  -0.8100 
 13 C        7.4570    -1.5300     0.3760 C.3   1 <1>   0.1100 
 14 C        6.3190    -3.6470     0.6880 C.3   1 <1>   0.1100 
 15 C        8.3230    -2.1270    -0.7460 C.3   1 <1>   0.1400 
 16 C        7.1600    -4.3060    -0.4190 C.3   1 <1>   0.1400 
 17 N        8.4700    -3.6040    -0.5690 N.am  1 <1>  -0.6600 
 18 C        9.6750    -4.1770    -0.2140 C.2   1 <1>   0.7150 
 19 O       10.5640    -3.4460     0.1890 O.2   1 <1>  -0.5700 
 20 C        9.8900    -5.6060    -0.3210 C.2   1 <1>   0.0550 
 21 O       10.6270    -6.2610     0.5730 O.3   1 <1>  -0.2800 
 22 C        9.4460    -6.5050    -1.2460 C.2   1 <1>  -0.1500 
 23 C       10.6620    -7.5330     0.2490 C.2   1 <1>  -0.0100 
 24 C        9.9460    -7.7530    -0.8740 C.2   1 <1>  -0.1500 
 25 H        0.9570    -4.6800    -2.9020 H     1 <1>   0.1500 
 26 H        4.1810    -2.4260    -0.4910 H     1 <1>   0.3700 
 27 H        0.9240    -1.9320     1.1840 H     1 <1>   0.1500 
 28 H       -1.1830    -4.1620    -1.7700 H     1 <1>   0.1500 
 29 H       -1.1760    -2.7880     0.2730 H     1 <1>   0.1500 
 30 H        5.6340    -1.8750     2.4850 H     1 <1>   0.0800 
 31 H        5.3680    -0.5030     1.4510 H     1 <1>   0.0800 
 32 H        7.9790    -1.6330     1.3130 H     1 <1>   0.0800 
 33 H        7.3210    -0.4800     0.1810 H     1 <1>   0.0800 
 34 H        5.3600    -4.1360     0.7260 H     1 <1>   0.0800 
 35 H        6.8070    -3.8050     1.6360 H     1 <1>   0.0800 
 36 H        9.2860    -1.6470    -0.7500 H     1 <1>   0.0800 
 37 H        7.8560    -1.9310    -1.6950 H     1 <1>   0.0800 
 38 H        6.6230    -4.2600    -1.3510 H     1 <1>   0.0800 
 39 H        7.3060    -5.3410    -0.1680 H     1 <1>   0.0800 
 40 H        8.8340    -6.3100    -2.1090 H     1 <1>   0.1500 
 41 H       11.2200    -8.2140     0.8680 H     1 <1>   0.1500 
 42 H        9.7820    -8.6810    -1.3940 H     1 <1>   0.1500 
@<TRIPOS>BOND
  1   1   2  1   
  2   2   3  ar  
  3   2   4  ar  
  4   3   5  1   
  5   3   6  ar  
  6   4   7  ar  
  7   4  25  1   
  8   5   8  am  
  9   5  26  1   
 10   6   9  ar  
 11   6  27  1   
 12   7   9  ar  
 13   7  28  1   
 14   8  10  2   
 15   8  11  1   
 16   9  29  1   
 17  11  12  1   
 18  11  30  1   
 19  11  31  1   
 20  12  13  1   
 21  12  14  1   
 22  13  15  1   
 23  13  32  1   
 24  13  33  1   
 25  14  16  1   
 26  14  34  1   
 27  14  35  1   
 28  15  17  1   
 29  15  36  1   
 30  15  37  1   
 31  16  17  1   
 32  16  38  1   
 33  16  39  1   
 34  17  18  am  
 35  18  19  2   
 36  18  20  1   
 37  20  21  1   
 38  20  22  2   
 39  21  23  1   
 40  22  24  1   
 41  22  40  1   
 42  23  24  2   
 43  23  41  1   
 44  24  42  1   
@<TRIPOS>SUBSTRUCTURE
  1 ****  14 GROUP 4 **** **** 0

# MOE 2024.06 (io_trps.svl 2023.06)
