@<TRIPOS>MOLECULE
NONAME
53 56 1 0 0 
SMALL
USER_CHARGES


@<TRIPOS>ATOM
  1 F       -1.5070    -1.2100     1.5190 F     1 <1>  -0.1900 
  2 C       -0.9530    -2.0890     0.7270 C.ar  1 <1>   0.1900 
  3 C       -1.4980    -2.3180    -0.5330 C.ar  1 <1>  -0.1440 
  4 C        0.1640    -2.7560     1.1890 C.ar  1 <1>  -0.1500 
  5 C       -0.8820    -3.2520    -1.3600 C.ar  1 <1>  -0.1500 
  6 C       -2.7330    -1.5620    -1.0070 C.3   1 <1>   0.2540 
  7 C        0.7420    -3.6790     0.3410 C.ar  1 <1>   0.1900 
  8 C        0.2420    -3.9390    -0.9230 C.ar  1 <1>  -0.1500 
  9 N       -3.9660    -2.0240    -0.3190 N.3   1 <1>  -0.8100 
 10 F        1.7980    -4.3300     0.7450 F     1 <1>  -0.1900 
 11 C       -5.2180    -1.3070    -0.7320 C.3   1 <1>   0.1900 
 12 C       -4.1250    -3.4980    -0.4310 C.3   1 <1>   0.1100 
 13 C       -5.0870     0.2400    -0.6280 C.3   1 <1>  -0.0800 
 14 C       -6.4400    -1.7990     0.1120 C.3   1 <1>   0.4230 
 15 C       -5.4290    -4.0440     0.1900 C.3   1 <1>   0.3430 
 16 C       -4.6940     0.7300     0.7840 C.3   1 <1>  -0.1600 
 17 C       -6.3580     0.9770    -1.1020 C.3   1 <1>  -0.1600 
 18 N       -6.1780    -2.9980     0.9560 N.4   1 <1>  -0.9590 
 19 C       -7.6860    -2.1970    -0.6760 C.3   1 <1>  -0.1600 
 20 C       -4.4950     2.2510     0.8090 C.3   1 <1>  -0.1600 
 21 C       -6.1520     2.4980    -1.0890 C.3   1 <1>  -0.1600 
 22 C       -7.5040    -3.4720     1.4120 C.3   1 <1>   0.3430 
 23 C       -8.4570    -3.1330     0.2650 C.3   1 <1>  -0.1600 
 24 C       -5.7420     2.9870     0.3050 C.3   1 <1>  -0.1600 
 25 H        0.5680    -2.5640     2.1660 H     1 <1>   0.1500 
 26 H       -1.2690    -3.4500    -2.3450 H     1 <1>   0.1500 
 27 H       -2.8460    -1.6730    -2.0720 H     1 <1>   0.0800 
 28 H       -2.5620    -0.5210    -0.8000 H     1 <1>   0.0800 
 29 H        0.7300    -4.6640    -1.5510 H     1 <1>   0.1500 
 30 H       -5.4060    -1.5400    -1.7670 H     1 <1>   0.0800 
 31 H       -3.3060    -3.9830     0.0710 H     1 <1>   0.0800 
 32 H       -4.0840    -3.7930    -1.4660 H     1 <1>   0.0800 
 33 H       -4.3160     0.5490    -1.3110 H     1 <1>   0.0800 
 34 H       -6.7260    -0.9970     0.7700 H     1 <1>   0.0800 
 35 H       -5.1890    -4.8730     0.8350 H     1 <1>   0.0800 
 36 H       -6.0510    -4.4220    -0.6040 H     1 <1>   0.0800 
 37 H       -3.7780     0.2610     1.1010 H     1 <1>   0.0800 
 38 H       -5.4530     0.4730     1.5000 H     1 <1>   0.0800 
 39 H       -7.1920     0.7550    -0.4610 H     1 <1>   0.0800 
 40 H       -6.6100     0.6700    -2.1030 H     1 <1>   0.0800 
 41 H       -5.5590    -2.6890     1.7190 H     1 <1>   0.4500 
 42 H       -7.4080    -2.7210    -1.5740 H     1 <1>   0.0800 
 43 H       -8.2710    -1.3370    -0.9490 H     1 <1>   0.0800 
 44 H       -3.6540     2.5110     0.1880 H     1 <1>   0.0800 
 45 H       -4.2690     2.5700     1.8120 H     1 <1>   0.0800 
 46 H       -7.0610     2.9900    -1.3890 H     1 <1>   0.0800 
 47 H       -5.3860     2.7640    -1.7980 H     1 <1>   0.0800 
 48 H       -7.7990    -2.9280     2.2960 H     1 <1>   0.0800 
 49 H       -7.4980    -4.5270     1.6320 H     1 <1>   0.0800 
 50 H       -8.7620    -4.0280    -0.2490 H     1 <1>   0.0800 
 51 H       -9.3370    -2.6520     0.6580 H     1 <1>   0.0800 
 52 H       -5.5460     4.0450     0.2720 H     1 <1>   0.0800 
 53 H       -6.5540     2.8270     0.9940 H     1 <1>   0.0800 
@<TRIPOS>BOND
  1   1   2  1   
  2   2   3  ar  
  3   2   4  ar  
  4   3   5  ar  
  5   3   6  1   
  6   4   7  ar  
  7   4  25  1   
  8   5   8  ar  
  9   5  26  1   
 10   6   9  1   
 11   6  27  1   
 12   6  28  1   
 13   7   8  ar  
 14   7  10  1   
 15   8  29  1   
 16   9  11  1   
 17   9  12  1   
 18  11  13  1   
 19  11  14  1   
 20  11  30  1   
 21  12  15  1   
 22  12  31  1   
 23  12  32  1   
 24  13  16  1   
 25  13  17  1   
 26  13  33  1   
 27  14  18  1   
 28  14  19  1   
 29  14  34  1   
 30  15  18  1   
 31  15  35  1   
 32  15  36  1   
 33  16  20  1   
 34  16  37  1   
 35  16  38  1   
 36  17  21  1   
 37  17  39  1   
 38  17  40  1   
 39  18  22  1   
 40  18  41  1   
 41  19  23  1   
 42  19  42  1   
 43  19  43  1   
 44  20  24  1   
 45  20  44  1   
 46  20  45  1   
 47  21  24  1   
 48  21  46  1   
 49  21  47  1   
 50  22  23  1   
 51  22  48  1   
 52  22  49  1   
 53  23  50  1   
 54  23  51  1   
 55  24  52  1   
 56  24  53  1   
@<TRIPOS>SUBSTRUCTURE
  1 ****   9 GROUP 4 **** **** 0

# MOE 2024.06 (io_trps.svl 2023.06)
