@<TRIPOS>MOLECULE
NONAME
47 49 1 0 0 
SMALL
USER_CHARGES


@<TRIPOS>ATOM
  1 F       -1.7390     0.9420    -0.0480 F     1 <1>  -0.1900 
  2 C       -1.1560     2.0860    -0.2920 C.ar  1 <1>   0.1900 
  3 C       -1.6960     3.2410     0.2520 C.ar  1 <1>  -0.1440 
  4 C       -0.0330     2.0950    -1.0950 C.ar  1 <1>  -0.1500 
  5 C       -1.0710     4.4490    -0.0280 C.ar  1 <1>  -0.1500 
  6 C       -2.9320     3.1750     1.1240 C.3   1 <1>   0.4870 
  7 C        0.5760     3.3080    -1.3670 C.ar  1 <1>  -0.1500 
  8 C        0.0570     4.4780    -0.8340 C.ar  1 <1>  -0.1500 
  9 N       -4.0880     2.7320     0.3040 N.4   1 <1>  -0.9590 
 10 C       -4.3780     3.6930    -0.8240 C.3   1 <1>   0.3430 
 11 C       -5.3150     2.5220     1.1490 C.3   1 <1>   0.3430 
 12 C       -5.5790     3.2600    -1.6900 C.3   1 <1>   0.2090 
 13 C       -6.5360     2.0540     0.3300 C.3   1 <1>   0.2090 
 14 N       -6.7770     2.9070    -0.8710 N.pl3 1 <1>  -0.8380 
 15 C       -7.7840     3.8770    -0.7660 C.ar  1 <1>   0.1000 
 16 C       -7.6670     5.0630    -0.0170 C.ar  1 <1>   0.0830 
 17 C       -8.9650     3.6340    -1.4520 C.ar  1 <1>  -0.1500 
 18 O       -6.4960     5.2980     0.6570 O.3   1 <1>  -0.3630 
 19 C       -8.7330     5.9580     0.0200 C.ar  1 <1>  -0.1500 
 20 C      -10.0180     4.5290    -1.4100 C.ar  1 <1>  -0.1500 
 21 C       -6.2990     6.4980     1.3710 C.3   1 <1>   0.1200 
 22 C       -9.9020     5.6920    -0.6730 C.ar  1 <1>  -0.1500 
 23 C       -4.8930     6.4720     1.9630 C.3   1 <1>  -0.2400 
 24 H        0.3580     1.1760    -1.4980 H     1 <1>   0.1500 
 25 H       -1.4460     5.3750     0.3750 H     1 <1>   0.1500 
 26 H       -3.1330     4.1440     1.5510 H     1 <1>   0.0800 
 27 H       -2.7610     2.4760     1.9260 H     1 <1>   0.0800 
 28 H        1.4550     3.3430    -1.9900 H     1 <1>   0.1500 
 29 H        0.5420     5.4170    -1.0480 H     1 <1>   0.1500 
 30 H       -3.8270     1.8310    -0.1200 H     1 <1>   0.4500 
 31 H       -3.5130     3.7870    -1.4580 H     1 <1>   0.0800 
 32 H       -4.5920     4.6670    -0.4200 H     1 <1>   0.0800 
 33 H       -5.5780     3.4440     1.6380 H     1 <1>   0.0800 
 34 H       -5.1140     1.7920     1.9160 H     1 <1>   0.0800 
 35 H       -5.3040     2.4100    -2.2890 H     1 <1>   0.0800 
 36 H       -5.8330     4.0610    -2.3640 H     1 <1>   0.0800 
 37 H       -7.4100     2.0730     0.9590 H     1 <1>   0.0800 
 38 H       -6.3900     1.0370     0.0110 H     1 <1>   0.0800 
 39 H       -9.0550     2.7290    -2.0250 H     1 <1>   0.1500 
 40 H       -8.6890     6.8720     0.5790 H     1 <1>   0.1500 
 41 H      -10.9250     4.3190    -1.9500 H     1 <1>   0.1500 
 42 H       -7.0390     6.5590     2.1510 H     1 <1>   0.0800 
 43 H       -6.4090     7.3260     0.6900 H     1 <1>   0.0800 
 44 H      -10.7220     6.3890    -0.6390 H     1 <1>   0.1500 
 45 H       -4.7890     5.6430     2.6390 H     1 <1>   0.0800 
 46 H       -4.7230     7.3800     2.5150 H     1 <1>   0.0800 
 47 H       -4.1600     6.4120     1.1800 H     1 <1>   0.0800 
@<TRIPOS>BOND
  1   1   2  1   
  2   2   3  ar  
  3   2   4  ar  
  4   3   5  ar  
  5   3   6  1   
  6   4   7  ar  
  7   4  24  1   
  8   5   8  ar  
  9   5  25  1   
 10   6   9  1   
 11   6  26  1   
 12   6  27  1   
 13   7   8  ar  
 14   7  28  1   
 15   8  29  1   
 16   9  10  1   
 17   9  11  1   
 18   9  30  1   
 19  10  12  1   
 20  10  31  1   
 21  10  32  1   
 22  11  13  1   
 23  11  33  1   
 24  11  34  1   
 25  12  14  1   
 26  12  35  1   
 27  12  36  1   
 28  13  14  1   
 29  13  37  1   
 30  13  38  1   
 31  14  15  1   
 32  15  16  ar  
 33  15  17  ar  
 34  16  18  1   
 35  16  19  ar  
 36  17  20  ar  
 37  17  39  1   
 38  18  21  1   
 39  19  22  ar  
 40  19  40  1   
 41  20  22  ar  
 42  20  41  1   
 43  21  23  1   
 44  21  42  1   
 45  21  43  1   
 46  22  44  1   
 47  23  45  1   
 48  23  46  1   
 49  23  47  1   
@<TRIPOS>SUBSTRUCTURE
  1 ****  10 GROUP 4 **** **** 0

# MOE 2024.06 (io_trps.svl 2023.06)
