@<TRIPOS>MOLECULE
NONAME
49 51 1 0 0 
SMALL
USER_CHARGES


@<TRIPOS>ATOM
  1 F        0.5240     0.0420     0.4330 F     1 <1>  -0.1900 
  2 C        1.6730    -0.5730     0.4290 C.ar  1 <1>   0.1900 
  3 C        2.3800    -0.6790     1.6110 C.ar  1 <1>  -0.1500 
  4 C        2.1450    -1.1000    -0.7580 C.ar  1 <1>  -0.1500 
  5 C        3.6010    -1.3310     1.5950 C.ar  1 <1>  -0.1500 
  6 C        3.3680    -1.7490    -0.7550 C.ar  1 <1>  -0.1500 
  7 C        4.1230    -1.8700     0.4170 C.ar  1 <1>   0.0860 
  8 C        5.4080    -2.5430     0.4190 C.2   1 <1>   0.5440 
  9 O        5.5640    -3.5020     1.1500 O.2   1 <1>  -0.5700 
 10 N        6.4570    -2.1240    -0.3770 N.am  1 <1>  -0.6600 
 11 C        6.5060    -0.7940    -1.0470 C.3   1 <1>   0.1400 
 12 C        7.7180    -2.9110    -0.4770 C.3   1 <1>   0.1400 
 13 C        7.6610     0.0280    -0.4700 C.3   1 <1>  -0.1600 
 14 C        8.8770    -2.1030     0.1120 C.3   1 <1>  -0.1600 
 15 C        9.0060    -0.7240    -0.5600 C.3   1 <1>  -0.0190 
 16 C       10.1730     0.0690     0.0330 C.2   1 <1>   0.5690 
 17 O        9.9550     0.9090     0.8730 O.2   1 <1>  -0.5700 
 18 N       11.4260    -0.2390    -0.4240 N.am  1 <1>  -0.5470 
 19 C       12.6910     0.2870    -0.1120 C.ar  1 <1>   0.1170 
 20 C       13.8310    -0.4900    -0.3350 C.ar  1 <1>  -0.1430 
 21 C       12.8490     1.5740     0.3940 C.ar  1 <1>  -0.1500 
 22 C       15.0840     0.0290    -0.0500 C.ar  1 <1>  -0.1500 
 23 C       13.7330    -1.9080    -0.8830 C.3   1 <1>  -0.0970 
 24 C       14.1000     2.0880     0.6820 C.ar  1 <1>  -0.1430 
 25 C       15.2200     1.3090     0.4550 C.ar  1 <1>  -0.1500 
 26 C       14.2460     3.4940     1.2370 C.3   1 <1>  -0.0970 
 27 H        1.9800    -0.2630     2.5180 H     1 <1>   0.1500 
 28 H        1.5630    -1.0050    -1.6570 H     1 <1>   0.1500 
 29 H        4.1690    -1.4340     2.5050 H     1 <1>   0.1500 
 30 H        3.7510    -2.1740    -1.6660 H     1 <1>   0.1500 
 31 H        5.5880    -0.2530    -0.9030 H     1 <1>   0.0800 
 32 H        6.6480    -0.9390    -2.1040 H     1 <1>   0.0800 
 33 H        7.9090    -3.1330    -1.5130 H     1 <1>   0.0800 
 34 H        7.6280    -3.8480     0.0470 H     1 <1>   0.0800 
 35 H        7.4390     0.2540     0.5590 H     1 <1>   0.0800 
 36 H        7.7330     0.9620    -0.9980 H     1 <1>   0.0800 
 37 H        9.7890    -2.6610    -0.0060 H     1 <1>   0.0800 
 38 H        8.7080    -1.9770     1.1680 H     1 <1>   0.0800 
 39 H        9.2190    -0.8760    -1.6030 H     1 <1>   0.0800 
 40 H       11.4670    -1.0270    -1.0630 H     1 <1>   0.3700 
 41 H       11.9830     2.1860     0.5620 H     1 <1>   0.1500 
 42 H       15.9690    -0.5590    -0.2180 H     1 <1>   0.1500 
 43 H       13.0940    -2.5030    -0.2550 H     1 <1>   0.0800 
 44 H       14.7000    -2.3770    -0.9120 H     1 <1>   0.0800 
 45 H       13.3370    -1.8920    -1.8830 H     1 <1>   0.0800 
 46 H       16.2010     1.6950     0.6710 H     1 <1>   0.1500 
 47 H       13.3370     3.8050     1.7190 H     1 <1>   0.0800 
 48 H       14.4680     4.1780     0.4380 H     1 <1>   0.0800 
 49 H       15.0410     3.5290     1.9590 H     1 <1>   0.0800 
@<TRIPOS>BOND
  1   1   2  1   
  2   2   3  ar  
  3   2   4  ar  
  4   3   5  ar  
  5   3  27  1   
  6   4   6  ar  
  7   4  28  1   
  8   5   7  ar  
  9   5  29  1   
 10   6   7  ar  
 11   6  30  1   
 12   7   8  1   
 13   8   9  2   
 14   8  10  am  
 15  10  11  1   
 16  10  12  1   
 17  11  13  1   
 18  11  31  1   
 19  11  32  1   
 20  12  14  1   
 21  12  33  1   
 22  12  34  1   
 23  13  15  1   
 24  13  35  1   
 25  13  36  1   
 26  14  15  1   
 27  14  37  1   
 28  14  38  1   
 29  15  16  1   
 30  15  39  1   
 31  16  17  2   
 32  16  18  am  
 33  18  19  1   
 34  18  40  1   
 35  19  20  ar  
 36  19  21  ar  
 37  20  22  ar  
 38  20  23  1   
 39  21  24  ar  
 40  21  41  1   
 41  22  25  ar  
 42  22  42  1   
 43  23  43  1   
 44  23  44  1   
 45  23  45  1   
 46  24  25  ar  
 47  24  26  1   
 48  25  46  1   
 49  26  47  1   
 50  26  48  1   
 51  26  49  1   
@<TRIPOS>SUBSTRUCTURE
  1 ****  15 GROUP 4 **** **** 0

# MOE 2024.06 (io_trps.svl 2023.06)
