@<TRIPOS>MOLECULE
NONAME
46 47 1 0 0 
SMALL
USER_CHARGES


@<TRIPOS>ATOM
  1 O       -0.0880    -0.4280     1.0580 O.2   1 <1>  -0.5700 
  2 C       -0.4650     0.4990     0.3710 C.2   1 <1>   0.6900 
  3 N       -1.7630     0.6600    -0.0100 N.am  1 <1>  -0.5470 
  4 N        0.4270     1.4320    -0.0430 N.am  1 <1>  -0.7300 
  5 C       -2.9330    -0.0950     0.1690 C.ar  1 <1>   0.1170 
  6 C        1.8460     1.4150     0.3320 C.3   1 <1>   0.2200 
  7 C       -4.1990     0.5000    -0.0320 C.ar  1 <1>   0.0860 
  8 C       -2.8640    -1.4400     0.5340 C.ar  1 <1>  -0.1500 
  9 C        2.3900     2.8400     0.3730 C.3   1 <1>  -0.1600 
 10 C        2.6230     0.5680    -0.6730 C.3   1 <1>  -0.1600 
 11 C       -4.3570     1.8890    -0.4320 C.2   1 <1>   0.6340 
 12 C       -5.3330    -0.2990     0.1650 C.ar  1 <1>  -0.1500 
 13 C       -4.0000    -2.1980     0.7180 C.ar  1 <1>  -0.1500 
 14 C        3.8840     2.8240     0.6910 C.3   1 <1>   0.3430 
 15 C        4.1090     0.5790    -0.3340 C.3   1 <1>   0.3430 
 16 O       -3.4500     2.5970    -0.8340 O.2   1 <1>  -0.5700 
 17 O       -5.5810     2.4270    -0.3580 O.3   1 <1>  -0.4300 
 18 C       -5.2430    -1.6240     0.5350 C.ar  1 <1>  -0.1500 
 19 N        4.6160     1.9850    -0.3100 N.4   1 <1>  -0.9590 
 20 C       -5.8390     3.7690    -0.7230 C.3   1 <1>   0.0400 
 21 C        6.0850     1.9940    -0.0790 C.3   1 <1>   0.3430 
 22 C        6.6610     3.3490    -0.4750 C.3   1 <1>  -0.2400 
 23 H       -1.9500     1.5780    -0.4270 H     1 <1>   0.3700 
 24 H        0.1140     2.1590    -0.6850 H     1 <1>   0.3700 
 25 H        1.9400     0.9740     1.3130 H     1 <1>   0.0800 
 26 H       -1.9100    -1.9130     0.6750 H     1 <1>   0.1500 
 27 H        1.8770     3.3930     1.1410 H     1 <1>   0.0800 
 28 H        2.2290     3.3360    -0.5670 H     1 <1>   0.0800 
 29 H        2.4730     0.9320    -1.6730 H     1 <1>   0.0800 
 30 H        2.2650    -0.4460    -0.6270 H     1 <1>   0.0800 
 31 H       -6.3130     0.1230     0.0250 H     1 <1>   0.1500 
 32 H       -3.9190    -3.2330     1.0040 H     1 <1>   0.1500 
 33 H        4.0360     2.4240     1.6810 H     1 <1>   0.0800 
 34 H        4.2600     3.8350     0.6760 H     1 <1>   0.0800 
 35 H        4.6470     0.0030    -1.0700 H     1 <1>   0.0800 
 36 H        4.2590     0.1190     0.6300 H     1 <1>   0.0800 
 37 H       -6.1330    -2.2120     0.6800 H     1 <1>   0.1500 
 38 H        4.4480     2.3890    -1.2410 H     1 <1>   0.4500 
 39 H       -6.8860     3.9670    -0.5790 H     1 <1>   0.0800 
 40 H       -5.5740     3.9070    -1.7570 H     1 <1>   0.0800 
 41 H       -5.2500     4.4190    -0.0980 H     1 <1>   0.0800 
 42 H        6.5510     1.2310    -0.6830 H     1 <1>   0.0800 
 43 H        6.3040     1.7840     0.9560 H     1 <1>   0.0800 
 44 H        6.4330     3.5790    -1.5010 H     1 <1>   0.0800 
 45 H        7.7320     3.3160    -0.3750 H     1 <1>   0.0800 
 46 H        6.3020     4.1350     0.1640 H     1 <1>   0.0800 
@<TRIPOS>BOND
  1   1   2  2   
  2   2   3  am  
  3   2   4  am  
  4   3   5  1   
  5   3  23  1   
  6   4   6  1   
  7   4  24  1   
  8   5   7  ar  
  9   5   8  ar  
 10   6   9  1   
 11   6  10  1   
 12   6  25  1   
 13   7  11  1   
 14   7  12  ar  
 15   8  13  ar  
 16   8  26  1   
 17   9  14  1   
 18   9  27  1   
 19   9  28  1   
 20  10  15  1   
 21  10  29  1   
 22  10  30  1   
 23  11  16  2   
 24  11  17  1   
 25  12  18  ar  
 26  12  31  1   
 27  13  18  ar  
 28  13  32  1   
 29  14  19  1   
 30  14  33  1   
 31  14  34  1   
 32  15  19  1   
 33  15  35  1   
 34  15  36  1   
 35  17  20  1   
 36  18  37  1   
 37  19  21  1   
 38  19  38  1   
 39  20  39  1   
 40  20  40  1   
 41  20  41  1   
 42  21  22  1   
 43  21  42  1   
 44  21  43  1   
 45  22  44  1   
 46  22  45  1   
 47  22  46  1   
@<TRIPOS>SUBSTRUCTURE
  1 ****   2 GROUP 4 **** **** 0

# MOE 2024.06 (io_trps.svl 2023.06)
