@<TRIPOS>MOLECULE
NONAME
37 38 1 0 0 
SMALL
USER_CHARGES


@<TRIPOS>ATOM
  1 O        1.0490    -1.7010    -1.3600 O.3   1 <1>  -0.5600 
  2 C        1.6350    -0.4250    -1.3920 C.3   1 <1>   0.1200 
  3 C        0.5210    -2.0640    -0.1150 C.3   1 <1>   0.1200 
  4 C        2.6640    -0.2300    -0.2530 C.3   1 <1>   0.3430 
  5 C        1.6330    -2.1420     0.9570 C.3   1 <1>   0.3430 
  6 N        2.9070    -1.5130     0.4840 N.4   1 <1>  -0.9590 
  7 C        3.9680    -1.4280     1.5160 C.3   1 <1>   0.4860 
  8 C        5.2620    -1.0300     0.8380 C.ar  1 <1>  -0.1430 
  9 C        5.8350    -1.8600    -0.1200 C.ar  1 <1>   0.0830 
 10 C        5.8740     0.1690     1.1680 C.ar  1 <1>  -0.1500 
 11 O        5.1820    -3.0180    -0.4150 O.3   1 <1>  -0.3630 
 12 C        7.0240    -1.4770    -0.7380 C.ar  1 <1>  -0.1500 
 13 C        7.0520     0.5520     0.5510 C.ar  1 <1>   0.0830 
 14 C        5.7620    -3.9830    -1.2710 C.3   1 <1>   0.0400 
 15 C        7.6290    -0.2780    -0.4050 C.ar  1 <1>  -0.1500 
 16 O        7.5720     1.7450     0.9340 O.3   1 <1>  -0.3620 
 17 C        8.8110     2.1980     0.4320 C.3   1 <1>   0.0400 
 18 H        0.8550     0.3140    -1.3290 H     1 <1>   0.0800 
 19 H        2.1210    -0.3170    -2.3460 H     1 <1>   0.0800 
 20 H        0.0410    -3.0210    -0.2230 H     1 <1>   0.0800 
 21 H       -0.2280    -1.3420     0.1640 H     1 <1>   0.0800 
 22 H        2.2950     0.5190     0.4280 H     1 <1>   0.0800 
 23 H        3.5860     0.1400    -0.6730 H     1 <1>   0.0800 
 24 H        1.8110    -3.1780     1.1980 H     1 <1>   0.0800 
 25 H        1.2850    -1.6550     1.8530 H     1 <1>   0.0800 
 26 H        3.2960    -2.1530    -0.2320 H     1 <1>   0.4500 
 27 H        4.1020    -2.3890     1.9860 H     1 <1>   0.0800 
 28 H        3.7030    -0.7050     2.2700 H     1 <1>   0.0800 
 29 H        5.4570     0.8280     1.9090 H     1 <1>   0.1500 
 30 H        7.4950    -2.0930    -1.4810 H     1 <1>   0.1500 
 31 H        5.8730    -3.5620    -2.2550 H     1 <1>   0.0800 
 32 H        5.1070    -4.8350    -1.3140 H     1 <1>   0.0800 
 33 H        6.7160    -4.2800    -0.8710 H     1 <1>   0.0800 
 34 H        8.5440    -0.0060    -0.8980 H     1 <1>   0.1500 
 35 H        9.0350     3.1420     0.8950 H     1 <1>   0.0800 
 36 H        8.7320     2.3240    -0.6330 H     1 <1>   0.0800 
 37 H        9.5730     1.4800     0.6810 H     1 <1>   0.0800 
@<TRIPOS>BOND
  1   1   2  1   
  2   1   3  1   
  3   2   4  1   
  4   2  18  1   
  5   2  19  1   
  6   3   5  1   
  7   3  20  1   
  8   3  21  1   
  9   4   6  1   
 10   4  22  1   
 11   4  23  1   
 12   5   6  1   
 13   5  24  1   
 14   5  25  1   
 15   6   7  1   
 16   6  26  1   
 17   7   8  1   
 18   7  27  1   
 19   7  28  1   
 20   8   9  ar  
 21   8  10  ar  
 22   9  11  1   
 23   9  12  ar  
 24  10  13  ar  
 25  10  29  1   
 26  11  14  1   
 27  12  15  ar  
 28  12  30  1   
 29  13  15  ar  
 30  13  16  1   
 31  14  31  1   
 32  14  32  1   
 33  14  33  1   
 34  15  34  1   
 35  16  17  1   
 36  17  35  1   
 37  17  36  1   
 38  17  37  1   
@<TRIPOS>SUBSTRUCTURE
  1 ****   8 GROUP 4 **** **** 0

# MOE 2024.06 (io_trps.svl 2023.06)
