@<TRIPOS>MOLECULE
NONAME
41 42 1 0 0 
SMALL
USER_CHARGES


@<TRIPOS>ATOM
  1 CL       0.6190    -2.5340     3.2950 Cl    1 <1>  -0.1770 
  2 C        1.9810    -2.3580     2.2150 C.ar  1 <1>   0.1770 
  3 C        1.9020    -1.4640     1.1640 C.ar  1 <1>  -0.1500 
  4 C        3.1170    -3.1130     2.4280 C.ar  1 <1>  -0.1500 
  5 C        2.9760    -1.3180     0.2990 C.ar  1 <1>  -0.1440 
  6 C        4.1890    -2.9690     1.5660 C.ar  1 <1>  -0.1500 
  7 C        4.1320    -2.0820     0.4940 C.ar  1 <1>   0.1990 
  8 C        2.8720    -0.3210    -0.8490 C.3   1 <1>  -0.0960 
  9 N        5.2150    -1.9640    -0.3730 N.am  1 <1>  -0.6930 
 10 S        5.7160    -3.2970    -1.3510 S.o2  1 <1>   1.3330 
 11 C        6.2960    -1.0050     0.0210 C.3   1 <1>   0.2570 
 12 O        6.1760    -4.3460    -0.4750 O.2   1 <1>  -0.6500 
 13 O        6.5950    -2.7490    -2.3560 O.2   1 <1>  -0.6500 
 14 C        4.2030    -3.7950    -2.1450 C.3   1 <1>  -0.1350 
 15 C        7.2100    -1.4980     1.1560 C.2   1 <1>   0.5690 
 16 O        6.8560    -1.2360     2.2840 O.2   1 <1>  -0.5700 
 17 N        8.3820    -2.1830     0.9300 N.am  1 <1>  -0.6600 
 18 C        9.1270    -2.8230     2.0560 C.3   1 <1>   0.1400 
 19 C        9.0020    -2.4780    -0.3990 C.3   1 <1>   0.1400 
 20 C       10.6320    -2.5310     1.9540 C.3   1 <1>   0.1200 
 21 C       10.5200    -2.2280    -0.3690 C.3   1 <1>   0.1200 
 22 O       11.1230    -2.9030     0.6980 O.3   1 <1>  -0.5600 
 23 H        1.0020    -0.8900     1.0380 H     1 <1>   0.1500 
 24 H        3.1630    -3.7970     3.2560 H     1 <1>   0.1500 
 25 H        5.0830    -3.5450     1.7300 H     1 <1>   0.1500 
 26 H        1.8850     0.1000    -0.9090 H     1 <1>   0.0800 
 27 H        3.0910    -0.8030    -1.7840 H     1 <1>   0.0800 
 28 H        3.5740     0.4800    -0.7010 H     1 <1>   0.0800 
 29 H        5.8280    -0.1010     0.3660 H     1 <1>   0.0800 
 30 H        6.8770    -0.7390    -0.8400 H     1 <1>   0.0800 
 31 H        3.7980    -2.9820    -2.7130 H     1 <1>   0.0800 
 32 H        3.4820    -4.1000    -1.4120 H     1 <1>   0.0800 
 33 H        4.3900    -4.6170    -2.8060 H     1 <1>   0.0800 
 34 H        8.9700    -3.8870     2.0200 H     1 <1>   0.0800 
 35 H        8.7650    -2.4700     3.0060 H     1 <1>   0.0800 
 36 H        8.5800    -1.8650    -1.1710 H     1 <1>   0.0800 
 37 H        8.8200    -3.5090    -0.6530 H     1 <1>   0.0800 
 38 H       11.1690    -3.0940     2.6960 H     1 <1>   0.0800 
 39 H       10.8250    -1.4840     2.1070 H     1 <1>   0.0800 
 40 H       10.7270    -1.1770    -0.2710 H     1 <1>   0.0800 
 41 H       10.9700    -2.5850    -1.2780 H     1 <1>   0.0800 
@<TRIPOS>BOND
  1   1   2  1   
  2   2   3  ar  
  3   2   4  ar  
  4   3   5  ar  
  5   3  23  1   
  6   4   6  ar  
  7   4  24  1   
  8   5   7  ar  
  9   5   8  1   
 10   6   7  ar  
 11   6  25  1   
 12   7   9  1   
 13   8  26  1   
 14   8  27  1   
 15   8  28  1   
 16   9  10  am  
 17   9  11  1   
 18  10  12  2   
 19  10  13  2   
 20  10  14  1   
 21  11  15  1   
 22  11  29  1   
 23  11  30  1   
 24  14  31  1   
 25  14  32  1   
 26  14  33  1   
 27  15  16  2   
 28  15  17  am  
 29  17  18  1   
 30  17  19  1   
 31  18  20  1   
 32  18  34  1   
 33  18  35  1   
 34  19  21  1   
 35  19  36  1   
 36  19  37  1   
 37  20  22  1   
 38  20  38  1   
 39  20  39  1   
 40  21  22  1   
 41  21  40  1   
 42  21  41  1   
@<TRIPOS>SUBSTRUCTURE
  1 ****   9 GROUP 4 **** **** 0

# MOE 2024.06 (io_trps.svl 2023.06)
