@<TRIPOS>MOLECULE
NONAME
50 52 1 0 0 
SMALL
USER_CHARGES


@<TRIPOS>ATOM
  1 O       -0.0600    -0.9050    -1.9320 O.2   1 <1>  -0.5700 
  2 C        0.4840    -1.4520    -0.9870 C.2   1 <1>   0.5440 
  3 N        0.9470    -0.6790     0.0560 N.am  1 <1>  -0.6600 
  4 C        0.6230    -2.8940    -0.9770 C.ar  1 <1>   0.0860 
  5 C        1.0100    -1.1790     1.4570 C.3   1 <1>   0.1400 
  6 C        1.1480     0.7900    -0.0830 C.3   1 <1>   0.1400 
  7 C       -0.4790    -3.7380    -1.1930 C.ar  1 <1>   0.1170 
  8 C        1.8730    -3.4710    -0.7440 C.ar  1 <1>  -0.1500 
  9 C       -0.0410    -0.4530     2.3030 C.3   1 <1>  -0.1600 
 10 C        0.1180     1.5400     0.7670 C.3   1 <1>  -0.1600 
 11 N       -1.7380    -3.1730    -1.4450 N.am  1 <1>  -0.5470 
 12 C       -0.2890    -5.1180    -1.1630 C.ar  1 <1>  -0.1500 
 13 C        2.0430    -4.8400    -0.7140 C.ar  1 <1>  -0.1500 
 14 C        0.1280     1.0710     2.2290 C.3   1 <1>  -0.1600 
 15 C       -3.0120    -3.6600    -1.3250 C.2   1 <1>   0.5690 
 16 C        0.9540    -5.6670    -0.9240 C.ar  1 <1>  -0.1500 
 17 O       -3.2720    -4.7630    -0.9080 O.2   1 <1>  -0.5700 
 18 C       -4.1680    -2.7570    -1.7330 C.3   1 <1>   0.1810 
 19 O       -3.8900    -1.3900    -1.4670 O.3   1 <1>  -0.3620 
 20 C       -3.8680    -0.8810    -0.2040 C.ar  1 <1>   0.0820 
 21 C       -3.5660     0.4700    -0.0670 C.ar  1 <1>  -0.1440 
 22 C       -4.1360    -1.6440     0.9310 C.ar  1 <1>  -0.1500 
 23 C       -3.5490     1.0460     1.1930 C.ar  1 <1>  -0.1500 
 24 C       -3.2450     1.3180    -1.2910 C.3   1 <1>  -0.0970 
 25 C       -4.1120    -1.0600     2.1840 C.ar  1 <1>  -0.1500 
 26 C       -3.8210     0.2850     2.3170 C.ar  1 <1>  -0.1500 
 27 H        1.9930    -0.9950     1.8530 H     1 <1>   0.0800 
 28 H        0.8220    -2.2380     1.4970 H     1 <1>   0.0800 
 29 H        1.0560     1.0870    -1.1140 H     1 <1>   0.0800 
 30 H        2.1420     1.0380     0.2470 H     1 <1>   0.0800 
 31 H        2.7210    -2.8270    -0.5880 H     1 <1>   0.1500 
 32 H        0.0370    -0.7770     3.3260 H     1 <1>   0.0800 
 33 H       -1.0190    -0.7260     1.9460 H     1 <1>   0.0800 
 34 H       -0.8530     1.3700     0.3410 H     1 <1>   0.0800 
 35 H        0.3160     2.5950     0.7200 H     1 <1>   0.0800 
 36 H       -1.6970    -2.1720    -1.6940 H     1 <1>   0.3700 
 37 H       -1.1210    -5.7770    -1.3330 H     1 <1>   0.1500 
 38 H        3.0150    -5.2660    -0.5320 H     1 <1>   0.1500 
 39 H        1.0600     1.3520     2.6880 H     1 <1>   0.0800 
 40 H       -0.6700     1.5500     2.7690 H     1 <1>   0.0800 
 41 H        1.0760    -6.7370    -0.9030 H     1 <1>   0.1500 
 42 H       -5.0720    -3.0340    -1.2220 H     1 <1>   0.0800 
 43 H       -4.3270    -2.8510    -2.7900 H     1 <1>   0.0800 
 44 H       -4.3660    -2.6910     0.8680 H     1 <1>   0.1500 
 45 H       -3.3200     2.0900     1.3090 H     1 <1>   0.1500 
 46 H       -2.3760     0.9220    -1.7870 H     1 <1>   0.0800 
 47 H       -3.0490     2.3380    -1.0190 H     1 <1>   0.0800 
 48 H       -4.0730     1.2970    -1.9770 H     1 <1>   0.0800 
 49 H       -4.3200    -1.6530     3.0580 H     1 <1>   0.1500 
 50 H       -3.8050     0.7400     3.2910 H     1 <1>   0.1500 
@<TRIPOS>BOND
  1   1   2  2   
  2   2   3  am  
  3   2   4  1   
  4   3   5  1   
  5   3   6  1   
  6   4   7  ar  
  7   4   8  ar  
  8   5   9  1   
  9   5  27  1   
 10   5  28  1   
 11   6  10  1   
 12   6  29  1   
 13   6  30  1   
 14   7  11  1   
 15   7  12  ar  
 16   8  13  ar  
 17   8  31  1   
 18   9  14  1   
 19   9  32  1   
 20   9  33  1   
 21  10  14  1   
 22  10  34  1   
 23  10  35  1   
 24  11  15  am  
 25  11  36  1   
 26  12  16  ar  
 27  12  37  1   
 28  13  16  ar  
 29  13  38  1   
 30  14  39  1   
 31  14  40  1   
 32  15  17  2   
 33  15  18  1   
 34  16  41  1   
 35  18  19  1   
 36  18  42  1   
 37  18  43  1   
 38  19  20  1   
 39  20  21  ar  
 40  20  22  ar  
 41  21  23  ar  
 42  21  24  1   
 43  22  25  ar  
 44  22  44  1   
 45  23  26  ar  
 46  23  45  1   
 47  24  46  1   
 48  24  47  1   
 49  24  48  1   
 50  25  26  ar  
 51  25  49  1   
 52  26  50  1   
@<TRIPOS>SUBSTRUCTURE
  1 ****   2 GROUP 4 **** **** 0

# MOE 2024.06 (io_trps.svl 2023.06)
