@<TRIPOS>MOLECULE
NONAME
42 43 1 0 0 
SMALL
USER_CHARGES


@<TRIPOS>ATOM
  1 O       -1.3720    -0.1460    -0.1400 O.2   1 <1>  -0.5700 
  2 C       -1.9280    -1.0520     0.4460 C.2   1 <1>   0.5440 
  3 N       -2.6090    -0.7140     1.5620 N.am  1 <1>  -0.8000 
  4 C       -1.8130    -2.4220    -0.0020 C.ar  1 <1>   0.0860 
  5 C       -2.9180    -3.2450    -0.2910 C.ar  1 <1>   0.1170 
  6 C       -0.5360    -2.9570    -0.1770 C.ar  1 <1>  -0.1500 
  7 N       -4.2460    -2.8130    -0.2070 N.am  1 <1>  -0.5470 
  8 C       -2.7060    -4.5510    -0.7200 C.ar  1 <1>  -0.1500 
  9 C       -0.3400    -4.2550    -0.6040 C.ar  1 <1>  -0.1500 
 10 C       -5.0270    -2.6090     0.8920 C.2   1 <1>   0.5690 
 11 C       -1.4320    -5.0590    -0.8750 C.ar  1 <1>  -0.1500 
 12 O       -4.6040    -2.6680     2.0230 O.2   1 <1>  -0.5700 
 13 C       -6.5000    -2.2870     0.6360 C.3   1 <1>   0.1710 
 14 N       -6.9920    -2.7830    -0.6900 N.3   1 <1>  -0.8100 
 15 C       -8.2340    -2.0900    -1.0900 C.3   1 <1>   0.1100 
 16 C       -7.2510    -4.2450    -0.6480 C.3   1 <1>   0.1100 
 17 C       -9.4400    -2.3980    -0.1600 C.3   1 <1>   0.2000 
 18 C       -8.6710    -4.6430    -0.1550 C.3   1 <1>   0.2000 
 19 O       -9.2880    -3.6010     0.5410 O.3   1 <1>  -0.5600 
 20 C      -10.7720    -2.4420    -0.9110 C.3   1 <1>  -0.2400 
 21 C       -8.6340    -5.8410     0.7910 C.3   1 <1>  -0.2400 
 22 H       -2.6810     0.2620     1.8410 H     1 <1>   0.3700 
 23 H       -3.2110    -1.3930     2.0510 H     1 <1>   0.3700 
 24 H        0.3160    -2.3300     0.0270 H     1 <1>   0.1500 
 25 H       -4.8040    -2.8210    -1.0680 H     1 <1>   0.3700 
 26 H       -3.5530    -5.1770    -0.9330 H     1 <1>   0.1500 
 27 H        0.6580    -4.6410    -0.7270 H     1 <1>   0.1500 
 28 H       -1.2870    -6.0730    -1.2060 H     1 <1>   0.1500 
 29 H       -6.5990    -1.2170     0.6760 H     1 <1>   0.0800 
 30 H       -7.0890    -2.7030     1.4350 H     1 <1>   0.0800 
 31 H       -8.4810    -2.3950    -2.0930 H     1 <1>   0.0800 
 32 H       -8.0700    -1.0270    -1.1240 H     1 <1>   0.0800 
 33 H       -6.5080    -4.7270    -0.0360 H     1 <1>   0.0800 
 34 H       -7.1290    -4.6420    -1.6400 H     1 <1>   0.0800 
 35 H       -9.4990    -1.6250     0.5870 H     1 <1>   0.0800 
 36 H       -9.2890    -4.8850    -1.0020 H     1 <1>   0.0800 
 37 H      -10.7590    -3.1990    -1.6740 H     1 <1>   0.0800 
 38 H      -10.9610    -1.4920    -1.3760 H     1 <1>   0.0800 
 39 H      -11.5710    -2.6470    -0.2200 H     1 <1>   0.0800 
 40 H       -8.0510    -5.6070     1.6630 H     1 <1>   0.0800 
 41 H       -8.1980    -6.6900     0.2980 H     1 <1>   0.0800 
 42 H       -9.6340    -6.0970     1.0920 H     1 <1>   0.0800 
@<TRIPOS>BOND
  1   1   2  2   
  2   2   3  am  
  3   2   4  1   
  4   3  22  1   
  5   3  23  1   
  6   4   5  ar  
  7   4   6  ar  
  8   5   7  1   
  9   5   8  ar  
 10   6   9  ar  
 11   6  24  1   
 12   7  10  am  
 13   7  25  1   
 14   8  11  ar  
 15   8  26  1   
 16   9  11  ar  
 17   9  27  1   
 18  10  12  2   
 19  10  13  1   
 20  11  28  1   
 21  13  14  1   
 22  13  29  1   
 23  13  30  1   
 24  14  15  1   
 25  14  16  1   
 26  15  17  1   
 27  15  31  1   
 28  15  32  1   
 29  16  18  1   
 30  16  33  1   
 31  16  34  1   
 32  17  19  1   
 33  17  20  1   
 34  17  35  1   
 35  18  19  1   
 36  18  21  1   
 37  18  36  1   
 38  20  37  1   
 39  20  38  1   
 40  20  39  1   
 41  21  40  1   
 42  21  41  1   
 43  21  42  1   
@<TRIPOS>SUBSTRUCTURE
  1 ****   7 GROUP 4 **** **** 0

# MOE 2024.06 (io_trps.svl 2023.06)
