@<TRIPOS>MOLECULE
NONAME
49 51 1 0 0 
SMALL
USER_CHARGES


@<TRIPOS>ATOM
  1 S        0.3380    -0.8090     1.1600 S.o2  1 <1>   1.4470 
  2 O        0.9000    -1.4580     2.3260 O.2   1 <1>  -0.6500 
  3 O        0.0670     0.6110     1.2040 O.2   1 <1>  -0.6500 
  4 N        1.4400    -1.0570    -0.1020 N.am  1 <1>  -0.8490 
  5 C       -1.1440    -1.6940     0.6020 C.ar  1 <1>  -0.0090 
  6 C        2.6070    -0.1640     0.0330 C.3   1 <1>   0.1960 
  7 C        1.8980    -2.4590    -0.1790 C.3   1 <1>   0.1960 
  8 C       -1.6550    -1.4950    -0.6750 C.ar  1 <1>  -0.1500 
  9 C       -1.8060    -2.5890     1.4330 C.ar  1 <1>  -0.1500 
 10 C        3.6240    -0.3260    -1.1160 C.3   1 <1>   0.2090 
 11 C        2.8660    -2.7020    -1.3540 C.3   1 <1>   0.2090 
 12 C       -2.7810    -2.1660    -1.1230 C.ar  1 <1>  -0.1440 
 13 C       -2.9330    -3.2680     1.0050 C.ar  1 <1>  -0.1500 
 14 N        4.0160    -1.7500    -1.3440 N.pl3 1 <1>  -0.8380 
 15 C       -3.4290    -3.0620    -0.2790 C.ar  1 <1>   0.0830 
 16 C       -3.3010    -1.9150    -2.5310 C.3   1 <1>  -0.0970 
 17 C        5.2240    -2.1950    -0.8170 C.ar  1 <1>   0.1000 
 18 O       -4.5300    -3.6980    -0.7580 O.3   1 <1>  -0.3630 
 19 C        6.2640    -2.5160    -1.6780 C.ar  1 <1>  -0.1500 
 20 C        5.4240    -2.3340     0.5520 C.ar  1 <1>  -0.1500 
 21 C       -5.2990    -4.5640     0.0430 C.3   1 <1>   0.1200 
 22 C        7.4780    -2.9650    -1.1890 C.ar  1 <1>  -0.1500 
 23 C        6.6350    -2.7820     1.0470 C.ar  1 <1>  -0.1500 
 24 C       -6.4730    -5.0630    -0.7940 C.3   1 <1>  -0.2400 
 25 C        7.6650    -3.0990     0.1770 C.ar  1 <1>  -0.1500 
 26 H        3.1030    -0.3530     0.9700 H     1 <1>   0.0800 
 27 H        2.2760     0.8600     0.0430 H     1 <1>   0.0800 
 28 H        1.0490    -3.1100    -0.3010 H     1 <1>   0.0800 
 29 H        2.3950    -2.7370     0.7350 H     1 <1>   0.0800 
 30 H       -1.1530    -0.7980    -1.3250 H     1 <1>   0.1500 
 31 H       -1.4340    -2.7570     2.4300 H     1 <1>   0.1500 
 32 H        4.5030     0.2560    -0.8980 H     1 <1>   0.0800 
 33 H        3.1910     0.0610    -2.0210 H     1 <1>   0.0800 
 34 H        2.3310    -2.5900    -2.2800 H     1 <1>   0.0800 
 35 H        3.2370    -3.7110    -1.3070 H     1 <1>   0.0800 
 36 H       -3.4090    -3.9500     1.6840 H     1 <1>   0.1500 
 37 H       -2.6870    -1.2060    -3.0550 H     1 <1>   0.0800 
 38 H       -4.3050    -1.5320    -2.4840 H     1 <1>   0.0800 
 39 H       -3.3120    -2.8370    -3.0850 H     1 <1>   0.0800 
 40 H        6.1080    -2.4080    -2.7350 H     1 <1>   0.1500 
 41 H        4.6290    -2.0910     1.2300 H     1 <1>   0.1500 
 42 H       -5.6490    -4.0150     0.9000 H     1 <1>   0.0800 
 43 H       -4.6760    -5.3860     0.3520 H     1 <1>   0.0800 
 44 H        8.2740    -3.2100    -1.8690 H     1 <1>   0.1500 
 45 H        6.7790    -2.8850     2.1080 H     1 <1>   0.1500 
 46 H       -7.0790    -4.2330    -1.1110 H     1 <1>   0.0800 
 47 H       -7.0820    -5.7280    -0.2090 H     1 <1>   0.0800 
 48 H       -6.1130    -5.5950    -1.6560 H     1 <1>   0.0800 
 49 H        8.6080    -3.4480     0.5600 H     1 <1>   0.1500 
@<TRIPOS>BOND
  1   1   2  2   
  2   1   3  2   
  3   1   4  am  
  4   1   5  1   
  5   4   6  1   
  6   4   7  1   
  7   5   8  ar  
  8   5   9  ar  
  9   6  10  1   
 10   6  26  1   
 11   6  27  1   
 12   7  11  1   
 13   7  28  1   
 14   7  29  1   
 15   8  12  ar  
 16   8  30  1   
 17   9  13  ar  
 18   9  31  1   
 19  10  14  1   
 20  10  32  1   
 21  10  33  1   
 22  11  14  1   
 23  11  34  1   
 24  11  35  1   
 25  12  15  ar  
 26  12  16  1   
 27  13  15  ar  
 28  13  36  1   
 29  14  17  1   
 30  15  18  1   
 31  16  37  1   
 32  16  38  1   
 33  16  39  1   
 34  17  19  ar  
 35  17  20  ar  
 36  18  21  1   
 37  19  22  ar  
 38  19  40  1   
 39  20  23  ar  
 40  20  41  1   
 41  21  24  1   
 42  21  42  1   
 43  21  43  1   
 44  22  25  ar  
 45  22  44  1   
 46  23  25  ar  
 47  23  45  1   
 48  24  46  1   
 49  24  47  1   
 50  24  48  1   
 51  25  49  1   
@<TRIPOS>SUBSTRUCTURE
  1 ****   7 GROUP 4 **** **** 0

# MOE 2024.06 (io_trps.svl 2023.06)
