@<TRIPOS>MOLECULE
NONAME
46 47 1 0 0 
SMALL
USER_CHARGES


@<TRIPOS>ATOM
  1 CL       2.1420     2.3110    -3.9770 Cl    1 <1>  -0.1770 
  2 C        2.0950     2.8190    -2.3070 C.ar  1 <1>   0.1770 
  3 C        0.9090     3.2830    -1.7780 C.ar  1 <1>  -0.1500 
  4 C        3.2440     2.7440    -1.5480 C.ar  1 <1>  -0.1500 
  5 C        0.8650     3.6920    -0.4490 C.ar  1 <1>   0.0830 
  6 C        3.2230     3.1490    -0.2200 C.ar  1 <1>  -0.1440 
  7 O       -0.2980     4.1220     0.1210 O.3   1 <1>  -0.3620 
  8 C        2.0380     3.6420     0.3250 C.ar  1 <1>   0.0830 
  9 C        4.4990     3.0420     0.6160 C.3   1 <1>   0.5020 
 10 C       -1.5400     4.0130    -0.5400 C.3   1 <1>   0.0400 
 11 O        2.0820     4.0500     1.6250 O.3   1 <1>  -0.3630 
 12 N        5.4500     4.0200     0.0840 N.am  1 <1>  -0.7300 
 13 C        5.0550     1.6210     0.5830 C.2   1 <1>  -0.1240 
 14 C        1.5190     5.2930     1.9870 C.3   1 <1>   0.0400 
 15 C        6.5690     3.7080    -0.5850 C.2   1 <1>   0.6900 
 16 C        6.2600     1.3680    -0.0080 C.2   1 <1>  -0.0290 
 17 C        4.1550     0.6920     1.1970 C.2   1 <1>   0.7060 
 18 O        7.1560     4.6090    -1.1480 O.2   1 <1>  -0.5700 
 19 N        6.9980     2.3900    -0.6260 N.am  1 <1>  -0.4690 
 20 C        6.8730    -0.0350    -0.0250 C.3   1 <1>  -0.1020 
 21 O        4.0060    -0.4570     0.8290 O.2   1 <1>  -0.5700 
 22 O        3.4150     1.1220     2.2270 O.3   1 <1>  -0.4300 
 23 C        8.2510     2.1270    -1.4010 C.3   1 <1>   0.1400 
 24 C        2.4250     0.3130     2.8300 C.3   1 <1>   0.0400 
 25 C        9.4780     2.3670    -0.5190 C.3   1 <1>  -0.2400 
 26 H        0.0510     3.3120    -2.4190 H     1 <1>   0.1500 
 27 H        4.1480     2.3700    -2.0000 H     1 <1>   0.1500 
 28 H        4.3160     3.3130     1.6420 H     1 <1>   0.0800 
 29 H       -2.3090     4.3410     0.1370 H     1 <1>   0.0800 
 30 H       -1.7060     2.9840    -0.8070 H     1 <1>   0.0800 
 31 H       -1.5310     4.6430    -1.4120 H     1 <1>   0.0800 
 32 H        5.1080     4.9710    -0.0220 H     1 <1>   0.3700 
 33 H        2.0300     5.6510     2.8620 H     1 <1>   0.0800 
 34 H        0.4770     5.1510     2.2110 H     1 <1>   0.0800 
 35 H        1.6420     5.9890     1.1760 H     1 <1>   0.0800 
 36 H        7.9090    -0.0010     0.2530 H     1 <1>   0.0800 
 37 H        6.7830    -0.4630    -1.0060 H     1 <1>   0.0800 
 38 H        6.4010    -0.6980     0.6730 H     1 <1>   0.0800 
 39 H        8.2920     2.7840    -2.2540 H     1 <1>   0.0800 
 40 H        8.2590     1.1240    -1.7870 H     1 <1>   0.0800 
 41 H        1.9550     0.8790     3.6140 H     1 <1>   0.0800 
 42 H        2.8920    -0.5680     3.2340 H     1 <1>   0.0800 
 43 H        1.6980     0.0420     2.0840 H     1 <1>   0.0800 
 44 H        9.5120     3.3970    -0.2100 H     1 <1>   0.0800 
 45 H       10.3720     2.1520    -1.0760 H     1 <1>   0.0800 
 46 H        9.4550     1.7380     0.3520 H     1 <1>   0.0800 
@<TRIPOS>BOND
  1   1   2  1   
  2   2   3  ar  
  3   2   4  ar  
  4   3   5  ar  
  5   3  26  1   
  6   4   6  ar  
  7   4  27  1   
  8   5   7  1   
  9   5   8  ar  
 10   6   8  ar  
 11   6   9  1   
 12   7  10  1   
 13   8  11  1   
 14   9  12  1   
 15   9  13  1   
 16   9  28  1   
 17  10  29  1   
 18  10  30  1   
 19  10  31  1   
 20  11  14  1   
 21  12  15  am  
 22  12  32  1   
 23  13  16  2   
 24  13  17  1   
 25  14  33  1   
 26  14  34  1   
 27  14  35  1   
 28  15  18  2   
 29  15  19  am  
 30  16  19  1   
 31  16  20  1   
 32  17  21  2   
 33  17  22  1   
 34  19  23  1   
 35  20  36  1   
 36  20  37  1   
 37  20  38  1   
 38  22  24  1   
 39  23  25  1   
 40  23  39  1   
 41  23  40  1   
 42  24  41  1   
 43  24  42  1   
 44  24  43  1   
 45  25  44  1   
 46  25  45  1   
 47  25  46  1   
@<TRIPOS>SUBSTRUCTURE
  1 ****   6 GROUP 4 **** **** 0

# MOE 2024.06 (io_trps.svl 2023.06)
