@<TRIPOS>MOLECULE
NONAME
38 39 1 0 0 
SMALL
USER_CHARGES


@<TRIPOS>ATOM
  1 F      -11.8070     6.8330     0.0650 F     1 <1>  -0.1900 
  2 C      -12.3450     5.6460     0.1710 C.ar  1 <1>   0.1900 
  3 C      -11.5360     4.5090     0.0940 C.ar  1 <1>   0.0530 
  4 C      -13.7120     5.5960     0.3640 C.ar  1 <1>  -0.1500 
  5 C      -10.1030     4.5580    -0.1150 C.2   1 <1>   0.0870 
  6 C      -12.1940     3.2850     0.2320 C.ar  1 <1>  -0.1500 
  7 C      -14.3280     4.3640     0.4940 C.ar  1 <1>  -0.1500 
  8 O       -9.3480     3.5250     0.2400 O.3   1 <1>  -0.2800 
  9 C       -9.2910     5.5130    -0.6440 C.2   1 <1>  -0.1500 
 10 C      -13.5630     3.2110     0.4290 C.ar  1 <1>  -0.1500 
 11 C       -8.0900     3.7890    -0.0370 C.2   1 <1>  -0.0400 
 12 C       -7.9870     5.0180    -0.5920 C.2   1 <1>  -0.1500 
 13 C       -7.0650     2.7260     0.3040 C.3   1 <1>   0.5230 
 14 N       -5.7370     3.1270    -0.2060 N.4   1 <1>  -0.9060 
 15 C       -4.6340     2.1950     0.1030 C.3   1 <1>   0.4230 
 16 C       -3.3210     3.0070     0.1960 C.3   1 <1>   0.1200 
 17 C       -4.5840     1.0890    -0.9610 C.3   1 <1>  -0.1600 
 18 O       -3.5890     4.2780     0.7190 O.3   1 <1>  -0.6800 
 19 C       -3.5270     0.0180    -0.6530 C.3   1 <1>  -0.2400 
 20 H      -14.2830     6.5060     0.4140 H     1 <1>   0.1500 
 21 H      -11.6260     2.3730     0.1830 H     1 <1>   0.1500 
 22 H      -15.3920     4.3020     0.6460 H     1 <1>   0.1500 
 23 H       -9.5710     6.4750    -1.0360 H     1 <1>   0.1500 
 24 H      -14.0390     2.2500     0.5300 H     1 <1>   0.1500 
 25 H       -7.1250     5.5620    -0.9380 H     1 <1>   0.1500 
 26 H       -7.3680     1.7940    -0.1440 H     1 <1>   0.0800 
 27 H       -7.0330     2.5970     1.3740 H     1 <1>   0.0800 
 28 H       -5.4500     4.0110     0.2510 H     1 <1>   0.4500 
 29 H       -5.7850     3.3250    -1.2080 H     1 <1>   0.4500 
 30 H       -4.8090     1.7460     1.0680 H     1 <1>   0.0800 
 31 H       -2.8780     3.1340    -0.7770 H     1 <1>   0.0800 
 32 H       -2.6160     2.5080     0.8390 H     1 <1>   0.0800 
 33 H       -4.3710     1.5150    -1.9260 H     1 <1>   0.0800 
 34 H       -5.5410     0.5970    -1.0140 H     1 <1>   0.0800 
 35 H       -2.7550     4.7750     0.8800 H     1 <1>   0.4000 
 36 H       -2.5320     0.4300    -0.6690 H     1 <1>   0.0800 
 37 H       -3.5700    -0.7610    -1.3950 H     1 <1>   0.0800 
 38 H       -3.7010    -0.4310     0.3100 H     1 <1>   0.0800 
@<TRIPOS>BOND
  1   1   2  1   
  2   2   3  ar  
  3   2   4  ar  
  4   3   5  1   
  5   3   6  ar  
  6   4   7  ar  
  7   4  20  1   
  8   5   8  1   
  9   5   9  2   
 10   6  10  ar  
 11   6  21  1   
 12   7  10  ar  
 13   7  22  1   
 14   8  11  1   
 15   9  12  1   
 16   9  23  1   
 17  10  24  1   
 18  11  12  2   
 19  11  13  1   
 20  12  25  1   
 21  13  14  1   
 22  13  26  1   
 23  13  27  1   
 24  14  15  1   
 25  14  28  1   
 26  14  29  1   
 27  15  16  1   
 28  15  17  1   
 29  15  30  1   
 30  16  18  1   
 31  16  31  1   
 32  16  32  1   
 33  17  19  1   
 34  17  33  1   
 35  17  34  1   
 36  18  35  1   
 37  19  36  1   
 38  19  37  1   
 39  19  38  1   
@<TRIPOS>SUBSTRUCTURE
  1 ****   8 GROUP 4 **** **** 0

# MOE 2024.06 (io_trps.svl 2023.06)
