@<TRIPOS>MOLECULE
NONAME
38 41 1 0 0 
SMALL
USER_CHARGES


@<TRIPOS>ATOM
  1 CL      -0.1100    -0.0870    -0.9520 Cl    1 <1>  -0.1770 
  2 C       -0.5310     1.6000    -0.7910 C.ar  1 <1>   0.1770 
  3 C       -1.6690     1.9520    -0.0940 C.ar  1 <1>  -0.1500 
  4 C        0.2880     2.5530    -1.3650 C.ar  1 <1>  -0.1500 
  5 C       -2.0120     3.2920     0.0380 C.ar  1 <1>   0.1170 
  6 C       -0.0400     3.8920    -1.2380 C.ar  1 <1>  -0.1500 
  7 N       -3.1560     3.7210     0.7330 N.am  1 <1>  -0.5470 
  8 C       -1.1850     4.2660    -0.5380 C.ar  1 <1>   0.0830 
  9 C       -4.2860     3.0840     1.1490 C.2   1 <1>   0.6300 
 10 O       -1.5600     5.5720    -0.3790 O.3   1 <1>  -0.3630 
 11 O       -4.4690     1.8950     1.0450 O.2   1 <1>  -0.5700 
 12 C       -5.3360     3.9450     1.8340 C.3   1 <1>  -0.1000 
 13 C       -0.8170     6.6250    -0.9560 C.3   1 <1>   0.0400 
 14 C       -6.7860     4.0470     1.4630 C.3   1 <1>  -0.1950 
 15 C       -5.8710     5.2450     1.2980 C.3   1 <1>  -0.1950 
 16 C       -7.5520     3.9870     0.1260 C.3   1 <1>   0.0150 
 17 C       -6.2180     5.7620    -0.1180 C.3   1 <1>   0.0150 
 18 C       -7.7100     5.4720    -0.1570 C.3   1 <1>  -0.1600 
 19 C       -6.6270     3.5690    -1.0280 C.3   1 <1>  -0.1600 
 20 C       -5.7240     4.8030    -1.2130 C.3   1 <1>  -0.1600 
 21 H       -2.2740     1.1780     0.3380 H     1 <1>   0.1500 
 22 H        1.1680     2.2460    -1.9020 H     1 <1>   0.1500 
 23 H        0.6080     4.6190    -1.6890 H     1 <1>   0.1500 
 24 H       -3.1940     4.7370     0.8280 H     1 <1>   0.3700 
 25 H       -5.1460     3.9160     2.8910 H     1 <1>   0.1000 
 26 H       -1.3060     7.5510    -0.7130 H     1 <1>   0.0800 
 27 H       -0.7950     6.4940    -2.0230 H     1 <1>   0.0800 
 28 H        0.1760     6.6190    -0.5440 H     1 <1>   0.0800 
 29 H       -7.4710     4.0620     2.2920 H     1 <1>   0.1000 
 30 H       -5.9720     6.0350     2.0220 H     1 <1>   0.1000 
 31 H       -8.4750     3.4350     0.1760 H     1 <1>   0.0800 
 32 H       -5.9590     6.7930    -0.2830 H     1 <1>   0.0800 
 33 H       -8.2560     5.9880     0.6160 H     1 <1>   0.0800 
 34 H       -8.1530     5.6710    -1.1180 H     1 <1>   0.0800 
 35 H       -7.2050     3.3980    -1.9200 H     1 <1>   0.0800 
 36 H       -6.0790     2.6730    -0.8010 H     1 <1>   0.0800 
 37 H       -4.6790     4.5780    -1.1350 H     1 <1>   0.0800 
 38 H       -5.9000     5.2380    -2.1820 H     1 <1>   0.0800 
@<TRIPOS>BOND
  1   1   2  1   
  2   2   3  ar  
  3   2   4  ar  
  4   3   5  ar  
  5   3  21  1   
  6   4   6  ar  
  7   4  22  1   
  8   5   7  1   
  9   5   8  ar  
 10   6   8  ar  
 11   6  23  1   
 12   7   9  am  
 13   7  24  1   
 14   8  10  1   
 15   9  11  2   
 16   9  12  1   
 17  10  13  1   
 18  12  14  1   
 19  12  15  1   
 20  12  25  1   
 21  13  26  1   
 22  13  27  1   
 23  13  28  1   
 24  14  15  1   
 25  14  16  1   
 26  14  29  1   
 27  15  17  1   
 28  15  30  1   
 29  16  18  1   
 30  16  19  1   
 31  16  31  1   
 32  17  18  1   
 33  17  20  1   
 34  17  32  1   
 35  18  33  1   
 36  18  34  1   
 37  19  20  1   
 38  19  35  1   
 39  19  36  1   
 40  20  37  1   
 41  20  38  1   
@<TRIPOS>SUBSTRUCTURE
  1 ****   7 GROUP 4 **** **** 0

# MOE 2024.06 (io_trps.svl 2023.06)
