@<TRIPOS>MOLECULE
NONAME
37 38 1 0 0 
SMALL
USER_CHARGES


@<TRIPOS>ATOM
  1 S       -0.6350     0.8690     2.1090 S.3   1 <1>  -0.3320 
  2 C       -1.7000     0.2690     0.7770 C.ar  1 <1>   0.1020 
  3 C       -1.2440     2.5450     2.5940 C.3   1 <1>  -0.0100 
  4 C       -1.5970    -1.0680     0.3790 C.ar  1 <1>   0.0860 
  5 C       -2.5970     1.1360     0.1700 C.ar  1 <1>  -0.1500 
  6 C       -0.6700    -2.0080     0.9740 C.2   1 <1>   0.5440 
  7 C       -2.4470    -1.5010    -0.6390 C.ar  1 <1>  -0.1500 
  8 C       -3.4200     0.6780    -0.8440 C.ar  1 <1>  -0.1500 
  9 O       -1.1170    -2.9350     1.6240 O.2   1 <1>  -0.5700 
 10 N        0.6960    -1.9270     0.7760 N.am  1 <1>  -0.6600 
 11 C       -3.3460    -0.6430    -1.2460 C.ar  1 <1>  -0.1500 
 12 C        1.6500    -2.7770     1.5380 C.3   1 <1>   0.1400 
 13 C        1.3430    -0.9510    -0.1410 C.3   1 <1>   0.1400 
 14 C        2.5260    -3.5590     0.5570 C.3   1 <1>  -0.1600 
 15 C        2.2190    -1.7060    -1.1450 C.3   1 <1>  -0.1600 
 16 C        3.2390    -2.6180    -0.4360 C.3   1 <1>  -0.0190 
 17 C        4.0970    -3.3860    -1.4370 C.2   1 <1>   0.5690 
 18 O        5.2710    -3.1420    -1.5290 O.2   1 <1>  -0.5700 
 19 N        3.5450    -4.3320    -2.2210 N.am  1 <1>  -0.8000 
 20 H       -0.6840     2.8540     3.4590 H     1 <1>   0.0800 
 21 H       -2.2900     2.4640     2.8280 H     1 <1>   0.0800 
 22 H       -1.0720     3.2150     1.7710 H     1 <1>   0.0800 
 23 H       -2.6710     2.1630     0.4670 H     1 <1>   0.1500 
 24 H       -2.3970    -2.5310    -0.9480 H     1 <1>   0.1500 
 25 H       -4.1190     1.3470    -1.3170 H     1 <1>   0.1500 
 26 H       -3.9900    -1.0030    -2.0300 H     1 <1>   0.1500 
 27 H        1.1260    -3.4640     2.1810 H     1 <1>   0.0800 
 28 H        2.2620    -2.1450     2.1580 H     1 <1>   0.0800 
 29 H        1.9450    -0.2730     0.4400 H     1 <1>   0.0800 
 30 H        0.6080    -0.3730    -0.6730 H     1 <1>   0.0800 
 31 H        1.9020    -4.2580     0.0310 H     1 <1>   0.0800 
 32 H        3.2580    -4.1210     1.1090 H     1 <1>   0.0800 
 33 H        2.7420    -0.9950    -1.7610 H     1 <1>   0.0800 
 34 H        1.5820    -2.2890    -1.7860 H     1 <1>   0.0800 
 35 H        3.9040    -1.9890     0.1300 H     1 <1>   0.0800 
 36 H        4.1340    -4.8380    -2.8830 H     1 <1>   0.3700 
 37 H        2.5600    -4.5900    -2.1840 H     1 <1>   0.3700 
@<TRIPOS>BOND
  1   1   2  1   
  2   1   3  1   
  3   2   4  ar  
  4   2   5  ar  
  5   3  20  1   
  6   3  21  1   
  7   3  22  1   
  8   4   6  1   
  9   4   7  ar  
 10   5   8  ar  
 11   5  23  1   
 12   6   9  2   
 13   6  10  am  
 14   7  11  ar  
 15   7  24  1   
 16   8  11  ar  
 17   8  25  1   
 18  10  12  1   
 19  10  13  1   
 20  11  26  1   
 21  12  14  1   
 22  12  27  1   
 23  12  28  1   
 24  13  15  1   
 25  13  29  1   
 26  13  30  1   
 27  14  16  1   
 28  14  31  1   
 29  14  32  1   
 30  15  16  1   
 31  15  33  1   
 32  15  34  1   
 33  16  17  1   
 34  16  35  1   
 35  17  18  2   
 36  17  19  am  
 37  19  36  1   
 38  19  37  1   
@<TRIPOS>SUBSTRUCTURE
  1 ****  10 GROUP 4 **** **** 0

# MOE 2024.06 (io_trps.svl 2023.06)
