@<TRIPOS>MOLECULE
NONAME
41 43 1 0 0 
SMALL
USER_CHARGES


@<TRIPOS>ATOM
  1 S       -0.2670    -0.5960    -0.1290 S.3   1 <1>  -0.0800 
  2 C       -1.3700     0.7760    -0.2940 C.2   1 <1>   0.1040 
  3 C        1.1000     0.4750    -0.0550 C.2   1 <1>  -0.1400 
  4 N       -2.6950     0.3800    -0.3940 N.am  1 <1>  -0.4940 
  5 C       -0.6800     1.9720    -0.3270 C.2   1 <1>  -0.0860 
  6 C        0.7350     1.7390    -0.1680 C.2   1 <1>  -0.1810 
  7 C        2.5590     0.1960     0.1090 C.3   1 <1>   0.0200 
  8 C       -3.8220     0.7700     0.2910 C.2   1 <1>   0.5440 
  9 C       -1.1760     3.3110    -0.5440 C.2   1 <1>   0.7160 
 10 C        1.9490     2.6330    -0.1050 C.3   1 <1>   0.0210 
 11 C        3.1240     1.6390     0.1240 C.3   1 <1>  -0.1600 
 12 O       -3.7640     1.6940     1.0760 O.2   1 <1>  -0.5700 
 13 C       -5.0740     0.0710     0.0670 C.ar  1 <1>   0.0860 
 14 O       -0.4490     4.2300    -0.8680 O.2   1 <1>  -0.5700 
 15 N       -2.4690     3.6430    -0.3940 N.am  1 <1>  -0.8000 
 16 C       -6.2830     0.7650     0.0930 C.ar  1 <1>  -0.1500 
 17 C       -5.1200    -1.3040    -0.1800 C.ar  1 <1>  -0.1500 
 18 C       -7.4930     0.1210    -0.1360 C.ar  1 <1>   0.0820 
 19 C       -6.3200    -1.9530    -0.4110 C.ar  1 <1>  -0.1500 
 20 O       -8.6950     0.7470    -0.1260 O.3   1 <1>  -0.3620 
 21 C       -7.5040    -1.2400    -0.3910 C.ar  1 <1>  -0.1500 
 22 C       -8.8100     2.1160     0.1860 C.3   1 <1>   0.1200 
 23 C      -10.2880     2.4880     0.1420 C.3   1 <1>  -0.2400 
 24 H       -2.8170    -0.4870    -0.9140 H     1 <1>   0.3700 
 25 H        2.9330    -0.3700    -0.7260 H     1 <1>   0.0800 
 26 H        2.7510    -0.3190     1.0340 H     1 <1>   0.0800 
 27 H        1.8610     3.3330     0.7080 H     1 <1>   0.0800 
 28 H        2.0660     3.1670    -1.0320 H     1 <1>   0.0800 
 29 H        3.8650     1.7580    -0.6460 H     1 <1>   0.0800 
 30 H        3.5820     1.8380     1.0770 H     1 <1>   0.0800 
 31 H       -2.7120     4.6300    -0.4170 H     1 <1>   0.3700 
 32 H       -3.0700     3.0430     0.1840 H     1 <1>   0.3700 
 33 H       -6.2500     1.8180     0.2970 H     1 <1>   0.1500 
 34 H       -4.2140    -1.8820    -0.1830 H     1 <1>   0.1500 
 35 H       -6.3380    -3.0130    -0.6010 H     1 <1>   0.1500 
 36 H       -8.4440    -1.7320    -0.5690 H     1 <1>   0.1500 
 37 H       -8.2540     2.6810    -0.5430 H     1 <1>   0.0800 
 38 H       -8.4070     2.2770     1.1720 H     1 <1>   0.0800 
 39 H      -10.6850     2.3080    -0.8420 H     1 <1>   0.0800 
 40 H      -10.4100     3.5290     0.3770 H     1 <1>   0.0800 
 41 H      -10.8360     1.9070     0.8620 H     1 <1>   0.0800 
@<TRIPOS>BOND
  1   1   2  1   
  2   1   3  1   
  3   2   4  1   
  4   2   5  2   
  5   3   6  2   
  6   3   7  1   
  7   4   8  am  
  8   4  24  1   
  9   5   6  1   
 10   5   9  1   
 11   6  10  1   
 12   7  11  1   
 13   7  25  1   
 14   7  26  1   
 15   8  12  2   
 16   8  13  1   
 17   9  14  2   
 18   9  15  am  
 19  10  11  1   
 20  10  27  1   
 21  10  28  1   
 22  11  29  1   
 23  11  30  1   
 24  13  16  ar  
 25  13  17  ar  
 26  15  31  1   
 27  15  32  1   
 28  16  18  ar  
 29  16  33  1   
 30  17  19  ar  
 31  17  34  1   
 32  18  20  1   
 33  18  21  ar  
 34  19  21  ar  
 35  19  35  1   
 36  20  22  1   
 37  21  36  1   
 38  22  23  1   
 39  22  37  1   
 40  22  38  1   
 41  23  39  1   
 42  23  40  1   
 43  23  41  1   
@<TRIPOS>SUBSTRUCTURE
  1 ****   8 GROUP 4 **** **** 0

# MOE 2024.06 (io_trps.svl 2023.06)
