@<TRIPOS>MOLECULE
NONAME
41 41 1 0 0 
SMALL
USER_CHARGES


@<TRIPOS>ATOM
  1 O       -0.2170     0.5810    -0.2810 O.2   1 <1>  -0.5700 
  2 C       -0.0570     1.7380     0.0780 C.2   1 <1>   0.5440 
  3 N       -1.1310     2.4320     0.5560 N.am  1 <1>  -0.4300 
  4 C        1.2550     2.3560     0.0320 C.ar  1 <1>   0.0860 
  5 N       -2.5320     2.0500     0.3600 N.am  1 <1>  -0.4300 
  6 C        2.4080     1.6180     0.2840 C.ar  1 <1>  -0.1500 
  7 C        1.4220     3.7080    -0.2600 C.ar  1 <1>  -0.1500 
  8 C       -3.3580     2.5900    -0.5740 C.2   1 <1>   0.5690 
  9 C        3.6620     2.2000     0.2650 C.ar  1 <1>  -0.1500 
 10 C        2.6760     4.2920    -0.2780 C.ar  1 <1>  -0.1500 
 11 O       -3.0750     3.5980    -1.1850 O.2   1 <1>  -0.5700 
 12 C       -4.6900     1.9170    -0.8440 C.3   1 <1>  -0.0990 
 13 C        3.8240     3.5530    -0.0140 C.ar  1 <1>  -0.1430 
 14 C       -5.7380     2.2520     0.2290 C.3   1 <1>  -0.1600 
 15 C        5.2030     4.2500    -0.0460 C.3   1 <1>   0.1440 
 16 C       -7.0750     1.5630    -0.0640 C.3   1 <1>  -0.2400 
 17 C        5.2330     5.3830     0.9900 C.3   1 <1>  -0.2400 
 18 C        5.4520     4.8320    -1.4460 C.3   1 <1>  -0.2400 
 19 C        6.3690     3.2990     0.2740 C.3   1 <1>  -0.2400 
 20 H       -0.9790     3.3630     0.9560 H     1 <1>   0.3700 
 21 H       -2.8240     1.1990     0.8500 H     1 <1>   0.3700 
 22 H        2.3130     0.5670     0.4970 H     1 <1>   0.1500 
 23 H        0.5620     4.3140    -0.4890 H     1 <1>   0.1500 
 24 H        4.5040     1.5650     0.4710 H     1 <1>   0.1500 
 25 H        2.7480     5.3390    -0.5090 H     1 <1>   0.1500 
 26 H       -4.5380     0.8540    -0.8960 H     1 <1>   0.0800 
 27 H       -5.0440     2.2440    -1.8060 H     1 <1>   0.0800 
 28 H       -5.8870     3.3190     0.2580 H     1 <1>   0.0800 
 29 H       -5.3840     1.9400     1.1970 H     1 <1>   0.0800 
 30 H       -7.4610     1.8830    -1.0170 H     1 <1>   0.0800 
 31 H       -7.7930     1.8160     0.6960 H     1 <1>   0.0800 
 32 H       -6.9560     0.4940    -0.0790 H     1 <1>   0.0800 
 33 H        5.0250     4.9900     1.9700 H     1 <1>   0.0800 
 34 H        4.4990     6.1350     0.7660 H     1 <1>   0.0800 
 35 H        6.1990     5.8560     1.0090 H     1 <1>   0.0800 
 36 H        4.7200     5.5780    -1.6920 H     1 <1>   0.0800 
 37 H        5.3970     4.0510    -2.1830 H     1 <1>   0.0800 
 38 H        6.4250     5.2880    -1.5010 H     1 <1>   0.0800 
 39 H        7.3070     3.8250     0.2440 H     1 <1>   0.0800 
 40 H        6.2550     2.8800     1.2580 H     1 <1>   0.0800 
 41 H        6.4140     2.5000    -0.4450 H     1 <1>   0.0800 
@<TRIPOS>BOND
  1   1   2  2   
  2   2   3  am  
  3   2   4  1   
  4   3   5  1   
  5   3  20  1   
  6   4   6  ar  
  7   4   7  ar  
  8   5   8  am  
  9   5  21  1   
 10   6   9  ar  
 11   6  22  1   
 12   7  10  ar  
 13   7  23  1   
 14   8  11  2   
 15   8  12  1   
 16   9  13  ar  
 17   9  24  1   
 18  10  13  ar  
 19  10  25  1   
 20  12  14  1   
 21  12  26  1   
 22  12  27  1   
 23  13  15  1   
 24  14  16  1   
 25  14  28  1   
 26  14  29  1   
 27  15  17  1   
 28  15  18  1   
 29  15  19  1   
 30  16  30  1   
 31  16  31  1   
 32  16  32  1   
 33  17  33  1   
 34  17  34  1   
 35  17  35  1   
 36  18  36  1   
 37  18  37  1   
 38  18  38  1   
 39  19  39  1   
 40  19  40  1   
 41  19  41  1   
@<TRIPOS>SUBSTRUCTURE
  1 ****   4 GROUP 4 **** **** 0

# MOE 2024.06 (io_trps.svl 2023.06)
