@<TRIPOS>MOLECULE
22037
30 30 1 0 0 
SMALL
USER_CHARGES


@<TRIPOS>ATOM
  1 BR      -1.8380     0.9790     1.4540 Br    1 <1>  -0.1110 
  2 C       -1.4990    -0.7630     0.6770 C.ar  1 <1>   0.1110 
  3 C       -0.2610    -0.9820     0.0830 C.ar  1 <1>   0.0820 
  4 C       -2.4950    -1.7290     0.7350 C.ar  1 <1>  -0.1440 
  5 O        0.6430     0.0380     0.0810 O.3   1 <1>  -0.3630 
  6 C       -0.0130    -2.2320    -0.4780 C.ar  1 <1>  -0.1500 
  7 C       -2.2050    -2.9640     0.1630 C.ar  1 <1>   0.1770 
  8 C       -3.8320    -1.4130     1.4020 C.3   1 <1>  -0.0960 
  9 C        1.8780    -0.0350    -0.6040 C.3   1 <1>   0.1200 
 10 C       -0.9780    -3.2260    -0.4380 C.ar  1 <1>  -0.1440 
 11 CL      -3.4040    -4.2460     0.1890 Cl    1 <1>  -0.1770 
 12 C        2.9110    -0.7940     0.2360 C.3   1 <1>  -0.1600 
 13 C       -0.6730    -4.5880    -1.0480 C.3   1 <1>  -0.0970 
 14 C        4.2030    -1.0170    -0.5680 C.3   1 <1>  -0.2660 
 15 C        5.1780    -1.9130     0.1570 C.2   1 <1>   0.9060 
 16 O        6.0570    -1.3920     0.8490 O.co2 1 <1>  -0.9000 
 17 O        5.0570    -3.1340     0.0230 O.co2 1 <1>  -0.9000 
 18 H        0.9320    -2.4480    -0.9420 H     1 <1>   0.1500 
 19 H       -4.3030    -0.5850     0.9030 H     1 <1>   0.0800 
 20 H       -3.6720    -1.1490     2.4320 H     1 <1>   0.0800 
 21 H       -4.5140    -2.2420     1.3770 H     1 <1>   0.0800 
 22 H        2.2150     0.9730    -0.7640 H     1 <1>   0.0800 
 23 H        1.7190    -0.4970    -1.5620 H     1 <1>   0.0800 
 24 H        2.5270    -1.7530     0.5350 H     1 <1>   0.0800 
 25 H        3.1410    -0.2340     1.1260 H     1 <1>   0.0800 
 26 H        0.3290    -4.6240    -1.4370 H     1 <1>   0.0800 
 27 H       -1.3580    -4.7950    -1.8510 H     1 <1>   0.0800 
 28 H       -0.7700    -5.3550    -0.3010 H     1 <1>   0.0800 
 29 H        4.6910    -0.0800    -0.7590 H     1 <1>   0.0800 
 30 H        3.9820    -1.4860    -1.5070 H     1 <1>   0.0800 
@<TRIPOS>BOND
  1   1   2  1   
  2   2   3  ar  
  3   2   4  ar  
  4   3   5  1   
  5   3   6  ar  
  6   4   7  ar  
  7   4   8  1   
  8   5   9  1   
  9   6  10  ar  
 10   6  18  1   
 11   7  10  ar  
 12   7  11  1   
 13   8  19  1   
 14   8  20  1   
 15   8  21  1   
 16   9  12  1   
 17   9  22  1   
 18   9  23  1   
 19  10  13  1   
 20  12  14  1   
 21  12  24  1   
 22  12  25  1   
 23  13  26  1   
 24  13  27  1   
 25  13  28  1   
 26  14  15  1   
 27  14  29  1   
 28  14  30  1   
 29  15  16  ar  
 30  15  17  ar  
@<TRIPOS>SUBSTRUCTURE
  1 ****   6 GROUP 4 **** **** 0

# MOE 2024.06 (io_trps.svl 2023.06)
