@<TRIPOS>MOLECULE
NONAME
42 43 1 0 0 
SMALL
USER_CHARGES


@<TRIPOS>ATOM
  1 S       -0.1040    -0.0010     0.4350 S.o2  1 <1>   1.4470 
  2 O        0.0010    -0.3680     1.8300 O.2   1 <1>  -0.6500 
  3 O        0.4360    -0.8710    -0.5840 O.2   1 <1>  -0.6500 
  4 N       -1.7760     0.0560     0.1350 N.am  1 <1>  -0.8490 
  5 C        0.4190     1.7130     0.1610 C.ar  1 <1>  -0.0090 
  6 C       -2.3240    -1.3120    -0.0020 C.3   1 <1>   0.1960 
  7 C       -2.5140     0.8000     1.1780 C.3   1 <1>   0.1960 
  8 C        0.8090     2.5270     1.2180 C.ar  1 <1>  -0.1500 
  9 C        0.4130     2.2640    -1.1150 C.ar  1 <1>  -0.1500 
 10 C       -3.8650    -1.3370    -0.1620 C.3   1 <1>   0.3430 
 11 C       -4.0280     0.9100     0.8620 C.3   1 <1>   0.3430 
 12 C        1.1690     3.8470     1.0110 C.ar  1 <1>  -0.1500 
 13 C        0.7730     3.5830    -1.3280 C.ar  1 <1>  -0.1500 
 14 N       -4.4380     0.0460    -0.3040 N.4   1 <1>  -0.9590 
 15 C        1.1490     4.3830    -0.2640 C.ar  1 <1>  -0.1430 
 16 C       -5.9030     0.0290    -0.5660 C.3   1 <1>   0.3430 
 17 C        1.5470     5.8300    -0.4940 C.3   1 <1>  -0.0970 
 18 C       -6.3790     1.4020    -1.0460 C.3   1 <1>  -0.1600 
 19 C       -7.8630     1.3640    -1.4290 C.3   1 <1>  -0.2400 
 20 H       -2.0510    -1.9060     0.8560 H     1 <1>   0.0800 
 21 H       -1.8840    -1.7840    -0.8650 H     1 <1>   0.0800 
 22 H       -2.1110     1.7950     1.2760 H     1 <1>   0.0800 
 23 H       -2.3940     0.3130     2.1330 H     1 <1>   0.0800 
 24 H        0.8360     2.1260     2.2180 H     1 <1>   0.1500 
 25 H        0.1280     1.6510    -1.9540 H     1 <1>   0.1500 
 26 H       -4.2950    -1.8220     0.6990 H     1 <1>   0.0800 
 27 H       -4.1130    -1.9320    -1.0260 H     1 <1>   0.0800 
 28 H       -4.2570     1.9400     0.6450 H     1 <1>   0.0800 
 29 H       -4.5870     0.6340     1.7410 H     1 <1>   0.0800 
 30 H        1.4700     4.4550     1.8470 H     1 <1>   0.1500 
 31 H        0.7630     3.9830    -2.3280 H     1 <1>   0.1500 
 32 H       -3.9520     0.4480    -1.1210 H     1 <1>   0.4500 
 33 H       -6.4380    -0.2520     0.3270 H     1 <1>   0.0800 
 34 H       -6.1240    -0.6980    -1.3310 H     1 <1>   0.0800 
 35 H        1.0510     6.2260    -1.3620 H     1 <1>   0.0800 
 36 H        2.6100     5.8960    -0.6420 H     1 <1>   0.0800 
 37 H        1.2770     6.4340     0.3540 H     1 <1>   0.0800 
 38 H       -5.8110     1.7030    -1.9100 H     1 <1>   0.0800 
 39 H       -6.2500     2.1370    -0.2720 H     1 <1>   0.0800 
 40 H       -8.0370     0.6610    -2.2260 H     1 <1>   0.0800 
 41 H       -8.1810     2.3360    -1.7670 H     1 <1>   0.0800 
 42 H       -8.4720     1.0880    -0.5850 H     1 <1>   0.0800 
@<TRIPOS>BOND
  1   1   2  2   
  2   1   3  2   
  3   1   4  am  
  4   1   5  1   
  5   4   6  1   
  6   4   7  1   
  7   5   8  ar  
  8   5   9  ar  
  9   6  10  1   
 10   6  20  1   
 11   6  21  1   
 12   7  11  1   
 13   7  22  1   
 14   7  23  1   
 15   8  12  ar  
 16   8  24  1   
 17   9  13  ar  
 18   9  25  1   
 19  10  14  1   
 20  10  26  1   
 21  10  27  1   
 22  11  14  1   
 23  11  28  1   
 24  11  29  1   
 25  12  15  ar  
 26  12  30  1   
 27  13  15  ar  
 28  13  31  1   
 29  14  16  1   
 30  14  32  1   
 31  15  17  1   
 32  16  18  1   
 33  16  33  1   
 34  16  34  1   
 35  17  35  1   
 36  17  36  1   
 37  17  37  1   
 38  18  19  1   
 39  18  38  1   
 40  18  39  1   
 41  19  40  1   
 42  19  41  1   
 43  19  42  1   
@<TRIPOS>SUBSTRUCTURE
  1 ****   4 GROUP 4 **** **** 0

# MOE 2024.06 (io_trps.svl 2023.06)
