@<TRIPOS>MOLECULE
NONAME
40 40 1 0 0 
SMALL
USER_CHARGES


@<TRIPOS>ATOM
  1 CL       0.0030     0.0620     0.5560 Cl    1 <1>  -0.1770 
  2 C       -1.4510    -0.8790     0.3340 C.ar  1 <1>   0.1770 
  3 C       -2.6700    -0.2350     0.2660 C.ar  1 <1>  -0.1500 
  4 C       -1.3560    -2.2480     0.2290 C.ar  1 <1>  -0.1500 
  5 C       -3.8570    -0.9490     0.0900 C.ar  1 <1>  -0.1440 
  6 C       -2.5110    -2.9820     0.0540 C.ar  1 <1>  -0.1500 
  7 C       -3.7550    -2.3480    -0.0110 C.ar  1 <1>   0.0830 
  8 C       -5.2200    -0.1980     0.0140 C.3   1 <1>   0.1440 
  9 O       -4.8880    -3.0810    -0.1760 O.3   1 <1>  -0.3630 
 10 C       -5.0790     1.3320     0.1460 C.3   1 <1>  -0.2400 
 11 C       -6.1480    -0.6370     1.1610 C.3   1 <1>  -0.2400 
 12 C       -5.9020    -0.4440    -1.3430 C.3   1 <1>  -0.2400 
 13 C       -4.9270    -4.4770    -0.0180 C.3   1 <1>   0.1200 
 14 C       -6.3990    -4.8940    -0.1040 C.3   1 <1>   0.3430 
 15 N       -6.6010    -6.3780     0.0320 N.4   1 <1>  -0.9590 
 16 C       -8.0170    -6.7300    -0.3020 C.3   1 <1>   0.2630 
 17 C       -6.2580    -6.8750     1.4030 C.3   1 <1>   0.2630 
 18 H       -2.6410     0.8330     0.3560 H     1 <1>   0.1500 
 19 H       -0.3920    -2.7220     0.2810 H     1 <1>   0.1500 
 20 H       -2.4100    -4.0450    -0.0340 H     1 <1>   0.1500 
 21 H       -4.6420     1.5950     1.0930 H     1 <1>   0.0800 
 22 H       -6.0400     1.8110     0.0860 H     1 <1>   0.0800 
 23 H       -4.4680     1.7270    -0.6470 H     1 <1>   0.0800 
 24 H       -5.6510    -0.4990     2.1050 H     1 <1>   0.0800 
 25 H       -6.4300    -1.6660     1.0750 H     1 <1>   0.0800 
 26 H       -7.0510    -0.0520     1.1630 H     1 <1>   0.0800 
 27 H       -5.2350    -0.1690    -2.1410 H     1 <1>   0.0800 
 28 H       -6.7980     0.1440    -1.4310 H     1 <1>   0.0800 
 29 H       -6.1750    -1.4720    -1.4740 H     1 <1>   0.0800 
 30 H       -4.5080    -4.7120     0.9440 H     1 <1>   0.0800 
 31 H       -4.3550    -4.9200    -0.8140 H     1 <1>   0.0800 
 32 H       -6.7800    -4.5690    -1.0590 H     1 <1>   0.0800 
 33 H       -6.9490    -4.3830     0.6690 H     1 <1>   0.0800 
 34 H       -5.9920    -6.8520    -0.6540 H     1 <1>   0.4500 
 35 H       -8.6950    -6.2530     0.3870 H     1 <1>   0.0800 
 36 H       -8.1620    -7.7970    -0.2430 H     1 <1>   0.0800 
 37 H       -8.2590    -6.4070    -1.3020 H     1 <1>   0.0800 
 38 H       -6.8720    -6.3880     2.1440 H     1 <1>   0.0800 
 39 H       -5.2230    -6.6780     1.6300 H     1 <1>   0.0800 
 40 H       -6.4230    -7.9390     1.4670 H     1 <1>   0.0800 
@<TRIPOS>BOND
  1   1   2  1   
  2   2   3  ar  
  3   2   4  ar  
  4   3   5  ar  
  5   3  18  1   
  6   4   6  ar  
  7   4  19  1   
  8   5   7  ar  
  9   5   8  1   
 10   6   7  ar  
 11   6  20  1   
 12   7   9  1   
 13   8  10  1   
 14   8  11  1   
 15   8  12  1   
 16   9  13  1   
 17  10  21  1   
 18  10  22  1   
 19  10  23  1   
 20  11  24  1   
 21  11  25  1   
 22  11  26  1   
 23  12  27  1   
 24  12  28  1   
 25  12  29  1   
 26  13  14  1   
 27  13  30  1   
 28  13  31  1   
 29  14  15  1   
 30  14  32  1   
 31  14  33  1   
 32  15  16  1   
 33  15  17  1   
 34  15  34  1   
 35  16  35  1   
 36  16  36  1   
 37  16  37  1   
 38  17  38  1   
 39  17  39  1   
 40  17  40  1   
@<TRIPOS>SUBSTRUCTURE
  1 ****   7 GROUP 4 **** **** 0

# MOE 2024.06 (io_trps.svl 2023.06)
