@<TRIPOS>MOLECULE
NONAME
25 25 1 0 0 
SMALL
USER_CHARGES


@<TRIPOS>ATOM
  1 BR       0.1840    -0.1630     1.7840 Br    1 <1>  -0.0580 
  2 C        1.5150     1.0410     1.0960 C.2   1 <1>   0.1980 
  3 O        2.7740     0.7190     1.2490 O.3   1 <1>  -0.2800 
  4 C        1.3430     2.2110     0.4540 C.2   1 <1>  -0.1500 
  5 C        3.5010     1.6950     0.6980 C.2   1 <1>   0.0550 
  6 C        2.6470     2.6400     0.1930 C.2   1 <1>  -0.1500 
  7 C        4.9480     1.6390     0.7020 C.2   1 <1>   0.7150 
  8 O        5.5450     0.7050     1.2050 O.2   1 <1>  -0.5700 
  9 N        5.6560     2.6610     0.1250 N.am  1 <1>  -0.7300 
 10 C        7.1050     2.8400     0.0000 C.3   1 <1>   0.3000 
 11 C        7.3140     4.1630    -0.7340 C.3   1 <1>  -0.2400 
 12 C        7.7430     2.9210     1.3870 C.3   1 <1>  -0.2400 
 13 C        7.7020     1.7000    -0.8270 C.3   1 <1>  -0.2400 
 14 H        0.4270     2.7100     0.1960 H     1 <1>   0.1500 
 15 H        2.8950     3.5540    -0.3160 H     1 <1>   0.1500 
 16 H        5.1240     3.4230    -0.2850 H     1 <1>   0.3700 
 17 H        8.3660     4.3530    -0.8580 H     1 <1>   0.0800 
 18 H        6.8930     4.9790    -0.1740 H     1 <1>   0.0800 
 19 H        6.8650     4.1320    -1.7110 H     1 <1>   0.0800 
 20 H        7.2820     3.6960     1.9710 H     1 <1>   0.0800 
 21 H        8.7920     3.1370     1.3000 H     1 <1>   0.0800 
 22 H        7.6440     1.9860     1.9070 H     1 <1>   0.0800 
 23 H        7.2120     1.6270    -1.7810 H     1 <1>   0.0800 
 24 H        7.6030     0.7620    -0.3110 H     1 <1>   0.0800 
 25 H        8.7500     1.8730    -0.9940 H     1 <1>   0.0800 
@<TRIPOS>BOND
  1   1   2  1   
  2   2   3  1   
  3   2   4  2   
  4   3   5  1   
  5   4   6  1   
  6   4  14  1   
  7   5   6  2   
  8   5   7  1   
  9   6  15  1   
 10   7   8  2   
 11   7   9  am  
 12   9  10  1   
 13   9  16  1   
 14  10  11  1   
 15  10  12  1   
 16  10  13  1   
 17  11  17  1   
 18  11  18  1   
 19  11  19  1   
 20  12  20  1   
 21  12  21  1   
 22  12  22  1   
 23  13  23  1   
 24  13  24  1   
 25  13  25  1   
@<TRIPOS>SUBSTRUCTURE
  1 ****   7 GROUP 4 **** **** 0

# MOE 2024.06 (io_trps.svl 2023.06)
