@<TRIPOS>MOLECULE
NONAME
38 39 1 0 0 
SMALL
USER_CHARGES


@<TRIPOS>ATOM
  1 O       -0.6390    -0.0030    -0.0930 O.2   1 <1>  -0.5700 
  2 C       -0.8200    -1.1920     0.0810 C.2   1 <1>   0.7800 
  3 O       -2.0570    -1.6680     0.2010 O.3   1 <1>  -0.4300 
  4 N        0.1630    -2.1230     0.1640 N.am  1 <1>  -0.5470 
  5 C       -3.1720    -0.8090     0.1290 C.3   1 <1>   0.1200 
  6 C        1.5690    -2.0710     0.0840 C.ar  1 <1>   0.1170 
  7 C       -4.4310    -1.6520     0.3010 C.3   1 <1>  -0.2400 
  8 C        2.2800    -3.2760     0.1200 C.ar  1 <1>   0.0830 
  9 C        2.2810    -0.8840    -0.0270 C.ar  1 <1>  -0.1500 
 10 O        1.5480    -4.4260     0.2380 O.3   1 <1>  -0.3630 
 11 C        3.6680    -3.2710     0.0390 C.ar  1 <1>  -0.1500 
 12 C        3.6610    -0.8890    -0.1060 C.ar  1 <1>  -0.1500 
 13 C        2.1690    -5.6880     0.3470 C.3   1 <1>   0.0400 
 14 C        4.3750    -2.0810    -0.0740 C.ar  1 <1>   0.1170 
 15 N        5.7760    -2.1330    -0.1690 N.am  1 <1>  -0.5470 
 16 C        6.7320    -1.2000     0.1120 C.2   1 <1>   0.6300 
 17 O        6.5000    -0.0970     0.5420 O.2   1 <1>  -0.5700 
 18 C        8.1780    -1.5970    -0.1410 C.3   1 <1>  -0.1000 
 19 C        8.7370    -2.9100     0.3340 C.3   1 <1>  -0.2000 
 20 C        9.1670    -1.6340     0.9870 C.3   1 <1>  -0.2000 
 21 H       -0.1930    -3.0700     0.2840 H     1 <1>   0.3700 
 22 H       -3.1620    -0.3170    -0.8290 H     1 <1>   0.0800 
 23 H       -3.0870    -0.0750     0.9130 H     1 <1>   0.0800 
 24 H       -4.4950    -2.3860    -0.4820 H     1 <1>   0.0800 
 25 H       -5.2990    -1.0200     0.2510 H     1 <1>   0.0800 
 26 H       -4.4200    -2.1440     1.2570 H     1 <1>   0.0800 
 27 H        1.7670     0.0590    -0.0520 H     1 <1>   0.1500 
 28 H        4.2230    -4.1860     0.0650 H     1 <1>   0.1500 
 29 H        4.1790     0.0490    -0.1960 H     1 <1>   0.1500 
 30 H        1.3990    -6.4310     0.4550 H     1 <1>   0.0800 
 31 H        2.8030    -5.6920     1.2160 H     1 <1>   0.0800 
 32 H        2.7350    -5.8790    -0.5480 H     1 <1>   0.0800 
 33 H        6.1550    -3.0280    -0.4700 H     1 <1>   0.3700 
 34 H        8.5320    -1.2030    -1.0770 H     1 <1>   0.1000 
 35 H        9.4460    -3.4290    -0.2880 H     1 <1>   0.1000 
 36 H        8.1280    -3.5810     0.9160 H     1 <1>   0.1000 
 37 H        8.8130    -1.4020     1.9780 H     1 <1>   0.1000 
 38 H       10.1610    -1.2600     0.8090 H     1 <1>   0.1000 
@<TRIPOS>BOND
  1   1   2  2   
  2   2   3  1   
  3   2   4  am  
  4   3   5  1   
  5   4   6  1   
  6   4  21  1   
  7   5   7  1   
  8   5  22  1   
  9   5  23  1   
 10   6   8  ar  
 11   6   9  ar  
 12   7  24  1   
 13   7  25  1   
 14   7  26  1   
 15   8  10  1   
 16   8  11  ar  
 17   9  12  ar  
 18   9  27  1   
 19  10  13  1   
 20  11  14  ar  
 21  11  28  1   
 22  12  14  ar  
 23  12  29  1   
 24  13  30  1   
 25  13  31  1   
 26  13  32  1   
 27  14  15  1   
 28  15  16  am  
 29  15  33  1   
 30  16  17  2   
 31  16  18  1   
 32  18  19  1   
 33  18  20  1   
 34  18  34  1   
 35  19  20  1   
 36  19  35  1   
 37  19  36  1   
 38  20  37  1   
 39  20  38  1   
@<TRIPOS>SUBSTRUCTURE
  1 ****   9 GROUP 4 **** **** 0

# MOE 2024.06 (io_trps.svl 2023.06)
