@<TRIPOS>MOLECULE
NONAME
29 30 1 0 0 
SMALL
USER_CHARGES


@<TRIPOS>ATOM
  1 S       -0.1600     0.4780     0.3140 S.3   1 <1>  -0.2860 
  2 C        1.5230    -0.1140     0.4820 C.2   1 <1>   0.2420 
  3 C       -1.1380    -1.0850     0.4710 C.3   1 <1>   0.2700 
  4 N        1.8120    -1.3520     0.6600 N.2   1 <1>  -0.3380 
  5 N        2.5870     0.6830     0.4230 N.pl3 1 <1>   0.0480 
  6 C       -2.5890    -0.7750     0.3450 C.1   1 <1>   0.3570 
  7 N        3.1430    -1.4050     0.7200 N.2   1 <1>  -0.3380 
  8 C        3.6020    -0.1910     0.5810 C.2   1 <1>   0.1870 
  9 C        2.6350     2.1400     0.1580 C.3   1 <1>   0.0960 
 10 N       -3.7030    -0.5590     0.2510 N.1   1 <1>  -0.5570 
 11 C        4.9980     0.1710     0.5710 C.2   1 <1>  -0.0010 
 12 C        2.9470     2.4110    -1.3170 C.3   1 <1>  -0.2400 
 13 C        6.0060    -0.3180    -0.1990 C.2   1 <1>  -0.0400 
 14 C        5.6220     1.1350     1.3880 C.2   1 <1>  -0.1500 
 15 O        7.1470     0.2770     0.0750 O.3   1 <1>  -0.2800 
 16 C        5.9950    -1.3900    -1.2690 C.3   1 <1>  -0.0600 
 17 C        6.9220     1.1500     1.0330 C.2   1 <1>  -0.0100 
 18 H       -0.9160    -1.5080     1.4330 H     1 <1>   0.0800 
 19 H       -0.8160    -1.7470    -0.3120 H     1 <1>   0.0800 
 20 H        3.3870     2.5870     0.7810 H     1 <1>   0.0800 
 21 H        1.6870     2.5770     0.4170 H     1 <1>   0.0800 
 22 H        3.9080     2.0050    -1.5810 H     1 <1>   0.0800 
 23 H        2.9680     3.4710    -1.4940 H     1 <1>   0.0800 
 24 H        2.1910     1.9760    -1.9470 H     1 <1>   0.0800 
 25 H        5.1330     1.7190     2.1460 H     1 <1>   0.1500 
 26 H        5.0040    -1.7850    -1.3990 H     1 <1>   0.0800 
 27 H        6.6530    -2.1900    -0.9830 H     1 <1>   0.0800 
 28 H        6.3330    -0.9770    -2.2020 H     1 <1>   0.0800 
 29 H        7.7470     1.7340     1.4040 H     1 <1>   0.1500 
@<TRIPOS>BOND
  1   1   2  1   
  2   1   3  1   
  3   2   4  2   
  4   2   5  1   
  5   3   6  1   
  6   3  18  1   
  7   3  19  1   
  8   4   7  1   
  9   5   8  1   
 10   5   9  1   
 11   6  10  3   
 12   7   8  2   
 13   8  11  1   
 14   9  12  1   
 15   9  20  1   
 16   9  21  1   
 17  11  13  2   
 18  11  14  1   
 19  12  22  1   
 20  12  23  1   
 21  12  24  1   
 22  13  15  1   
 23  13  16  1   
 24  14  17  2   
 25  14  25  1   
 26  15  17  1   
 27  16  26  1   
 28  16  27  1   
 29  16  28  1   
 30  17  29  1   
@<TRIPOS>SUBSTRUCTURE
  1 ****   5 GROUP 4 **** **** 0

# MOE 2024.06 (io_trps.svl 2023.06)
