@<TRIPOS>MOLECULE
NONAME
45 46 1 0 0 
SMALL
USER_CHARGES


@<TRIPOS>ATOM
  1 O       -7.1150     3.3850    -0.0820 O.3   1 <1>  -0.3630 
  2 C       -6.7610     4.6190    -0.5430 C.ar  1 <1>   0.0830 
  3 C       -6.1330     2.5620     0.5060 C.3   1 <1>   0.2580 
  4 C       -7.3950     5.1420    -1.6770 C.ar  1 <1>   0.0830 
  5 C       -5.7720     5.3710     0.0860 C.ar  1 <1>  -0.1500 
  6 C       -6.6760     1.1470     0.5630 C.2   1 <1>  -0.2880 
  7 O       -8.3810     4.4870    -2.3410 O.3   1 <1>  -0.3630 
  8 C       -7.0100     6.3730    -2.1810 C.ar  1 <1>  -0.1500 
  9 C       -5.4040     6.6060    -0.4200 C.ar  1 <1>  -0.1500 
 10 C       -6.8560     0.4270     1.6760 C.2   1 <1>  -0.3000 
 11 C       -9.5500     4.1540    -1.6210 C.3   1 <1>   0.1200 
 12 C       -6.0180     7.1060    -1.5540 C.ar  1 <1>  -0.1500 
 13 C       -9.7820     2.6460    -1.7520 C.3   1 <1>   0.1100 
 14 N      -10.7810     2.1620    -0.7740 N.3   1 <1>  -0.8100 
 15 C      -11.3320     0.8510    -1.1940 C.3   1 <1>   0.1100 
 16 C      -10.1810     2.0370     0.5820 C.3   1 <1>   0.1100 
 17 C      -12.3340     0.2700    -0.1650 C.3   1 <1>   0.3430 
 18 C      -11.1900     1.5130     1.6310 C.3   1 <1>   0.3430 
 19 N      -12.5150     1.2000     0.9990 N.4   1 <1>  -0.9590 
 20 C      -13.5510     0.7520     1.9710 C.3   1 <1>   0.2630 
 21 H       -5.9220     2.9320     1.4940 H     1 <1>   0.0800 
 22 H       -5.2440     2.5990    -0.1010 H     1 <1>   0.0800 
 23 H       -5.2820     5.0150     0.9720 H     1 <1>   0.1500 
 24 H       -6.9010     0.7690    -0.4200 H     1 <1>   0.1500 
 25 H       -7.4930     6.7530    -3.0630 H     1 <1>   0.1500 
 26 H       -4.6360     7.1810     0.0700 H     1 <1>   0.1500 
 27 H       -7.2320    -0.5820     1.6840 H     1 <1>   0.1500 
 28 H       -6.6340     0.7780     2.6690 H     1 <1>   0.1500 
 29 H      -10.3680     4.6990    -2.0540 H     1 <1>   0.0800 
 30 H       -9.4270     4.4530    -0.5970 H     1 <1>   0.0800 
 31 H       -5.7260     8.0630    -1.9500 H     1 <1>   0.1500 
 32 H       -8.8510     2.1240    -1.6120 H     1 <1>   0.0800 
 33 H      -10.1310     2.4570    -2.7530 H     1 <1>   0.0800 
 34 H      -10.5290     0.1470    -1.3390 H     1 <1>   0.0800 
 35 H      -11.8340     0.9650    -2.1400 H     1 <1>   0.0800 
 36 H       -9.8060     2.9900     0.9120 H     1 <1>   0.0800 
 37 H       -9.3420     1.3650     0.5450 H     1 <1>   0.0800 
 38 H      -11.9730    -0.6850     0.1800 H     1 <1>   0.0800 
 39 H      -13.2800     0.1060    -0.6540 H     1 <1>   0.0800 
 40 H      -11.3170     2.2630     2.3940 H     1 <1>   0.0800 
 41 H      -10.7840     0.6320     2.1010 H     1 <1>   0.0800 
 42 H      -12.7830     2.0940     0.5530 H     1 <1>   0.4500 
 43 H      -13.2570    -0.1790     2.4280 H     1 <1>   0.0800 
 44 H      -14.4950     0.6090     1.4710 H     1 <1>   0.0800 
 45 H      -13.6810     1.4910     2.7450 H     1 <1>   0.0800 
@<TRIPOS>BOND
  1   1   2  1   
  2   1   3  1   
  3   2   4  ar  
  4   2   5  ar  
  5   3   6  1   
  6   3  21  1   
  7   3  22  1   
  8   4   7  1   
  9   4   8  ar  
 10   5   9  ar  
 11   5  23  1   
 12   6  10  2   
 13   6  24  1   
 14   7  11  1   
 15   8  12  ar  
 16   8  25  1   
 17   9  12  ar  
 18   9  26  1   
 19  10  27  1   
 20  10  28  1   
 21  11  13  1   
 22  11  29  1   
 23  11  30  1   
 24  12  31  1   
 25  13  14  1   
 26  13  32  1   
 27  13  33  1   
 28  14  15  1   
 29  14  16  1   
 30  15  17  1   
 31  15  34  1   
 32  15  35  1   
 33  16  18  1   
 34  16  36  1   
 35  16  37  1   
 36  17  19  1   
 37  17  38  1   
 38  17  39  1   
 39  18  19  1   
 40  18  40  1   
 41  18  41  1   
 42  19  20  1   
 43  19  42  1   
 44  20  43  1   
 45  20  44  1   
 46  20  45  1   
@<TRIPOS>SUBSTRUCTURE
  1 ****   1 GROUP 4 **** **** 0

# MOE 2024.06 (io_trps.svl 2023.06)
