@<TRIPOS>MOLECULE
NONAME
37 39 1 0 0 
SMALL
USER_CHARGES


@<TRIPOS>ATOM
  1 F        0.1180    -0.6410    -0.3050 F     1 <1>  -0.1900 
  2 C        1.2940    -1.2140    -0.2680 C.ar  1 <1>   0.1900 
  3 C        2.2790    -0.6630     0.5300 C.ar  1 <1>  -0.1500 
  4 C        1.5080    -2.3490    -1.0280 C.ar  1 <1>  -0.1500 
  5 C        3.5210    -1.2740     0.5650 C.ar  1 <1>  -0.1500 
  6 C        2.7550    -2.9480    -0.9830 C.ar  1 <1>  -0.1500 
  7 C        3.7690    -2.4200    -0.1900 C.ar  1 <1>   0.1000 
  8 N        5.0090    -3.0480    -0.1660 N.pl3 1 <1>  -0.8380 
  9 C        5.3660    -3.7550     1.0970 C.3   1 <1>   0.2090 
 10 C        6.1400    -2.3040    -0.7960 C.3   1 <1>   0.2090 
 11 C        6.5860    -4.6760     0.8800 C.3   1 <1>   0.3430 
 12 C        7.3600    -3.2290    -0.9960 C.3   1 <1>   0.3430 
 13 N        7.7610    -3.9500     0.2730 N.4   1 <1>  -0.9590 
 14 C        8.9180    -4.8590     0.0350 C.3   1 <1>   0.5230 
 15 C       10.1990    -4.0460    -0.0230 C.2   1 <1>  -0.0400 
 16 O       10.3650    -3.1680    -0.9950 O.3   1 <1>  -0.2800 
 17 C       11.2780    -4.0550     0.7910 C.2   1 <1>  -0.1500 
 18 C       11.5440    -2.6020    -0.8280 C.2   1 <1>  -0.0100 
 19 C       12.1600    -3.1050     0.2620 C.2   1 <1>  -0.1500 
 20 H        2.0710     0.2200     1.1050 H     1 <1>   0.1500 
 21 H        0.7160    -2.7470    -1.6370 H     1 <1>   0.1500 
 22 H        4.2990    -0.8610     1.1790 H     1 <1>   0.1500 
 23 H        2.9510    -3.8310    -1.5630 H     1 <1>   0.1500 
 24 H        4.5250    -4.3460     1.4200 H     1 <1>   0.0800 
 25 H        5.5800    -3.0360     1.8690 H     1 <1>   0.0800 
 26 H        6.4140    -1.4660    -0.1790 H     1 <1>   0.0800 
 27 H        5.8230    -1.9220    -1.7510 H     1 <1>   0.0800 
 28 H        6.2810    -5.4760     0.2260 H     1 <1>   0.0800 
 29 H        6.8680    -5.1090     1.8250 H     1 <1>   0.0800 
 30 H        8.1810    -2.6380    -1.3640 H     1 <1>   0.0800 
 31 H        7.1090    -3.9490    -1.7560 H     1 <1>   0.0800 
 32 H        8.0880    -3.2330     0.9330 H     1 <1>   0.4500 
 33 H        8.7880    -5.4050    -0.8850 H     1 <1>   0.0800 
 34 H        9.0000    -5.5670     0.8430 H     1 <1>   0.0800 
 35 H       11.4750    -4.6460     1.6700 H     1 <1>   0.1500 
 36 H       11.8720    -1.8520    -1.5280 H     1 <1>   0.1500 
 37 H       13.1280    -2.8540     0.6630 H     1 <1>   0.1500 
@<TRIPOS>BOND
  1   1   2  1   
  2   2   3  ar  
  3   2   4  ar  
  4   3   5  ar  
  5   3  20  1   
  6   4   6  ar  
  7   4  21  1   
  8   5   7  ar  
  9   5  22  1   
 10   6   7  ar  
 11   6  23  1   
 12   7   8  1   
 13   8   9  1   
 14   8  10  1   
 15   9  11  1   
 16   9  24  1   
 17   9  25  1   
 18  10  12  1   
 19  10  26  1   
 20  10  27  1   
 21  11  13  1   
 22  11  28  1   
 23  11  29  1   
 24  12  13  1   
 25  12  30  1   
 26  12  31  1   
 27  13  14  1   
 28  13  32  1   
 29  14  15  1   
 30  14  33  1   
 31  14  34  1   
 32  15  16  1   
 33  15  17  2   
 34  16  18  1   
 35  17  19  1   
 36  17  35  1   
 37  18  19  2   
 38  18  36  1   
 39  19  37  1   
@<TRIPOS>SUBSTRUCTURE
  1 ****  10 GROUP 4 **** **** 0

# MOE 2024.06 (io_trps.svl 2023.06)
