@<TRIPOS>MOLECULE
NONAME
29 29 1 0 0 
SMALL
USER_CHARGES


@<TRIPOS>ATOM
  1 O        5.8360    -2.7200    -0.7500 O.co2 1 <1>  -0.9000 
  2 C        5.4360    -3.6990    -0.1200 C.2   1 <1>   0.9060 
  3 O        5.9200    -4.0530     0.9520 O.co2 1 <1>  -0.9000 
  4 C        4.0840    -4.2340    -0.4840 C.3   1 <1>  -0.2660 
  5 C        3.0700    -3.5710     0.4600 C.3   1 <1>   0.0630 
  6 C        1.6300    -3.7120    -0.0310 C.ar  1 <1>  -0.1440 
  7 C        3.4120    -2.0820     0.6740 C.3   1 <1>   0.3430 
  8 C        0.6940    -4.3810     0.7430 C.ar  1 <1>  -0.1500 
  9 C        1.2290    -3.1410    -1.2310 C.ar  1 <1>  -0.1500 
 10 N        2.2960    -1.3870     1.3620 N.4   1 <1>  -0.8530 
 11 C       -0.6260    -4.4580     0.3350 C.ar  1 <1>  -0.1500 
 12 C       -0.0910    -3.2190    -1.6370 C.ar  1 <1>  -0.1500 
 13 C       -1.0270    -3.8730    -0.8540 C.ar  1 <1>  -0.1430 
 14 C       -2.4750    -3.9640    -1.3040 C.3   1 <1>  -0.0970 
 15 H        4.0800    -5.3010    -0.3650 H     1 <1>   0.0800 
 16 H        3.8920    -3.9940    -1.5110 H     1 <1>   0.0800 
 17 H        3.1750    -4.0580     1.4150 H     1 <1>   0.0800 
 18 H        3.5860    -1.6320    -0.2910 H     1 <1>   0.0800 
 19 H        4.3260    -1.9950     1.2430 H     1 <1>   0.0800 
 20 H        0.9830    -4.8530     1.6670 H     1 <1>   0.1500 
 21 H        1.9410    -2.6360    -1.8630 H     1 <1>   0.1500 
 22 H        1.4240    -1.6580     0.8850 H     1 <1>   0.4500 
 23 H        2.4230    -0.3730     1.3240 H     1 <1>   0.4500 
 24 H        2.2430    -1.7000     2.3350 H     1 <1>   0.4500 
 25 H       -1.3410    -4.9850     0.9440 H     1 <1>   0.1500 
 26 H       -0.3870    -2.7760    -2.5730 H     1 <1>   0.1500 
 27 H       -2.6150    -4.8510    -1.8960 H     1 <1>   0.0800 
 28 H       -2.7420    -3.1070    -1.8960 H     1 <1>   0.0800 
 29 H       -3.1330    -4.0080    -0.4550 H     1 <1>   0.0800 
@<TRIPOS>BOND
  1   1   2  ar  
  2   2   3  ar  
  3   2   4  1   
  4   4   5  1   
  5   4  15  1   
  6   4  16  1   
  7   5   6  1   
  8   5   7  1   
  9   5  17  1   
 10   6   8  ar  
 11   6   9  ar  
 12   7  10  1   
 13   7  18  1   
 14   7  19  1   
 15   8  11  ar  
 16   8  20  1   
 17   9  12  ar  
 18   9  21  1   
 19  10  22  1   
 20  10  23  1   
 21  10  24  1   
 22  11  13  ar  
 23  11  25  1   
 24  12  13  ar  
 25  12  26  1   
 26  13  14  1   
 27  14  27  1   
 28  14  28  1   
 29  14  29  1   
@<TRIPOS>SUBSTRUCTURE
  1 ****   6 GROUP 4 **** **** 0

# MOE 2024.06 (io_trps.svl 2023.06)
