@<TRIPOS>MOLECULE
NONAME
49 52 1 0 0 
SMALL
USER_CHARGES


@<TRIPOS>ATOM
  1 P        0.5420    -0.5940     1.3640 P.3   1 <1>   1.2420 
  2 O        0.4780    -0.4370     2.8190 O.2   1 <1>  -0.7000 
  3 O       -0.8510    -1.1220     0.7710 O.3   1 <1>  -0.5510 
  4 O        0.5390     0.8090     0.5820 O.3   1 <1>  -0.5510 
  5 C        1.8660    -1.6280     0.6440 C.3   1 <1>   0.4700 
  6 C       -1.6140    -0.0870     0.2810 C.3   1 <1>   0.2000 
  7 C       -0.6040     0.9910    -0.1740 C.3   1 <1>   0.2000 
  8 N        1.8040    -3.1170     0.8930 N.pl3 1 <1>  -0.8690 
  9 C        3.2660    -1.1820     1.0600 C.2   1 <1>  -0.1810 
 10 C       -2.5480     0.3860     1.3980 C.3   1 <1>  -0.2400 
 11 C       -0.2090     0.8450    -1.6450 C.3   1 <1>  -0.2400 
 12 C        0.8560    -3.8220     0.1700 C.ar  1 <1>   0.1000 
 13 C        3.9470    -0.0870     0.4750 C.ar  1 <1>   0.0000 
 14 C        4.0800    -1.6960     2.0180 C.2   1 <1>  -0.3020 
 15 C        1.0190    -4.0340    -1.1920 C.ar  1 <1>  -0.1500 
 16 C       -0.2800    -4.3200     0.7940 C.ar  1 <1>  -0.1500 
 17 C        5.1730     0.0090     1.1260 C.ar  1 <1>  -0.1520 
 18 C        3.6420     0.8260    -0.5420 C.ar  1 <1>  -0.1500 
 19 N        5.2420    -0.9830     2.0680 N.pl3 1 <1>   0.0330 
 20 C        0.0610    -4.7170    -1.9200 C.ar  1 <1>  -0.1500 
 21 C       -1.2390    -5.0030     0.0680 C.ar  1 <1>  -0.1500 
 22 C        6.0990     0.9970     0.7840 C.ar  1 <1>  -0.1500 
 23 C        4.5530     1.8000    -0.8790 C.ar  1 <1>  -0.1500 
 24 C       -1.0750    -5.2050    -1.2940 C.ar  1 <1>  -0.1430 
 25 C        5.7830     1.8870    -0.2160 C.ar  1 <1>  -0.1500 
 26 C       -2.1290    -5.9530    -2.0890 C.3   1 <1>  -0.0970 
 27 H        1.8270    -1.5090    -0.4220 H     1 <1>   0.0800 
 28 H       -2.1980    -0.4570    -0.5450 H     1 <1>   0.0800 
 29 H       -0.9820     1.9830     0.0090 H     1 <1>   0.0800 
 30 H        1.7600    -3.2800     1.9030 H     1 <1>   0.4000 
 31 H       -1.9900     0.7650     2.2370 H     1 <1>   0.0800 
 32 H       -3.1670    -0.4300     1.7270 H     1 <1>   0.0800 
 33 H       -3.1860     1.1700     1.0350 H     1 <1>   0.0800 
 34 H        0.1800    -0.1370    -1.8440 H     1 <1>   0.0800 
 35 H        0.5270     1.5860    -1.9030 H     1 <1>   0.0800 
 36 H       -1.0710     1.0000    -2.2690 H     1 <1>   0.0800 
 37 H        3.9040    -2.5330     2.6700 H     1 <1>   0.1500 
 38 H        1.9060    -3.6680    -1.6750 H     1 <1>   0.1500 
 39 H       -0.4180    -4.1640     1.8470 H     1 <1>   0.1500 
 40 H        2.7000     0.7620    -1.0500 H     1 <1>   0.1500 
 41 H        6.0330    -1.1490     2.6970 H     1 <1>   0.2700 
 42 H        0.2050    -4.8700    -2.9750 H     1 <1>   0.1500 
 43 H       -2.1150    -5.3760     0.5680 H     1 <1>   0.1500 
 44 H        7.0410     1.0550     1.2990 H     1 <1>   0.1500 
 45 H        4.3290     2.5090    -1.6570 H     1 <1>   0.1500 
 46 H        6.4770     2.6580    -0.4990 H     1 <1>   0.1500 
 47 H       -2.6040    -6.6970    -1.4740 H     1 <1>   0.0800 
 48 H       -1.6840    -6.4460    -2.9340 H     1 <1>   0.0800 
 49 H       -2.8760    -5.2650    -2.4410 H     1 <1>   0.0800 
@<TRIPOS>BOND
  1   1   2  2   
  2   1   3  1   
  3   1   4  1   
  4   1   5  1   
  5   3   6  1   
  6   4   7  1   
  7   5   8  1   
  8   5   9  1   
  9   5  27  1   
 10   6   7  1   
 11   6  10  1   
 12   6  28  1   
 13   7  11  1   
 14   7  29  1   
 15   8  12  1   
 16   8  30  1   
 17   9  13  1   
 18   9  14  2   
 19  10  31  1   
 20  10  32  1   
 21  10  33  1   
 22  11  34  1   
 23  11  35  1   
 24  11  36  1   
 25  12  15  ar  
 26  12  16  ar  
 27  13  17  ar  
 28  13  18  ar  
 29  14  19  1   
 30  14  37  1   
 31  15  20  ar  
 32  15  38  1   
 33  16  21  ar  
 34  16  39  1   
 35  17  19  1   
 36  17  22  ar  
 37  18  23  ar  
 38  18  40  1   
 39  19  41  1   
 40  20  24  ar  
 41  20  42  1   
 42  21  24  ar  
 43  21  43  1   
 44  22  25  ar  
 45  22  44  1   
 46  23  25  ar  
 47  23  45  1   
 48  24  26  1   
 49  25  46  1   
 50  26  47  1   
 51  26  48  1   
 52  26  49  1   
@<TRIPOS>SUBSTRUCTURE
  1 ****   5 GROUP 4 **** **** 0

# MOE 2024.06 (io_trps.svl 2023.06)
