@<TRIPOS>MOLECULE
NONAME
49 52 1 0 0 
SMALL
USER_CHARGES


@<TRIPOS>ATOM
  1 CL      -1.2010    -0.9780     2.8810 Cl    1 <1>  -0.1770 
  2 C       -2.2100    -1.8980     1.7960 C.ar  1 <1>   0.1770 
  3 C       -2.3430    -3.2600     1.9810 C.ar  1 <1>  -0.1500 
  4 C       -2.8630    -1.2530     0.7640 C.ar  1 <1>  -0.1500 
  5 C       -3.1470    -3.9840     1.1160 C.ar  1 <1>  -0.1500 
  6 C       -3.6640    -1.9890    -0.0930 C.ar  1 <1>  -0.1500 
  7 C       -3.8230    -3.3640     0.0680 C.ar  1 <1>  -0.0090 
  8 S       -4.9030    -4.3160    -1.0310 S.o2  1 <1>   1.2040 
  9 O       -5.2460    -3.5050    -2.1800 O.2   1 <1>  -0.6500 
 10 O       -4.3360    -5.6310    -1.2230 O.2   1 <1>  -0.6500 
 11 C       -6.3860    -4.5070    -0.0450 C.3   1 <1>  -0.0550 
 12 C       -7.0940    -3.1740     0.2620 C.3   1 <1>  -0.0990 
 13 C       -8.3710    -3.3710     1.0580 C.2   1 <1>   0.5690 
 14 O       -8.4400    -4.3240     1.7910 O.2   1 <1>  -0.5700 
 15 N       -9.4250    -2.5260     0.9940 N.am  1 <1>  -0.7300 
 16 C       -9.7010    -1.2520     0.3040 C.3   1 <1>   0.3000 
 17 C       -8.5690    -0.2230     0.5010 C.3   1 <1>  -0.1600 
 18 C       -9.9520    -1.4910    -1.1980 C.3   1 <1>  -0.1600 
 19 C      -10.9900    -0.6830     0.9280 C.3   1 <1>  -0.1600 
 20 C       -8.9390     1.1060    -0.1870 C.3   1 <1>  -0.0800 
 21 C      -10.3180    -0.1620    -1.8880 C.3   1 <1>  -0.0800 
 22 C      -11.3790     0.6460     0.2530 C.3   1 <1>  -0.0800 
 23 C       -9.1710     0.8480    -1.6890 C.3   1 <1>  -0.1600 
 24 C      -10.2330     1.6580     0.4370 C.3   1 <1>  -0.1600 
 25 C      -11.6020     0.4010    -1.2510 C.3   1 <1>  -0.1600 
 26 H       -1.8210    -3.7430     2.7880 H     1 <1>   0.1500 
 27 H       -2.7420    -0.1920     0.6350 H     1 <1>   0.1500 
 28 H       -3.2460    -5.0490     1.2550 H     1 <1>   0.1500 
 29 H       -4.1690    -1.4880    -0.9030 H     1 <1>   0.1500 
 30 H       -6.1410    -4.9990     0.8780 H     1 <1>   0.0800 
 31 H       -7.0730    -5.1420    -0.5710 H     1 <1>   0.0800 
 32 H       -7.3170    -2.6920    -0.6670 H     1 <1>   0.0800 
 33 H       -6.4450    -2.5380     0.8340 H     1 <1>   0.0800 
 34 H      -10.2070    -2.8230     1.5790 H     1 <1>   0.3700 
 35 H       -7.6520    -0.5700     0.0710 H     1 <1>   0.0800 
 36 H       -8.4090    -0.0540     1.5520 H     1 <1>   0.0800 
 37 H      -10.7560    -2.1950    -1.3250 H     1 <1>   0.0800 
 38 H       -9.0800    -1.8960    -1.6730 H     1 <1>   0.0800 
 39 H      -10.8420    -0.5140     1.9810 H     1 <1>   0.0800 
 40 H      -11.7960    -1.3850     0.8100 H     1 <1>   0.0800 
 41 H       -8.1420     1.8180    -0.0580 H     1 <1>   0.0800 
 42 H      -10.4780    -0.3300    -2.9400 H     1 <1>   0.0800 
 43 H      -12.2810     1.0330     0.6970 H     1 <1>   0.0800 
 44 H       -9.4140     1.7740    -2.1820 H     1 <1>   0.0800 
 45 H       -8.2690     0.4700    -2.1400 H     1 <1>   0.0800 
 46 H      -10.4940     2.5920    -0.0310 H     1 <1>   0.0800 
 47 H      -10.0810     1.8520     1.4850 H     1 <1>   0.0800 
 48 H      -12.4150    -0.2890    -1.3930 H     1 <1>   0.0800 
 49 H      -11.8720     1.3250    -1.7340 H     1 <1>   0.0800 
@<TRIPOS>BOND
  1   1   2  1   
  2   2   3  ar  
  3   2   4  ar  
  4   3   5  ar  
  5   3  26  1   
  6   4   6  ar  
  7   4  27  1   
  8   5   7  ar  
  9   5  28  1   
 10   6   7  ar  
 11   6  29  1   
 12   7   8  1   
 13   8   9  2   
 14   8  10  2   
 15   8  11  1   
 16  11  12  1   
 17  11  30  1   
 18  11  31  1   
 19  12  13  1   
 20  12  32  1   
 21  12  33  1   
 22  13  14  2   
 23  13  15  am  
 24  15  16  1   
 25  15  34  1   
 26  16  17  1   
 27  16  18  1   
 28  16  19  1   
 29  17  20  1   
 30  17  35  1   
 31  17  36  1   
 32  18  21  1   
 33  18  37  1   
 34  18  38  1   
 35  19  22  1   
 36  19  39  1   
 37  19  40  1   
 38  20  23  1   
 39  20  24  1   
 40  20  41  1   
 41  21  23  1   
 42  21  25  1   
 43  21  42  1   
 44  22  24  1   
 45  22  25  1   
 46  22  43  1   
 47  23  44  1   
 48  23  45  1   
 49  24  46  1   
 50  24  47  1   
 51  25  48  1   
 52  25  49  1   
@<TRIPOS>SUBSTRUCTURE
  1 ****  12 GROUP 4 **** **** 0

# MOE 2024.06 (io_trps.svl 2023.06)
