@<TRIPOS>MOLECULE
NONAME
49 50 1 0 0 
SMALL
USER_CHARGES


@<TRIPOS>ATOM
  1 S       -0.2440     0.4660    -0.9850 S.o2  1 <1>   1.3330 
  2 O       -0.2120     1.3490    -2.1300 O.2   1 <1>  -0.6500 
  3 O        0.0730    -0.9350    -1.1560 O.2   1 <1>  -0.6500 
  4 N       -1.7930     0.5800    -0.3020 N.am  1 <1>  -0.8490 
  5 C        0.8090     1.1230     0.3140 C.3   1 <1>  -0.0550 
  6 C       -2.6850    -0.4760    -0.7910 C.3   1 <1>   0.1960 
  7 C       -2.3810     1.9120    -0.4780 C.3   1 <1>   0.1960 
  8 C        2.3040     1.1340    -0.0470 C.3   1 <1>  -0.1600 
  9 C       -4.0220    -0.4390    -0.0460 C.3   1 <1>  -0.1600 
 10 C       -3.6970     2.0210     0.2950 C.3   1 <1>  -0.1600 
 11 C        3.1480     1.7050     1.0960 C.3   1 <1>  -0.2400 
 12 C       -4.6930     0.9400    -0.1560 C.3   1 <1>  -0.0190 
 13 C       -5.9960     0.9930     0.6410 C.2   1 <1>   0.5690 
 14 O       -5.9430     0.9570     1.8460 O.2   1 <1>  -0.5700 
 15 N       -7.1650     1.0860    -0.0660 N.am  1 <1>  -0.5470 
 16 C       -8.5060     1.1380     0.3490 C.ar  1 <1>   0.1170 
 17 C       -9.4610     1.5900    -0.5530 C.ar  1 <1>  -0.1500 
 18 C       -8.9330     0.7470     1.6120 C.ar  1 <1>  -0.1500 
 19 C      -10.8040     1.6570    -0.2190 C.ar  1 <1>  -0.1440 
 20 C      -10.2700     0.8110     1.9570 C.ar  1 <1>  -0.1500 
 21 C      -11.2150     1.2640     1.0500 C.ar  1 <1>  -0.1440 
 22 C      -11.8020     2.1630    -1.2520 C.3   1 <1>  -0.0970 
 23 C      -12.6760     1.3190     1.4700 C.3   1 <1>  -0.0970 
 24 H        0.6700     0.5310     1.1980 H     1 <1>   0.0800 
 25 H        0.5020     2.1240     0.5400 H     1 <1>   0.0800 
 26 H       -2.2350    -1.4410    -0.6240 H     1 <1>   0.0800 
 27 H       -2.8410    -0.3590    -1.8520 H     1 <1>   0.0800 
 28 H       -2.5570     2.1000    -1.5260 H     1 <1>   0.0800 
 29 H       -1.6990     2.6620    -0.1160 H     1 <1>   0.0800 
 30 H        2.4520     1.7260    -0.9350 H     1 <1>   0.0800 
 31 H        2.6250     0.1280    -0.2630 H     1 <1>   0.0800 
 32 H       -3.8460    -0.6750     0.9900 H     1 <1>   0.0800 
 33 H       -4.6740    -1.1950    -0.4460 H     1 <1>   0.0800 
 34 H       -4.1240     2.9960     0.1400 H     1 <1>   0.0800 
 35 H       -3.4910     1.9160     1.3470 H     1 <1>   0.0800 
 36 H        2.8580     2.7190     1.3120 H     1 <1>   0.0800 
 37 H        4.1890     1.7000     0.8210 H     1 <1>   0.0800 
 38 H        3.0290     1.1130     1.9870 H     1 <1>   0.0800 
 39 H       -4.9200     1.1160    -1.1920 H     1 <1>   0.0800 
 40 H       -7.0500     1.1570    -1.0740 H     1 <1>   0.3700 
 41 H       -9.1460     1.8970    -1.5320 H     1 <1>   0.1500 
 42 H       -8.2280     0.3850     2.3360 H     1 <1>   0.1500 
 43 H      -10.5680     0.5030     2.9430 H     1 <1>   0.1500 
 44 H      -11.3120     2.4210    -2.1730 H     1 <1>   0.0800 
 45 H      -12.3030     3.0400    -0.8800 H     1 <1>   0.0800 
 46 H      -12.5330     1.4030    -1.4600 H     1 <1>   0.0800 
 47 H      -13.0390     2.3290     1.4090 H     1 <1>   0.0800 
 48 H      -12.7990     0.9780     2.4820 H     1 <1>   0.0800 
 49 H      -13.2680     0.6920     0.8290 H     1 <1>   0.0800 
@<TRIPOS>BOND
  1   1   2  2   
  2   1   3  2   
  3   1   4  am  
  4   1   5  1   
  5   4   6  1   
  6   4   7  1   
  7   5   8  1   
  8   5  24  1   
  9   5  25  1   
 10   6   9  1   
 11   6  26  1   
 12   6  27  1   
 13   7  10  1   
 14   7  28  1   
 15   7  29  1   
 16   8  11  1   
 17   8  30  1   
 18   8  31  1   
 19   9  12  1   
 20   9  32  1   
 21   9  33  1   
 22  10  12  1   
 23  10  34  1   
 24  10  35  1   
 25  11  36  1   
 26  11  37  1   
 27  11  38  1   
 28  12  13  1   
 29  12  39  1   
 30  13  14  2   
 31  13  15  am  
 32  15  16  1   
 33  15  40  1   
 34  16  17  ar  
 35  16  18  ar  
 36  17  19  ar  
 37  17  41  1   
 38  18  20  ar  
 39  18  42  1   
 40  19  21  ar  
 41  19  22  1   
 42  20  21  ar  
 43  20  43  1   
 44  21  23  1   
 45  22  44  1   
 46  22  45  1   
 47  22  46  1   
 48  23  47  1   
 49  23  48  1   
 50  23  49  1   
@<TRIPOS>SUBSTRUCTURE
  1 ****  12 GROUP 4 **** **** 0

# MOE 2024.06 (io_trps.svl 2023.06)
