@<TRIPOS>MOLECULE
NONAME
51 52 1 0 0 
SMALL
USER_CHARGES


@<TRIPOS>ATOM
  1 S        0.0260    -0.2090     0.5180 S.o2  1 <1>   1.3330 
  2 O        1.1010    -1.0630     0.0630 O.2   1 <1>  -0.6500 
  3 O       -1.3210    -0.7130     0.6040 O.2   1 <1>  -0.6500 
  4 N        0.0140     1.1570    -0.5390 N.am  1 <1>  -0.6930 
  5 C        0.4950     0.5230     2.0710 C.3   1 <1>  -0.1350 
  6 C       -0.9920     2.1220    -0.4610 C.ar  1 <1>   0.1990 
  7 C        1.0790     1.2920    -1.5810 C.3   1 <1>   0.2570 
  8 C       -0.8030     3.3370     0.2090 C.ar  1 <1>   0.0830 
  9 C       -2.2170     1.8800    -1.0630 C.ar  1 <1>  -0.1500 
 10 C        2.4740     1.6590    -1.0590 C.2   1 <1>   0.5690 
 11 O        0.3880     3.5930     0.8170 O.3   1 <1>  -0.3630 
 12 C       -1.8250     4.2710     0.2720 C.ar  1 <1>  -0.1500 
 13 C       -3.2370     2.8150    -1.0160 C.ar  1 <1>   0.0830 
 14 O        2.9260     2.7430    -1.3450 O.2   1 <1>  -0.5700 
 15 N        3.1700     0.7280    -0.3350 N.am  1 <1>  -0.5470 
 16 C        1.0900     4.7290     0.3570 C.3   1 <1>   0.0400 
 17 C       -3.0400     4.0160    -0.3420 C.ar  1 <1>  -0.1500 
 18 O       -4.3950     2.4840    -1.6460 O.3   1 <1>  -0.3630 
 19 C        4.4910     0.7420     0.1330 C.ar  1 <1>   0.1170 
 20 C       -5.5320     3.3140    -1.5650 C.3   1 <1>   0.0400 
 21 C        5.0090     1.7290     0.9770 C.ar  1 <1>  -0.1430 
 22 C        5.3130    -0.3110    -0.2500 C.ar  1 <1>  -0.1500 
 23 C        6.3270     1.6480     1.3930 C.ar  1 <1>  -0.1500 
 24 C        4.1770     2.9040     1.4720 C.3   1 <1>  -0.0970 
 25 C        6.6280    -0.3930     0.1720 C.ar  1 <1>  -0.1430 
 26 C        7.1340     0.5970     0.9950 C.ar  1 <1>  -0.1500 
 27 C        7.5140    -1.5470    -0.2630 C.3   1 <1>  -0.0970 
 28 H        0.5600    -0.2320     2.8290 H     1 <1>   0.0800 
 29 H       -0.2340     1.2500     2.3700 H     1 <1>   0.0800 
 30 H        1.4460     1.0080     1.9820 H     1 <1>   0.0800 
 31 H        0.7810     2.0530    -2.2800 H     1 <1>   0.0800 
 32 H        1.1500     0.3690    -2.1270 H     1 <1>   0.0800 
 33 H       -2.3830     0.9490    -1.5720 H     1 <1>   0.1500 
 34 H       -1.6810     5.1930     0.8040 H     1 <1>   0.1500 
 35 H        2.6930    -0.1790    -0.2330 H     1 <1>   0.3700 
 36 H        0.5520     5.6180     0.6320 H     1 <1>   0.0800 
 37 H        1.1950     4.6660    -0.7120 H     1 <1>   0.0800 
 38 H        2.0600     4.7360     0.8160 H     1 <1>   0.0800 
 39 H       -3.8140     4.7580    -0.2830 H     1 <1>   0.1500 
 40 H       -6.3330     2.8350    -2.0990 H     1 <1>   0.0800 
 41 H       -5.3070     4.2620    -2.0190 H     1 <1>   0.0800 
 42 H       -5.8040     3.4340    -0.5310 H     1 <1>   0.0800 
 43 H        4.9140    -1.0730    -0.8940 H     1 <1>   0.1500 
 44 H        6.7390     2.4070     2.0350 H     1 <1>   0.1500 
 45 H        4.2310     3.7040     0.7560 H     1 <1>   0.0800 
 46 H        4.5470     3.2610     2.4160 H     1 <1>   0.0800 
 47 H        3.1500     2.6200     1.6020 H     1 <1>   0.0800 
 48 H        8.1560     0.5540     1.3290 H     1 <1>   0.1500 
 49 H        6.9190    -2.3770    -0.6000 H     1 <1>   0.0800 
 50 H        8.1240    -1.8770     0.5590 H     1 <1>   0.0800 
 51 H        8.1540    -1.2300    -1.0670 H     1 <1>   0.0800 
@<TRIPOS>BOND
  1   1   2  2   
  2   1   3  2   
  3   1   4  am  
  4   1   5  1   
  5   4   6  1   
  6   4   7  1   
  7   5  28  1   
  8   5  29  1   
  9   5  30  1   
 10   6   8  ar  
 11   6   9  ar  
 12   7  10  1   
 13   7  31  1   
 14   7  32  1   
 15   8  11  1   
 16   8  12  ar  
 17   9  13  ar  
 18   9  33  1   
 19  10  14  2   
 20  10  15  am  
 21  11  16  1   
 22  12  17  ar  
 23  12  34  1   
 24  13  17  ar  
 25  13  18  1   
 26  15  19  1   
 27  15  35  1   
 28  16  36  1   
 29  16  37  1   
 30  16  38  1   
 31  17  39  1   
 32  18  20  1   
 33  19  21  ar  
 34  19  22  ar  
 35  20  40  1   
 36  20  41  1   
 37  20  42  1   
 38  21  23  ar  
 39  21  24  1   
 40  22  25  ar  
 41  22  43  1   
 42  23  26  ar  
 43  23  44  1   
 44  24  45  1   
 45  24  46  1   
 46  24  47  1   
 47  25  26  ar  
 48  25  27  1   
 49  26  48  1   
 50  27  49  1   
 51  27  50  1   
 52  27  51  1   
@<TRIPOS>SUBSTRUCTURE
  1 ****   4 GROUP 4 **** **** 0

# MOE 2024.06 (io_trps.svl 2023.06)
