@<TRIPOS>MOLECULE
NONAME
50 51 1 0 0 
SMALL
USER_CHARGES


@<TRIPOS>ATOM
  1 S        0.8120    -1.0340     0.5800 S.o2  1 <1>   1.4470 
  2 O        1.6820    -2.0040     1.2080 O.2   1 <1>  -0.6500 
  3 O        0.7380     0.3000     1.1310 O.2   1 <1>  -0.6500 
  4 N        1.3680    -0.8750    -1.0130 N.am  1 <1>  -0.8490 
  5 C       -0.8620    -1.7060     0.3900 C.ar  1 <1>  -0.0090 
  6 C        2.5620     0.0190    -1.1230 C.3   1 <1>   0.2570 
  7 C        1.4900    -2.1520    -1.7300 C.3   1 <1>   0.1960 
  8 C       -1.2540    -2.8660     1.0470 C.ar  1 <1>  -0.1500 
  9 C       -1.7960    -1.0760    -0.4240 C.ar  1 <1>  -0.1500 
 10 C        3.9670    -0.5870    -0.9470 C.2   1 <1>   0.5690 
 11 C        1.6670    -1.9180    -3.2280 C.3   1 <1>  -0.2400 
 12 C       -2.5280    -3.3840     0.8920 C.ar  1 <1>  -0.1500 
 13 C       -3.0710    -1.5880    -0.5840 C.ar  1 <1>  -0.1500 
 14 O        4.8440    -0.1580    -1.6600 O.2   1 <1>  -0.5700 
 15 N        4.1880    -1.5810    -0.0340 N.am  1 <1>  -0.5470 
 16 C       -3.4440    -2.7480     0.0720 C.ar  1 <1>  -0.1430 
 17 C        5.3040    -2.4200     0.1270 C.ar  1 <1>   0.1170 
 18 C       -4.8430    -3.3110    -0.0990 C.3   1 <1>  -0.0970 
 19 C        5.1030    -3.7740     0.4150 C.ar  1 <1>   0.0820 
 20 C        6.6030    -1.9390     0.0240 C.ar  1 <1>  -0.1500 
 21 O        3.8120    -4.2100     0.4950 O.3   1 <1>  -0.3620 
 22 C        6.1950    -4.6160     0.5970 C.ar  1 <1>  -0.1500 
 23 C        7.6860    -2.7800     0.2050 C.ar  1 <1>  -0.1500 
 24 C        3.4950    -5.4640     1.0490 C.3   1 <1>   0.1200 
 25 C        7.4830    -4.1180     0.4920 C.ar  1 <1>  -0.1500 
 26 C        1.9760    -5.5530     1.1620 C.3   1 <1>  -0.2400 
 27 H        2.4740     0.8410    -0.4350 H     1 <1>   0.0800 
 28 H        2.5430     0.4620    -2.1030 H     1 <1>   0.0800 
 29 H        0.5880    -2.7240    -1.5910 H     1 <1>   0.0800 
 30 H        2.3050    -2.7420    -1.3450 H     1 <1>   0.0800 
 31 H       -0.5540    -3.3730     1.6900 H     1 <1>   0.1500 
 32 H       -1.5180    -0.1710    -0.9390 H     1 <1>   0.1500 
 33 H        2.6260    -1.4830    -3.4430 H     1 <1>   0.0800 
 34 H        0.8860    -1.2800    -3.6020 H     1 <1>   0.0800 
 35 H        1.6120    -2.8600    -3.7430 H     1 <1>   0.0800 
 36 H       -2.8050    -4.2840     1.4140 H     1 <1>   0.1500 
 37 H       -3.7730    -1.0770    -1.2210 H     1 <1>   0.1500 
 38 H        3.3580    -1.9270     0.4700 H     1 <1>   0.3700 
 39 H       -4.8350    -4.3810     0.0060 H     1 <1>   0.0800 
 40 H       -5.2300    -3.0700    -1.0730 H     1 <1>   0.0800 
 41 H       -5.4960    -2.8940     0.6470 H     1 <1>   0.0800 
 42 H        6.7670    -0.9000    -0.1980 H     1 <1>   0.1500 
 43 H        6.0670    -5.6590     0.8140 H     1 <1>   0.1500 
 44 H        8.6860    -2.3910     0.1200 H     1 <1>   0.1500 
 45 H        3.9530    -5.5330     2.0220 H     1 <1>   0.0800 
 46 H        3.8760    -6.2320     0.3990 H     1 <1>   0.0800 
 47 H        8.3280    -4.7710     0.6320 H     1 <1>   0.1500 
 48 H        1.6130    -4.7750     1.8090 H     1 <1>   0.0800 
 49 H        1.6960    -6.5040     1.5760 H     1 <1>   0.0800 
 50 H        1.5260    -5.4530     0.1900 H     1 <1>   0.0800 
@<TRIPOS>BOND
  1   1   2  2   
  2   1   3  2   
  3   1   4  am  
  4   1   5  1   
  5   4   6  1   
  6   4   7  1   
  7   5   8  ar  
  8   5   9  ar  
  9   6  10  1   
 10   6  27  1   
 11   6  28  1   
 12   7  11  1   
 13   7  29  1   
 14   7  30  1   
 15   8  12  ar  
 16   8  31  1   
 17   9  13  ar  
 18   9  32  1   
 19  10  14  2   
 20  10  15  am  
 21  11  33  1   
 22  11  34  1   
 23  11  35  1   
 24  12  16  ar  
 25  12  36  1   
 26  13  16  ar  
 27  13  37  1   
 28  15  17  1   
 29  15  38  1   
 30  16  18  1   
 31  17  19  ar  
 32  17  20  ar  
 33  18  39  1   
 34  18  40  1   
 35  18  41  1   
 36  19  21  1   
 37  19  22  ar  
 38  20  23  ar  
 39  20  42  1   
 40  21  24  1   
 41  22  25  ar  
 42  22  43  1   
 43  23  25  ar  
 44  23  44  1   
 45  24  26  1   
 46  24  45  1   
 47  24  46  1   
 48  25  47  1   
 49  26  48  1   
 50  26  49  1   
 51  26  50  1   
@<TRIPOS>SUBSTRUCTURE
  1 ****   2 GROUP 4 **** **** 0

# MOE 2024.06 (io_trps.svl 2023.06)
