@<TRIPOS>MOLECULE
NONAME
47 49 1 0 0 
SMALL
USER_CHARGES


@<TRIPOS>ATOM
  1 O       -2.5710     3.3270     1.8300 O.2   1 <1>  -0.5700 
  2 C       -1.7270     3.0350     1.0040 C.2   1 <1>   0.5440 
  3 N       -1.7980     1.8010     0.3900 N.am  1 <1>  -0.6600 
  4 C       -0.6770     3.9890     0.6960 C.ar  1 <1>   0.0860 
  5 C       -2.6200     0.6880     0.9460 C.3   1 <1>   0.1400 
  6 C       -1.0630     1.4040    -0.8510 C.3   1 <1>   0.1400 
  7 C        0.6580     3.6000     0.6570 C.ar  1 <1>  -0.1500 
  8 C       -0.9640     5.3270     0.4300 C.ar  1 <1>  -0.1500 
  9 C       -1.7670    -0.5860     1.0780 C.3   1 <1>   0.1200 
 10 C       -0.2850     0.0990    -0.6160 C.3   1 <1>   0.1200 
 11 C        1.6750     4.4720     0.3020 C.ar  1 <1>   0.1170 
 12 C        0.0390     6.2240     0.1080 C.ar  1 <1>  -0.1500 
 13 O       -1.1440    -0.9020    -0.1380 O.3   1 <1>  -0.5600 
 14 N        3.0060     4.0440     0.2010 N.am  1 <1>  -0.5470 
 15 C        1.3520     5.7970     0.0390 C.ar  1 <1>  -0.1500 
 16 C        3.4870     2.8270    -0.2000 C.2   1 <1>   0.5690 
 17 O        2.7680     1.9260    -0.5660 O.2   1 <1>  -0.5700 
 18 C        5.0030     2.6230    -0.1970 C.3   1 <1>  -0.0190 
 19 C        5.5490     2.4750    -1.6300 C.3   1 <1>  -0.1600 
 20 C        5.4110     1.4120     0.6650 C.3   1 <1>  -0.1600 
 21 C        7.0700     2.2660    -1.6360 C.3   1 <1>  -0.1600 
 22 C        6.9320     1.2020     0.6600 C.3   1 <1>  -0.1600 
 23 C        7.4660     1.0630    -0.7710 C.3   1 <1>  -0.1600 
 24 H       -3.4510     0.4980     0.2910 H     1 <1>   0.0800 
 25 H       -3.0110     0.9530     1.9130 H     1 <1>   0.0800 
 26 H       -0.3880     2.1740    -1.1770 H     1 <1>   0.0800 
 27 H       -1.7740     1.2440    -1.6420 H     1 <1>   0.0800 
 28 H        0.8990     2.5830     0.9060 H     1 <1>   0.1500 
 29 H       -1.9890     5.6560     0.4810 H     1 <1>   0.1500 
 30 H       -2.3870    -1.4200     1.3550 H     1 <1>   0.0800 
 31 H       -1.0080    -0.4540     1.8290 H     1 <1>   0.0800 
 32 H        0.5080     0.2500     0.0970 H     1 <1>   0.0800 
 33 H        0.1460    -0.2480    -1.5380 H     1 <1>   0.0800 
 34 H       -0.2070     7.2530    -0.0920 H     1 <1>   0.1500 
 35 H        3.7080     4.7570     0.3890 H     1 <1>   0.3700 
 36 H        2.1250     6.4950    -0.2260 H     1 <1>   0.1500 
 37 H        5.4570     3.4960     0.2380 H     1 <1>   0.0800 
 38 H        5.3050     3.3520    -2.2040 H     1 <1>   0.0800 
 39 H        5.0740     1.6320    -2.1040 H     1 <1>   0.0800 
 40 H        4.9320     0.5260     0.2810 H     1 <1>   0.0800 
 41 H        5.0700     1.5540     1.6760 H     1 <1>   0.0800 
 42 H        7.5570     3.1500    -1.2620 H     1 <1>   0.0800 
 43 H        7.4070     2.1080    -2.6460 H     1 <1>   0.0800 
 44 H        7.1740     0.3160     1.2220 H     1 <1>   0.0800 
 45 H        7.4110     2.0380     1.1400 H     1 <1>   0.0800 
 46 H        8.5390     0.9720    -0.7490 H     1 <1>   0.0800 
 47 H        7.0700     0.1630    -1.2110 H     1 <1>   0.0800 
@<TRIPOS>BOND
  1   1   2  2   
  2   2   3  am  
  3   2   4  1   
  4   3   5  1   
  5   3   6  1   
  6   4   7  ar  
  7   4   8  ar  
  8   5   9  1   
  9   5  24  1   
 10   5  25  1   
 11   6  10  1   
 12   6  26  1   
 13   6  27  1   
 14   7  11  ar  
 15   7  28  1   
 16   8  12  ar  
 17   8  29  1   
 18   9  13  1   
 19   9  30  1   
 20   9  31  1   
 21  10  13  1   
 22  10  32  1   
 23  10  33  1   
 24  11  14  1   
 25  11  15  ar  
 26  12  15  ar  
 27  12  34  1   
 28  14  16  am  
 29  14  35  1   
 30  15  36  1   
 31  16  17  2   
 32  16  18  1   
 33  18  19  1   
 34  18  20  1   
 35  18  37  1   
 36  19  21  1   
 37  19  38  1   
 38  19  39  1   
 39  20  22  1   
 40  20  40  1   
 41  20  41  1   
 42  21  23  1   
 43  21  42  1   
 44  21  43  1   
 45  22  23  1   
 46  22  44  1   
 47  22  45  1   
 48  23  46  1   
 49  23  47  1   
@<TRIPOS>SUBSTRUCTURE
  1 ****   7 GROUP 4 **** **** 0

# MOE 2024.06 (io_trps.svl 2023.06)
