@<TRIPOS>MOLECULE
NONAME
29 29 1 0 0 
SMALL
USER_CHARGES


@<TRIPOS>ATOM
  1 S       -0.1390     0.1310    -0.6380 S.o2  1 <1>   1.4470 
  2 O       -0.1310    -1.1590     0.0190 O.2   1 <1>  -0.6500 
  3 O       -0.5790     0.2230    -2.0140 O.2   1 <1>  -0.6500 
  4 N       -1.1400     1.1500     0.2830 N.am  1 <1>  -0.8490 
  5 C        1.4990     0.9050    -0.4930 C.ar  1 <1>  -0.0090 
  6 C       -2.5590     0.9370    -0.0170 C.3   1 <1>   0.1160 
  7 C       -0.9110     1.0340     1.7270 C.3   1 <1>   0.1160 
  8 C        2.4590     0.4020     0.3780 C.ar  1 <1>  -0.1500 
  9 C        1.8240     2.0330    -1.2330 C.ar  1 <1>  -0.1500 
 10 C        3.7130     0.9830     0.5230 C.ar  1 <1>  -0.0090 
 11 C        3.0640     2.6330    -1.1110 C.ar  1 <1>  -0.1500 
 12 S        4.9400     0.2740     1.6510 S.o2  1 <1>   1.2040 
 13 C        3.9990     2.1080    -0.2390 C.ar  1 <1>  -0.1500 
 14 O        6.0020     1.2290     1.8730 O.2   1 <1>  -0.6500 
 15 O        4.2540    -0.3210     2.7760 O.2   1 <1>  -0.6500 
 16 C        5.6180    -1.0570     0.6790 C.3   1 <1>  -0.1350 
 17 H       -2.7470     1.1230    -1.0610 H     1 <1>   0.0800 
 18 H       -3.1670     1.6140     0.5590 H     1 <1>   0.0800 
 19 H       -2.8430    -0.0770     0.2110 H     1 <1>   0.0800 
 20 H        0.1190     1.2440     1.9580 H     1 <1>   0.0800 
 21 H       -1.1490     0.0400     2.0710 H     1 <1>   0.0800 
 22 H       -1.5240     1.7430     2.2560 H     1 <1>   0.0800 
 23 H        2.2190    -0.4690     0.9670 H     1 <1>   0.1500 
 24 H        1.0940     2.4460    -1.9110 H     1 <1>   0.1500 
 25 H        3.2980     3.5090    -1.6930 H     1 <1>   0.1500 
 26 H        4.9620     2.5840    -0.1460 H     1 <1>   0.1500 
 27 H        6.0640    -0.6750    -0.2180 H     1 <1>   0.0800 
 28 H        4.8510    -1.7580     0.4160 H     1 <1>   0.0800 
 29 H        6.3720    -1.5720     1.2420 H     1 <1>   0.0800 
@<TRIPOS>BOND
  1   1   2  2   
  2   1   3  2   
  3   1   4  am  
  4   1   5  1   
  5   4   6  1   
  6   4   7  1   
  7   5   8  ar  
  8   5   9  ar  
  9   6  17  1   
 10   6  18  1   
 11   6  19  1   
 12   7  20  1   
 13   7  21  1   
 14   7  22  1   
 15   8  10  ar  
 16   8  23  1   
 17   9  11  ar  
 18   9  24  1   
 19  10  12  1   
 20  10  13  ar  
 21  11  13  ar  
 22  11  25  1   
 23  12  14  2   
 24  12  15  2   
 25  12  16  1   
 26  13  26  1   
 27  16  27  1   
 28  16  28  1   
 29  16  29  1   
@<TRIPOS>SUBSTRUCTURE
  1 ****   8 GROUP 4 **** **** 0

# MOE 2024.06 (io_trps.svl 2023.06)
