@<TRIPOS>MOLECULE
NONAME
44 46 1 0 0 
SMALL
USER_CHARGES


@<TRIPOS>ATOM
  1 S        0.2430    -0.3580     0.0140 S.o2  1 <1>   1.3330 
  2 O       -0.5950    -1.0140    -0.9590 O.2   1 <1>  -0.6500 
  3 O        1.6290    -0.7160     0.1760 O.2   1 <1>  -0.6500 
  4 N        0.1810     1.3320    -0.3520 N.am  1 <1>  -0.6930 
  5 C       -0.5310    -0.4560     1.6160 C.3   1 <1>  -0.1350 
  6 C       -0.9760     2.0480    -0.0700 C.ar  1 <1>   0.1990 
  7 C        0.8650     1.6850    -1.6410 C.3   1 <1>   0.2570 
  8 C       -2.1220     1.8980    -0.8430 C.ar  1 <1>  -0.1500 
  9 C       -0.9980     2.9260     1.0090 C.ar  1 <1>  -0.1500 
 10 C        2.3950     1.5350    -1.6650 C.2   1 <1>   0.5690 
 11 C       -3.2630     2.6190    -0.5470 C.ar  1 <1>   0.0830 
 12 C       -2.1360     3.6540     1.3090 C.ar  1 <1>  -0.1500 
 13 O        2.8680     0.9230    -2.5960 O.2   1 <1>  -0.5700 
 14 N        3.2000     2.1040    -0.7060 N.am  1 <1>  -0.6600 
 15 O       -4.3680     2.4410    -1.3150 O.3   1 <1>  -0.3630 
 16 C       -3.2690     3.5080     0.5290 C.ar  1 <1>   0.0830 
 17 C        4.6390     1.7270    -0.5840 C.3   1 <1>   0.1400 
 18 C        2.7330     3.0100     0.3820 C.3   1 <1>   0.1400 
 19 C       -5.5910     2.9390    -0.8060 C.3   1 <1>   0.1200 
 20 O       -4.3730     4.2430     0.8330 O.3   1 <1>  -0.3630 
 21 C        5.5120     2.9640    -0.3170 C.3   1 <1>   0.1200 
 22 C        3.7180     4.1730     0.5880 C.3   1 <1>   0.1200 
 23 C       -5.3790     4.3160    -0.1620 C.3   1 <1>   0.1200 
 24 O        5.0190     3.6950     0.7720 O.3   1 <1>  -0.5600 
 25 H       -0.5210    -1.4710     1.9620 H     1 <1>   0.0800 
 26 H       -1.5490    -0.1240     1.5610 H     1 <1>   0.0800 
 27 H        0.0000     0.1520     2.3210 H     1 <1>   0.0800 
 28 H        0.6360     2.7030    -1.8960 H     1 <1>   0.0800 
 29 H        0.4630     1.0620    -2.4200 H     1 <1>   0.0800 
 30 H       -2.1290     1.2120    -1.6720 H     1 <1>   0.1500 
 31 H       -0.1180     3.0370     1.6160 H     1 <1>   0.1500 
 32 H       -2.1550     4.3360     2.1410 H     1 <1>   0.1500 
 33 H        4.9810     1.2400    -1.4810 H     1 <1>   0.0800 
 34 H        4.7510     1.0310     0.2290 H     1 <1>   0.0800 
 35 H        2.6490     2.4470     1.2950 H     1 <1>   0.0800 
 36 H        1.7690     3.4190     0.1450 H     1 <1>   0.0800 
 37 H       -5.9620     2.2380    -0.0790 H     1 <1>   0.0800 
 38 H       -6.2890     3.0020    -1.6220 H     1 <1>   0.0800 
 39 H        5.5340     3.6030    -1.1820 H     1 <1>   0.0800 
 40 H        6.5180     2.6630    -0.0830 H     1 <1>   0.0800 
 41 H        3.4500     4.7360     1.4630 H     1 <1>   0.0800 
 42 H        3.7110     4.8310    -0.2640 H     1 <1>   0.0800 
 43 H       -6.2820     4.6630     0.3060 H     1 <1>   0.0800 
 44 H       -5.0670     5.0310    -0.9020 H     1 <1>   0.0800 
@<TRIPOS>BOND
  1   1   2  2   
  2   1   3  2   
  3   1   4  am  
  4   1   5  1   
  5   4   6  1   
  6   4   7  1   
  7   5  25  1   
  8   5  26  1   
  9   5  27  1   
 10   6   8  ar  
 11   6   9  ar  
 12   7  10  1   
 13   7  28  1   
 14   7  29  1   
 15   8  11  ar  
 16   8  30  1   
 17   9  12  ar  
 18   9  31  1   
 19  10  13  2   
 20  10  14  am  
 21  11  15  1   
 22  11  16  ar  
 23  12  16  ar  
 24  12  32  1   
 25  14  17  1   
 26  14  18  1   
 27  15  19  1   
 28  16  20  1   
 29  17  21  1   
 30  17  33  1   
 31  17  34  1   
 32  18  22  1   
 33  18  35  1   
 34  18  36  1   
 35  19  23  1   
 36  19  37  1   
 37  19  38  1   
 38  20  23  1   
 39  21  24  1   
 40  21  39  1   
 41  21  40  1   
 42  22  24  1   
 43  22  41  1   
 44  22  42  1   
 45  23  43  1   
 46  23  44  1   
@<TRIPOS>SUBSTRUCTURE
  1 ****   4 GROUP 4 **** **** 0

# MOE 2024.06 (io_trps.svl 2023.06)
