@<TRIPOS>MOLECULE
NONAME
43 43 1 0 0 
SMALL
USER_CHARGES


@<TRIPOS>ATOM
  1 O       -0.9690     0.9460     2.0150 O.2   1 <1>  -0.5700 
  2 C       -1.5950     1.4060     1.0870 C.2   1 <1>   0.4950 
  3 C       -1.3060     2.6480     0.4250 C.2   1 <1>   0.0290 
  4 C       -2.8060     0.5870     0.6740 C.3   1 <1>  -0.0990 
  5 C       -2.2080     3.0080    -0.6290 C.2   1 <1>   0.4950 
  6 C       -0.2000     3.4240     0.7480 C.2   1 <1>  -0.0380 
  7 C       -4.0180     1.4880     0.4120 C.3   1 <1>   0.0000 
  8 O       -1.8940     3.6760    -1.5850 O.2   1 <1>  -0.5700 
  9 C       -3.6390     2.4850    -0.6940 C.3   1 <1>  -0.0990 
 10 N       -0.0870     4.7830     0.8000 N.pl3 1 <1>  -0.8690 
 11 C        1.1230     2.7370     1.1160 C.3   1 <1>  -0.0220 
 12 C       -5.2090     0.6320    -0.0470 C.3   1 <1>  -0.2400 
 13 C       -4.4310     2.2330     1.6950 C.3   1 <1>  -0.2400 
 14 C       -1.0170     5.9390     0.8440 C.3   1 <1>   0.2890 
 15 C        2.3300     3.2940     0.3450 C.3   1 <1>  -0.2400 
 16 C       -1.0210     6.6640    -0.5080 C.3   1 <1>  -0.1600 
 17 C       -2.4020     5.5670     1.3670 C.3   1 <1>  -0.2400 
 18 C       -1.6990     8.0420    -0.4540 C.3   1 <1>  -0.2400 
 19 H       -2.5530     0.0250    -0.2070 H     1 <1>   0.0800 
 20 H       -3.0390    -0.1170     1.4540 H     1 <1>   0.0800 
 21 H       -4.3150     3.3200    -0.6920 H     1 <1>   0.0800 
 22 H       -3.7400     2.0050    -1.6510 H     1 <1>   0.0800 
 23 H        0.8670     5.1300     0.9370 H     1 <1>   0.4000 
 24 H        1.2880     2.8370     2.1740 H     1 <1>   0.0800 
 25 H        1.0750     1.6870     0.8920 H     1 <1>   0.0800 
 26 H       -4.9630     0.0720    -0.9320 H     1 <1>   0.0800 
 27 H       -6.0600     1.2540    -0.2670 H     1 <1>   0.0800 
 28 H       -5.4930    -0.0660     0.7230 H     1 <1>   0.0800 
 29 H       -4.6710     1.5320     2.4760 H     1 <1>   0.0800 
 30 H       -5.3010     2.8410     1.5160 H     1 <1>   0.0800 
 31 H       -3.6490     2.8740     2.0570 H     1 <1>   0.0800 
 32 H       -0.5990     6.6220     1.5650 H     1 <1>   0.0800 
 33 H        2.5500     4.3020     0.6440 H     1 <1>   0.0800 
 34 H        2.1280     3.2790    -0.7110 H     1 <1>   0.0800 
 35 H        3.1970     2.6880     0.5390 H     1 <1>   0.0800 
 36 H       -0.0040     6.7970    -0.8300 H     1 <1>   0.0800 
 37 H       -1.5210     6.0650    -1.2430 H     1 <1>   0.0800 
 38 H       -3.0030     5.1310     0.5950 H     1 <1>   0.0800 
 39 H       -2.9060     6.4530     1.7050 H     1 <1>   0.0800 
 40 H       -2.3120     4.8950     2.2000 H     1 <1>   0.0800 
 41 H       -1.2250     8.6680     0.2820 H     1 <1>   0.0800 
 42 H       -2.7420     7.9450    -0.2120 H     1 <1>   0.0800 
 43 H       -1.6200     8.5230    -1.4130 H     1 <1>   0.0800 
@<TRIPOS>BOND
  1   1   2  2   
  2   2   3  1   
  3   2   4  1   
  4   3   5  1   
  5   3   6  2   
  6   4   7  1   
  7   4  19  1   
  8   4  20  1   
  9   5   8  2   
 10   5   9  1   
 11   6  10  1   
 12   6  11  1   
 13   7   9  1   
 14   7  12  1   
 15   7  13  1   
 16   9  21  1   
 17   9  22  1   
 18  10  14  1   
 19  10  23  1   
 20  11  15  1   
 21  11  24  1   
 22  11  25  1   
 23  12  26  1   
 24  12  27  1   
 25  12  28  1   
 26  13  29  1   
 27  13  30  1   
 28  13  31  1   
 29  14  16  1   
 30  14  17  1   
 31  14  32  1   
 32  15  33  1   
 33  15  34  1   
 34  15  35  1   
 35  16  18  1   
 36  16  36  1   
 37  16  37  1   
 38  17  38  1   
 39  17  39  1   
 40  17  40  1   
 41  18  41  1   
 42  18  42  1   
 43  18  43  1   
@<TRIPOS>SUBSTRUCTURE
  1 ****   3 GROUP 4 **** **** 0

# MOE 2024.06 (io_trps.svl 2023.06)
