@<TRIPOS>MOLECULE
NONAME
44 45 1 0 0 
SMALL
USER_CHARGES


@<TRIPOS>ATOM
  1 S        0.3100     1.7930    -0.8950 S.o2  1 <1>   1.4470 
  2 O        1.1120     1.5280    -2.0660 O.2   1 <1>  -0.6500 
  3 O       -0.2420     3.1030    -0.6480 O.2   1 <1>  -0.6500 
  4 N        1.2990     1.5110     0.4800 N.am  1 <1>  -0.7570 
  5 C       -0.9820     0.5360    -0.6980 C.ar  1 <1>  -0.0090 
  6 C        1.9670     0.3290     0.7620 C.ar  1 <1>   0.1990 
  7 C       -0.7290    -0.8030    -0.9800 C.ar  1 <1>  -0.1500 
  8 C       -2.2530     0.8700    -0.2390 C.ar  1 <1>  -0.1500 
  9 C        2.8390    -0.2510    -0.1520 C.ar  1 <1>  -0.1500 
 10 C        1.7680    -0.3000     1.9850 C.ar  1 <1>  -0.1500 
 11 C       -1.7040    -1.7690    -0.8080 C.ar  1 <1>  -0.1500 
 12 C       -3.2360    -0.0890    -0.0650 C.ar  1 <1>  -0.1500 
 13 C        3.4850    -1.4400     0.1360 C.ar  1 <1>  -0.1500 
 14 C        2.4120    -1.4880     2.2790 C.ar  1 <1>  -0.1500 
 15 C       -2.9630    -1.4230    -0.3510 C.ar  1 <1>   0.0830 
 16 C        3.2710    -2.0680     1.3600 C.ar  1 <1>   0.0830 
 17 O       -3.8610    -2.4270    -0.2100 O.3   1 <1>  -0.3630 
 18 O        3.8610    -3.2370     1.7290 O.3   1 <1>  -0.3630 
 19 C       -5.1780    -2.1820     0.2270 C.3   1 <1>   0.1200 
 20 C        4.7570    -3.8980     0.8630 C.3   1 <1>   0.0400 
 21 C       -5.9260    -3.5150     0.2650 C.3   1 <1>  -0.1600 
 22 C       -7.3750    -3.3260     0.7350 C.3   1 <1>  -0.1600 
 23 C       -8.1200    -4.6630     0.7710 C.3   1 <1>  -0.2400 
 24 H        0.9600     2.0650     1.2580 H     1 <1>   0.4200 
 25 H        0.2450    -1.0940    -1.3380 H     1 <1>   0.1500 
 26 H       -2.4790     1.9000    -0.0140 H     1 <1>   0.1500 
 27 H        3.0190     0.2340    -1.0950 H     1 <1>   0.1500 
 28 H        1.1030     0.1350     2.7080 H     1 <1>   0.1500 
 29 H       -1.4930    -2.8010    -1.0290 H     1 <1>   0.1500 
 30 H       -4.2010     0.2180     0.2900 H     1 <1>   0.1500 
 31 H        4.1480    -1.8560    -0.5980 H     1 <1>   0.1500 
 32 H        2.2540    -1.9760     3.2240 H     1 <1>   0.1500 
 33 H       -5.6460    -1.5040    -0.4660 H     1 <1>   0.0800 
 34 H       -5.1340    -1.7430     1.2090 H     1 <1>   0.0800 
 35 H        5.1000    -4.7900     1.3560 H     1 <1>   0.0800 
 36 H        5.5910    -3.2490     0.6620 H     1 <1>   0.0800 
 37 H        4.2400    -4.1570    -0.0440 H     1 <1>   0.0800 
 38 H       -5.4170    -4.1840     0.9370 H     1 <1>   0.0800 
 39 H       -5.9230    -3.9470    -0.7200 H     1 <1>   0.0800 
 40 H       -7.8880    -2.6540     0.0670 H     1 <1>   0.0800 
 41 H       -7.3830    -2.8900     1.7200 H     1 <1>   0.0800 
 42 H       -8.1430    -5.1070    -0.2090 H     1 <1>   0.0800 
 43 H       -9.1320    -4.5120     1.1020 H     1 <1>   0.0800 
 44 H       -7.6370    -5.3440     1.4490 H     1 <1>   0.0800 
@<TRIPOS>BOND
  1   1   2  2   
  2   1   3  2   
  3   1   4  am  
  4   1   5  1   
  5   4   6  1   
  6   4  24  1   
  7   5   7  ar  
  8   5   8  ar  
  9   6   9  ar  
 10   6  10  ar  
 11   7  11  ar  
 12   7  25  1   
 13   8  12  ar  
 14   8  26  1   
 15   9  13  ar  
 16   9  27  1   
 17  10  14  ar  
 18  10  28  1   
 19  11  15  ar  
 20  11  29  1   
 21  12  15  ar  
 22  12  30  1   
 23  13  16  ar  
 24  13  31  1   
 25  14  16  ar  
 26  14  32  1   
 27  15  17  1   
 28  16  18  1   
 29  17  19  1   
 30  18  20  1   
 31  19  21  1   
 32  19  33  1   
 33  19  34  1   
 34  20  35  1   
 35  20  36  1   
 36  20  37  1   
 37  21  22  1   
 38  21  38  1   
 39  21  39  1   
 40  22  23  1   
 41  22  40  1   
 42  22  41  1   
 43  23  42  1   
 44  23  43  1   
 45  23  44  1   
@<TRIPOS>SUBSTRUCTURE
  1 ****   7 GROUP 4 **** **** 0

# MOE 2024.06 (io_trps.svl 2023.06)
