@<TRIPOS>MOLECULE
NONAME
37 38 1 0 0 
SMALL
USER_CHARGES


@<TRIPOS>ATOM
  1 O       -1.0650     0.2270     0.9570 O.2   1 <1>  -0.5700 
  2 C       -1.9340    -0.5740     0.6800 C.2   1 <1>   0.7060 
  3 O       -3.1840    -0.1340     0.5350 O.3   1 <1>  -0.2330 
  4 C       -1.6880    -1.9650     0.5010 C.2   1 <1>  -0.1360 
  5 C       -4.2300    -0.9420     0.2290 C.ar  1 <1>   0.0820 
  6 C       -2.6790    -2.8300     0.1920 C.2   1 <1>  -0.1670 
  7 C       -4.0140    -2.3190     0.0430 C.ar  1 <1>   0.0280 
  8 C       -5.5000    -0.3800     0.1020 C.ar  1 <1>  -0.1440 
  9 C       -2.3940    -4.3150     0.0060 C.3   1 <1>  -0.1020 
 10 C       -5.1190    -3.1090    -0.2800 C.ar  1 <1>  -0.1500 
 11 C       -6.5770    -1.1940    -0.2270 C.ar  1 <1>   0.0830 
 12 C       -5.7240     1.1190     0.3120 C.3   1 <1>  -0.0960 
 13 C       -6.3760    -2.5610    -0.4140 C.ar  1 <1>  -0.1500 
 14 O       -7.7950    -0.6130    -0.3590 O.3   1 <1>  -0.3630 
 15 C       -8.9590    -1.3500    -0.6530 C.3   1 <1>   0.2580 
 16 C      -10.1240    -0.3780    -0.7280 C.2   1 <1>  -0.2880 
 17 C      -11.2880    -0.4070    -0.0650 C.2   1 <1>  -0.2760 
 18 C      -12.3440     0.6670    -0.2670 C.3   1 <1>  -0.1020 
 19 C      -11.7210    -1.4600     0.9470 C.3   1 <1>  -0.1020 
 20 H       -0.6660    -2.2680     0.6290 H     1 <1>   0.1500 
 21 H       -2.9600    -4.8920     0.7150 H     1 <1>   0.0800 
 22 H       -1.3510    -4.5280     0.1540 H     1 <1>   0.0800 
 23 H       -2.6610    -4.6210    -0.9900 H     1 <1>   0.0800 
 24 H       -4.9980    -4.1660    -0.4300 H     1 <1>   0.1500 
 25 H       -6.6250     1.2850     0.8760 H     1 <1>   0.0800 
 26 H       -5.8230     1.6050    -0.6410 H     1 <1>   0.0800 
 27 H       -4.9160     1.5790     0.8510 H     1 <1>   0.0800 
 28 H       -7.1900    -3.2130    -0.6670 H     1 <1>   0.1500 
 29 H       -8.8210    -1.8330    -1.6050 H     1 <1>   0.0800 
 30 H       -9.0940    -2.0850     0.1170 H     1 <1>   0.0800 
 31 H       -9.9000     0.4080    -1.4280 H     1 <1>   0.1500 
 32 H      -13.2570     0.2280    -0.6280 H     1 <1>   0.0800 
 33 H      -12.0140     1.3990    -0.9820 H     1 <1>   0.0800 
 34 H      -12.5440     1.1700     0.6630 H     1 <1>   0.0800 
 35 H      -11.8980    -0.9970     1.9020 H     1 <1>   0.0800 
 36 H      -10.9810    -2.2250     1.0810 H     1 <1>   0.0800 
 37 H      -12.6320    -1.9300     0.6200 H     1 <1>   0.0800 
@<TRIPOS>BOND
  1   1   2  2   
  2   2   3  1   
  3   2   4  1   
  4   3   5  1   
  5   4   6  2   
  6   4  20  1   
  7   5   7  ar  
  8   5   8  ar  
  9   6   7  1   
 10   6   9  1   
 11   7  10  ar  
 12   8  11  ar  
 13   8  12  1   
 14   9  21  1   
 15   9  22  1   
 16   9  23  1   
 17  10  13  ar  
 18  10  24  1   
 19  11  13  ar  
 20  11  14  1   
 21  12  25  1   
 22  12  26  1   
 23  12  27  1   
 24  13  28  1   
 25  14  15  1   
 26  15  16  1   
 27  15  29  1   
 28  15  30  1   
 29  16  17  2   
 30  16  31  1   
 31  17  18  1   
 32  17  19  1   
 33  18  32  1   
 34  18  33  1   
 35  18  34  1   
 36  19  35  1   
 37  19  36  1   
 38  19  37  1   
@<TRIPOS>SUBSTRUCTURE
  1 ****  11 GROUP 4 **** **** 0

# MOE 2024.06 (io_trps.svl 2023.06)
