@<TRIPOS>MOLECULE
NONAME
51 53 1 0 0 
SMALL
USER_CHARGES


@<TRIPOS>ATOM
  1 F        2.3940    -4.0790    -0.9580 F     1 <1>  -0.1900 
  2 C        1.3900    -3.4430    -0.4180 C.ar  1 <1>   0.1900 
  3 C        1.6150    -2.3100     0.3720 C.ar  1 <1>   0.0860 
  4 C        0.1310    -3.9580    -0.6710 C.ar  1 <1>  -0.1500 
  5 C        2.9270    -1.7440     0.6480 C.2   1 <1>   0.5440 
  6 C        0.4680    -1.7160     0.9110 C.ar  1 <1>  -0.1500 
  7 C       -0.9750    -3.3370    -0.1210 C.ar  1 <1>  -0.1500 
  8 O        3.0710    -1.0020     1.6000 O.2   1 <1>  -0.5700 
  9 N        4.0110    -2.0290    -0.1510 N.am  1 <1>  -0.5470 
 10 C       -0.8010    -2.2150     0.6710 C.ar  1 <1>  -0.1500 
 11 C        5.3320    -1.5510    -0.1360 C.ar  1 <1>   0.1170 
 12 C        6.3400    -2.3650    -0.6400 C.ar  1 <1>  -0.1500 
 13 C        5.6740    -0.2880     0.3350 C.ar  1 <1>  -0.1500 
 14 C        7.6600    -1.9470    -0.6660 C.ar  1 <1>  -0.1430 
 15 C        6.9860     0.1560     0.3210 C.ar  1 <1>  -0.1430 
 16 C        7.9800    -0.6880    -0.1680 C.ar  1 <1>   0.0830 
 17 C        8.7300    -2.8630    -1.2400 C.3   1 <1>  -0.0970 
 18 C        7.3050     1.5550     0.8310 C.3   1 <1>  -0.0970 
 19 O        9.2690    -0.2750    -0.1710 O.3   1 <1>  -0.3620 
 20 C        9.9790    -0.4790     1.0430 C.3   1 <1>   0.1810 
 21 C       11.2450     0.3740     1.1100 C.2   1 <1>   0.5690 
 22 O       11.3510     1.1250     2.0530 O.2   1 <1>  -0.5700 
 23 N       12.2390     0.2790     0.1630 N.am  1 <1>  -0.6600 
 24 C       13.4480     1.1550     0.2090 C.3   1 <1>   0.1400 
 25 C       12.1970    -0.6000    -1.0450 C.3   1 <1>   0.1400 
 26 C       14.7230     0.3430    -0.0710 C.3   1 <1>   0.1200 
 27 C       13.5480    -1.3040    -1.2570 C.3   1 <1>   0.1200 
 28 O       14.5980    -0.3800    -1.2630 O.3   1 <1>  -0.5600 
 29 H        0.0200    -4.8320    -1.2870 H     1 <1>   0.1500 
 30 H        0.5770    -0.8430     1.5320 H     1 <1>   0.1500 
 31 H       -1.9640    -3.7230    -0.3060 H     1 <1>   0.1500 
 32 H        3.8410    -2.7710    -0.8310 H     1 <1>   0.3700 
 33 H       -1.6590    -1.7280     1.1040 H     1 <1>   0.1500 
 34 H        6.0810    -3.3380    -1.0130 H     1 <1>   0.1500 
 35 H        4.9020     0.3550     0.7140 H     1 <1>   0.1500 
 36 H        8.2890    -3.7110    -1.7320 H     1 <1>   0.0800 
 37 H        9.3700    -3.2180    -0.4540 H     1 <1>   0.0800 
 38 H        9.3210    -2.3260    -1.9600 H     1 <1>   0.0800 
 39 H        6.4260     2.1740     0.8180 H     1 <1>   0.0800 
 40 H        8.0510     2.0190     0.2120 H     1 <1>   0.0800 
 41 H        7.6730     1.5040     1.8400 H     1 <1>   0.0800 
 42 H       10.2320    -1.5190     1.1160 H     1 <1>   0.0800 
 43 H        9.3360    -0.2180     1.8630 H     1 <1>   0.0800 
 44 H       13.5370     1.6290     1.1710 H     1 <1>   0.0800 
 45 H       13.3510     1.9280    -0.5330 H     1 <1>   0.0800 
 46 H       11.9720     0.0020    -1.9090 H     1 <1>   0.0800 
 47 H       11.4310    -1.3450    -0.9520 H     1 <1>   0.0800 
 48 H       14.9170    -0.3450     0.7330 H     1 <1>   0.0800 
 49 H       15.5660     1.0030    -0.1740 H     1 <1>   0.0800 
 50 H       13.5560    -1.8140    -2.2050 H     1 <1>   0.0800 
 51 H       13.7280    -2.0230    -0.4770 H     1 <1>   0.0800 
@<TRIPOS>BOND
  1   1   2  1   
  2   2   3  ar  
  3   2   4  ar  
  4   3   5  1   
  5   3   6  ar  
  6   4   7  ar  
  7   4  29  1   
  8   5   8  2   
  9   5   9  am  
 10   6  10  ar  
 11   6  30  1   
 12   7  10  ar  
 13   7  31  1   
 14   9  11  1   
 15   9  32  1   
 16  10  33  1   
 17  11  12  ar  
 18  11  13  ar  
 19  12  14  ar  
 20  12  34  1   
 21  13  15  ar  
 22  13  35  1   
 23  14  16  ar  
 24  14  17  1   
 25  15  16  ar  
 26  15  18  1   
 27  16  19  1   
 28  17  36  1   
 29  17  37  1   
 30  17  38  1   
 31  18  39  1   
 32  18  40  1   
 33  18  41  1   
 34  19  20  1   
 35  20  21  1   
 36  20  42  1   
 37  20  43  1   
 38  21  22  2   
 39  21  23  am  
 40  23  24  1   
 41  23  25  1   
 42  24  26  1   
 43  24  44  1   
 44  24  45  1   
 45  25  27  1   
 46  25  46  1   
 47  25  47  1   
 48  26  28  1   
 49  26  48  1   
 50  26  49  1   
 51  27  28  1   
 52  27  50  1   
 53  27  51  1   
@<TRIPOS>SUBSTRUCTURE
  1 ****  16 GROUP 4 **** **** 0

# MOE 2024.06 (io_trps.svl 2023.06)
