@<TRIPOS>MOLECULE
NONAME
30 31 1 0 0 
SMALL
USER_CHARGES


@<TRIPOS>ATOM
  1 O        0.2970     0.0650     0.7280 O.2   1 <1>  -0.5700 
  2 C        0.0670     1.2320     0.5280 C.2   1 <1>   0.6300 
  3 N       -1.1750     1.7470     0.2940 N.am  1 <1>  -0.5470 
  4 C        1.2260     2.2170     0.5560 C.3   1 <1>  -0.1000 
  5 C       -2.4390     1.1400     0.2000 C.ar  1 <1>   0.1170 
  6 C        1.3830     3.2930    -0.4840 C.3   1 <1>  -0.2000 
  7 C        2.3230     2.1290    -0.4650 C.3   1 <1>  -0.2000 
  8 C       -3.5690     1.9460     0.2920 C.ar  1 <1>  -0.1500 
  9 C       -2.6190    -0.2270     0.0060 C.ar  1 <1>  -0.1500 
 10 C       -4.8380     1.4040     0.1970 C.ar  1 <1>  -0.1500 
 11 C       -3.8860    -0.7750    -0.0880 C.ar  1 <1>  -0.1500 
 12 C       -5.0080     0.0430     0.0080 C.ar  1 <1>   0.0820 
 13 O       -6.2880    -0.4080    -0.0720 O.3   1 <1>  -0.3630 
 14 C       -6.5620    -1.7790    -0.2380 C.3   1 <1>   0.1200 
 15 C       -8.0770    -1.9550    -0.2770 C.3   1 <1>  -0.2400 
 16 H       -1.1840     2.7580     0.1940 H     1 <1>   0.3700 
 17 H        1.5260     2.4370     1.5640 H     1 <1>   0.1000 
 18 H        1.7560     4.2570    -0.1820 H     1 <1>   0.1000 
 19 H        0.6900     3.3570    -1.3060 H     1 <1>   0.1000 
 20 H        2.2430     1.3750    -1.2310 H     1 <1>   0.1000 
 21 H        3.3380     2.2780    -0.1400 H     1 <1>   0.1000 
 22 H       -3.4610     3.0040     0.4410 H     1 <1>   0.1500 
 23 H       -1.7670    -0.8760    -0.0760 H     1 <1>   0.1500 
 24 H       -5.7070     2.0320     0.2700 H     1 <1>   0.1500 
 25 H       -3.9750    -1.8340    -0.2350 H     1 <1>   0.1500 
 26 H       -6.1380    -2.3150     0.5930 H     1 <1>   0.0800 
 27 H       -6.1180    -2.1070    -1.1620 H     1 <1>   0.0800 
 28 H       -8.5120    -1.6090     0.6430 H     1 <1>   0.0800 
 29 H       -8.3200    -2.9940    -0.4030 H     1 <1>   0.0800 
 30 H       -8.4920    -1.4020    -1.1010 H     1 <1>   0.0800 
@<TRIPOS>BOND
  1   1   2  2   
  2   2   3  am  
  3   2   4  1   
  4   3   5  1   
  5   3  16  1   
  6   4   6  1   
  7   4   7  1   
  8   4  17  1   
  9   5   8  ar  
 10   5   9  ar  
 11   6   7  1   
 12   6  18  1   
 13   6  19  1   
 14   7  20  1   
 15   7  21  1   
 16   8  10  ar  
 17   8  22  1   
 18   9  11  ar  
 19   9  23  1   
 20  10  12  ar  
 21  10  24  1   
 22  11  12  ar  
 23  11  25  1   
 24  12  13  1   
 25  13  14  1   
 26  14  15  1   
 27  14  26  1   
 28  14  27  1   
 29  15  28  1   
 30  15  29  1   
 31  15  30  1   
@<TRIPOS>SUBSTRUCTURE
  1 ****   5 GROUP 4 **** **** 0

# MOE 2024.06 (io_trps.svl 2023.06)
