@<TRIPOS>MOLECULE
NONAME
36 37 1 0 0 
SMALL
USER_CHARGES


@<TRIPOS>ATOM
  1 F        0.4940     0.2290     0.5500 F     1 <1>  -0.1900 
  2 C        1.7780     0.0960     0.3390 C.ar  1 <1>   0.1900 
  3 C        2.4260    -1.0150     0.8430 C.ar  1 <1>  -0.1500 
  4 C        2.4400     1.0700    -0.3810 C.ar  1 <1>  -0.1500 
  5 C        3.7850    -1.1490     0.6140 C.ar  1 <1>  -0.1500 
  6 C        3.8000     0.9220    -0.6000 C.ar  1 <1>  -0.1500 
  7 C        4.4900    -0.1840    -0.1060 C.ar  1 <1>   0.1170 
  8 N        5.8650    -0.2850    -0.3710 N.am  1 <1>  -0.5470 
  9 C        6.8530    -0.9780     0.2750 C.2   1 <1>   0.5690 
 10 O        6.6640    -1.6280     1.2740 O.2   1 <1>  -0.5700 
 11 C        8.2670    -0.8930    -0.3040 C.3   1 <1>  -0.0190 
 12 C        9.0230    -2.2340    -0.2080 C.3   1 <1>  -0.1600 
 13 C        9.0790     0.2170     0.3880 C.3   1 <1>  -0.1600 
 14 C       10.4450    -2.1220    -0.7610 C.3   1 <1>   0.1400 
 15 C       10.5050     0.3070    -0.1650 C.3   1 <1>   0.1400 
 16 N       11.1660    -1.0230    -0.0590 N.am  1 <1>  -0.6600 
 17 C       12.3260    -1.1740     0.6590 C.2   1 <1>   0.5690 
 18 O       12.8870    -0.2410     1.1800 O.2   1 <1>  -0.5700 
 19 C       12.9580    -2.5360     0.8280 C.3   1 <1>  -0.1790 
 20 H        1.8790    -1.7550     1.3990 H     1 <1>   0.1500 
 21 H        1.9010     1.9210    -0.7560 H     1 <1>   0.1500 
 22 H        4.2930    -2.0150     0.9980 H     1 <1>   0.1500 
 23 H        4.3250     1.6760    -1.1560 H     1 <1>   0.1500 
 24 H        6.1830     0.2900    -1.1470 H     1 <1>   0.3700 
 25 H        8.1820    -0.6440    -1.3470 H     1 <1>   0.0800 
 26 H        8.4860    -2.9910    -0.7520 H     1 <1>   0.0800 
 27 H        9.0770    -2.5510     0.8200 H     1 <1>   0.0800 
 28 H        9.1320     0.0210     1.4460 H     1 <1>   0.0800 
 29 H        8.5910     1.1670     0.2590 H     1 <1>   0.0800 
 30 H       10.4120    -1.8980    -1.8140 H     1 <1>   0.0800 
 31 H       10.9500    -3.0630    -0.6400 H     1 <1>   0.0800 
 32 H       11.0540     1.0520     0.3850 H     1 <1>   0.0800 
 33 H       10.4860     0.6070    -1.1990 H     1 <1>   0.0800 
 34 H       12.2650    -3.2020     1.3060 H     1 <1>   0.0800 
 35 H       13.8340    -2.4540     1.4440 H     1 <1>   0.0800 
 36 H       13.2460    -2.9260    -0.1290 H     1 <1>   0.0800 
@<TRIPOS>BOND
  1   1   2  1   
  2   2   3  ar  
  3   2   4  ar  
  4   3   5  ar  
  5   3  20  1   
  6   4   6  ar  
  7   4  21  1   
  8   5   7  ar  
  9   5  22  1   
 10   6   7  ar  
 11   6  23  1   
 12   7   8  1   
 13   8   9  am  
 14   8  24  1   
 15   9  10  2   
 16   9  11  1   
 17  11  12  1   
 18  11  13  1   
 19  11  25  1   
 20  12  14  1   
 21  12  26  1   
 22  12  27  1   
 23  13  15  1   
 24  13  28  1   
 25  13  29  1   
 26  14  16  1   
 27  14  30  1   
 28  14  31  1   
 29  15  16  1   
 30  15  32  1   
 31  15  33  1   
 32  16  17  am  
 33  17  18  2   
 34  17  19  1   
 35  19  34  1   
 36  19  35  1   
 37  19  36  1   
@<TRIPOS>SUBSTRUCTURE
  1 ****   9 GROUP 4 **** **** 0

# MOE 2024.06 (io_trps.svl 2023.06)
