@<TRIPOS>MOLECULE
NONAME
42 42 1 0 0 
SMALL
USER_CHARGES


@<TRIPOS>ATOM
  1 P        0.2140     0.4750    -0.3640 P.3   1 <1>   1.2420 
  2 O       -0.7570     1.2750    -1.1130 O.2   1 <1>  -0.7000 
  3 O        0.3500     0.9470     1.1710 O.3   1 <1>  -0.5510 
  4 O        1.7020     0.6820    -0.9290 O.3   1 <1>  -0.5510 
  5 C       -0.0880    -1.3230    -0.3490 C.3   1 <1>   0.3640 
  6 C       -0.7610     1.3310     1.9050 C.3   1 <1>   0.1200 
  7 C        2.2460     1.9510    -0.9650 C.3   1 <1>   0.1200 
  8 N       -1.3040    -1.7900     0.4370 N.am  1 <1>  -0.6600 
  9 C        1.0960    -2.2380     0.0140 C.ar  1 <1>  -0.1440 
 10 C       -0.9400     2.8410     1.7730 C.3   1 <1>  -0.2400 
 11 C        3.6520     1.8360    -1.5410 C.3   1 <1>  -0.2400 
 12 C       -2.5790    -1.7880    -0.0700 C.2   1 <1>   0.5690 
 13 C       -1.0570    -2.1880     1.8610 C.3   1 <1>   0.0600 
 14 C        1.1440    -3.5100    -0.5420 C.ar  1 <1>  -0.1500 
 15 C        2.1090    -1.8560     0.8880 C.ar  1 <1>  -0.1500 
 16 O       -3.5340    -2.0630     0.6140 O.2   1 <1>  -0.5700 
 17 C       -2.8550    -1.4490    -1.5180 C.3   1 <1>  -0.1790 
 18 C        2.1820    -4.3760    -0.2440 C.ar  1 <1>  -0.1500 
 19 C        3.1470    -2.7210     1.1860 C.ar  1 <1>  -0.1500 
 20 C        3.1850    -3.9810     0.6200 C.ar  1 <1>  -0.1500 
 21 H       -0.2820    -1.5710    -1.3740 H     1 <1>   0.0800 
 22 H       -0.5770     1.0740     2.9340 H     1 <1>   0.0800 
 23 H       -1.6320     0.7980     1.5570 H     1 <1>   0.0800 
 24 H        2.2720     2.3470     0.0370 H     1 <1>   0.0800 
 25 H        1.6240     2.5750    -1.5870 H     1 <1>   0.0800 
 26 H       -0.0540     3.3510     2.1060 H     1 <1>   0.0800 
 27 H       -1.7670     3.1610     2.3800 H     1 <1>   0.0800 
 28 H       -1.1490     3.1120     0.7530 H     1 <1>   0.0800 
 29 H        4.2550     1.1990    -0.9190 H     1 <1>   0.0800 
 30 H        4.1090     2.8080    -1.5820 H     1 <1>   0.0800 
 31 H        3.6120     1.4340    -2.5370 H     1 <1>   0.0800 
 32 H       -0.3770    -1.5010     2.3310 H     1 <1>   0.0800 
 33 H       -0.6310    -3.1770     1.8910 H     1 <1>   0.0800 
 34 H       -1.9740    -2.1970     2.4250 H     1 <1>   0.0800 
 35 H        0.3680    -3.8400    -1.2110 H     1 <1>   0.1500 
 36 H        2.1120    -0.8850     1.3510 H     1 <1>   0.1500 
 37 H       -2.3190    -2.1160    -2.1660 H     1 <1>   0.0800 
 38 H       -2.5820    -0.4330    -1.7240 H     1 <1>   0.0800 
 39 H       -3.9050    -1.5600    -1.7160 H     1 <1>   0.0800 
 40 H        2.2070    -5.3580    -0.6840 H     1 <1>   0.1500 
 41 H        3.9270    -2.4110     1.8600 H     1 <1>   0.1500 
 42 H        3.9940    -4.6530     0.8520 H     1 <1>   0.1500 
@<TRIPOS>BOND
  1   1   2  2   
  2   1   3  1   
  3   1   4  1   
  4   1   5  1   
  5   3   6  1   
  6   4   7  1   
  7   5   8  1   
  8   5   9  1   
  9   5  21  1   
 10   6  10  1   
 11   6  22  1   
 12   6  23  1   
 13   7  11  1   
 14   7  24  1   
 15   7  25  1   
 16   8  12  am  
 17   8  13  1   
 18   9  14  ar  
 19   9  15  ar  
 20  10  26  1   
 21  10  27  1   
 22  10  28  1   
 23  11  29  1   
 24  11  30  1   
 25  11  31  1   
 26  12  16  2   
 27  12  17  1   
 28  13  32  1   
 29  13  33  1   
 30  13  34  1   
 31  14  18  ar  
 32  14  35  1   
 33  15  19  ar  
 34  15  36  1   
 35  17  37  1   
 36  17  38  1   
 37  17  39  1   
 38  18  20  ar  
 39  18  40  1   
 40  19  20  ar  
 41  19  41  1   
 42  20  42  1   
@<TRIPOS>SUBSTRUCTURE
  1 ****   5 GROUP 4 **** **** 0

# MOE 2024.06 (io_trps.svl 2023.06)
