@<TRIPOS>MOLECULE
10348
41 41 1 0 0 
SMALL
USER_CHARGES


@<TRIPOS>ATOM
  1 O        0.3650    -2.7960    -2.2040 O.2   1 <1>  -0.5700 
  2 C       -0.1220    -2.9480    -1.1110 C.2   1 <1>   0.5690 
  3 N        0.5100    -2.5770     0.0300 N.am  1 <1>  -0.7300 
  4 C       -1.4940    -3.5810    -1.0010 C.3   1 <1>  -0.0990 
  5 C        1.8280    -1.9400     0.0980 C.3   1 <1>   0.2200 
  6 C       -2.5650    -2.5690    -0.5610 C.3   1 <1>  -0.1600 
  7 C        2.7370    -2.8170     0.9520 C.3   1 <1>  -0.2400 
  8 C        1.6560    -0.5550     0.7100 C.3   1 <1>  -0.2400 
  9 C       -3.9490    -3.2150    -0.4980 C.3   1 <1>   0.1200 
 10 O       -4.8550    -2.2500    -0.0210 O.3   1 <1>  -0.3630 
 11 C       -6.1710    -2.5350     0.1670 C.ar  1 <1>   0.0820 
 12 C       -6.9830    -1.5260     0.6760 C.ar  1 <1>  -0.1440 
 13 C       -6.7260    -3.7790    -0.1270 C.ar  1 <1>  -0.1500 
 14 C       -8.3310    -1.7700     0.8860 C.ar  1 <1>  -0.1500 
 15 C       -6.4030    -0.1570     1.0010 C.3   1 <1>  -0.0970 
 16 C       -8.0730    -4.0100     0.0880 C.ar  1 <1>  -0.1500 
 17 C       -8.8810    -3.0080     0.5970 C.ar  1 <1>  -0.1440 
 18 C      -10.3600    -3.2590     0.8330 C.3   1 <1>  -0.0970 
 19 H        0.0470    -2.7070     0.9280 H     1 <1>   0.3700 
 20 H       -1.4420    -4.3940    -0.3010 H     1 <1>   0.0800 
 21 H       -1.7560    -3.9870    -1.9620 H     1 <1>   0.0800 
 22 H        2.2430    -1.8480    -0.8940 H     1 <1>   0.0800 
 23 H       -2.5900    -1.7530    -1.2640 H     1 <1>   0.0800 
 24 H       -2.3150    -2.1780     0.4090 H     1 <1>   0.0800 
 25 H        2.3470    -2.9210     1.9480 H     1 <1>   0.0800 
 26 H        3.7160    -2.3760     1.0110 H     1 <1>   0.0800 
 27 H        2.8340    -3.7890     0.5020 H     1 <1>   0.0800 
 28 H        1.2460    -0.6210     1.7020 H     1 <1>   0.0800 
 29 H        1.0050     0.0370     0.0930 H     1 <1>   0.0800 
 30 H        2.6090    -0.0600     0.7640 H     1 <1>   0.0800 
 31 H       -3.9530    -4.0470     0.1850 H     1 <1>   0.0800 
 32 H       -4.2700    -3.5290    -1.4760 H     1 <1>   0.0800 
 33 H       -6.1310    -4.5770    -0.5230 H     1 <1>   0.1500 
 34 H       -8.9600    -0.9910     1.2780 H     1 <1>   0.1500 
 35 H       -5.9800     0.2780     0.1140 H     1 <1>   0.0800 
 36 H       -5.6280    -0.2580     1.7390 H     1 <1>   0.0800 
 37 H       -7.1580     0.5060     1.3830 H     1 <1>   0.0800 
 38 H       -8.4910    -4.9730    -0.1430 H     1 <1>   0.1500 
 39 H      -10.6980    -2.7140     1.6950 H     1 <1>   0.0800 
 40 H      -10.5440    -4.3050     1.0000 H     1 <1>   0.0800 
 41 H      -10.9230    -2.9390    -0.0250 H     1 <1>   0.0800 
@<TRIPOS>BOND
  1   1   2  2   
  2   2   3  am  
  3   2   4  1   
  4   3   5  1   
  5   3  19  1   
  6   4   6  1   
  7   4  20  1   
  8   4  21  1   
  9   5   7  1   
 10   5   8  1   
 11   5  22  1   
 12   6   9  1   
 13   6  23  1   
 14   6  24  1   
 15   7  25  1   
 16   7  26  1   
 17   7  27  1   
 18   8  28  1   
 19   8  29  1   
 20   8  30  1   
 21   9  10  1   
 22   9  31  1   
 23   9  32  1   
 24  10  11  1   
 25  11  12  ar  
 26  11  13  ar  
 27  12  14  ar  
 28  12  15  1   
 29  13  16  ar  
 30  13  33  1   
 31  14  17  ar  
 32  14  34  1   
 33  15  35  1   
 34  15  36  1   
 35  15  37  1   
 36  16  17  ar  
 37  16  38  1   
 38  17  18  1   
 39  18  39  1   
 40  18  40  1   
 41  18  41  1   
@<TRIPOS>SUBSTRUCTURE
  1 ****   9 GROUP 4 **** **** 0

# MOE 2024.06 (io_trps.svl 2023.06)
