@<TRIPOS>MOLECULE
NONAME
41 41 1 0 0 
SMALL
USER_CHARGES


@<TRIPOS>ATOM
  1 O        0.6040    -0.3940    -2.0550 O.2   1 <1>  -0.5700 
  2 C        0.9180    -1.1990    -1.2010 C.2   1 <1>   0.5440 
  3 N       -0.0650    -1.8760    -0.5340 N.am  1 <1>  -0.7300 
  4 C        2.3140    -1.4310    -0.8780 C.ar  1 <1>   0.0860 
  5 C       -1.5230    -1.6820    -0.7250 C.3   1 <1>   0.1400 
  6 C        2.7820    -2.6910    -0.5100 C.ar  1 <1>  -0.1500 
  7 C        3.2400    -0.3890    -0.9260 C.ar  1 <1>  -0.1500 
  8 C       -2.2180    -1.4390     0.6250 C.3   1 <1>  -0.0800 
  9 C        4.1100    -2.9210    -0.1800 C.ar  1 <1>   0.1170 
 10 C        4.5680    -0.5950    -0.6030 C.ar  1 <1>  -0.1500 
 11 C       -3.7350    -1.3350     0.4220 C.3   1 <1>  -0.2400 
 12 C       -1.7060    -0.1630     1.3130 C.3   1 <1>  -0.2400 
 13 N        4.5080    -4.2200     0.1700 N.am  1 <1>  -0.5470 
 14 C        5.0000    -1.8540    -0.2310 C.ar  1 <1>  -0.1500 
 15 C        5.5400    -4.6480     0.9580 C.2   1 <1>   0.5690 
 16 O        6.2900    -3.9080     1.5430 O.2   1 <1>  -0.5700 
 17 C        5.7320    -6.1460     1.1090 C.3   1 <1>  -0.0990 
 18 C        6.3070    -6.7910    -0.1620 C.3   1 <1>  -0.1600 
 19 C        6.4900    -8.3010     0.0150 C.3   1 <1>  -0.2400 
 20 H        0.1900    -2.4400     0.2760 H     1 <1>   0.3700 
 21 H       -1.9290    -2.5620    -1.1920 H     1 <1>   0.0800 
 22 H       -1.7010    -0.8460    -1.3810 H     1 <1>   0.0800 
 23 H        2.0910    -3.5130    -0.4850 H     1 <1>   0.1500 
 24 H        2.9050     0.5920    -1.2190 H     1 <1>   0.1500 
 25 H       -2.0270    -2.2830     1.2660 H     1 <1>   0.0800 
 26 H        5.2670     0.2230    -0.6420 H     1 <1>   0.1500 
 27 H       -3.9760    -0.5010    -0.2140 H     1 <1>   0.0800 
 28 H       -4.2310    -1.1990     1.3670 H     1 <1>   0.0800 
 29 H       -4.1160    -2.2330    -0.0320 H     1 <1>   0.0800 
 30 H       -1.8580     0.6930     0.6790 H     1 <1>   0.0800 
 31 H       -0.6550    -0.2410     1.5280 H     1 <1>   0.0800 
 32 H       -2.2260    -0.0020     2.2410 H     1 <1>   0.0800 
 33 H        3.9320    -4.9650    -0.2150 H     1 <1>   0.3700 
 34 H        6.0360    -2.0030     0.0160 H     1 <1>   0.1500 
 35 H        4.7880    -6.5940     1.3590 H     1 <1>   0.0800 
 36 H        6.4030    -6.3190     1.9320 H     1 <1>   0.0800 
 37 H        7.2600    -6.3410    -0.3860 H     1 <1>   0.0800 
 38 H        5.6520    -6.6090    -0.9970 H     1 <1>   0.0800 
 39 H        7.1660    -8.5060     0.8270 H     1 <1>   0.0800 
 40 H        6.9000    -8.7290    -0.8830 H     1 <1>   0.0800 
 41 H        5.5470    -8.7770     0.2200 H     1 <1>   0.0800 
@<TRIPOS>BOND
  1   1   2  2   
  2   2   3  am  
  3   2   4  1   
  4   3   5  1   
  5   3  20  1   
  6   4   6  ar  
  7   4   7  ar  
  8   5   8  1   
  9   5  21  1   
 10   5  22  1   
 11   6   9  ar  
 12   6  23  1   
 13   7  10  ar  
 14   7  24  1   
 15   8  11  1   
 16   8  12  1   
 17   8  25  1   
 18   9  13  1   
 19   9  14  ar  
 20  10  14  ar  
 21  10  26  1   
 22  11  27  1   
 23  11  28  1   
 24  11  29  1   
 25  12  30  1   
 26  12  31  1   
 27  12  32  1   
 28  13  15  am  
 29  13  33  1   
 30  14  34  1   
 31  15  16  2   
 32  15  17  1   
 33  17  18  1   
 34  17  35  1   
 35  17  36  1   
 36  18  19  1   
 37  18  37  1   
 38  18  38  1   
 39  19  39  1   
 40  19  40  1   
 41  19  41  1   
@<TRIPOS>SUBSTRUCTURE
  1 ****   6 GROUP 4 **** **** 0

# MOE 2024.06 (io_trps.svl 2023.06)
