@<TRIPOS>MOLECULE
NONAME
32 33 1 0 0 
SMALL
USER_CHARGES


@<TRIPOS>ATOM
  1 N       -1.3430     0.4840    -1.6770 N.ar  1 <1>  -0.6200 
  2 C       -2.3880     0.0860    -0.9690 C.ar  1 <1>   0.1600 
  3 C       -0.5170     1.3050    -1.0510 C.ar  1 <1>   0.1600 
  4 C       -2.6620     0.4740     0.3340 C.ar  1 <1>  -0.1440 
  5 C       -0.6880     1.7520     0.2480 C.ar  1 <1>  -0.1500 
  6 C       -1.7860     1.3330     0.9690 C.ar  1 <1>  -0.1500 
  7 C       -3.9090    -0.0370     1.0350 C.3   1 <1>   0.2540 
  8 N       -5.1120     0.2430     0.2240 N.3   1 <1>  -0.8100 
  9 C       -5.3190     1.6930     0.0040 C.3   1 <1>   0.1100 
 10 C       -6.3140    -0.3960     0.7890 C.3   1 <1>   0.1100 
 11 C       -6.5380     1.9510    -0.9040 C.3   1 <1>   0.3430 
 12 C       -7.5470    -0.1600    -0.1090 C.3   1 <1>   0.3430 
 13 N       -7.7850     1.3040    -0.3630 N.4   1 <1>  -0.9590 
 14 C       -8.9400     1.5120    -1.2850 C.3   1 <1>   0.2630 
 15 H       -3.0730    -0.5860    -1.4580 H     1 <1>   0.1500 
 16 H        0.3450     1.6400    -1.6030 H     1 <1>   0.1500 
 17 H        0.0330     2.4190     0.6860 H     1 <1>   0.1500 
 18 H       -1.9420     1.6650     1.9810 H     1 <1>   0.1500 
 19 H       -4.0040     0.4200     2.0060 H     1 <1>   0.0800 
 20 H       -3.8080    -1.1010     1.1740 H     1 <1>   0.0800 
 21 H       -4.4530     2.1160    -0.4760 H     1 <1>   0.0800 
 22 H       -5.4510     2.1970     0.9460 H     1 <1>   0.0800 
 23 H       -6.5070    -0.0160     1.7780 H     1 <1>   0.0800 
 24 H       -6.1460    -1.4580     0.8690 H     1 <1>   0.0800 
 25 H       -6.3170     1.5550    -1.8810 H     1 <1>   0.0800 
 26 H       -6.6860     3.0140    -1.0020 H     1 <1>   0.0800 
 27 H       -8.4140    -0.5990     0.3570 H     1 <1>   0.0800 
 28 H       -7.3810    -0.6670    -1.0460 H     1 <1>   0.0800 
 29 H       -7.9910     1.7460     0.5440 H     1 <1>   0.4500 
 30 H       -8.7400     1.0580    -2.2430 H     1 <1>   0.0800 
 31 H       -9.1160     2.5660    -1.4340 H     1 <1>   0.0800 
 32 H       -9.8330     1.0710    -0.8740 H     1 <1>   0.0800 
@<TRIPOS>BOND
  1   1   2  ar  
  2   1   3  ar  
  3   2   4  ar  
  4   2  15  1   
  5   3   5  ar  
  6   3  16  1   
  7   4   6  ar  
  8   4   7  1   
  9   5   6  ar  
 10   5  17  1   
 11   6  18  1   
 12   7   8  1   
 13   7  19  1   
 14   7  20  1   
 15   8   9  1   
 16   8  10  1   
 17   9  11  1   
 18   9  21  1   
 19   9  22  1   
 20  10  12  1   
 21  10  23  1   
 22  10  24  1   
 23  11  13  1   
 24  11  25  1   
 25  11  26  1   
 26  12  13  1   
 27  12  27  1   
 28  12  28  1   
 29  13  14  1   
 30  13  29  1   
 31  14  30  1   
 32  14  31  1   
 33  14  32  1   
@<TRIPOS>SUBSTRUCTURE
  1 ****   8 GROUP 4 **** **** 0

# MOE 2024.06 (io_trps.svl 2023.06)
