@<TRIPOS>MOLECULE
NONAME
46 47 1 0 0 
SMALL
USER_CHARGES


@<TRIPOS>ATOM
  1 O        0.9530     0.3400    -2.1030 O.3   1 <1>  -0.6800 
  2 C        2.0780     1.0650    -1.7480 C.3   1 <1>   0.1200 
  3 C        2.8340     0.2790    -0.6720 C.3   1 <1>   0.1100 
  4 N        4.0570     0.9830    -0.2210 N.3   1 <1>  -0.8100 
  5 C        3.7410     2.1230     0.6770 C.3   1 <1>   0.1100 
  6 C        4.9600     0.0390     0.4790 C.3   1 <1>   0.1100 
  7 C        5.0220     2.8240     1.1950 C.3   1 <1>   0.3430 
  8 C        6.2550     0.7310     0.9730 C.3   1 <1>   0.3430 
  9 N        6.2600     2.1950     0.6020 N.4   1 <1>  -0.9590 
 10 C        7.5450     2.9240     0.8360 C.3   1 <1>   0.4230 
 11 C        7.4330     4.3730     0.3380 C.3   1 <1>  -0.1600 
 12 C        8.6990     2.2150     0.1100 C.3   1 <1>  -0.1600 
 13 C        8.7640     5.1190     0.4330 C.3   1 <1>   0.3430 
 14 C       10.0090     2.9970     0.2070 C.3   1 <1>   0.3430 
 15 N        9.8180     4.3810    -0.3140 N.4   1 <1>  -0.9590 
 16 C       11.0930     5.1560    -0.2870 C.3   1 <1>   0.3430 
 17 C       12.0280     4.6480    -1.3790 C.3   1 <1>  -0.2400 
 18 H        0.4660     0.7800    -2.8280 H     1 <1>   0.4000 
 19 H        1.7510     2.0210    -1.3810 H     1 <1>   0.0800 
 20 H        2.6910     1.1890    -2.6240 H     1 <1>   0.0800 
 21 H        3.1090    -0.6700    -1.1030 H     1 <1>   0.0800 
 22 H        2.1810     0.0930     0.1650 H     1 <1>   0.0800 
 23 H        3.1600     1.7800     1.5180 H     1 <1>   0.0800 
 24 H        3.1440     2.8460     0.1480 H     1 <1>   0.0800 
 25 H        5.2290    -0.7610    -0.1920 H     1 <1>   0.0800 
 26 H        4.4510    -0.4050     1.3190 H     1 <1>   0.0800 
 27 H        5.0510     2.7610     2.2710 H     1 <1>   0.0800 
 28 H        4.9600     3.8650     0.9290 H     1 <1>   0.0800 
 29 H        7.0920     0.2240     0.5240 H     1 <1>   0.0800 
 30 H        6.3340     0.6150     2.0410 H     1 <1>   0.0800 
 31 H        6.0320     2.1650    -0.4060 H     1 <1>   0.4500 
 32 H        7.7560     2.9360     1.8940 H     1 <1>   0.0800 
 33 H        6.7270     4.9170     0.9380 H     1 <1>   0.0800 
 34 H        7.0940     4.3950    -0.6840 H     1 <1>   0.0800 
 35 H        8.4570     2.0710    -0.9290 H     1 <1>   0.0800 
 36 H        8.8770     1.2520     0.5510 H     1 <1>   0.0800 
 37 H        9.0540     5.2200     1.4670 H     1 <1>   0.0800 
 38 H        8.6500     6.1110     0.0210 H     1 <1>   0.0800 
 39 H       10.7690     2.4890    -0.3650 H     1 <1>   0.0800 
 40 H       10.3370     3.0370     1.2340 H     1 <1>   0.0800 
 41 H        9.5440     4.3270    -1.3070 H     1 <1>   0.4500 
 42 H       11.5670     5.0720     0.6780 H     1 <1>   0.0800 
 43 H       10.8880     6.2000    -0.4710 H     1 <1>   0.0800 
 44 H       12.3480     3.6390    -1.1930 H     1 <1>   0.0800 
 45 H       12.9090     5.2660    -1.3980 H     1 <1>   0.0800 
 46 H       11.5630     4.7120    -2.3460 H     1 <1>   0.0800 
@<TRIPOS>BOND
  1   1   2  1   
  2   1  18  1   
  3   2   3  1   
  4   2  19  1   
  5   2  20  1   
  6   3   4  1   
  7   3  21  1   
  8   3  22  1   
  9   4   5  1   
 10   4   6  1   
 11   5   7  1   
 12   5  23  1   
 13   5  24  1   
 14   6   8  1   
 15   6  25  1   
 16   6  26  1   
 17   7   9  1   
 18   7  27  1   
 19   7  28  1   
 20   8   9  1   
 21   8  29  1   
 22   8  30  1   
 23   9  10  1   
 24   9  31  1   
 25  10  11  1   
 26  10  12  1   
 27  10  32  1   
 28  11  13  1   
 29  11  33  1   
 30  11  34  1   
 31  12  14  1   
 32  12  35  1   
 33  12  36  1   
 34  13  15  1   
 35  13  37  1   
 36  13  38  1   
 37  14  15  1   
 38  14  39  1   
 39  14  40  1   
 40  15  16  1   
 41  15  41  1   
 42  16  17  1   
 43  16  42  1   
 44  16  43  1   
 45  17  44  1   
 46  17  45  1   
 47  17  46  1   
@<TRIPOS>SUBSTRUCTURE
  1 ****   9 GROUP 4 **** **** 0

# MOE 2024.06 (io_trps.svl 2023.06)
