@<TRIPOS>MOLECULE
NONAME
25 25 1 0 0 
SMALL
USER_CHARGES


@<TRIPOS>ATOM
  1 O       -0.3620     0.1300    -0.8260 O.3   1 <1>  -0.5600 
  2 C       -1.4840     0.4410    -0.0680 C.3   1 <1>   0.5600 
  3 C       -0.2390    -1.2500    -0.9530 C.3   1 <1>   0.2000 
  4 O       -2.0130    -0.7610     0.3740 O.3   1 <1>  -0.5600 
  5 C       -1.0490     1.2540     1.1390 C.3   1 <1>  -0.2400 
  6 C       -2.4990     1.1590    -0.9460 C.3   1 <1>  -0.2400 
  7 C       -1.5890    -1.7640    -0.4780 C.3   1 <1>   0.2000 
  8 C        0.9720    -1.7010    -0.1180 C.3   1 <1>   0.1200 
  9 C       -1.6150    -3.1170     0.2500 C.3   1 <1>   0.1200 
 10 O        2.0810    -0.9600    -0.4890 O.3   1 <1>  -0.6800 
 11 O       -2.8880    -3.3360     0.7480 O.3   1 <1>  -0.6800 
 12 H       -0.0810    -1.4950    -1.9880 H     1 <1>   0.0800 
 13 H       -0.3360     0.7000     1.7200 H     1 <1>   0.0800 
 14 H       -1.9030     1.4810     1.7510 H     1 <1>   0.0800 
 15 H       -0.6040     2.1760     0.8170 H     1 <1>   0.0800 
 16 H       -2.7580     0.5560    -1.7960 H     1 <1>   0.0800 
 17 H       -2.0870     2.0890    -1.2880 H     1 <1>   0.0800 
 18 H       -3.3860     1.3680    -0.3770 H     1 <1>   0.0800 
 19 H       -2.2660    -1.7990    -1.3150 H     1 <1>   0.0800 
 20 H        1.1950    -2.7410    -0.2770 H     1 <1>   0.0800 
 21 H        0.7920    -1.5290     0.9300 H     1 <1>   0.0800 
 22 H       -0.9330    -3.1250     1.0820 H     1 <1>   0.0800 
 23 H       -1.3720    -3.9240    -0.4190 H     1 <1>   0.0800 
 24 H        1.7950    -0.0280    -0.6090 H     1 <1>   0.4000 
 25 H       -3.1990    -2.5040     1.1680 H     1 <1>   0.4000 
@<TRIPOS>BOND
  1   1   2  1   
  2   1   3  1   
  3   2   4  1   
  4   2   5  1   
  5   2   6  1   
  6   3   7  1   
  7   3   8  1   
  8   3  12  1   
  9   4   7  1   
 10   5  13  1   
 11   5  14  1   
 12   5  15  1   
 13   6  16  1   
 14   6  17  1   
 15   6  18  1   
 16   7   9  1   
 17   7  19  1   
 18   8  10  1   
 19   8  20  1   
 20   8  21  1   
 21   9  11  1   
 22   9  22  1   
 23   9  23  1   
 24  10  24  1   
 25  11  25  1   
@<TRIPOS>SUBSTRUCTURE
  1 ****   7 GROUP 4 **** **** 0

# MOE 2024.06 (io_trps.svl 2023.06)
