@<TRIPOS>MOLECULE
NONAME
50 52 1 0 0 
SMALL
USER_CHARGES


@<TRIPOS>ATOM
  1 S        0.3000     0.7060    -0.4500 S.o2  1 <1>   1.4470 
  2 O        0.7540     0.0940     0.7760 O.2   1 <1>  -0.6500 
  3 O        1.1650     0.7440    -1.6080 O.2   1 <1>  -0.6500 
  4 N       -0.0690     2.3590    -0.0970 N.am  1 <1>  -0.6930 
  5 C       -1.3120     0.0340    -0.9480 C.ar  1 <1>  -0.0090 
  6 C       -1.1600     2.6690     0.7100 C.ar  1 <1>   0.1990 
  7 C        1.0740     3.3230    -0.1400 C.3   1 <1>   0.2570 
  8 C       -1.6560    -0.0960    -2.2890 C.ar  1 <1>  -0.1500 
  9 C       -2.2580    -0.3390     0.0010 C.ar  1 <1>  -0.1500 
 10 C       -2.3590     3.1520     0.1700 C.ar  1 <1>  -0.1430 
 11 C       -1.0650     2.4680     2.0810 C.ar  1 <1>  -0.1500 
 12 C        2.2230     3.0230     0.8370 C.2   1 <1>   0.5690 
 13 C       -2.8950    -0.5820    -2.6710 C.ar  1 <1>  -0.1500 
 14 C       -3.5000    -0.8240    -0.3710 C.ar  1 <1>  -0.1500 
 15 C       -3.4370     3.4150     1.0110 C.ar  1 <1>  -0.1430 
 16 C       -2.5060     3.3730    -1.3380 C.3   1 <1>  -0.0960 
 17 C       -2.1310     2.7400     2.9130 C.ar  1 <1>  -0.1500 
 18 O        2.0370     3.2480     2.0130 O.2   1 <1>  -0.5700 
 19 N        3.4390     2.5580     0.4050 N.am  1 <1>  -0.6600 
 20 C       -3.8200    -0.9470    -1.7100 C.ar  1 <1>  -0.1500 
 21 C       -3.3130     3.2120     2.3770 C.ar  1 <1>  -0.1500 
 22 C       -4.7720     3.9200     0.4790 C.3   1 <1>  -0.0970 
 23 C        3.9190     2.4100    -0.9890 C.3   1 <1>   0.1400 
 24 C        4.4480     2.0510     1.3610 C.3   1 <1>   0.1400 
 25 C        5.1140     1.4720    -0.8850 C.3   1 <1>  -0.1600 
 26 C        5.6710     1.7190     0.5130 C.3   1 <1>  -0.1600 
 27 H        0.7010     4.3020     0.0980 H     1 <1>   0.0800 
 28 H        1.4520     3.3630    -1.1430 H     1 <1>   0.0800 
 29 H       -0.9450     0.1860    -3.0470 H     1 <1>   0.1500 
 30 H       -2.0190    -0.2420     1.0480 H     1 <1>   0.1500 
 31 H       -0.1480     2.0920     2.4990 H     1 <1>   0.1500 
 32 H       -3.1390    -0.6770    -3.7150 H     1 <1>   0.1500 
 33 H       -4.2140    -1.1030     0.3840 H     1 <1>   0.1500 
 34 H       -1.5620     3.3660    -1.8490 H     1 <1>   0.0800 
 35 H       -2.9660     4.3240    -1.5350 H     1 <1>   0.0800 
 36 H       -3.1200     2.5950    -1.7560 H     1 <1>   0.0800 
 37 H       -2.0380     2.5840     3.9740 H     1 <1>   0.1500 
 38 H       -4.7840    -1.3250    -2.0020 H     1 <1>   0.1500 
 39 H       -4.1390     3.4180     3.0360 H     1 <1>   0.1500 
 40 H       -4.6610     4.9200     0.0990 H     1 <1>   0.0800 
 41 H       -5.5170     3.9340     1.2530 H     1 <1>   0.0800 
 42 H       -5.1240     3.2800    -0.3100 H     1 <1>   0.0800 
 43 H        4.2360     3.3720    -1.3530 H     1 <1>   0.0800 
 44 H        3.1690     2.0060    -1.6420 H     1 <1>   0.0800 
 45 H        4.0610     1.1640     1.8340 H     1 <1>   0.0800 
 46 H        4.6700     2.7900     2.1120 H     1 <1>   0.0800 
 47 H        5.8390     1.6560    -1.6580 H     1 <1>   0.0800 
 48 H        4.7640     0.4570    -0.9650 H     1 <1>   0.0800 
 49 H        6.2040     0.8680     0.9000 H     1 <1>   0.0800 
 50 H        6.3290     2.5700     0.5020 H     1 <1>   0.0800 
@<TRIPOS>BOND
  1   1   2  2   
  2   1   3  2   
  3   1   4  am  
  4   1   5  1   
  5   4   6  1   
  6   4   7  1   
  7   5   8  ar  
  8   5   9  ar  
  9   6  10  ar  
 10   6  11  ar  
 11   7  12  1   
 12   7  27  1   
 13   7  28  1   
 14   8  13  ar  
 15   8  29  1   
 16   9  14  ar  
 17   9  30  1   
 18  10  15  ar  
 19  10  16  1   
 20  11  17  ar  
 21  11  31  1   
 22  12  18  2   
 23  12  19  am  
 24  13  20  ar  
 25  13  32  1   
 26  14  20  ar  
 27  14  33  1   
 28  15  21  ar  
 29  15  22  1   
 30  16  34  1   
 31  16  35  1   
 32  16  36  1   
 33  17  21  ar  
 34  17  37  1   
 35  19  23  1   
 36  19  24  1   
 37  20  38  1   
 38  21  39  1   
 39  22  40  1   
 40  22  41  1   
 41  22  42  1   
 42  23  25  1   
 43  23  43  1   
 44  23  44  1   
 45  24  26  1   
 46  24  45  1   
 47  24  46  1   
 48  25  26  1   
 49  25  47  1   
 50  25  48  1   
 51  26  49  1   
 52  26  50  1   
@<TRIPOS>SUBSTRUCTURE
  1 ****   4 GROUP 4 **** **** 0

# MOE 2024.06 (io_trps.svl 2023.06)
