@<TRIPOS>MOLECULE
NONAME
46 49 1 0 0 
SMALL
USER_CHARGES


@<TRIPOS>ATOM
  1 O       -0.1370    -0.1460     0.1250 O.2   1 <1>  -0.5700 
  2 C       -1.2620    -0.5380    -0.1080 C.2   1 <1>   0.5440 
  3 N       -2.1920     0.3640    -0.5720 N.am  1 <1>  -0.6600 
  4 C       -1.6110    -1.9220     0.1250 C.ar  1 <1>   0.0860 
  5 C       -3.3460    -0.0320    -1.4330 C.3   1 <1>   0.1400 
  6 C       -2.2570     1.7300     0.0330 C.3   1 <1>   0.1400 
  7 C       -2.4760    -2.2710     1.1740 C.ar  1 <1>   0.0860 
  8 C       -1.0890    -2.9290    -0.6830 C.ar  1 <1>  -0.1500 
  9 C       -4.7170     0.2260    -0.7680 C.3   1 <1>   0.0610 
 10 C       -3.6170     1.9960     0.7220 C.3   1 <1>   0.0610 
 11 C       -3.0300    -1.2520     2.0380 C.2   1 <1>   0.5440 
 12 C       -2.7870    -3.6140     1.3740 C.ar  1 <1>  -0.1500 
 13 C       -1.4160    -4.2560    -0.4770 C.ar  1 <1>  -0.1500 
 14 C       -4.7050     1.6820    -0.3020 C.2   1 <1>   0.4480 
 15 C       -4.9220    -0.6670     0.4780 C.3   1 <1>   0.1400 
 16 C       -5.8080    -0.0760    -1.8370 C.3   1 <1>  -0.1600 
 17 C       -3.8520     1.0880     1.9540 C.3   1 <1>   0.1400 
 18 C       -3.6530     3.4690     1.1860 C.3   1 <1>  -0.2400 
 19 O       -2.6570    -1.1630     3.1900 O.2   1 <1>  -0.5700 
 20 N       -3.9630    -0.3530     1.5760 N.am  1 <1>  -0.6600 
 21 C       -2.2690    -4.6000     0.5560 C.ar  1 <1>  -0.1500 
 22 O       -5.4590     2.5130    -0.7190 O.2   1 <1>  -0.5700 
 23 C       -7.2710    -0.0150    -1.3570 C.3   1 <1>  -0.1600 
 24 C       -8.2340    -0.1920    -2.5340 C.3   1 <1>  -0.2400 
 25 H       -3.2630    -1.0690    -1.7070 H     1 <1>   0.0800 
 26 H       -3.2850     0.5430    -2.3420 H     1 <1>   0.0800 
 27 H       -2.1000     2.4520    -0.7490 H     1 <1>   0.0800 
 28 H       -1.4630     1.8490     0.7520 H     1 <1>   0.0800 
 29 H       -0.4120    -2.6600    -1.4760 H     1 <1>   0.1500 
 30 H       -3.4380    -3.8810     2.1900 H     1 <1>   0.1500 
 31 H       -1.0030    -5.0210    -1.1130 H     1 <1>   0.1500 
 32 H       -4.8460    -1.7040     0.2010 H     1 <1>   0.0800 
 33 H       -5.9090    -0.5110     0.8740 H     1 <1>   0.0800 
 34 H       -5.6370    -1.0580    -2.2460 H     1 <1>   0.0800 
 35 H       -5.6900     0.6270    -2.6450 H     1 <1>   0.0800 
 36 H       -3.0440     1.2210     2.6540 H     1 <1>   0.0800 
 37 H       -4.7630     1.3780     2.4490 H     1 <1>   0.0800 
 38 H       -2.8760     3.6620     1.9040 H     1 <1>   0.0800 
 39 H       -4.6030     3.6970     1.6380 H     1 <1>   0.0800 
 40 H       -3.5180     4.1310     0.3480 H     1 <1>   0.0800 
 41 H       -2.5210    -5.6330     0.7260 H     1 <1>   0.1500 
 42 H       -7.4730     0.9330    -0.8880 H     1 <1>   0.0800 
 43 H       -7.4690    -0.7940    -0.6420 H     1 <1>   0.0800 
 44 H       -8.0940     0.5950    -3.2550 H     1 <1>   0.0800 
 45 H       -9.2510    -0.1530    -2.1850 H     1 <1>   0.0800 
 46 H       -8.0750    -1.1390    -3.0180 H     1 <1>   0.0800 
@<TRIPOS>BOND
  1   1   2  2   
  2   2   3  am  
  3   2   4  1   
  4   3   5  1   
  5   3   6  1   
  6   4   7  ar  
  7   4   8  ar  
  8   5   9  1   
  9   5  25  1   
 10   5  26  1   
 11   6  10  1   
 12   6  27  1   
 13   6  28  1   
 14   7  11  1   
 15   7  12  ar  
 16   8  13  ar  
 17   8  29  1   
 18   9  14  1   
 19   9  15  1   
 20   9  16  1   
 21  10  14  1   
 22  10  17  1   
 23  10  18  1   
 24  11  19  2   
 25  11  20  am  
 26  12  21  ar  
 27  12  30  1   
 28  13  21  ar  
 29  13  31  1   
 30  14  22  2   
 31  15  20  1   
 32  15  32  1   
 33  15  33  1   
 34  16  23  1   
 35  16  34  1   
 36  16  35  1   
 37  17  20  1   
 38  17  36  1   
 39  17  37  1   
 40  18  38  1   
 41  18  39  1   
 42  18  40  1   
 43  21  41  1   
 44  23  24  1   
 45  23  42  1   
 46  23  43  1   
 47  24  44  1   
 48  24  45  1   
 49  24  46  1   
@<TRIPOS>SUBSTRUCTURE
  1 ****  20 GROUP 4 **** **** 0

# MOE 2024.06 (io_trps.svl 2023.06)
