@<TRIPOS>MOLECULE
NONAME
43 45 1 0 0 
SMALL
USER_CHARGES


@<TRIPOS>ATOM
  1 O        0.1290    -0.3760     0.4610 O.2   1 <1>  -0.5700 
  2 C        0.0460    -1.5820     0.5170 C.2   1 <1>   0.5690 
  3 N       -1.1650    -2.2140     0.6610 N.am  1 <1>  -0.6600 
  4 C        1.3270    -2.3980     0.4250 C.3   1 <1>  -0.0990 
  5 C       -1.3590    -3.6880     0.7780 C.3   1 <1>   0.1400 
  6 C       -2.4390    -1.4420     0.6820 C.3   1 <1>   0.1400 
  7 C        2.5970    -1.5540     0.1990 C.3   1 <1>  -0.0160 
  8 C       -2.2430    -4.1810    -0.3730 C.3   1 <1>  -0.1600 
  9 C       -3.3410    -1.9100    -0.4660 C.3   1 <1>  -0.1600 
 10 C        3.8900    -2.3650     0.0900 C.ar  1 <1>   0.1660 
 11 C       -3.5790    -3.4260    -0.4200 C.3   1 <1>  -0.1600 
 12 N        3.8290    -3.6600     0.1990 N.ar  1 <1>  -0.6200 
 13 C        5.1100    -1.6560    -0.1270 C.ar  1 <1>   0.3930 
 14 C        5.0260    -4.2930     0.0890 C.ar  1 <1>   0.3100 
 15 O        5.0430    -0.3100    -0.2220 O.3   1 <1>  -0.3630 
 16 N        6.2740    -2.2330    -0.2370 N.ar  1 <1>  -0.6200 
 17 C        6.2330    -3.5840    -0.1260 C.ar  1 <1>   0.3100 
 18 C        5.0730    -5.6910     0.1920 C.ar  1 <1>  -0.1500 
 19 C        6.1980     0.4770    -0.4350 C.3   1 <1>   0.0400 
 20 C        7.4300    -4.3110    -0.2290 C.ar  1 <1>  -0.1500 
 21 C        6.2570    -6.3760     0.0870 C.ar  1 <1>  -0.1500 
 22 C        7.4480    -5.6780    -0.1250 C.ar  1 <1>  -0.1500 
 23 H        1.2260    -3.0900    -0.3910 H     1 <1>   0.0800 
 24 H        1.4390    -2.9540     1.3370 H     1 <1>   0.0800 
 25 H       -1.8380    -3.9000     1.7180 H     1 <1>   0.0800 
 26 H       -0.4220    -4.2140     0.7610 H     1 <1>   0.0800 
 27 H       -2.2500    -0.3860     0.5810 H     1 <1>   0.0800 
 28 H       -2.9310    -1.6030     1.6250 H     1 <1>   0.0800 
 29 H        2.6990    -0.8580     1.0120 H     1 <1>   0.0800 
 30 H        2.4760    -0.9840    -0.7050 H     1 <1>   0.0800 
 31 H       -2.4270    -5.2340    -0.2550 H     1 <1>   0.0800 
 32 H       -1.7140    -4.0420    -1.3000 H     1 <1>   0.0800 
 33 H       -2.8760    -1.6420    -1.3990 H     1 <1>   0.0800 
 34 H       -4.2830    -1.3930    -0.4100 H     1 <1>   0.0800 
 35 H       -4.1570    -3.6690     0.4550 H     1 <1>   0.0800 
 36 H       -4.1410    -3.7330    -1.2860 H     1 <1>   0.0800 
 37 H        4.1460    -6.2100     0.3550 H     1 <1>   0.1500 
 38 H        5.9020     1.5100    -0.4760 H     1 <1>   0.0800 
 39 H        6.6500     0.1840    -1.3660 H     1 <1>   0.0800 
 40 H        6.8820     0.3190     0.3800 H     1 <1>   0.0800 
 41 H        8.3370    -3.7570    -0.3930 H     1 <1>   0.1500 
 42 H        6.2820    -7.4500     0.1670 H     1 <1>   0.1500 
 43 H        8.3720    -6.2240    -0.2060 H     1 <1>   0.1500 
@<TRIPOS>BOND
  1   1   2  2   
  2   2   3  am  
  3   2   4  1   
  4   3   5  1   
  5   3   6  1   
  6   4   7  1   
  7   4  23  1   
  8   4  24  1   
  9   5   8  1   
 10   5  25  1   
 11   5  26  1   
 12   6   9  1   
 13   6  27  1   
 14   6  28  1   
 15   7  10  1   
 16   7  29  1   
 17   7  30  1   
 18   8  11  1   
 19   8  31  1   
 20   8  32  1   
 21   9  11  1   
 22   9  33  1   
 23   9  34  1   
 24  10  12  ar  
 25  10  13  ar  
 26  11  35  1   
 27  11  36  1   
 28  12  14  ar  
 29  13  15  1   
 30  13  16  ar  
 31  14  17  ar  
 32  14  18  ar  
 33  15  19  1   
 34  16  17  ar  
 35  17  20  ar  
 36  18  21  ar  
 37  18  37  1   
 38  19  38  1   
 39  19  39  1   
 40  19  40  1   
 41  20  22  ar  
 42  20  41  1   
 43  21  22  ar  
 44  21  42  1   
 45  22  43  1   
@<TRIPOS>SUBSTRUCTURE
  1 ****   7 GROUP 4 **** **** 0

# MOE 2024.06 (io_trps.svl 2023.06)
