@<TRIPOS>MOLECULE
NONAME
31 31 1 0 0 
SMALL
USER_CHARGES


@<TRIPOS>ATOM
  1 CL      -1.8250    -1.5790     2.4210 Cl    1 <1>  -0.1770 
  2 C       -1.2940    -2.1570     0.8630 C.ar  1 <1>   0.1770 
  3 C       -1.9010    -1.6940    -0.3060 C.ar  1 <1>   0.0860 
  4 C       -0.2490    -3.0620     0.8410 C.ar  1 <1>  -0.1500 
  5 C       -3.0080    -0.7780    -0.3000 C.2   1 <1>   0.3770 
  6 C       -1.3820    -2.1640    -1.5140 C.ar  1 <1>  -0.1500 
  7 C        0.2320    -3.5240    -0.3710 C.ar  1 <1>  -0.1500 
  8 P       -4.5670    -1.3010     0.4820 P.3   1 <1>   1.3490 
  9 O       -2.8600     0.2830    -0.8700 O.2   1 <1>  -0.5700 
 10 C       -0.3350    -3.0680    -1.5490 C.ar  1 <1>  -0.1500 
 11 O       -5.0200    -0.5670     1.6680 O.2   1 <1>  -0.7000 
 12 O       -4.3950    -2.8680     0.7890 O.3   1 <1>  -0.5510 
 13 O       -5.6710    -1.3160    -0.6900 O.3   1 <1>  -0.5510 
 14 C       -5.4410    -3.5700     1.3540 C.3   1 <1>   0.1200 
 15 C       -6.1970    -0.1380    -1.1990 C.3   1 <1>   0.1200 
 16 C       -4.9810    -5.0100     1.5460 C.3   1 <1>  -0.2400 
 17 C       -7.4440     0.2370    -0.4010 C.3   1 <1>  -0.2400 
 18 H        0.1850    -3.3980     1.7660 H     1 <1>   0.1500 
 19 H       -1.8090    -1.8110    -2.4380 H     1 <1>   0.1500 
 20 H        1.0460    -4.2290    -0.3990 H     1 <1>   0.1500 
 21 H        0.0440    -3.4180    -2.4950 H     1 <1>   0.1500 
 22 H       -6.2910    -3.5210     0.6930 H     1 <1>   0.0800 
 23 H       -5.6890    -3.1170     2.3010 H     1 <1>   0.0800 
 24 H       -6.4630    -0.3200    -2.2260 H     1 <1>   0.0800 
 25 H       -5.4530     0.6420    -1.1620 H     1 <1>   0.0800 
 26 H       -4.7260    -5.4470     0.5970 H     1 <1>   0.0800 
 27 H       -5.7720    -5.5880     1.9880 H     1 <1>   0.0800 
 28 H       -4.1270    -5.0420     2.1990 H     1 <1>   0.0800 
 29 H       -8.1570    -0.5670    -0.4280 H     1 <1>   0.0800 
 30 H       -7.8980     1.1100    -0.8330 H     1 <1>   0.0800 
 31 H       -7.1930     0.4610     0.6200 H     1 <1>   0.0800 
@<TRIPOS>BOND
  1   1   2  1   
  2   2   3  ar  
  3   2   4  ar  
  4   3   5  1   
  5   3   6  ar  
  6   4   7  ar  
  7   4  18  1   
  8   5   8  1   
  9   5   9  2   
 10   6  10  ar  
 11   6  19  1   
 12   7  10  ar  
 13   7  20  1   
 14   8  11  2   
 15   8  12  1   
 16   8  13  1   
 17  10  21  1   
 18  12  14  1   
 19  13  15  1   
 20  14  16  1   
 21  14  22  1   
 22  14  23  1   
 23  15  17  1   
 24  15  24  1   
 25  15  25  1   
 26  16  26  1   
 27  16  27  1   
 28  16  28  1   
 29  17  29  1   
 30  17  30  1   
 31  17  31  1   
@<TRIPOS>SUBSTRUCTURE
  1 ****   5 GROUP 4 **** **** 0

# MOE 2024.06 (io_trps.svl 2023.06)
