@<TRIPOS>MOLECULE
NONAME
47 49 1 0 0 
SMALL
USER_CHARGES


@<TRIPOS>ATOM
  1 O        0.6080     0.2850     1.3280 O.2   1 <1>  -0.5700 
  2 C        1.1340     1.1480     0.6690 C.2   1 <1>   0.5690 
  3 N        0.4340     2.1570     0.0970 N.am  1 <1>  -0.7300 
  4 C        2.6320     1.1010     0.4670 C.3   1 <1>  -0.0990 
  5 C       -1.0230     2.3400     0.1990 C.3   1 <1>   0.2200 
  6 C        3.0780    -0.2660    -0.0760 C.3   1 <1>   0.0200 
  7 C       -1.6280     2.2900    -1.2080 C.3   1 <1>  -0.1600 
  8 C       -1.3080     3.6820     0.8800 C.3   1 <1>  -0.1600 
  9 C        4.5680    -0.3340    -0.3620 C.2   1 <1>   0.2980 
 10 C       -3.1360     2.5820    -1.1740 C.3   1 <1>  -0.1600 
 11 C       -2.8150     3.9760     0.9180 C.3   1 <1>  -0.1600 
 12 O        5.0720    -1.4880    -0.7110 O.3   1 <1>  -0.0190 
 13 N        5.3960     0.6270    -0.3050 N.2   1 <1>  -0.5650 
 14 C       -3.4260     3.9240    -0.4890 C.3   1 <1>  -0.1600 
 15 N        6.3320    -1.2440    -0.8900 N.2   1 <1>  -0.4100 
 16 C        6.5310     0.0020    -0.6380 C.2   1 <1>   0.4620 
 17 C        7.7900     0.7120    -0.7240 C.ar  1 <1>   0.0540 
 18 C        8.9600     0.2550    -0.1020 C.ar  1 <1>   0.0820 
 19 C        7.8590     1.9010    -1.4510 C.ar  1 <1>  -0.1500 
 20 O        8.8840    -0.8860     0.6330 O.3   1 <1>  -0.3630 
 21 C       10.1490     0.9690    -0.2320 C.ar  1 <1>  -0.1500 
 22 C        9.0400     2.6080    -1.5750 C.ar  1 <1>  -0.1500 
 23 C       10.0160    -1.4920     1.2150 C.3   1 <1>   0.0400 
 24 C       10.1890     2.1390    -0.9660 C.ar  1 <1>  -0.1500 
 25 H        0.9180     2.8760    -0.4380 H     1 <1>   0.3700 
 26 H        3.1100     1.2860     1.4110 H     1 <1>   0.0800 
 27 H        2.9290     1.8750    -0.2170 H     1 <1>   0.0800 
 28 H       -1.4500     1.5470     0.7930 H     1 <1>   0.0800 
 29 H        2.5460    -0.4840    -0.9840 H     1 <1>   0.0800 
 30 H        2.8340    -1.0300     0.6420 H     1 <1>   0.0800 
 31 H       -1.4660     1.3140    -1.6290 H     1 <1>   0.0800 
 32 H       -1.1460     3.0190    -1.8350 H     1 <1>   0.0800 
 33 H       -0.8120     4.4730     0.3460 H     1 <1>   0.0800 
 34 H       -0.9270     3.6560     1.8860 H     1 <1>   0.0800 
 35 H       -3.6390     1.7940    -0.6390 H     1 <1>   0.0800 
 36 H       -3.5240     2.5980    -2.1780 H     1 <1>   0.0800 
 37 H       -2.9830     4.9480     1.3500 H     1 <1>   0.0800 
 38 H       -3.3030     3.2490     1.5450 H     1 <1>   0.0800 
 39 H       -4.4900     4.0730    -0.4240 H     1 <1>   0.0800 
 40 H       -3.0190     4.7240    -1.0840 H     1 <1>   0.0800 
 41 H        6.9680     2.2720    -1.9270 H     1 <1>   0.1500 
 42 H       11.0550     0.6330     0.2340 H     1 <1>   0.1500 
 43 H        9.0670     3.5210    -2.1450 H     1 <1>   0.1500 
 44 H        9.6970    -2.3980     1.6960 H     1 <1>   0.0800 
 45 H       10.4370    -0.8210     1.9430 H     1 <1>   0.0800 
 46 H       10.7260    -1.7200     0.4400 H     1 <1>   0.0800 
 47 H       11.1110     2.6870    -1.0630 H     1 <1>   0.1500 
@<TRIPOS>BOND
  1   1   2  2   
  2   2   3  am  
  3   2   4  1   
  4   3   5  1   
  5   3  25  1   
  6   4   6  1   
  7   4  26  1   
  8   4  27  1   
  9   5   7  1   
 10   5   8  1   
 11   5  28  1   
 12   6   9  1   
 13   6  29  1   
 14   6  30  1   
 15   7  10  1   
 16   7  31  1   
 17   7  32  1   
 18   8  11  1   
 19   8  33  1   
 20   8  34  1   
 21   9  12  1   
 22   9  13  2   
 23  10  14  1   
 24  10  35  1   
 25  10  36  1   
 26  11  14  1   
 27  11  37  1   
 28  11  38  1   
 29  12  15  1   
 30  13  16  1   
 31  14  39  1   
 32  14  40  1   
 33  15  16  2   
 34  16  17  1   
 35  17  18  ar  
 36  17  19  ar  
 37  18  20  1   
 38  18  21  ar  
 39  19  22  ar  
 40  19  41  1   
 41  20  23  1   
 42  21  24  ar  
 43  21  42  1   
 44  22  24  ar  
 45  22  43  1   
 46  23  44  1   
 47  23  45  1   
 48  23  46  1   
 49  24  47  1   
@<TRIPOS>SUBSTRUCTURE
  1 ****   4 GROUP 4 **** **** 0

# MOE 2024.06 (io_trps.svl 2023.06)
