@<TRIPOS>MOLECULE
NONAME
25 24 1 0 0 
SMALL
USER_CHARGES


@<TRIPOS>ATOM
  1 CL      -0.6990     0.6360    -0.1260 Cl    1 <1>  -0.2900 
  2 C       -1.1960    -0.7310    -1.1100 C.3   1 <1>   1.0080 
  3 CL      -2.9560    -0.7680    -1.1000 Cl    1 <1>  -0.2900 
  4 CL      -0.6920    -0.3890    -2.7560 Cl    1 <1>  -0.2900 
  5 C       -0.5630    -2.0540    -0.5920 C.2   1 <1>  -0.0380 
  6 N       -1.3710    -3.1030    -0.1840 N.pl3 1 <1>  -0.9000 
  7 C        0.7960    -2.1660    -0.5460 C.2   1 <1>  -0.1360 
  8 C        1.6020    -3.2650    -0.1160 C.2   1 <1>   0.4950 
  9 O        1.1200    -4.3030     0.2880 O.2   1 <1>  -0.5700 
 10 C        3.1500    -3.1370    -0.1630 C.3   1 <1>   0.0610 
 11 C        3.6280    -1.9770     0.7320 C.3   1 <1>  -0.2400 
 12 C        3.6320    -2.8890    -1.6060 C.3   1 <1>  -0.2400 
 13 C        3.8470    -4.4210     0.3390 C.3   1 <1>  -0.2400 
 14 H       -0.9370    -3.9810     0.1590 H     1 <1>   0.4000 
 15 H       -2.4000    -3.1110    -0.1830 H     1 <1>   0.4000 
 16 H        1.3690    -1.3210    -0.8750 H     1 <1>   0.1500 
 17 H        4.7020    -1.9230     0.7410 H     1 <1>   0.0800 
 18 H        3.2900    -2.1270     1.7430 H     1 <1>   0.0800 
 19 H        3.2530    -1.0310     0.3870 H     1 <1>   0.0800 
 20 H        3.2570    -1.9600    -1.9940 H     1 <1>   0.0800 
 21 H        3.2960    -3.6850    -2.2490 H     1 <1>   0.0800 
 22 H        4.7060    -2.8550    -1.6460 H     1 <1>   0.0800 
 23 H        4.9170    -4.3230     0.3020 H     1 <1>   0.0800 
 24 H        3.5620    -5.2630    -0.2670 H     1 <1>   0.0800 
 25 H        3.5590    -4.6300     1.3550 H     1 <1>   0.0800 
@<TRIPOS>BOND
  1   1   2  1   
  2   2   3  1   
  3   2   4  1   
  4   2   5  1   
  5   5   6  1   
  6   5   7  2   
  7   6  14  1   
  8   6  15  1   
  9   7   8  1   
 10   7  16  1   
 11   8   9  2   
 12   8  10  1   
 13  10  11  1   
 14  10  12  1   
 15  10  13  1   
 16  11  17  1   
 17  11  18  1   
 18  11  19  1   
 19  12  20  1   
 20  12  21  1   
 21  12  22  1   
 22  13  23  1   
 23  13  24  1   
 24  13  25  1   
@<TRIPOS>SUBSTRUCTURE
  1 ****   7 GROUP 4 **** **** 0

# MOE 2024.06 (io_trps.svl 2023.06)
