@<TRIPOS>MOLECULE
NONAME
51 54 1 0 0 
SMALL
USER_CHARGES


@<TRIPOS>ATOM
  1 CL      -1.1410     1.5210    -2.0230 Cl    1 <1>  -0.1770 
  2 C       -2.7050     0.9390    -1.5090 C.ar  1 <1>   0.1770 
  3 C       -3.7760     1.8120    -1.4730 C.ar  1 <1>  -0.1500 
  4 C       -2.8520    -0.3860    -1.1450 C.ar  1 <1>  -0.1500 
  5 C       -5.0150     1.3470    -1.0650 C.ar  1 <1>  -0.1500 
  6 C       -4.0940    -0.8410    -0.7380 C.ar  1 <1>  -0.1500 
  7 C       -5.1920     0.0160    -0.6940 C.ar  1 <1>   0.1170 
  8 N       -6.4610    -0.4050    -0.2730 N.am  1 <1>  -0.5470 
  9 C       -7.0540    -1.6350    -0.3100 C.2   1 <1>   0.6900 
 10 O       -6.5330    -2.5610    -0.9020 O.2   1 <1>  -0.5700 
 11 N       -8.2670    -1.8100     0.3070 N.am  1 <1>  -0.6600 
 12 C       -9.0760    -3.0490     0.0790 C.3   1 <1>   0.1400 
 13 C       -8.8280    -0.9330     1.3840 C.3   1 <1>   0.1400 
 14 C      -10.5620    -2.7170    -0.1490 C.3   1 <1>   0.2090 
 15 C      -10.3130    -0.6190     1.1310 C.3   1 <1>   0.2090 
 16 N      -11.1120    -1.8700     0.9520 N.pl3 1 <1>  -0.8380 
 17 C      -12.4880    -1.6850     0.8920 C.ar  1 <1>   0.4100 
 18 N      -12.9740    -0.7820     0.0360 N.ar  1 <1>  -0.3100 
 19 C      -13.3070    -2.4410     1.7090 C.ar  1 <1>  -0.1500 
 20 N      -14.2720    -0.5850    -0.0490 N.ar  1 <1>  -0.3100 
 21 C      -14.6600    -2.2360     1.6200 C.ar  1 <1>  -0.1500 
 22 C      -15.1100    -1.2890     0.7200 C.ar  1 <1>   0.4100 
 23 N      -16.4790    -1.0690     0.5980 N.pl3 1 <1>  -0.8380 
 24 C      -17.1990    -1.9770    -0.3450 C.3   1 <1>   0.2090 
 25 C      -16.9430     0.3510     0.4850 C.3   1 <1>   0.2090 
 26 C      -17.2830    -1.3780    -1.7610 C.3   1 <1>   0.1200 
 27 C      -17.0750     0.8100    -0.9810 C.3   1 <1>   0.1200 
 28 O      -17.8400    -0.0950    -1.7260 O.3   1 <1>  -0.5600 
 29 H       -3.6360     2.8380    -1.7620 H     1 <1>   0.1500 
 30 H       -2.0070    -1.0490    -1.1810 H     1 <1>   0.1500 
 31 H       -5.8500     2.0230    -1.0400 H     1 <1>   0.1500 
 32 H       -4.2090    -1.8710    -0.4500 H     1 <1>   0.1500 
 33 H       -7.1080     0.3330    -0.0240 H     1 <1>   0.3700 
 34 H       -8.9860    -3.6910     0.9370 H     1 <1>   0.0800 
 35 H       -8.7070    -3.5880    -0.7770 H     1 <1>   0.0800 
 36 H       -8.2790    -0.0140     1.4610 H     1 <1>   0.0800 
 37 H       -8.7420    -1.4460     2.3260 H     1 <1>   0.0800 
 38 H      -11.1240    -3.6330    -0.2100 H     1 <1>   0.0800 
 39 H      -10.6690    -2.2000    -1.0880 H     1 <1>   0.0800 
 40 H      -10.4020    -0.0050     0.2510 H     1 <1>   0.0800 
 41 H      -10.7090    -0.0640     1.9650 H     1 <1>   0.0800 
 42 H      -12.8780    -3.1550     2.3850 H     1 <1>   0.1500 
 43 H      -15.3630    -2.7780     2.2220 H     1 <1>   0.1500 
 44 H      -18.1950    -2.1490     0.0240 H     1 <1>   0.0800 
 45 H      -16.6960    -2.9270    -0.3910 H     1 <1>   0.0800 
 46 H      -16.2540     0.9990     1.0000 H     1 <1>   0.0800 
 47 H      -17.9000     0.4450     0.9680 H     1 <1>   0.0800 
 48 H      -17.9070    -1.9910    -2.3870 H     1 <1>   0.0800 
 49 H      -16.3030    -1.3180    -2.2010 H     1 <1>   0.0800 
 50 H      -16.1030     0.8970    -1.4360 H     1 <1>   0.0800 
 51 H      -17.5610     1.7680    -1.0250 H     1 <1>   0.0800 
@<TRIPOS>BOND
  1   1   2  1   
  2   2   3  ar  
  3   2   4  ar  
  4   3   5  ar  
  5   3  29  1   
  6   4   6  ar  
  7   4  30  1   
  8   5   7  ar  
  9   5  31  1   
 10   6   7  ar  
 11   6  32  1   
 12   7   8  1   
 13   8   9  am  
 14   8  33  1   
 15   9  10  2   
 16   9  11  am  
 17  11  12  1   
 18  11  13  1   
 19  12  14  1   
 20  12  34  1   
 21  12  35  1   
 22  13  15  1   
 23  13  36  1   
 24  13  37  1   
 25  14  16  1   
 26  14  38  1   
 27  14  39  1   
 28  15  16  1   
 29  15  40  1   
 30  15  41  1   
 31  16  17  1   
 32  17  18  ar  
 33  17  19  ar  
 34  18  20  ar  
 35  19  21  ar  
 36  19  42  1   
 37  20  22  ar  
 38  21  22  ar  
 39  21  43  1   
 40  22  23  1   
 41  23  24  1   
 42  23  25  1   
 43  24  26  1   
 44  24  44  1   
 45  24  45  1   
 46  25  27  1   
 47  25  46  1   
 48  25  47  1   
 49  26  28  1   
 50  26  48  1   
 51  26  49  1   
 52  27  28  1   
 53  27  50  1   
 54  27  51  1   
@<TRIPOS>SUBSTRUCTURE
  1 ****  15 GROUP 4 **** **** 0

# MOE 2024.06 (io_trps.svl 2023.06)
