@<TRIPOS>MOLECULE
NONAME
47 49 1 0 0 
SMALL
USER_CHARGES


@<TRIPOS>ATOM
  1 O       -0.9380     0.0650    -1.1890 O.2   1 <1>  -0.5700 
  2 C       -1.7900     0.5480    -0.4840 C.2   1 <1>   0.5690 
  3 N       -2.7400    -0.2160     0.1400 N.am  1 <1>  -0.6600 
  4 C       -1.7740     2.0490    -0.3100 C.3   1 <1>  -0.1790 
  5 C       -2.7720    -1.7040    -0.0280 C.3   1 <1>   0.1400 
  6 C       -3.8620     0.3010     0.9890 C.3   1 <1>   0.1400 
  7 C       -4.1430    -2.1810    -0.5360 C.3   1 <1>   0.2090 
  8 C       -5.2290    -0.1980     0.4870 C.3   1 <1>   0.2090 
  9 N       -5.2450    -1.6860     0.3420 N.pl3 1 <1>  -0.8380 
 10 C       -6.4640    -2.3330     0.2770 C.ar  1 <1>   0.4100 
 11 N       -7.5030    -1.6580    -0.1080 N.ar  1 <1>  -0.6200 
 12 C       -6.5380    -3.6890     0.6230 C.ar  1 <1>  -0.1500 
 13 C       -8.6970    -2.3030    -0.2110 C.ar  1 <1>   0.3100 
 14 C       -7.7040    -4.3830     0.5340 C.ar  1 <1>  -0.1440 
 15 C       -8.8600    -3.6890     0.0700 C.ar  1 <1>   0.0000 
 16 C       -9.8290    -1.5520    -0.6310 C.ar  1 <1>   0.0820 
 17 C       -7.6820    -5.8510     0.9450 C.3   1 <1>  -0.0970 
 18 C      -10.1510    -4.2640    -0.1350 C.ar  1 <1>   0.0820 
 19 O       -9.7560    -0.2200    -0.8870 O.3   1 <1>  -0.3630 
 20 C      -11.0490    -2.1400    -0.8150 C.ar  1 <1>  -0.1500 
 21 O      -10.3200    -5.5930     0.1020 O.3   1 <1>  -0.3630 
 22 C      -11.2110    -3.4960    -0.5690 C.ar  1 <1>  -0.1500 
 23 C       -9.6240     0.6330     0.2280 C.3   1 <1>   0.0400 
 24 C      -11.5380    -6.2710    -0.1170 C.3   1 <1>   0.0400 
 25 H       -1.6900     2.2950     0.7310 H     1 <1>   0.0800 
 26 H       -2.6730     2.4710    -0.7170 H     1 <1>   0.0800 
 27 H       -0.9310     2.4640    -0.8310 H     1 <1>   0.0800 
 28 H       -2.5700    -2.1680     0.9210 H     1 <1>   0.0800 
 29 H       -2.0130    -2.0240    -0.7190 H     1 <1>   0.0800 
 30 H       -3.8720     1.3740     1.0080 H     1 <1>   0.0800 
 31 H       -3.7210    -0.0450     1.9980 H     1 <1>   0.0800 
 32 H       -4.1520    -3.2560    -0.5750 H     1 <1>   0.0800 
 33 H       -4.2960    -1.8140    -1.5360 H     1 <1>   0.0800 
 34 H       -5.4520     0.2530    -0.4650 H     1 <1>   0.0800 
 35 H       -5.9930     0.1010     1.1830 H     1 <1>   0.0800 
 36 H       -5.6350    -4.1490     0.9710 H     1 <1>   0.1500 
 37 H       -6.7130    -6.1440     1.3050 H     1 <1>   0.0800 
 38 H       -7.9260    -6.4740     0.1030 H     1 <1>   0.0800 
 39 H       -8.3940    -6.0230     1.7320 H     1 <1>   0.0800 
 40 H      -11.8840    -1.5510    -1.1520 H     1 <1>   0.1500 
 41 H      -12.1900    -3.9050    -0.7310 H     1 <1>   0.1500 
 42 H       -9.6840     1.6490    -0.1180 H     1 <1>   0.0800 
 43 H       -8.6710     0.4630     0.6950 H     1 <1>   0.0800 
 44 H      -10.4220     0.4290     0.9190 H     1 <1>   0.0800 
 45 H      -11.3900    -7.3080     0.1270 H     1 <1>   0.0800 
 46 H      -11.8100    -6.1760    -1.1530 H     1 <1>   0.0800 
 47 H      -12.2930    -5.8500     0.5240 H     1 <1>   0.0800 
@<TRIPOS>BOND
  1   1   2  2   
  2   2   3  am  
  3   2   4  1   
  4   3   5  1   
  5   3   6  1   
  6   4  25  1   
  7   4  26  1   
  8   4  27  1   
  9   5   7  1   
 10   5  28  1   
 11   5  29  1   
 12   6   8  1   
 13   6  30  1   
 14   6  31  1   
 15   7   9  1   
 16   7  32  1   
 17   7  33  1   
 18   8   9  1   
 19   8  34  1   
 20   8  35  1   
 21   9  10  1   
 22  10  11  ar  
 23  10  12  ar  
 24  11  13  ar  
 25  12  14  ar  
 26  12  36  1   
 27  13  15  ar  
 28  13  16  ar  
 29  14  15  ar  
 30  14  17  1   
 31  15  18  ar  
 32  16  19  1   
 33  16  20  ar  
 34  17  37  1   
 35  17  38  1   
 36  17  39  1   
 37  18  21  1   
 38  18  22  ar  
 39  19  23  1   
 40  20  22  ar  
 41  20  40  1   
 42  21  24  1   
 43  22  41  1   
 44  23  42  1   
 45  23  43  1   
 46  23  44  1   
 47  24  45  1   
 48  24  46  1   
 49  24  47  1   
@<TRIPOS>SUBSTRUCTURE
  1 ****  10 GROUP 4 **** **** 0

# MOE 2024.06 (io_trps.svl 2023.06)
