@<TRIPOS>MOLECULE
NONAME
37 38 1 0 0 
SMALL
USER_CHARGES


@<TRIPOS>ATOM
  1 O        0.6020     0.2600    -0.5740 O.3   1 <1>  -0.3630 
  2 C        0.3560     1.4670     0.0160 C.ar  1 <1>   0.0830 
  3 C       -0.4410    -0.6560    -0.8300 C.3   1 <1>   0.0400 
  4 C        1.4580     2.3080     0.2310 C.ar  1 <1>   0.1000 
  5 C       -0.9100     1.8800     0.3990 C.ar  1 <1>  -0.1500 
  6 N        2.7350     1.9140    -0.1480 N.pl3 1 <1>  -0.6000 
  7 C        1.2910     3.5610     0.8300 C.ar  1 <1>   0.0860 
  8 C       -1.0850     3.1230     0.9940 C.ar  1 <1>  -0.1500 
  9 C        3.8490     2.6880     0.0310 C.2   1 <1>  -0.0380 
 10 C        2.4500     4.3940     1.0350 C.2   1 <1>   0.4690 
 11 C       -0.0020     3.9470     1.2050 C.ar  1 <1>  -0.1500 
 12 C        3.7360     3.9110     0.6260 C.2   1 <1>  -0.1240 
 13 C        5.1290     2.0500    -0.4880 C.3   1 <1>  -0.1020 
 14 O        2.3210     5.5010     1.5520 O.2   1 <1>  -0.5700 
 15 C        4.9440     4.8170     0.8880 C.3   1 <1>  -0.0220 
 16 C        5.1680     5.7770    -0.2880 C.3   1 <1>  -0.1600 
 17 C        6.3910     6.6720    -0.0580 C.3   1 <1>  -0.1600 
 18 C        6.6050     7.6240    -1.2380 C.3   1 <1>  -0.2400 
 19 H       -0.0140    -1.5270    -1.2930 H     1 <1>   0.0800 
 20 H       -1.1520    -0.1990    -1.4960 H     1 <1>   0.0800 
 21 H       -0.9030    -0.9280     0.1020 H     1 <1>   0.0800 
 22 H       -1.7760     1.2630     0.2500 H     1 <1>   0.1500 
 23 H        2.7930     0.9870    -0.5860 H     1 <1>   0.4000 
 24 H       -2.0710     3.4390     1.2900 H     1 <1>   0.1500 
 25 H       -0.1410     4.9100     1.6660 H     1 <1>   0.1500 
 26 H        5.4200     1.2440     0.1600 H     1 <1>   0.0800 
 27 H        5.9380     2.7510    -0.5540 H     1 <1>   0.0800 
 28 H        4.9630     1.6570    -1.4750 H     1 <1>   0.0800 
 29 H        5.8260     4.2280     1.0540 H     1 <1>   0.0800 
 30 H        4.7890     5.3840     1.7890 H     1 <1>   0.0800 
 31 H        4.2910     6.3910    -0.4070 H     1 <1>   0.0800 
 32 H        5.3000     5.2080    -1.1920 H     1 <1>   0.0800 
 33 H        7.2700     6.0630     0.0690 H     1 <1>   0.0800 
 34 H        6.2510     7.2490     0.8410 H     1 <1>   0.0800 
 35 H        6.7670     7.0700    -2.1450 H     1 <1>   0.0800 
 36 H        7.4630     8.2470    -1.0580 H     1 <1>   0.0800 
 37 H        5.7450     8.2580    -1.3680 H     1 <1>   0.0800 
@<TRIPOS>BOND
  1   1   2  1   
  2   1   3  1   
  3   2   4  ar  
  4   2   5  ar  
  5   3  19  1   
  6   3  20  1   
  7   3  21  1   
  8   4   6  1   
  9   4   7  ar  
 10   5   8  ar  
 11   5  22  1   
 12   6   9  1   
 13   6  23  1   
 14   7  10  1   
 15   7  11  ar  
 16   8  11  ar  
 17   8  24  1   
 18   9  12  2   
 19   9  13  1   
 20  10  12  1   
 21  10  14  2   
 22  11  25  1   
 23  12  15  1   
 24  13  26  1   
 25  13  27  1   
 26  13  28  1   
 27  15  16  1   
 28  15  29  1   
 29  15  30  1   
 30  16  17  1   
 31  16  31  1   
 32  16  32  1   
 33  17  18  1   
 34  17  33  1   
 35  17  34  1   
 36  18  35  1   
 37  18  36  1   
 38  18  37  1   
@<TRIPOS>SUBSTRUCTURE
  1 ****  10 GROUP 4 **** **** 0

# MOE 2024.06 (io_trps.svl 2023.06)
