@<TRIPOS>MOLECULE
NONAME
29 29 1 0 0 
SMALL
USER_CHARGES


@<TRIPOS>ATOM
  1 CL       0.2930    -0.8420     0.0140 Cl    1 <1>  -0.1770 
  2 C       -0.8980     0.4460     0.0300 C.ar  1 <1>   0.1770 
  3 C       -0.5760     1.8150     0.0300 C.ar  1 <1>   0.0830 
  4 C       -2.2160     0.0270     0.0440 C.ar  1 <1>  -0.1500 
  5 O        0.6660     2.3810     0.0180 O.3   1 <1>  -0.3630 
  6 C       -1.6170     2.7360     0.0440 C.ar  1 <1>  -0.1500 
  7 C       -3.2230     0.9700     0.0570 C.ar  1 <1>   0.1770 
  8 C        1.8680     1.6540     0.0040 C.3   1 <1>   0.1200 
  9 C       -2.9380     2.3220     0.0570 C.ar  1 <1>  -0.1500 
 10 CL      -4.8870     0.4450     0.0740 Cl    1 <1>  -0.1770 
 11 C        3.0180     2.6630    -0.0060 C.3   1 <1>   0.3430 
 12 N        4.3490     1.9820    -0.0220 N.4   1 <1>  -0.9060 
 13 C        5.4660     2.9750    -0.0310 C.3   1 <1>   0.3430 
 14 C        6.8410     2.2940    -0.0480 C.3   1 <1>   0.1200 
 15 O        7.7950     3.2930    -0.0550 O.3   1 <1>  -0.6800 
 16 H       -2.4580    -1.0200     0.0440 H     1 <1>   0.1500 
 17 H       -1.3920     3.7890     0.0440 H     1 <1>   0.1500 
 18 H        1.8830     1.0530    -0.8880 H     1 <1>   0.0800 
 19 H        1.9020     1.0490     0.8920 H     1 <1>   0.0800 
 20 H       -3.7430     3.0370     0.0680 H     1 <1>   0.1500 
 21 H        2.9400     3.2850     0.8710 H     1 <1>   0.0800 
 22 H        2.9210     3.2890    -0.8790 H     1 <1>   0.0800 
 23 H        4.4200     1.3810    -0.8540 H     1 <1>   0.4500 
 24 H        4.4380     1.3760     0.8050 H     1 <1>   0.4500 
 25 H        5.4040     3.6000     0.8450 H     1 <1>   0.0800 
 26 H        5.3860     3.6040    -0.9030 H     1 <1>   0.0800 
 27 H        6.9740     1.7000    -0.9360 H     1 <1>   0.0800 
 28 H        6.9930     1.6960     0.8350 H     1 <1>   0.0800 
 29 H        8.7080     2.9300    -0.0660 H     1 <1>   0.4000 
@<TRIPOS>BOND
  1   1   2  1   
  2   2   3  ar  
  3   2   4  ar  
  4   3   5  1   
  5   3   6  ar  
  6   4   7  ar  
  7   4  16  1   
  8   5   8  1   
  9   6   9  ar  
 10   6  17  1   
 11   7   9  ar  
 12   7  10  1   
 13   8  11  1   
 14   8  18  1   
 15   8  19  1   
 16   9  20  1   
 17  11  12  1   
 18  11  21  1   
 19  11  22  1   
 20  12  13  1   
 21  12  23  1   
 22  12  24  1   
 23  13  14  1   
 24  13  25  1   
 25  13  26  1   
 26  14  15  1   
 27  14  27  1   
 28  14  28  1   
 29  15  29  1   
@<TRIPOS>SUBSTRUCTURE
  1 ****   5 GROUP 4 **** **** 0

# MOE 2024.06 (io_trps.svl 2023.06)
