@<TRIPOS>MOLECULE
NONAME
45 47 1 0 0 
SMALL
USER_CHARGES


@<TRIPOS>ATOM
  1 CL      -0.1970    -0.3460    -0.7160 Cl    1 <1>  -0.1770 
  2 C        1.2360     0.6450    -0.5370 C.ar  1 <1>   0.1770 
  3 C        1.1240     2.0300    -0.4310 C.ar  1 <1>   0.0820 
  4 C        2.4650     0.0240    -0.5110 C.ar  1 <1>  -0.1500 
  5 O       -0.0690     2.6560    -0.4590 O.3   1 <1>  -0.3630 
  6 C        2.2720     2.7880    -0.3180 C.ar  1 <1>  -0.1500 
  7 C        3.6420     0.7710    -0.3760 C.ar  1 <1>   0.0280 
  8 C       -0.8390     2.6250     0.7300 C.3   1 <1>   0.1810 
  9 C        3.5120     2.1680    -0.2900 C.ar  1 <1>   0.0830 
 10 C        4.9660     0.2110    -0.3290 C.2   1 <1>  -0.1670 
 11 C       -2.1370     3.4070     0.5670 C.2   1 <1>   0.4480 
 12 O        4.6040     2.9530    -0.1810 O.3   1 <1>  -0.2330 
 13 C        6.0320     1.0490    -0.2470 C.2   1 <1>  -0.1240 
 14 C        5.1310    -1.3100    -0.3820 C.3   1 <1>  -0.0220 
 15 O       -2.2530     4.4610     1.1250 O.2   1 <1>  -0.5700 
 16 C       -3.2860     2.7920    -0.2780 C.3   1 <1>   0.0610 
 17 C        5.8470     2.4710    -0.1610 C.2   1 <1>   0.7060 
 18 C        7.4770     0.5470    -0.2310 C.3   1 <1>  -0.0220 
 19 C        6.5430    -1.7740    -0.0050 C.3   1 <1>  -0.1600 
 20 C       -4.5120     3.7290    -0.2930 C.3   1 <1>  -0.2400 
 21 C       -2.8610     2.5690    -1.7410 C.3   1 <1>  -0.2400 
 22 C       -3.7420     1.4450     0.3140 C.3   1 <1>  -0.2400 
 23 O        6.7560     3.2720    -0.0650 O.2   1 <1>  -0.5700 
 24 C        7.6000    -0.9090    -0.6910 C.3   1 <1>  -0.1600 
 25 H        2.4960    -1.0440    -0.6020 H     1 <1>   0.1500 
 26 H        2.2040     3.8590    -0.2530 H     1 <1>   0.1500 
 27 H       -0.2540     3.0770     1.5100 H     1 <1>   0.0800 
 28 H       -1.0400     1.6050     0.9930 H     1 <1>   0.0800 
 29 H        4.9030    -1.6450    -1.3800 H     1 <1>   0.0800 
 30 H        4.4410    -1.7800     0.2960 H     1 <1>   0.0800 
 31 H        7.8600     0.6430     0.7710 H     1 <1>   0.0800 
 32 H        8.0860     1.1620    -0.8720 H     1 <1>   0.0800 
 33 H        6.6710    -2.8050    -0.2860 H     1 <1>   0.0800 
 34 H        6.6670    -1.7040     1.0630 H     1 <1>   0.0800 
 35 H       -4.8670     3.8980     0.7090 H     1 <1>   0.0800 
 36 H       -5.3150     3.3100    -0.8720 H     1 <1>   0.0800 
 37 H       -4.2470     4.6820    -0.7170 H     1 <1>   0.0800 
 38 H       -2.4870     3.4860    -2.1630 H     1 <1>   0.0800 
 39 H       -3.6950     2.2370    -2.3340 H     1 <1>   0.0800 
 40 H       -2.0900     1.8230    -1.8130 H     1 <1>   0.0800 
 41 H       -4.0200     1.5650     1.3460 H     1 <1>   0.0800 
 42 H       -2.9630     0.7070     0.2510 H     1 <1>   0.0800 
 43 H       -4.5940     1.0660    -0.2230 H     1 <1>   0.0800 
 44 H        8.5860    -1.2770    -0.4620 H     1 <1>   0.0800 
 45 H        7.4650    -0.9590    -1.7590 H     1 <1>   0.0800 
@<TRIPOS>BOND
  1   1   2  1   
  2   2   3  ar  
  3   2   4  ar  
  4   3   5  1   
  5   3   6  ar  
  6   4   7  ar  
  7   4  25  1   
  8   5   8  1   
  9   6   9  ar  
 10   6  26  1   
 11   7   9  ar  
 12   7  10  1   
 13   8  11  1   
 14   8  27  1   
 15   8  28  1   
 16   9  12  1   
 17  10  13  2   
 18  10  14  1   
 19  11  15  2   
 20  11  16  1   
 21  12  17  1   
 22  13  17  1   
 23  13  18  1   
 24  14  19  1   
 25  14  29  1   
 26  14  30  1   
 27  16  20  1   
 28  16  21  1   
 29  16  22  1   
 30  17  23  2   
 31  18  24  1   
 32  18  31  1   
 33  18  32  1   
 34  19  24  1   
 35  19  33  1   
 36  19  34  1   
 37  20  35  1   
 38  20  36  1   
 39  20  37  1   
 40  21  38  1   
 41  21  39  1   
 42  21  40  1   
 43  22  41  1   
 44  22  42  1   
 45  22  43  1   
 46  24  44  1   
 47  24  45  1   
@<TRIPOS>SUBSTRUCTURE
  1 ****   3 GROUP 4 **** **** 0

# MOE 2024.06 (io_trps.svl 2023.06)
