@<TRIPOS>MOLECULE
NONAME
43 45 1 0 0 
SMALL
USER_CHARGES


@<TRIPOS>ATOM
  1 I        1.2900    -0.3570    -3.4480 I     1 <1>  -0.0810 
  2 C        1.8190    -1.2360    -1.5820 C.ar  1 <1>   0.0810 
  3 C        3.1530    -1.4210    -1.2890 C.ar  1 <1>  -0.1500 
  4 C        0.8090    -1.5960    -0.7110 C.ar  1 <1>  -0.1500 
  5 C        3.5230    -2.0040    -0.0780 C.ar  1 <1>   0.0860 
  6 C        1.1670    -2.1600     0.4970 C.ar  1 <1>  -0.1500 
  7 C        2.5040    -2.3730     0.8250 C.ar  1 <1>   0.1170 
  8 C        4.9280    -2.1900     0.2120 C.2   1 <1>   0.5440 
  9 N        2.7790    -2.9280     2.0790 N.am  1 <1>  -0.5470 
 10 O        5.7120    -1.2620     0.1570 O.2   1 <1>  -0.5700 
 11 N        5.4520    -3.4210     0.5030 N.am  1 <1>  -0.6600 
 12 C        3.2300    -4.1810     2.3890 C.2   1 <1>   0.7150 
 13 C        5.6340    -4.4180    -0.5860 C.3   1 <1>   0.1400 
 14 C        6.4440    -3.5360     1.6120 C.3   1 <1>   0.1400 
 15 O        3.8400    -4.2670     3.4370 O.2   1 <1>  -0.5700 
 16 C        3.0420    -5.3210     1.5130 C.2   1 <1>   0.0550 
 17 C        7.0800    -4.3640    -1.1210 C.3   1 <1>   0.3430 
 18 C        7.8750    -3.4680     1.0550 C.3   1 <1>   0.3430 
 19 O        3.8080    -6.4040     1.6410 O.3   1 <1>  -0.2800 
 20 C        2.1690    -5.5430     0.4880 C.2   1 <1>  -0.1500 
 21 N        8.1050    -4.5000    -0.0220 N.4   1 <1>  -0.9590 
 22 C        3.4380    -7.3000     0.7540 C.2   1 <1>  -0.0100 
 23 C        2.4270    -6.8240     0.0000 C.2   1 <1>  -0.1500 
 24 C        9.4920    -4.3970    -0.5640 C.3   1 <1>   0.2630 
 25 H        3.9090    -1.1090    -1.9890 H     1 <1>   0.1500 
 26 H       -0.2240    -1.4330    -0.9690 H     1 <1>   0.1500 
 27 H        0.4000    -2.4400     1.1990 H     1 <1>   0.1500 
 28 H        2.9330    -2.2750     2.8490 H     1 <1>   0.3700 
 29 H        4.9450    -4.2130    -1.3880 H     1 <1>   0.0800 
 30 H        5.4190    -5.4040    -0.2110 H     1 <1>   0.0800 
 31 H        6.2900    -4.4620     2.1400 H     1 <1>   0.0800 
 32 H        6.2950    -2.7320     2.3130 H     1 <1>   0.0800 
 33 H        7.2170    -3.4200    -1.6220 H     1 <1>   0.0800 
 34 H        7.2170    -5.1480    -1.8480 H     1 <1>   0.0800 
 35 H        8.5750    -3.6120     1.8610 H     1 <1>   0.0800 
 36 H        8.0300    -2.4800     0.6520 H     1 <1>   0.0800 
 37 H        1.4050    -4.8890     0.1090 H     1 <1>   0.1500 
 38 H        7.9780    -5.4260     0.4120 H     1 <1>   0.4500 
 39 H        3.9400    -8.2530     0.7290 H     1 <1>   0.1500 
 40 H        1.9020    -7.3110    -0.8050 H     1 <1>   0.1500 
 41 H        9.6450    -3.4300    -1.0160 H     1 <1>   0.0800 
 42 H        9.6620    -5.1570    -1.3100 H     1 <1>   0.0800 
 43 H       10.2140    -4.5250     0.2260 H     1 <1>   0.0800 
@<TRIPOS>BOND
  1   1   2  1   
  2   2   3  ar  
  3   2   4  ar  
  4   3   5  ar  
  5   3  25  1   
  6   4   6  ar  
  7   4  26  1   
  8   5   7  ar  
  9   5   8  1   
 10   6   7  ar  
 11   6  27  1   
 12   7   9  1   
 13   8  10  2   
 14   8  11  am  
 15   9  12  am  
 16   9  28  1   
 17  11  13  1   
 18  11  14  1   
 19  12  15  2   
 20  12  16  1   
 21  13  17  1   
 22  13  29  1   
 23  13  30  1   
 24  14  18  1   
 25  14  31  1   
 26  14  32  1   
 27  16  19  1   
 28  16  20  2   
 29  17  21  1   
 30  17  33  1   
 31  17  34  1   
 32  18  21  1   
 33  18  35  1   
 34  18  36  1   
 35  19  22  1   
 36  20  23  1   
 37  20  37  1   
 38  21  24  1   
 39  21  38  1   
 40  22  23  2   
 41  22  39  1   
 42  23  40  1   
 43  24  41  1   
 44  24  42  1   
 45  24  43  1   
@<TRIPOS>SUBSTRUCTURE
  1 ****  11 GROUP 4 **** **** 0

# MOE 2024.06 (io_trps.svl 2023.06)
