@<TRIPOS>MOLECULE
NONAME
51 53 1 0 0 
SMALL
USER_CHARGES


@<TRIPOS>ATOM
  1 F       -2.0900    -2.9200    -3.7430 F     1 <1>  -0.1900 
  2 C       -3.0290    -3.0530    -2.8410 C.ar  1 <1>   0.1900 
  3 C       -2.8300    -2.5100    -1.5860 C.ar  1 <1>  -0.1500 
  4 C       -4.1860    -3.7310    -3.1790 C.ar  1 <1>  -0.1500 
  5 C       -3.8290    -2.6550    -0.6390 C.ar  1 <1>  -0.1500 
  6 C       -5.1750    -3.8670    -2.2210 C.ar  1 <1>  -0.1500 
  7 C       -5.0060    -3.3320    -0.9450 C.ar  1 <1>   0.1000 
  8 N       -5.9870    -3.4570     0.0300 N.pl3 1 <1>  -0.8380 
  9 C       -6.2630    -4.8430     0.5130 C.3   1 <1>   0.2090 
 10 C       -7.2470    -2.6900    -0.2100 C.3   1 <1>   0.2090 
 11 C       -7.2090    -4.8350     1.7300 C.3   1 <1>   0.1100 
 12 C       -8.1620    -2.7290     1.0280 C.3   1 <1>   0.1100 
 13 N       -8.4730    -4.1220     1.4410 N.3   1 <1>  -0.8100 
 14 C       -9.3940    -4.1490     2.6180 C.3   1 <1>   0.1710 
 15 C      -10.8320    -3.7420     2.2870 C.2   1 <1>   0.5690 
 16 O      -11.5580    -3.3670     3.1760 O.2   1 <1>  -0.5700 
 17 N      -11.1950    -3.8210     0.9750 N.am  1 <1>  -0.5470 
 18 C      -12.3360    -3.4380     0.2500 C.ar  1 <1>   0.1170 
 19 C      -12.2260    -3.2960    -1.1380 C.ar  1 <1>   0.0830 
 20 C      -13.5630    -3.2020     0.8560 C.ar  1 <1>  -0.1500 
 21 O      -10.9970    -3.5340    -1.6970 O.3   1 <1>  -0.3630 
 22 C      -13.3370    -2.9240    -1.8880 C.ar  1 <1>  -0.1500 
 23 C      -14.6690    -2.8320     0.1110 C.ar  1 <1>   0.0830 
 24 C      -10.8100    -3.4850    -3.0940 C.3   1 <1>   0.0400 
 25 C      -14.5530    -2.6930    -1.2680 C.ar  1 <1>  -0.1500 
 26 O      -15.8250    -2.6230     0.7950 O.3   1 <1>  -0.3620 
 27 C      -17.0020    -2.2150     0.1340 C.3   1 <1>   0.0400 
 28 H       -1.9170    -1.9900    -1.3600 H     1 <1>   0.1500 
 29 H       -4.3030    -4.1390    -4.1660 H     1 <1>   0.1500 
 30 H       -3.7120    -2.2480     0.3480 H     1 <1>   0.1500 
 31 H       -6.0840    -4.3880    -2.4540 H     1 <1>   0.1500 
 32 H       -5.3330    -5.3120     0.7850 H     1 <1>   0.0800 
 33 H       -6.7120    -5.4190    -0.2770 H     1 <1>   0.0800 
 34 H       -7.7730    -3.1080    -1.0500 H     1 <1>   0.0800 
 35 H       -7.0000    -1.6690    -0.4410 H     1 <1>   0.0800 
 36 H       -6.7040    -4.3660     2.5570 H     1 <1>   0.0800 
 37 H       -7.4270    -5.8530     2.0020 H     1 <1>   0.0800 
 38 H       -9.0700    -2.2010     0.7950 H     1 <1>   0.0800 
 39 H       -7.6730    -2.2080     1.8330 H     1 <1>   0.0800 
 40 H       -9.0200    -3.5020     3.3920 H     1 <1>   0.0800 
 41 H       -9.4340    -5.1470     3.0130 H     1 <1>   0.0800 
 42 H      -10.4040    -4.0910     0.3790 H     1 <1>   0.3700 
 43 H      -13.6710    -3.3080     1.9190 H     1 <1>   0.1500 
 44 H      -13.2800    -2.8070    -2.9530 H     1 <1>   0.1500 
 45 H       -9.7850    -3.7340    -3.3030 H     1 <1>   0.0800 
 46 H      -11.0210    -2.4880    -3.4400 H     1 <1>   0.0800 
 47 H      -11.4620    -4.2030    -3.5600 H     1 <1>   0.0800 
 48 H      -15.3930    -2.4070    -1.8720 H     1 <1>   0.1500 
 49 H      -17.7760    -2.1030     0.8720 H     1 <1>   0.0800 
 50 H      -17.2820    -2.9710    -0.5780 H     1 <1>   0.0800 
 51 H      -16.8210    -1.2730    -0.3510 H     1 <1>   0.0800 
@<TRIPOS>BOND
  1   1   2  1   
  2   2   3  ar  
  3   2   4  ar  
  4   3   5  ar  
  5   3  28  1   
  6   4   6  ar  
  7   4  29  1   
  8   5   7  ar  
  9   5  30  1   
 10   6   7  ar  
 11   6  31  1   
 12   7   8  1   
 13   8   9  1   
 14   8  10  1   
 15   9  11  1   
 16   9  32  1   
 17   9  33  1   
 18  10  12  1   
 19  10  34  1   
 20  10  35  1   
 21  11  13  1   
 22  11  36  1   
 23  11  37  1   
 24  12  13  1   
 25  12  38  1   
 26  12  39  1   
 27  13  14  1   
 28  14  15  1   
 29  14  40  1   
 30  14  41  1   
 31  15  16  2   
 32  15  17  am  
 33  17  18  1   
 34  17  42  1   
 35  18  19  ar  
 36  18  20  ar  
 37  19  21  1   
 38  19  22  ar  
 39  20  23  ar  
 40  20  43  1   
 41  21  24  1   
 42  22  25  ar  
 43  22  44  1   
 44  23  25  ar  
 45  23  26  1   
 46  24  45  1   
 47  24  46  1   
 48  24  47  1   
 49  25  48  1   
 50  26  27  1   
 51  27  49  1   
 52  27  50  1   
 53  27  51  1   
@<TRIPOS>SUBSTRUCTURE
  1 ****  12 GROUP 4 **** **** 0

# MOE 2024.06 (io_trps.svl 2023.06)
