@<TRIPOS>MOLECULE
NONAME
40 41 1 0 0 
SMALL
USER_CHARGES


@<TRIPOS>ATOM
  1 O       -0.4400    -0.3300     1.0330 O.2   1 <1>  -0.5700 
  2 C       -1.4410     0.3180     1.2190 C.2   1 <1>   0.5690 
  3 N       -2.3970    -0.1920     2.0260 N.am  1 <1>  -0.8000 
  4 C       -1.6320     1.7170     0.5770 C.3   1 <1>   0.2040 
  5 C       -3.1200     1.8830     0.1710 C.ar  1 <1>  -0.1430 
  6 C       -0.8010     1.8730    -0.7340 C.3   1 <1>  -0.1600 
  7 C       -1.1520     2.7520     1.6380 C.3   1 <1>  -0.1600 
  8 C       -3.9170     2.9580     0.5610 C.ar  1 <1>  -0.1500 
  9 C       -3.6960     0.9120    -0.6440 C.ar  1 <1>  -0.1500 
 10 C        0.6130     2.4260    -0.4980 C.3   1 <1>  -0.1600 
 11 C       -0.6640     4.0700     1.0140 C.3   1 <1>  -0.1600 
 12 C       -5.2400     3.0560     0.1650 C.ar  1 <1>   0.0830 
 13 C       -5.0210     0.9920    -1.0350 C.ar  1 <1>  -0.1500 
 14 C        0.5680     3.8340     0.1220 C.3   1 <1>  -0.1600 
 15 O       -5.9290     4.1530     0.5650 O.3   1 <1>  -0.3620 
 16 C       -5.8080     2.0500    -0.6210 C.ar  1 <1>   0.0830 
 17 C       -6.3170     5.0490    -0.4530 C.3   1 <1>   0.0400 
 18 O       -7.1080     2.0530    -1.0070 O.3   1 <1>  -0.3630 
 19 C       -8.0710     1.9460     0.0190 C.3   1 <1>   0.0400 
 20 H       -2.2720    -1.1160     2.4400 H     1 <1>   0.3700 
 21 H       -3.3040     0.2600     2.1520 H     1 <1>   0.3700 
 22 H       -1.3090     2.5530    -1.3970 H     1 <1>   0.0800 
 23 H       -0.7380     0.9270    -1.2420 H     1 <1>   0.0800 
 24 H       -0.3190     2.3330     2.1780 H     1 <1>   0.0800 
 25 H       -1.9160     2.9300     2.3720 H     1 <1>   0.0800 
 26 H       -3.5380     3.7550     1.1710 H     1 <1>   0.1500 
 27 H       -3.1110     0.0730    -0.9830 H     1 <1>   0.1500 
 28 H        1.1560     2.4570    -1.4270 H     1 <1>   0.0800 
 29 H        1.1400     1.7580     0.1620 H     1 <1>   0.0800 
 30 H       -0.4190     4.7770     1.7870 H     1 <1>   0.0800 
 31 H       -1.4530     4.4970     0.4190 H     1 <1>   0.0800 
 32 H       -5.4510     0.2300    -1.6600 H     1 <1>   0.1500 
 33 H        0.5690     4.5720    -0.6620 H     1 <1>   0.0800 
 34 H        1.4640     3.9790     0.7010 H     1 <1>   0.0800 
 35 H       -6.7660     5.9100     0.0090 H     1 <1>   0.0800 
 36 H       -7.0270     4.5680    -1.1010 H     1 <1>   0.0800 
 37 H       -5.4440     5.3420    -1.0100 H     1 <1>   0.0800 
 38 H       -9.0380     1.8420    -0.4380 H     1 <1>   0.0800 
 39 H       -8.0470     2.8330     0.6250 H     1 <1>   0.0800 
 40 H       -7.8480     1.0790     0.6150 H     1 <1>   0.0800 
@<TRIPOS>BOND
  1   1   2  2   
  2   2   3  am  
  3   2   4  1   
  4   3  20  1   
  5   3  21  1   
  6   4   5  1   
  7   4   6  1   
  8   4   7  1   
  9   5   8  ar  
 10   5   9  ar  
 11   6  10  1   
 12   6  22  1   
 13   6  23  1   
 14   7  11  1   
 15   7  24  1   
 16   7  25  1   
 17   8  12  ar  
 18   8  26  1   
 19   9  13  ar  
 20   9  27  1   
 21  10  14  1   
 22  10  28  1   
 23  10  29  1   
 24  11  14  1   
 25  11  30  1   
 26  11  31  1   
 27  12  15  1   
 28  12  16  ar  
 29  13  16  ar  
 30  13  32  1   
 31  14  33  1   
 32  14  34  1   
 33  15  17  1   
 34  16  18  1   
 35  17  35  1   
 36  17  36  1   
 37  17  37  1   
 38  18  19  1   
 39  19  38  1   
 40  19  39  1   
 41  19  40  1   
@<TRIPOS>SUBSTRUCTURE
  1 ****   5 GROUP 4 **** **** 0

# MOE 2024.06 (io_trps.svl 2023.06)
