@<TRIPOS>MOLECULE
NONAME
43 45 1 0 0 
SMALL
USER_CHARGES


@<TRIPOS>ATOM
  1 BR      -2.5320     1.2720     2.1690 Br    1 <1>  -0.1110 
  2 C       -1.3070     2.3180     1.1110 C.ar  1 <1>   0.1110 
  3 C       -1.5260     2.4620    -0.2520 C.ar  1 <1>  -0.1440 
  4 C       -0.2360     2.9040     1.7570 C.ar  1 <1>  -0.1500 
  5 C       -0.6200     3.2200    -0.9810 C.ar  1 <1>  -0.1500 
  6 C       -2.7170     1.8120    -0.9260 C.3   1 <1>   0.4870 
  7 C        0.6530     3.6620     1.0150 C.ar  1 <1>  -0.1500 
  8 C        0.4600     3.8170    -0.3480 C.ar  1 <1>  -0.1500 
  9 N       -3.9570     2.5210    -0.5140 N.4   1 <1>  -0.9590 
 10 C       -5.1800     1.8280    -0.9970 C.3   1 <1>   0.4860 
 11 C       -3.9750     3.9620    -0.9080 C.3   1 <1>   0.3430 
 12 C       -6.4210     2.5580    -0.5100 C.ar  1 <1>  -0.1430 
 13 C       -5.0960     4.6910    -0.1610 C.3   1 <1>  -0.0170 
 14 C       -6.3930     3.8930    -0.1310 C.ar  1 <1>  -0.1430 
 15 C       -7.6180     1.8640    -0.4520 C.ar  1 <1>  -0.1500 
 16 C       -7.5570     4.5110     0.2950 C.ar  1 <1>  -0.1500 
 17 C       -8.7890     2.4670    -0.0280 C.ar  1 <1>   0.0830 
 18 C       -8.7660     3.8200     0.3550 C.ar  1 <1>   0.0830 
 19 O       -9.8660     1.6280    -0.0370 O.3   1 <1>  -0.3630 
 20 O       -9.9080     4.4390     0.7770 O.3   1 <1>  -0.3620 
 21 C      -11.1660     2.0160     0.3480 C.3   1 <1>   0.0400 
 22 C       -9.9480     5.7950     1.1640 C.3   1 <1>   0.0400 
 23 H       -0.0960     2.7710     2.8160 H     1 <1>   0.1500 
 24 H       -0.7350     3.3560    -2.0440 H     1 <1>   0.1500 
 25 H       -2.7680     0.7760    -0.6300 H     1 <1>   0.0800 
 26 H       -2.6010     1.8560    -1.9960 H     1 <1>   0.0800 
 27 H        1.4970     4.1280     1.4970 H     1 <1>   0.1500 
 28 H        1.1610     4.4040    -0.9190 H     1 <1>   0.1500 
 29 H       -3.9960     2.4900     0.5140 H     1 <1>   0.4500 
 30 H       -5.1990     0.8150    -0.6280 H     1 <1>   0.0800 
 31 H       -5.1900     1.8010    -2.0740 H     1 <1>   0.0800 
 32 H       -4.1410     4.0450    -1.9690 H     1 <1>   0.0800 
 33 H       -3.0340     4.4320    -0.6720 H     1 <1>   0.0800 
 34 H       -5.2640     5.6430    -0.6330 H     1 <1>   0.0800 
 35 H       -4.7790     4.8820     0.8490 H     1 <1>   0.0800 
 36 H       -7.6700     0.8290    -0.7390 H     1 <1>   0.1500 
 37 H       -7.5050     5.5430     0.5840 H     1 <1>   0.1500 
 38 H      -11.8150     1.1650     0.2420 H     1 <1>   0.0800 
 39 H      -11.4980     2.8110    -0.2960 H     1 <1>   0.0800 
 40 H      -11.1450     2.3340     1.3750 H     1 <1>   0.0800 
 41 H      -10.9590     6.0310     1.4450 H     1 <1>   0.0800 
 42 H       -9.6510     6.4070     0.3310 H     1 <1>   0.0800 
 43 H       -9.2950     5.9390     2.0070 H     1 <1>   0.0800 
@<TRIPOS>BOND
  1   1   2  1   
  2   2   3  ar  
  3   2   4  ar  
  4   3   5  ar  
  5   3   6  1   
  6   4   7  ar  
  7   4  23  1   
  8   5   8  ar  
  9   5  24  1   
 10   6   9  1   
 11   6  25  1   
 12   6  26  1   
 13   7   8  ar  
 14   7  27  1   
 15   8  28  1   
 16   9  10  1   
 17   9  11  1   
 18   9  29  1   
 19  10  12  1   
 20  10  30  1   
 21  10  31  1   
 22  11  13  1   
 23  11  32  1   
 24  11  33  1   
 25  12  14  ar  
 26  12  15  ar  
 27  13  14  1   
 28  13  34  1   
 29  13  35  1   
 30  14  16  ar  
 31  15  17  ar  
 32  15  36  1   
 33  16  18  ar  
 34  16  37  1   
 35  17  18  ar  
 36  17  19  1   
 37  18  20  1   
 38  19  21  1   
 39  20  22  1   
 40  21  38  1   
 41  21  39  1   
 42  21  40  1   
 43  22  41  1   
 44  22  42  1   
 45  22  43  1   
@<TRIPOS>SUBSTRUCTURE
  1 ****   9 GROUP 4 **** **** 0

# MOE 2024.06 (io_trps.svl 2023.06)
