@<TRIPOS>MOLECULE
NONAME
52 53 1 0 0 
SMALL
USER_CHARGES


@<TRIPOS>ATOM
  1 S       -0.1140    -1.2940    -0.0070 S.o2  1 <1>   1.3330 
  2 O        1.0370    -0.9690     0.8010 O.2   1 <1>  -0.6500 
  3 O       -0.1380    -2.5190    -0.7660 O.2   1 <1>  -0.6500 
  4 N       -0.2940    -0.0100    -1.1500 N.am  1 <1>  -0.6930 
  5 C       -1.6100    -1.1840     0.9520 C.3   1 <1>  -0.1350 
  6 C       -0.6390     1.2830    -0.7690 C.ar  1 <1>   0.1990 
  7 C        0.4730    -0.1630    -2.4290 C.3   1 <1>   0.2570 
  8 C        0.0700     1.9830     0.1990 C.ar  1 <1>  -0.1500 
  9 C       -1.7260     1.9050    -1.3690 C.ar  1 <1>  -0.1500 
 10 C        1.9230     0.3380    -2.3760 C.2   1 <1>   0.5690 
 11 C       -0.3010     3.2640     0.5610 C.ar  1 <1>  -0.1500 
 12 C       -2.0990     3.1870    -1.0090 C.ar  1 <1>  -0.1500 
 13 O        2.3680     0.8960    -3.3500 O.2   1 <1>  -0.5700 
 14 N        2.6780     0.1540    -1.2570 N.am  1 <1>  -0.7300 
 15 C       -1.3910     3.8810    -0.0380 C.ar  1 <1>  -0.1430 
 16 C        4.0570     0.6500    -1.0580 C.3   1 <1>   0.1400 
 17 C       -1.8120     5.2980     0.3470 C.3   1 <1>   0.0630 
 18 C        4.0380     1.8260    -0.0820 C.3   1 <1>  -0.0170 
 19 C       -0.6980     6.3010     0.0310 C.3   1 <1>  -0.2400 
 20 C       -2.2060     5.3700     1.8260 C.3   1 <1>  -0.2400 
 21 C        5.4490     2.3340     0.1590 C.ar  1 <1>  -0.1430 
 22 C        6.0240     3.2360    -0.7220 C.ar  1 <1>  -0.1500 
 23 C        6.1750     1.8990     1.2570 C.ar  1 <1>  -0.1500 
 24 C        7.3100     3.6990    -0.5090 C.ar  1 <1>  -0.1500 
 25 C        7.4620     2.3610     1.4710 C.ar  1 <1>  -0.1500 
 26 C        8.0310     3.2620     0.5880 C.ar  1 <1>  -0.1500 
 27 H       -1.6300    -1.9590     1.6920 H     1 <1>   0.0800 
 28 H       -2.4660    -1.2940     0.3150 H     1 <1>   0.0800 
 29 H       -1.6670    -0.2340     1.4460 H     1 <1>   0.0800 
 30 H       -0.0340     0.3900    -3.1990 H     1 <1>   0.0800 
 31 H        0.4840    -1.1930    -2.7330 H     1 <1>   0.0800 
 32 H        0.9240     1.5330     0.6700 H     1 <1>   0.1500 
 33 H       -2.2820     1.3780    -2.1230 H     1 <1>   0.1500 
 34 H        0.2670     3.7840     1.3130 H     1 <1>   0.1500 
 35 H       -2.9450     3.6440    -1.4910 H     1 <1>   0.1500 
 36 H        2.2510    -0.2950    -0.4320 H     1 <1>   0.3700 
 37 H        4.4750     0.9660    -1.9990 H     1 <1>   0.0800 
 38 H        4.6680    -0.1440    -0.6660 H     1 <1>   0.0800 
 39 H       -2.6750     5.5730    -0.2360 H     1 <1>   0.0800 
 40 H        3.6010     1.5140     0.8490 H     1 <1>   0.0800 
 41 H        3.4360     2.6180    -0.4920 H     1 <1>   0.0800 
 42 H        0.1770     6.1040     0.6240 H     1 <1>   0.0800 
 43 H       -1.0310     7.3040     0.2330 H     1 <1>   0.0800 
 44 H       -0.4290     6.2330    -1.0080 H     1 <1>   0.0800 
 45 H       -1.3640     5.1540     2.4590 H     1 <1>   0.0800 
 46 H       -2.9830     4.6560     2.0320 H     1 <1>   0.0800 
 47 H       -2.5720     6.3530     2.0660 H     1 <1>   0.0800 
 48 H        5.4700     3.5800    -1.5800 H     1 <1>   0.1500 
 49 H        5.7430     1.1980     1.9490 H     1 <1>   0.1500 
 50 H        7.7500     4.3990    -1.1980 H     1 <1>   0.1500 
 51 H        8.0210     2.0200     2.3250 H     1 <1>   0.1500 
 52 H        9.0310     3.6210     0.7540 H     1 <1>   0.1500 
@<TRIPOS>BOND
  1   1   2  2   
  2   1   3  2   
  3   1   4  am  
  4   1   5  1   
  5   4   6  1   
  6   4   7  1   
  7   5  27  1   
  8   5  28  1   
  9   5  29  1   
 10   6   8  ar  
 11   6   9  ar  
 12   7  10  1   
 13   7  30  1   
 14   7  31  1   
 15   8  11  ar  
 16   8  32  1   
 17   9  12  ar  
 18   9  33  1   
 19  10  13  2   
 20  10  14  am  
 21  11  15  ar  
 22  11  34  1   
 23  12  15  ar  
 24  12  35  1   
 25  14  16  1   
 26  14  36  1   
 27  15  17  1   
 28  16  18  1   
 29  16  37  1   
 30  16  38  1   
 31  17  19  1   
 32  17  20  1   
 33  17  39  1   
 34  18  21  1   
 35  18  40  1   
 36  18  41  1   
 37  19  42  1   
 38  19  43  1   
 39  19  44  1   
 40  20  45  1   
 41  20  46  1   
 42  20  47  1   
 43  21  22  ar  
 44  21  23  ar  
 45  22  24  ar  
 46  22  48  1   
 47  23  25  ar  
 48  23  49  1   
 49  24  26  ar  
 50  24  50  1   
 51  25  26  ar  
 52  25  51  1   
 53  26  52  1   
@<TRIPOS>SUBSTRUCTURE
  1 ****   8 GROUP 4 **** **** 0

# MOE 2024.06 (io_trps.svl 2023.06)
