@<TRIPOS>MOLECULE
NONAME
44 45 1 0 0 
SMALL
USER_CHARGES


@<TRIPOS>ATOM
  1 S        0.3310     0.9110     2.0400 S.o2  1 <1>   1.3330 
  2 O        1.0680     1.2100     3.2440 O.2   1 <1>  -0.6500 
  3 O        0.7840    -0.1370     1.1580 O.2   1 <1>  -0.6500 
  4 N        0.2900     2.3730     1.1190 N.am  1 <1>  -0.6930 
  5 C       -1.3780     0.6720     2.4770 C.3   1 <1>  -0.1350 
  6 C       -0.6070     2.6030     0.0720 C.ar  1 <1>   0.1990 
  7 C        1.4300     3.3220     1.3540 C.3   1 <1>   0.2570 
  8 C       -1.2230     3.8430    -0.0560 C.ar  1 <1>  -0.1500 
  9 C       -0.9180     1.6220    -0.8630 C.ar  1 <1>  -0.1500 
 10 C        1.9800     4.0100     0.0970 C.2   1 <1>   0.5690 
 11 C       -2.1260     4.1070    -1.0730 C.ar  1 <1>  -0.1440 
 12 C       -1.8200     1.8720    -1.8790 C.ar  1 <1>  -0.1500 
 13 O        1.9040     5.2180     0.0550 O.2   1 <1>  -0.5700 
 14 N        2.5470     3.2920    -0.9300 N.am  1 <1>  -0.6600 
 15 C       -2.4310     3.1110    -1.9930 C.ar  1 <1>  -0.1430 
 16 C       -2.7560     5.4900    -1.1590 C.3   1 <1>  -0.0970 
 17 C        2.9570     3.9480    -2.2070 C.3   1 <1>   0.1400 
 18 C        2.7000     1.8040    -0.9600 C.3   1 <1>   0.1400 
 19 C       -3.4170     3.3490    -3.1280 C.3   1 <1>  -0.0970 
 20 C        4.3250     3.4270    -2.6740 C.3   1 <1>   0.1200 
 21 C        4.0770     1.4030    -1.5130 C.3   1 <1>   0.1200 
 22 O        4.3270     2.0280    -2.7400 O.3   1 <1>  -0.5600 
 23 H       -1.4810    -0.1990     3.0920 H     1 <1>   0.0800 
 24 H       -1.9750     0.5430     1.5960 H     1 <1>   0.0800 
 25 H       -1.7420     1.5220     3.0190 H     1 <1>   0.0800 
 26 H        2.2510     2.8020     1.8130 H     1 <1>   0.0800 
 27 H        1.1060     4.0790     2.0440 H     1 <1>   0.0800 
 28 H       -0.9840     4.6120     0.6550 H     1 <1>   0.1500 
 29 H       -0.4500     0.6580    -0.8130 H     1 <1>   0.1500 
 30 H       -2.0400     1.0930    -2.5880 H     1 <1>   0.1500 
 31 H       -2.3820     6.1350    -0.3850 H     1 <1>   0.0800 
 32 H       -3.8230     5.4170    -1.0520 H     1 <1>   0.0800 
 33 H       -2.5280     5.9400    -2.1080 H     1 <1>   0.0800 
 34 H        3.0090     5.0160    -2.0840 H     1 <1>   0.0800 
 35 H        2.2200     3.7370    -2.9620 H     1 <1>   0.0800 
 36 H        1.9330     1.3830    -1.5860 H     1 <1>   0.0800 
 37 H        2.5930     1.3850     0.0220 H     1 <1>   0.0800 
 38 H       -3.0590     4.1360    -3.7660 H     1 <1>   0.0800 
 39 H       -4.3760     3.6280    -2.7310 H     1 <1>   0.0800 
 40 H       -3.5430     2.4630    -3.7230 H     1 <1>   0.0800 
 41 H        5.1000     3.7430    -1.9980 H     1 <1>   0.0800 
 42 H        4.5480     3.8020    -3.6560 H     1 <1>   0.0800 
 43 H        4.1150     0.3400    -1.6730 H     1 <1>   0.0800 
 44 H        4.8560     1.6760    -0.8230 H     1 <1>   0.0800 
@<TRIPOS>BOND
  1   1   2  2   
  2   1   3  2   
  3   1   4  am  
  4   1   5  1   
  5   4   6  1   
  6   4   7  1   
  7   5  23  1   
  8   5  24  1   
  9   5  25  1   
 10   6   8  ar  
 11   6   9  ar  
 12   7  10  1   
 13   7  26  1   
 14   7  27  1   
 15   8  11  ar  
 16   8  28  1   
 17   9  12  ar  
 18   9  29  1   
 19  10  13  2   
 20  10  14  am  
 21  11  15  ar  
 22  11  16  1   
 23  12  15  ar  
 24  12  30  1   
 25  14  17  1   
 26  14  18  1   
 27  15  19  1   
 28  16  31  1   
 29  16  32  1   
 30  16  33  1   
 31  17  20  1   
 32  17  34  1   
 33  17  35  1   
 34  18  21  1   
 35  18  36  1   
 36  18  37  1   
 37  19  38  1   
 38  19  39  1   
 39  19  40  1   
 40  20  22  1   
 41  20  41  1   
 42  20  42  1   
 43  21  22  1   
 44  21  43  1   
 45  21  44  1   
@<TRIPOS>SUBSTRUCTURE
  1 ****   6 GROUP 4 **** **** 0

# MOE 2024.06 (io_trps.svl 2023.06)
