@<TRIPOS>MOLECULE
NONAME
52 55 1 0 0 
SMALL
USER_CHARGES


@<TRIPOS>ATOM
  1 O       -1.3780     1.7350     2.0930 O.2   1 <1>  -0.5700 
  2 C       -1.2730     2.0270     0.9240 C.2   1 <1>   0.5690 
  3 N       -1.8720     1.2690    -0.0370 N.am  1 <1>  -0.7300 
  4 C       -0.4470     3.2580     0.4910 C.3   1 <1>   0.0610 
  5 C       -2.6610     0.0490     0.2190 C.3   1 <1>   0.1400 
  6 C       -1.3310     4.2510    -0.3040 C.3   1 <1>  -0.1600 
  7 C        0.7330     2.8190    -0.4120 C.3   1 <1>  -0.1600 
  8 C        0.1410     4.0130     1.7120 C.3   1 <1>  -0.1600 
  9 C       -1.8430    -1.1640    -0.2160 C.3   1 <1>  -0.1600 
 10 C       -0.5200     5.4780    -0.7670 C.3   1 <1>   0.0000 
 11 C        1.5660     4.0310    -0.8770 C.3   1 <1>   0.0000 
 12 C        0.9640     5.2330     1.2650 C.3   1 <1>  -0.0800 
 13 C       -2.5650    -2.4670     0.1420 C.3   1 <1>   0.0960 
 14 C        0.6470     4.9960    -1.6540 C.3   1 <1>  -0.1600 
 15 C        0.0580     6.1900     0.4720 C.3   1 <1>  -0.1600 
 16 C       -1.4190     6.4390    -1.5540 C.3   1 <1>  -0.2400 
 17 C        2.1180     4.7610     0.3640 C.3   1 <1>  -0.1600 
 18 C        2.7210     3.5650    -1.7720 C.3   1 <1>  -0.2400 
 19 N       -1.7790    -3.6300    -0.3110 N.pl3 1 <1>   0.0480 
 20 C       -1.9630    -4.3740    -1.4250 C.2   1 <1>   0.0360 
 21 C       -0.7110    -4.1800     0.2930 C.2   1 <1>  -0.3020 
 22 N       -1.1070    -5.3340    -1.5650 N.2   1 <1>  -0.5650 
 23 C       -0.3160    -5.2140    -0.4820 C.2   1 <1>   0.0770 
 24 H       -1.7440     1.5300    -1.0150 H     1 <1>   0.3700 
 25 H       -3.5870     0.1010    -0.3280 H     1 <1>   0.0800 
 26 H       -2.8910    -0.0190     1.2710 H     1 <1>   0.0800 
 27 H       -2.1490     4.5710     0.3190 H     1 <1>   0.0800 
 28 H       -1.7520     3.7620    -1.1640 H     1 <1>   0.0800 
 29 H        0.3610     2.2950    -1.2740 H     1 <1>   0.0800 
 30 H        1.3610     2.1360     0.1350 H     1 <1>   0.0800 
 31 H       -0.6580     4.3340     2.3570 H     1 <1>   0.0800 
 32 H        0.7660     3.3480     2.2830 H     1 <1>   0.0800 
 33 H       -0.8920    -1.1420     0.2900 H     1 <1>   0.0800 
 34 H       -1.6790    -1.1230    -1.2790 H     1 <1>   0.0800 
 35 H        1.3610     5.7390     2.1280 H     1 <1>   0.0800 
 36 H       -3.5320    -2.5010    -0.3280 H     1 <1>   0.0800 
 37 H       -2.6980    -2.5380     1.2070 H     1 <1>   0.0800 
 38 H        0.2590     4.5040    -2.5280 H     1 <1>   0.0800 
 39 H        1.2180     5.8450    -1.9880 H     1 <1>   0.0800 
 40 H       -0.7420     6.5340     1.1050 H     1 <1>   0.0800 
 41 H        0.6260     7.0520     0.1680 H     1 <1>   0.0800 
 42 H       -1.8250     5.9510    -2.4230 H     1 <1>   0.0800 
 43 H       -0.8590     7.2980    -1.8770 H     1 <1>   0.0800 
 44 H       -2.2360     6.7770    -0.9410 H     1 <1>   0.0800 
 45 H        2.7050     5.6090     0.0590 H     1 <1>   0.0800 
 46 H        2.7620     4.1030     0.9210 H     1 <1>   0.0800 
 47 H        2.3440     3.0570    -2.6410 H     1 <1>   0.0800 
 48 H        3.3650     2.8910    -1.2350 H     1 <1>   0.0800 
 49 H        3.3060     4.4070    -2.0970 H     1 <1>   0.0800 
 50 H       -2.7560    -4.1720    -2.1230 H     1 <1>   0.1500 
 51 H       -0.2970    -3.8180     1.2170 H     1 <1>   0.1500 
 52 H        0.5080    -5.8880    -0.3160 H     1 <1>   0.1500 
@<TRIPOS>BOND
  1   1   2  2   
  2   2   3  am  
  3   2   4  1   
  4   3   5  1   
  5   3  24  1   
  6   4   6  1   
  7   4   7  1   
  8   4   8  1   
  9   5   9  1   
 10   5  25  1   
 11   5  26  1   
 12   6  10  1   
 13   6  27  1   
 14   6  28  1   
 15   7  11  1   
 16   7  29  1   
 17   7  30  1   
 18   8  12  1   
 19   8  31  1   
 20   8  32  1   
 21   9  13  1   
 22   9  33  1   
 23   9  34  1   
 24  10  14  1   
 25  10  15  1   
 26  10  16  1   
 27  11  14  1   
 28  11  17  1   
 29  11  18  1   
 30  12  15  1   
 31  12  17  1   
 32  12  35  1   
 33  13  19  1   
 34  13  36  1   
 35  13  37  1   
 36  14  38  1   
 37  14  39  1   
 38  15  40  1   
 39  15  41  1   
 40  16  42  1   
 41  16  43  1   
 42  16  44  1   
 43  17  45  1   
 44  17  46  1   
 45  18  47  1   
 46  18  48  1   
 47  18  49  1   
 48  19  20  1   
 49  19  21  1   
 50  20  22  2   
 51  20  50  1   
 52  21  23  2   
 53  21  51  1   
 54  22  23  1   
 55  23  52  1   
@<TRIPOS>SUBSTRUCTURE
  1 ****   3 GROUP 4 **** **** 0

# MOE 2024.06 (io_trps.svl 2023.06)
