@<TRIPOS>MOLECULE
NONAME
42 43 1 0 0 
SMALL
USER_CHARGES


@<TRIPOS>ATOM
  1 O       -1.3160    -2.1380    -1.0270 O.2   1 <1>  -0.5200 
  2 N       -1.1380    -0.9650    -1.4040 N.pl3 1 <1>   0.8000 
  3 O       -0.1280    -0.6630    -2.0600 O.2   1 <1>  -0.5200 
  4 C       -2.1650     0.0490    -1.0600 C.3   1 <1>   0.4800 
  5 N       -2.1510     1.0720    -2.1250 N.pl3 1 <1>   0.8000 
  6 C       -1.8600     0.6300     0.3510 C.3   1 <1>   0.1100 
  7 C       -3.5950    -0.5600    -1.0990 C.3   1 <1>   0.1400 
  8 O       -2.3190     0.7030    -3.2990 O.2   1 <1>  -0.5200 
  9 O       -2.2870     2.2700    -1.8270 O.2   1 <1>  -0.5200 
 10 N       -0.4500     1.0140     0.5760 N.3   1 <1>  -0.8100 
 11 N       -3.9200    -1.5100     0.0130 N.am  1 <1>  -0.7300 
 12 C       -0.1070     2.4130     0.2020 C.3   1 <1>   0.1100 
 13 C        0.0340     0.6850     1.9300 C.3   1 <1>   0.1100 
 14 C       -4.5990    -1.2070     1.1540 C.2   1 <1>   0.5440 
 15 C        1.0180     3.0350     1.0580 C.3   1 <1>   0.1200 
 16 C        1.5500     0.9560     2.0680 C.3   1 <1>   0.1200 
 17 O       -4.1610    -1.6990     2.1690 O.2   1 <1>  -0.5700 
 18 C       -5.7250    -0.2900     1.1780 C.ar  1 <1>   0.0860 
 19 O        1.9960     2.0880     1.3650 O.3   1 <1>  -0.5600 
 20 C       -6.6710    -0.2610     0.1520 C.ar  1 <1>  -0.1500 
 21 C       -5.8950     0.6040     2.2350 C.ar  1 <1>  -0.1500 
 22 C       -7.7230     0.6360     0.1670 C.ar  1 <1>  -0.1500 
 23 C       -6.9460     1.5030     2.2570 C.ar  1 <1>  -0.1500 
 24 C       -7.8600     1.5230     1.2200 C.ar  1 <1>  -0.1500 
 25 H       -2.0980    -0.1350     1.0690 H     1 <1>   0.0800 
 26 H       -2.5140     1.4570     0.5710 H     1 <1>   0.0800 
 27 H       -3.7400    -1.0760    -2.0350 H     1 <1>   0.0800 
 28 H       -4.3040     0.2500    -1.0670 H     1 <1>   0.0800 
 29 H       -3.2740    -2.3100     0.1090 H     1 <1>   0.3700 
 30 H       -0.9720     3.0490     0.2840 H     1 <1>   0.0800 
 31 H        0.2080     2.4250    -0.8280 H     1 <1>   0.0800 
 32 H       -0.1490    -0.3540     2.1470 H     1 <1>   0.0800 
 33 H       -0.4990     1.2720     2.6590 H     1 <1>   0.0800 
 34 H        0.6220     3.4230     1.9800 H     1 <1>   0.0800 
 35 H        1.4900     3.8400     0.5240 H     1 <1>   0.0800 
 36 H        2.1000     0.1150     1.6840 H     1 <1>   0.0800 
 37 H        1.8090     1.0840     3.1040 H     1 <1>   0.0800 
 38 H       -6.5840    -0.9570    -0.6640 H     1 <1>   0.1500 
 39 H       -5.1930     0.5870     3.0520 H     1 <1>   0.1500 
 40 H       -8.4410     0.6440    -0.6360 H     1 <1>   0.1500 
 41 H       -7.0560     2.1850     3.0840 H     1 <1>   0.1500 
 42 H       -8.6790     2.2220     1.2350 H     1 <1>   0.1500 
@<TRIPOS>BOND
  1   1   2  2   
  2   2   3  2   
  3   2   4  1   
  4   4   5  1   
  5   4   6  1   
  6   4   7  1   
  7   5   8  2   
  8   5   9  2   
  9   6  10  1   
 10   6  25  1   
 11   6  26  1   
 12   7  11  1   
 13   7  27  1   
 14   7  28  1   
 15  10  12  1   
 16  10  13  1   
 17  11  14  am  
 18  11  29  1   
 19  12  15  1   
 20  12  30  1   
 21  12  31  1   
 22  13  16  1   
 23  13  32  1   
 24  13  33  1   
 25  14  17  2   
 26  14  18  1   
 27  15  19  1   
 28  15  34  1   
 29  15  35  1   
 30  16  19  1   
 31  16  36  1   
 32  16  37  1   
 33  18  20  ar  
 34  18  21  ar  
 35  20  22  ar  
 36  20  38  1   
 37  21  23  ar  
 38  21  39  1   
 39  22  24  ar  
 40  22  40  1   
 41  23  24  ar  
 42  23  41  1   
 43  24  42  1   
@<TRIPOS>SUBSTRUCTURE
  1 ****   6 GROUP 4 **** **** 0

# MOE 2024.06 (io_trps.svl 2023.06)
