@<TRIPOS>MOLECULE
NONAME
46 48 1 0 0 
SMALL
USER_CHARGES


@<TRIPOS>ATOM
  1 N        0.0980    -0.0460    -0.0260 N.pl3 1 <1>  -0.8380 
  2 C       -1.1310    -0.6830    -0.1410 C.ar  1 <1>   0.1000 
  3 C        0.8680    -0.3140     1.2210 C.3   1 <1>   0.2090 
  4 C        0.1580     1.3630    -0.5100 C.3   1 <1>   0.2090 
  5 C       -1.2900    -1.7020    -1.0710 C.ar  1 <1>  -0.1500 
  6 C       -2.2140    -0.3270     0.6550 C.ar  1 <1>  -0.1500 
  7 C        2.3250     0.1740     1.0790 C.3   1 <1>   0.3430 
  8 C        1.6210     1.8350    -0.6340 C.3   1 <1>   0.3430 
  9 C       -2.5020    -2.3530    -1.2060 C.ar  1 <1>  -0.1500 
 10 C       -3.4280    -0.9760     0.5240 C.ar  1 <1>  -0.1500 
 11 N        2.4150     1.6180     0.6380 N.4   1 <1>  -0.9590 
 12 C       -3.5740    -1.9900    -0.4080 C.ar  1 <1>  -0.1500 
 13 C        3.8300     2.0850     0.5620 C.3   1 <1>   0.4230 
 14 C        3.8380     3.6160     0.6580 C.3   1 <1>  -0.1600 
 15 C        4.5520     1.5230    -0.6780 C.3   1 <1>  -0.1600 
 16 C        5.2390     4.2480     0.6860 C.3   1 <1>  -0.1600 
 17 C        6.0780     1.5900    -0.5200 C.3   1 <1>  -0.1600 
 18 C        5.9350     4.2030    -0.6820 C.3   1 <1>  -0.1600 
 19 C        6.7170     2.9130    -0.9720 C.3   1 <1>  -0.1600 
 20 H        0.8630    -1.3740     1.4160 H     1 <1>   0.0800 
 21 H        0.3930     0.1760     2.0530 H     1 <1>   0.0800 
 22 H       -0.3800     2.0030     0.1670 H     1 <1>   0.0800 
 23 H       -0.3210     1.4250    -1.4730 H     1 <1>   0.0800 
 24 H       -0.4560    -1.9800    -1.6880 H     1 <1>   0.1500 
 25 H       -2.1080     0.4580     1.3790 H     1 <1>   0.1500 
 26 H        2.8120    -0.4570     0.3560 H     1 <1>   0.0800 
 27 H        2.8300     0.0450     2.0220 H     1 <1>   0.0800 
 28 H        1.6300     2.8780    -0.9020 H     1 <1>   0.0800 
 29 H        2.0760     1.2850    -1.4410 H     1 <1>   0.0800 
 30 H       -2.6140    -3.1410    -1.9300 H     1 <1>   0.1500 
 31 H       -4.2620    -0.6950     1.1430 H     1 <1>   0.1500 
 32 H        1.9590     2.1750     1.3690 H     1 <1>   0.4500 
 33 H       -4.5190    -2.4960    -0.5110 H     1 <1>   0.1500 
 34 H        4.3480     1.7130     1.4320 H     1 <1>   0.0800 
 35 H        3.3440     3.9000     1.5710 H     1 <1>   0.0800 
 36 H        3.2880     4.0470    -0.1600 H     1 <1>   0.0800 
 37 H        4.2560     2.0410    -1.5730 H     1 <1>   0.0800 
 38 H        4.2990     0.4860    -0.7970 H     1 <1>   0.0800 
 39 H        5.8590     3.7950     1.4410 H     1 <1>   0.0800 
 40 H        5.1240     5.2850     0.9560 H     1 <1>   0.0800 
 41 H        6.5230     0.8020    -1.1040 H     1 <1>   0.0800 
 42 H        6.3480     1.3980     0.5050 H     1 <1>   0.0800 
 43 H        6.6340     5.0210    -0.7340 H     1 <1>   0.0800 
 44 H        5.2150     4.3730    -1.4640 H     1 <1>   0.0800 
 45 H        6.8900     2.8670    -2.0350 H     1 <1>   0.0800 
 46 H        7.6860     2.9860    -0.5090 H     1 <1>   0.0800 
@<TRIPOS>BOND
  1   1   2  1   
  2   1   3  1   
  3   1   4  1   
  4   2   5  ar  
  5   2   6  ar  
  6   3   7  1   
  7   3  20  1   
  8   3  21  1   
  9   4   8  1   
 10   4  22  1   
 11   4  23  1   
 12   5   9  ar  
 13   5  24  1   
 14   6  10  ar  
 15   6  25  1   
 16   7  11  1   
 17   7  26  1   
 18   7  27  1   
 19   8  11  1   
 20   8  28  1   
 21   8  29  1   
 22   9  12  ar  
 23   9  30  1   
 24  10  12  ar  
 25  10  31  1   
 26  11  13  1   
 27  11  32  1   
 28  12  33  1   
 29  13  14  1   
 30  13  15  1   
 31  13  34  1   
 32  14  16  1   
 33  14  35  1   
 34  14  36  1   
 35  15  17  1   
 36  15  37  1   
 37  15  38  1   
 38  16  18  1   
 39  16  39  1   
 40  16  40  1   
 41  17  19  1   
 42  17  41  1   
 43  17  42  1   
 44  18  19  1   
 45  18  43  1   
 46  18  44  1   
 47  19  45  1   
 48  19  46  1   
@<TRIPOS>SUBSTRUCTURE
  1 ****   8 GROUP 4 **** **** 0

# MOE 2024.06 (io_trps.svl 2023.06)
