@<TRIPOS>MOLECULE
NONAME
47 49 1 0 0 
SMALL
USER_CHARGES


@<TRIPOS>ATOM
  1 O       -0.1040    -0.0440     0.5360 O.2   1 <1>  -0.5700 
  2 C        0.0700    -1.2000     0.2070 C.2   1 <1>   0.5440 
  3 N        1.3410    -1.6640    -0.0480 N.am  1 <1>  -0.5470 
  4 C       -1.0510    -2.1170     0.1160 C.ar  1 <1>   0.0860 
  5 C        2.5580    -0.9910    -0.1830 C.ar  1 <1>   0.1170 
  6 C       -1.0810    -3.1550    -0.8180 C.ar  1 <1>  -0.1500 
  7 C       -2.1480    -1.9950     0.9690 C.ar  1 <1>  -0.1500 
  8 C        2.6510     0.3490    -0.5440 C.ar  1 <1>  -0.1500 
  9 C        3.7420    -1.6890     0.0270 C.ar  1 <1>  -0.1500 
 10 C       -2.1440    -4.0370    -0.8820 C.ar  1 <1>  -0.1500 
 11 C       -3.2140    -2.8740     0.9080 C.ar  1 <1>  -0.1500 
 12 C        3.8800     0.9650    -0.6820 C.ar  1 <1>  -0.1500 
 13 C        4.9700    -1.0710    -0.1130 C.ar  1 <1>  -0.1500 
 14 C       -3.2160    -3.9050    -0.0160 C.ar  1 <1>  -0.1430 
 15 C        5.0760     0.2780    -0.4670 C.ar  1 <1>   0.0860 
 16 C       -4.3860    -4.8710    -0.0850 C.3   1 <1>  -0.0970 
 17 C        6.3580     0.9420    -0.6120 C.2   1 <1>   0.5440 
 18 O        6.4750     1.9350    -1.3040 O.2   1 <1>  -0.5700 
 19 N        7.4680     0.4690     0.0290 N.am  1 <1>  -0.7300 
 20 C        8.8500     0.9830    -0.1080 C.3   1 <1>   0.1400 
 21 C        9.8330    -0.1910    -0.2320 C.3   1 <1>   0.2000 
 22 O        9.5910    -1.1370     0.7650 O.3   1 <1>  -0.5600 
 23 C       11.2930     0.1930    -0.0500 C.3   1 <1>  -0.1600 
 24 C       10.7440    -1.8720     1.0400 C.3   1 <1>   0.1200 
 25 C       11.9140    -1.1080     0.4240 C.3   1 <1>  -0.1600 
 26 H        1.4090    -2.6790    -0.0760 H     1 <1>   0.3700 
 27 H       -0.2690    -3.2700    -1.5130 H     1 <1>   0.1500 
 28 H       -2.1600    -1.1950     1.6900 H     1 <1>   0.1500 
 29 H        1.7570     0.9180    -0.7230 H     1 <1>   0.1500 
 30 H        3.7020    -2.7260     0.3040 H     1 <1>   0.1500 
 31 H       -2.1390    -4.8270    -1.6130 H     1 <1>   0.1500 
 32 H       -4.0430    -2.7510     1.5830 H     1 <1>   0.1500 
 33 H        3.9230     2.0040    -0.9630 H     1 <1>   0.1500 
 34 H        5.8640    -1.6460     0.0500 H     1 <1>   0.1500 
 35 H       -4.0600    -5.8340    -0.4330 H     1 <1>   0.0800 
 36 H       -5.1310    -4.4910    -0.7610 H     1 <1>   0.0800 
 37 H       -4.8300    -4.9940     0.8860 H     1 <1>   0.0800 
 38 H        7.4170    -0.3540     0.6350 H     1 <1>   0.3700 
 39 H        9.0910     1.5680     0.7610 H     1 <1>   0.0800 
 40 H        8.9280     1.6180    -0.9740 H     1 <1>   0.0800 
 41 H        9.6980    -0.6820    -1.1810 H     1 <1>   0.0800 
 42 H       11.3820     0.9450     0.7150 H     1 <1>   0.0800 
 43 H       11.7320     0.5560    -0.9630 H     1 <1>   0.0800 
 44 H       10.6380    -2.8510     0.6050 H     1 <1>   0.0800 
 45 H       10.8400    -1.9530     2.1090 H     1 <1>   0.0800 
 46 H       12.7030    -0.9460     1.1380 H     1 <1>   0.0800 
 47 H       12.3050    -1.6670    -0.4080 H     1 <1>   0.0800 
@<TRIPOS>BOND
  1   1   2  2   
  2   2   3  am  
  3   2   4  1   
  4   3   5  1   
  5   3  26  1   
  6   4   6  ar  
  7   4   7  ar  
  8   5   8  ar  
  9   5   9  ar  
 10   6  10  ar  
 11   6  27  1   
 12   7  11  ar  
 13   7  28  1   
 14   8  12  ar  
 15   8  29  1   
 16   9  13  ar  
 17   9  30  1   
 18  10  14  ar  
 19  10  31  1   
 20  11  14  ar  
 21  11  32  1   
 22  12  15  ar  
 23  12  33  1   
 24  13  15  ar  
 25  13  34  1   
 26  14  16  1   
 27  15  17  1   
 28  16  35  1   
 29  16  36  1   
 30  16  37  1   
 31  17  18  2   
 32  17  19  am  
 33  19  20  1   
 34  19  38  1   
 35  20  21  1   
 36  20  39  1   
 37  20  40  1   
 38  21  22  1   
 39  21  23  1   
 40  21  41  1   
 41  22  24  1   
 42  23  25  1   
 43  23  42  1   
 44  23  43  1   
 45  24  25  1   
 46  24  44  1   
 47  24  45  1   
 48  25  46  1   
 49  25  47  1   
@<TRIPOS>SUBSTRUCTURE
  1 ****   9 GROUP 4 **** **** 0

# MOE 2024.06 (io_trps.svl 2023.06)
