@<TRIPOS>MOLECULE
NONAME
28 29 1 0 0 
SMALL
USER_CHARGES


@<TRIPOS>ATOM
  1 O       -0.6670     5.6970     0.5270 O.3   1 <1>  -0.6870 
  2 C       -1.4860     4.6120     0.7900 C.3   1 <1>   0.1060 
  3 C       -2.0660     4.1040    -0.5350 C.3   1 <1>   0.3430 
  4 N       -2.6200     2.7380    -0.3720 N.pl3 1 <1>  -0.7700 
  5 C       -2.0210     1.5730    -0.6030 C.cat 1 <1>   1.0670 
  6 C       -3.9140     2.4610     0.0450 C.ar  1 <1>   0.2970 
  7 N       -0.7760     1.4530    -1.0040 N.pl3 1 <1>  -0.8420 
  8 N       -2.8390     0.5480    -0.3660 N.pl3 1 <1>  -0.7700 
  9 C       -4.0520     1.0840     0.0490 C.ar  1 <1>   0.2970 
 10 C       -4.9720     3.2820     0.4200 C.ar  1 <1>  -0.1230 
 11 C       -2.6000    -0.9110    -0.4910 C.3   1 <1>   0.2620 
 12 C       -5.2520     0.4920     0.4270 C.ar  1 <1>  -0.1230 
 13 C       -6.1650     2.6950     0.7970 C.ar  1 <1>  -0.1640 
 14 C       -6.3040     1.3060     0.8000 C.ar  1 <1>  -0.1640 
 15 H       -0.3360     6.1030     1.3560 H     1 <1>   0.3890 
 16 H       -2.2720     4.9310     1.4540 H     1 <1>   0.0650 
 17 H       -0.8850     3.8570     1.2640 H     1 <1>   0.0650 
 18 H       -1.2910     4.0880    -1.2820 H     1 <1>   0.0650 
 19 H       -2.8400     4.7720    -0.8720 H     1 <1>   0.0650 
 20 H       -0.3470     0.5490    -1.1720 H     1 <1>   0.4400 
 21 H       -0.1810     2.2620    -1.1580 H     1 <1>   0.4400 
 22 H       -4.8630     4.3510     0.4170 H     1 <1>   0.1360 
 23 H       -1.6000    -1.1100    -0.8350 H     1 <1>   0.0650 
 24 H       -3.2980    -1.3340    -1.1930 H     1 <1>   0.0650 
 25 H       -2.7390    -1.3840     0.4660 H     1 <1>   0.0650 
 26 H       -5.3570    -0.5780     0.4290 H     1 <1>   0.1360 
 27 H       -7.0000     3.3090     1.0920 H     1 <1>   0.1360 
 28 H       -7.2450     0.8720     1.0970 H     1 <1>   0.1360 
@<TRIPOS>BOND
  1   1   2  1   
  2   1  15  1   
  3   2   3  1   
  4   2  16  1   
  5   2  17  1   
  6   3   4  1   
  7   3  18  1   
  8   3  19  1   
  9   4   5  ar  
 10   4   6  1   
 11   5   7  ar  
 12   5   8  ar  
 13   6   9  ar  
 14   6  10  ar  
 15   7  20  1   
 16   7  21  1   
 17   8   9  1   
 18   8  11  1   
 19   9  12  ar  
 20  10  13  ar  
 21  10  22  1   
 22  11  23  1   
 23  11  24  1   
 24  11  25  1   
 25  12  14  ar  
 26  12  26  1   
 27  13  14  ar  
 28  13  27  1   
 29  14  28  1   
@<TRIPOS>SUBSTRUCTURE
  1 ****   6 GROUP 4 **** **** 0

# MOE 2024.06 (io_trps.svl 2023.06)
