@<TRIPOS>MOLECULE
NONAME
42 43 1 0 0 
SMALL
USER_CHARGES


@<TRIPOS>ATOM
  1 CL      -0.0430    -1.5820    -2.5990 Cl    1 <1>  -0.1770 
  2 C       -0.8950    -2.3980    -1.3030 C.ar  1 <1>   0.1770 
  3 C       -0.1630    -3.0200    -0.2930 C.ar  1 <1>   0.1170 
  4 C       -2.2750    -2.3960    -1.3250 C.ar  1 <1>  -0.1500 
  5 N        1.2480    -2.9780    -0.3330 N.am  1 <1>  -0.5470 
  6 C       -0.8860    -3.6430     0.7180 C.ar  1 <1>  -0.1500 
  7 C       -2.9870    -3.0230    -0.3130 C.ar  1 <1>   0.1170 
  8 C        2.2010    -3.7060     0.3240 C.2   1 <1>   0.5690 
  9 C       -2.2710    -3.6460     0.7050 C.ar  1 <1>  -0.1500 
 10 N       -4.3920    -3.0160    -0.3660 N.am  1 <1>  -0.5470 
 11 O        1.9410    -4.5920     1.1020 O.2   1 <1>  -0.5700 
 12 C        3.6660    -3.3760     0.0340 C.3   1 <1>  -0.0190 
 13 C       -5.3180    -3.1240     0.6320 C.2   1 <1>   0.5690 
 14 C        4.3730    -4.5470    -0.6760 C.3   1 <1>  -0.1600 
 15 C        4.4230    -2.9860     1.3180 C.3   1 <1>  -0.1600 
 16 O       -5.0390    -3.2210     1.8010 O.2   1 <1>  -0.5700 
 17 C       -6.7840    -3.1010     0.2360 C.3   1 <1>  -0.0990 
 18 C        5.8460    -4.2250    -0.9660 C.3   1 <1>  -0.1600 
 19 C        5.8960    -2.6630     1.0290 C.3   1 <1>  -0.1600 
 20 C       -7.2120    -4.3480    -0.5550 C.3   1 <1>  -0.2400 
 21 C        6.5890    -3.8320     0.3170 C.3   1 <1>  -0.1600 
 22 H       -2.7880    -1.9010    -2.1270 H     1 <1>   0.1500 
 23 H        1.6130    -2.3230    -1.0250 H     1 <1>   0.3700 
 24 H       -0.3760    -4.1320     1.5290 H     1 <1>   0.1500 
 25 H       -2.7960    -4.1440     1.5010 H     1 <1>   0.1500 
 26 H       -4.7860    -2.8880    -1.2950 H     1 <1>   0.3700 
 27 H        3.6940    -2.5290    -0.6280 H     1 <1>   0.0800 
 28 H        3.8650    -4.7710    -1.5980 H     1 <1>   0.0800 
 29 H        4.3180    -5.4230    -0.0520 H     1 <1>   0.0800 
 30 H        4.3720    -3.8010     2.0210 H     1 <1>   0.0800 
 31 H        3.9490    -2.1340     1.7730 H     1 <1>   0.0800 
 32 H       -6.9750    -2.2160    -0.3430 H     1 <1>   0.0800 
 33 H       -7.3760    -3.0350     1.1320 H     1 <1>   0.0800 
 34 H        5.9040    -3.4170    -1.6740 H     1 <1>   0.0800 
 35 H        6.3210    -5.0850    -1.4070 H     1 <1>   0.0800 
 36 H        6.4060    -2.4520     1.9540 H     1 <1>   0.0800 
 37 H        5.9560    -1.7830     0.4120 H     1 <1>   0.0800 
 38 H       -6.6680    -4.4220    -1.4800 H     1 <1>   0.0800 
 39 H       -8.2630    -4.3020    -0.7770 H     1 <1>   0.0800 
 40 H       -7.0240    -5.2340     0.0270 H     1 <1>   0.0800 
 41 H        7.6030    -3.5590     0.0780 H     1 <1>   0.0800 
 42 H        6.6250    -4.6790     0.9810 H     1 <1>   0.0800 
@<TRIPOS>BOND
  1   1   2  1   
  2   2   3  ar  
  3   2   4  ar  
  4   3   5  1   
  5   3   6  ar  
  6   4   7  ar  
  7   4  22  1   
  8   5   8  am  
  9   5  23  1   
 10   6   9  ar  
 11   6  24  1   
 12   7   9  ar  
 13   7  10  1   
 14   8  11  2   
 15   8  12  1   
 16   9  25  1   
 17  10  13  am  
 18  10  26  1   
 19  12  14  1   
 20  12  15  1   
 21  12  27  1   
 22  13  16  2   
 23  13  17  1   
 24  14  18  1   
 25  14  28  1   
 26  14  29  1   
 27  15  19  1   
 28  15  30  1   
 29  15  31  1   
 30  17  20  1   
 31  17  32  1   
 32  17  33  1   
 33  18  21  1   
 34  18  34  1   
 35  18  35  1   
 36  19  21  1   
 37  19  36  1   
 38  19  37  1   
 39  20  38  1   
 40  20  39  1   
 41  20  40  1   
 42  21  41  1   
 43  21  42  1   
@<TRIPOS>SUBSTRUCTURE
  1 ****   3 GROUP 4 **** **** 0

# MOE 2024.06 (io_trps.svl 2023.06)
