@<TRIPOS>MOLECULE
NONAME
49 50 1 0 0 
SMALL
USER_CHARGES


@<TRIPOS>ATOM
  1 S        0.9400     0.0470    -1.4520 S.o2  1 <1>   1.3330 
  2 O        0.8440    -0.7480    -0.2550 O.2   1 <1>  -0.6500 
  3 O        2.1820     0.0890    -2.1890 O.2   1 <1>  -0.6500 
  4 N        0.5470     1.6810    -1.0500 N.am  1 <1>  -0.6930 
  5 C       -0.3730    -0.3900    -2.5710 C.3   1 <1>  -0.1350 
  6 C       -0.4470     1.9330    -0.1090 C.ar  1 <1>   0.1990 
  7 C        1.6260     2.6980    -1.2780 C.3   1 <1>   0.3370 
  8 C       -0.1830     1.8740     1.2540 C.ar  1 <1>  -0.1500 
  9 C       -1.7330     2.2540    -0.5270 C.ar  1 <1>  -0.1500 
 10 C        2.7840     2.6140    -0.2540 C.2   1 <1>   0.5690 
 11 C        1.0100     4.1040    -1.3800 C.3   1 <1>  -0.2400 
 12 C       -1.1800     2.1270     2.1780 C.ar  1 <1>  -0.1500 
 13 C       -2.7340     2.5060     0.3940 C.ar  1 <1>  -0.1500 
 14 O        2.8150     3.3780     0.6840 O.2   1 <1>  -0.5700 
 15 N        3.7610     1.6780    -0.4580 N.am  1 <1>  -0.5470 
 16 C       -2.4580     2.4420     1.7490 C.ar  1 <1>  -0.1500 
 17 C        4.9020     1.4310     0.3190 C.ar  1 <1>   0.1170 
 18 C        6.0020     2.2960     0.2960 C.ar  1 <1>  -0.1430 
 19 C        4.9510     0.2800     1.1090 C.ar  1 <1>  -0.1430 
 20 C        7.1220     2.0000     1.0570 C.ar  1 <1>  -0.1500 
 21 C        6.0280     3.5660    -0.5520 C.3   1 <1>  -0.0170 
 22 C        6.0800     0.0040     1.8620 C.ar  1 <1>  -0.1500 
 23 C        3.7740    -0.6850     1.1680 C.3   1 <1>  -0.0970 
 24 C        7.1640     0.8610     1.8370 C.ar  1 <1>  -0.1500 
 25 C        6.3840     3.2460    -2.0070 C.3   1 <1>  -0.2400 
 26 H       -0.2330    -1.3920    -2.9280 H     1 <1>   0.0800 
 27 H       -0.3850     0.2770    -3.4100 H     1 <1>   0.0800 
 28 H       -1.3190    -0.3350    -2.0680 H     1 <1>   0.0800 
 29 H        2.0600     2.5040    -2.2430 H     1 <1>   0.0800 
 30 H        0.8090     1.6270     1.5910 H     1 <1>   0.1500 
 31 H       -1.9450     2.3110    -1.5780 H     1 <1>   0.1500 
 32 H        0.5960     4.4080    -0.4350 H     1 <1>   0.0800 
 33 H        0.2430     4.1250    -2.1330 H     1 <1>   0.0800 
 34 H        1.7740     4.8110    -1.6480 H     1 <1>   0.0800 
 35 H       -0.9600     2.0770     3.2310 H     1 <1>   0.1500 
 36 H       -3.7270     2.7540     0.0600 H     1 <1>   0.1500 
 37 H        3.5510     0.9560    -1.1600 H     1 <1>   0.3700 
 38 H       -3.2340     2.6380     2.4690 H     1 <1>   0.1500 
 39 H        7.9730     2.6570     1.0450 H     1 <1>   0.1500 
 40 H        6.7560     4.2510    -0.1550 H     1 <1>   0.0800 
 41 H        5.0790     4.0660    -0.5070 H     1 <1>   0.0800 
 42 H        6.1230    -0.8790     2.4740 H     1 <1>   0.1500 
 43 H        3.6000    -1.1170     0.1990 H     1 <1>   0.0800 
 44 H        2.8880    -0.1640     1.4820 H     1 <1>   0.0800 
 45 H        3.9580    -1.4820     1.8650 H     1 <1>   0.0800 
 46 H        8.0380     0.6420     2.4250 H     1 <1>   0.1500 
 47 H        7.3460     2.7670    -2.0530 H     1 <1>   0.0800 
 48 H        6.4160     4.1500    -2.5880 H     1 <1>   0.0800 
 49 H        5.6510     2.5850    -2.4330 H     1 <1>   0.0800 
@<TRIPOS>BOND
  1   1   2  2   
  2   1   3  2   
  3   1   4  am  
  4   1   5  1   
  5   4   6  1   
  6   4   7  1   
  7   5  26  1   
  8   5  27  1   
  9   5  28  1   
 10   6   8  ar  
 11   6   9  ar  
 12   7  10  1   
 13   7  11  1   
 14   7  29  1   
 15   8  12  ar  
 16   8  30  1   
 17   9  13  ar  
 18   9  31  1   
 19  10  14  2   
 20  10  15  am  
 21  11  32  1   
 22  11  33  1   
 23  11  34  1   
 24  12  16  ar  
 25  12  35  1   
 26  13  16  ar  
 27  13  36  1   
 28  15  17  1   
 29  15  37  1   
 30  16  38  1   
 31  17  18  ar  
 32  17  19  ar  
 33  18  20  ar  
 34  18  21  1   
 35  19  22  ar  
 36  19  23  1   
 37  20  24  ar  
 38  20  39  1   
 39  21  25  1   
 40  21  40  1   
 41  21  41  1   
 42  22  24  ar  
 43  22  42  1   
 44  23  43  1   
 45  23  44  1   
 46  23  45  1   
 47  24  46  1   
 48  25  47  1   
 49  25  48  1   
 50  25  49  1   
@<TRIPOS>SUBSTRUCTURE
  1 ****  10 GROUP 4 **** **** 0

# MOE 2024.06 (io_trps.svl 2023.06)
