@<TRIPOS>MOLECULE
NONAME
47 48 1 0 0 
SMALL
USER_CHARGES


@<TRIPOS>ATOM
  1 O       -5.5880     1.2700    -1.3800 O.2   1 <1>  -0.5700 
  2 C       -5.5460     1.9720    -0.4030 C.2   1 <1>   0.6590 
  3 O       -4.4510     2.1250     0.3240 O.3   1 <1>  -0.4300 
  4 C       -6.7740     2.7470     0.0640 C.3   1 <1>  -0.0190 
  5 C       -3.2510     1.4630    -0.0070 C.3   1 <1>   0.1200 
  6 C       -7.9630     1.8010     0.3220 C.3   1 <1>  -0.1600 
  7 C       -7.1630     3.8250    -0.9650 C.3   1 <1>  -0.1600 
  8 C       -2.1950     1.8540     1.0230 C.3   1 <1>  -0.2400 
  9 C       -9.2410     2.5640     0.6650 C.3   1 <1>   0.3430 
 10 C       -8.4620     4.5360    -0.5890 C.3   1 <1>   0.3430 
 11 N       -9.5530     3.5320    -0.4290 N.4   1 <1>  -0.9590 
 12 C      -10.8640     4.2300    -0.2120 C.3   1 <1>   0.3430 
 13 C      -12.0690     3.2940    -0.3410 C.3   1 <1>   0.1200 
 14 O      -13.2190     4.0720    -0.1250 O.3   1 <1>  -0.3630 
 15 C      -14.4590     3.5220    -0.1560 C.ar  1 <1>   0.0820 
 16 C      -15.5200     4.3670     0.1250 C.ar  1 <1>  -0.1500 
 17 C      -14.7070     2.1830    -0.4480 C.ar  1 <1>  -0.1500 
 18 C      -16.8220     3.8950     0.1200 C.ar  1 <1>  -0.1440 
 19 C      -16.0070     1.7100    -0.4550 C.ar  1 <1>  -0.1500 
 20 C      -17.0600     2.5620    -0.1710 C.ar  1 <1>  -0.1500 
 21 C      -17.9830     4.8240     0.4280 C.3   1 <1>  -0.0970 
 22 H       -6.5200     3.2350     0.9890 H     1 <1>   0.0800 
 23 H       -2.9550     1.7650    -0.9980 H     1 <1>   0.0800 
 24 H       -3.4300     0.4010     0.0080 H     1 <1>   0.0800 
 25 H       -7.7190     1.1400     1.1360 H     1 <1>   0.0800 
 26 H       -8.1410     1.1860    -0.5440 H     1 <1>   0.0800 
 27 H       -7.2720     3.3820    -1.9410 H     1 <1>   0.0800 
 28 H       -6.3720     4.5520    -1.0340 H     1 <1>   0.0800 
 29 H       -2.0320     2.9160     1.0030 H     1 <1>   0.0800 
 30 H       -1.2680     1.3620     0.7930 H     1 <1>   0.0800 
 31 H       -2.5070     1.5540     2.0070 H     1 <1>   0.0800 
 32 H       -9.1090     3.0920     1.5960 H     1 <1>   0.0800 
 33 H      -10.0500     1.8610     0.7860 H     1 <1>   0.0800 
 34 H       -8.7190     5.2430    -1.3630 H     1 <1>   0.0800 
 35 H       -8.3240     5.0790     0.3330 H     1 <1>   0.0800 
 36 H       -9.6040     3.0040    -1.3120 H     1 <1>   0.4500 
 37 H      -10.9760     5.0140    -0.9440 H     1 <1>   0.0800 
 38 H      -10.8770     4.6810     0.7670 H     1 <1>   0.0800 
 39 H      -12.0510     2.5210     0.4070 H     1 <1>   0.0800 
 40 H      -12.1300     2.8770    -1.3310 H     1 <1>   0.0800 
 41 H      -15.3200     5.3990     0.3460 H     1 <1>   0.1500 
 42 H      -13.9170     1.4940    -0.6740 H     1 <1>   0.1500 
 43 H      -16.2050     0.6760    -0.6800 H     1 <1>   0.1500 
 44 H      -18.0670     2.1840    -0.1800 H     1 <1>   0.1500 
 45 H      -17.6410     5.7020     0.9450 H     1 <1>   0.0800 
 46 H      -18.7050     4.3240     1.0480 H     1 <1>   0.0800 
 47 H      -18.4590     5.1250    -0.4880 H     1 <1>   0.0800 
@<TRIPOS>BOND
  1   1   2  2   
  2   2   3  1   
  3   2   4  1   
  4   3   5  1   
  5   4   6  1   
  6   4   7  1   
  7   4  22  1   
  8   5   8  1   
  9   5  23  1   
 10   5  24  1   
 11   6   9  1   
 12   6  25  1   
 13   6  26  1   
 14   7  10  1   
 15   7  27  1   
 16   7  28  1   
 17   8  29  1   
 18   8  30  1   
 19   8  31  1   
 20   9  11  1   
 21   9  32  1   
 22   9  33  1   
 23  10  11  1   
 24  10  34  1   
 25  10  35  1   
 26  11  12  1   
 27  11  36  1   
 28  12  13  1   
 29  12  37  1   
 30  12  38  1   
 31  13  14  1   
 32  13  39  1   
 33  13  40  1   
 34  14  15  1   
 35  15  16  ar  
 36  15  17  ar  
 37  16  18  ar  
 38  16  41  1   
 39  17  19  ar  
 40  17  42  1   
 41  18  20  ar  
 42  18  21  1   
 43  19  20  ar  
 44  19  43  1   
 45  20  44  1   
 46  21  45  1   
 47  21  46  1   
 48  21  47  1   
@<TRIPOS>SUBSTRUCTURE
  1 ****  11 GROUP 4 **** **** 0

# MOE 2024.06 (io_trps.svl 2023.06)
