@<TRIPOS>MOLECULE
NONAME
43 45 1 0 0 
SMALL
USER_CHARGES


@<TRIPOS>ATOM
  1 F       -2.7300     1.2920     3.2690 F     1 <1>  -0.1900 
  2 C       -2.8850     1.4110     1.9800 C.ar  1 <1>   0.1900 
  3 C       -3.9510     0.7660     1.3800 C.ar  1 <1>  -0.1500 
  4 C       -1.9850     2.1750     1.2650 C.ar  1 <1>  -0.1500 
  5 C       -4.1280     0.8960     0.0090 C.ar  1 <1>  -0.1440 
  6 C       -2.1610     2.2950    -0.1030 C.ar  1 <1>  -0.1500 
  7 C       -3.2250     1.6580    -0.7250 C.ar  1 <1>  -0.1500 
  8 C       -5.2980     0.2180    -0.6800 C.3   1 <1>   0.4870 
  9 N       -6.5490     0.9250    -0.3040 N.4   1 <1>  -0.9590 
 10 C       -7.7590     0.2120    -0.7930 C.3   1 <1>   0.4860 
 11 C       -6.5710     2.3520    -0.7490 C.3   1 <1>   0.3430 
 12 C       -9.0110     0.9410    -0.3370 C.ar  1 <1>  -0.1430 
 13 C       -7.7120     3.1000    -0.0530 C.3   1 <1>  -0.0170 
 14 C       -9.0000     2.2890    -0.0030 C.ar  1 <1>  -0.1430 
 15 C      -10.2000     0.2360    -0.2630 C.ar  1 <1>  -0.1500 
 16 C      -10.1740     2.9070     0.3970 C.ar  1 <1>  -0.1500 
 17 C      -11.3810     0.8390     0.1350 C.ar  1 <1>   0.0830 
 18 C      -11.3750     2.2040     0.4740 C.ar  1 <1>   0.0830 
 19 O      -12.4490    -0.0120     0.1470 O.3   1 <1>  -0.3630 
 20 O      -12.5250     2.8220     0.8730 O.3   1 <1>  -0.3620 
 21 C      -13.7650     0.3860     0.4590 C.3   1 <1>   0.0400 
 22 C      -12.5850     4.1920     1.2090 C.3   1 <1>   0.0400 
 23 H       -4.6100     0.1790     1.9950 H     1 <1>   0.1500 
 24 H       -1.1670     2.6600     1.7690 H     1 <1>   0.1500 
 25 H       -1.4660     2.8820    -0.6810 H     1 <1>   0.1500 
 26 H       -3.3310     1.7650    -1.7920 H     1 <1>   0.1500 
 27 H       -5.3430    -0.8120    -0.3670 H     1 <1>   0.0800 
 28 H       -5.1600     0.2450    -1.7490 H     1 <1>   0.0800 
 29 H       -6.6090     0.9360     0.7220 H     1 <1>   0.4500 
 30 H       -7.7760    -0.7950    -0.4070 H     1 <1>   0.0800 
 31 H       -7.7530     0.1650    -1.8700 H     1 <1>   0.0800 
 32 H       -6.7160     2.3950    -1.8160 H     1 <1>   0.0800 
 33 H       -5.6380     2.8370    -0.5120 H     1 <1>   0.0800 
 34 H       -7.8850     4.0270    -0.5700 H     1 <1>   0.0800 
 35 H       -7.4110     3.3420     0.9520 H     1 <1>   0.0800 
 36 H      -10.2400    -0.8090    -0.5170 H     1 <1>   0.1500 
 37 H      -10.1350     3.9480     0.6530 H     1 <1>   0.1500 
 38 H      -14.4070    -0.4690     0.3580 H     1 <1>   0.0800 
 39 H      -14.0690     1.1560    -0.2280 H     1 <1>   0.0800 
 40 H      -13.7900     0.7440     1.4730 H     1 <1>   0.0800 
 41 H      -13.6000     4.4240     1.4780 H     1 <1>   0.0800 
 42 H      -12.2930     4.7760     0.3540 H     1 <1>   0.0800 
 43 H      -11.9360     4.3760     2.0470 H     1 <1>   0.0800 
@<TRIPOS>BOND
  1   1   2  1   
  2   2   3  ar  
  3   2   4  ar  
  4   3   5  ar  
  5   3  23  1   
  6   4   6  ar  
  7   4  24  1   
  8   5   7  ar  
  9   5   8  1   
 10   6   7  ar  
 11   6  25  1   
 12   7  26  1   
 13   8   9  1   
 14   8  27  1   
 15   8  28  1   
 16   9  10  1   
 17   9  11  1   
 18   9  29  1   
 19  10  12  1   
 20  10  30  1   
 21  10  31  1   
 22  11  13  1   
 23  11  32  1   
 24  11  33  1   
 25  12  14  ar  
 26  12  15  ar  
 27  13  14  1   
 28  13  34  1   
 29  13  35  1   
 30  14  16  ar  
 31  15  17  ar  
 32  15  36  1   
 33  16  18  ar  
 34  16  37  1   
 35  17  18  ar  
 36  17  19  1   
 37  18  20  1   
 38  19  21  1   
 39  20  22  1   
 40  21  38  1   
 41  21  39  1   
 42  21  40  1   
 43  22  41  1   
 44  22  42  1   
 45  22  43  1   
@<TRIPOS>SUBSTRUCTURE
  1 ****   9 GROUP 4 **** **** 0

# MOE 2024.06 (io_trps.svl 2023.06)
