@<TRIPOS>MOLECULE
NONAME
36 37 1 0 0 
SMALL
USER_CHARGES


@<TRIPOS>ATOM
  1 CL       0.1580     1.2320    -0.8890 Cl    1 <1>  -0.1770 
  2 C       -1.5510     1.4860    -0.5960 C.ar  1 <1>   0.1770 
  3 C       -2.3390     0.4600    -0.0900 C.ar  1 <1>   0.0820 
  4 C       -2.0800     2.7290    -0.8840 C.ar  1 <1>  -0.1500 
  5 O       -1.7450    -0.7400     0.1700 O.3   1 <1>  -0.3630 
  6 C       -3.6910     0.7050     0.1280 C.ar  1 <1>  -0.1500 
  7 C       -3.4320     2.9650    -0.6650 C.ar  1 <1>   0.0830 
  8 C       -2.4920    -1.8380     0.6470 C.3   1 <1>   0.0400 
  9 C       -4.2500     1.9470    -0.1560 C.ar  1 <1>   0.1170 
 10 O       -4.0240     4.1720    -0.9250 O.3   1 <1>  -0.3630 
 11 N       -5.6130     2.2420     0.0460 N.am  1 <1>  -0.5470 
 12 C       -3.2720     5.2560    -1.4290 C.3   1 <1>   0.0400 
 13 C       -6.6940     1.5040     0.4430 C.2   1 <1>   0.5690 
 14 O       -6.6400     0.3290     0.7110 O.2   1 <1>  -0.5700 
 15 C       -8.0430     2.1950     0.5710 C.3   1 <1>   0.1310 
 16 S       -8.1600     3.6860    -0.5360 S.3   1 <1>  -0.2860 
 17 C       -9.8020     4.3210    -0.1760 C.2   1 <1>   0.2430 
 18 N      -10.5940     3.8200     0.6870 N.2   1 <1>  -0.3380 
 19 N      -10.3320     5.3690    -0.7770 N.pl3 1 <1>   0.3140 
 20 N      -11.6770     4.5950     0.6240 N.2   1 <1>   0.0000 
 21 N      -11.5300     5.5300    -0.2530 N.2   1 <1>  -0.4180 
 22 C       -9.7730     6.2330    -1.8260 C.3   1 <1>   0.0160 
 23 H       -1.4190     3.4790    -1.2730 H     1 <1>   0.1500 
 24 H       -4.3180    -0.0680     0.5210 H     1 <1>   0.1500 
 25 H       -1.8240    -2.6730     0.7600 H     1 <1>   0.0800 
 26 H       -3.2590    -2.0790    -0.0680 H     1 <1>   0.0800 
 27 H       -2.9210    -1.5830     1.6000 H     1 <1>   0.0800 
 28 H       -5.8270     3.2110    -0.2080 H     1 <1>   0.3700 
 29 H       -3.9340     6.0950    -1.5510 H     1 <1>   0.0800 
 30 H       -2.8540     4.9810    -2.3810 H     1 <1>   0.0800 
 31 H       -2.4980     5.5040    -0.7240 H     1 <1>   0.0800 
 32 H       -8.1960     2.5310     1.5800 H     1 <1>   0.0800 
 33 H       -8.8340     1.5260     0.2880 H     1 <1>   0.0800 
 34 H       -9.5100     5.6330    -2.6770 H     1 <1>   0.0800 
 35 H       -8.8990     6.7300    -1.4470 H     1 <1>   0.0800 
 36 H      -10.5070     6.9640    -2.1130 H     1 <1>   0.0800 
@<TRIPOS>BOND
  1   1   2  1   
  2   2   3  ar  
  3   2   4  ar  
  4   3   5  1   
  5   3   6  ar  
  6   4   7  ar  
  7   4  23  1   
  8   5   8  1   
  9   6   9  ar  
 10   6  24  1   
 11   7   9  ar  
 12   7  10  1   
 13   8  25  1   
 14   8  26  1   
 15   8  27  1   
 16   9  11  1   
 17  10  12  1   
 18  11  13  am  
 19  11  28  1   
 20  12  29  1   
 21  12  30  1   
 22  12  31  1   
 23  13  14  2   
 24  13  15  1   
 25  15  16  1   
 26  15  32  1   
 27  15  33  1   
 28  16  17  1   
 29  17  18  2   
 30  17  19  1   
 31  18  20  1   
 32  19  21  1   
 33  19  22  1   
 34  20  21  2   
 35  22  34  1   
 36  22  35  1   
 37  22  36  1   
@<TRIPOS>SUBSTRUCTURE
  1 ****  11 GROUP 4 **** **** 0

# MOE 2024.06 (io_trps.svl 2023.06)
