@<TRIPOS>MOLECULE
NONAME
48 50 1 0 0 
SMALL
USER_CHARGES


@<TRIPOS>ATOM
  1 CL       0.5890    -2.5300     1.6210 Cl    1 <1>  -0.1770 
  2 C        2.0060    -2.3610     0.6170 C.ar  1 <1>   0.1770 
  3 C        2.9160    -3.3980     0.5500 C.ar  1 <1>  -0.1500 
  4 C        2.1970    -1.1930    -0.0950 C.ar  1 <1>  -0.1500 
  5 C        4.0420    -3.2590    -0.2450 C.ar  1 <1>  -0.1500 
  6 C        3.3250    -1.0600    -0.8870 C.ar  1 <1>  -0.1500 
  7 C        4.2570    -2.0890    -0.9610 C.ar  1 <1>  -0.1430 
  8 C        5.5010    -1.9390    -1.8270 C.3   1 <1>   0.3390 
  9 N        6.6440    -1.4920    -1.0060 N.am  1 <1>  -0.6930 
 10 S        6.7470     0.1890    -0.6160 S.o2  1 <1>   1.3330 
 11 C        7.6710    -2.3680    -0.7160 C.ar  1 <1>   0.1990 
 12 O        8.1450     0.5430    -0.5890 O.2   1 <1>  -0.6500 
 13 O        5.8280     0.8930    -1.4790 O.2   1 <1>  -0.6500 
 14 C        6.1170     0.2160     1.0480 C.3   1 <1>  -0.1350 
 15 C        7.5690    -3.2630     0.3420 C.ar  1 <1>  -0.1500 
 16 C        8.8350    -2.3720    -1.4750 C.ar  1 <1>  -0.1500 
 17 C        8.6030    -4.1320     0.6330 C.ar  1 <1>  -0.1500 
 18 C        9.8670    -3.2410    -1.1820 C.ar  1 <1>  -0.1500 
 19 C        9.7820    -4.1360    -0.1130 C.ar  1 <1>   0.0860 
 20 C       10.8680    -5.0350     0.2120 C.2   1 <1>   0.5440 
 21 O       10.6530    -6.2320     0.2570 O.2   1 <1>  -0.5700 
 22 N       12.1410    -4.5770     0.4810 N.am  1 <1>  -0.6600 
 23 C       13.3040    -5.5030     0.6010 C.3   1 <1>   0.1400 
 24 C       12.4860    -3.1630     0.8190 C.3   1 <1>   0.1400 
 25 C       14.5260    -4.9310    -0.1380 C.3   1 <1>   0.1200 
 26 C       13.7490    -2.7220     0.0600 C.3   1 <1>   0.1200 
 27 O       14.7980    -3.6220     0.2830 O.3   1 <1>  -0.5600 
 28 H        2.7410    -4.2990     1.1100 H     1 <1>   0.1500 
 29 H        1.4720    -0.4010    -0.0300 H     1 <1>   0.1500 
 30 H        4.7500    -4.0690    -0.3040 H     1 <1>   0.1500 
 31 H        3.4720    -0.1490    -1.4460 H     1 <1>   0.1500 
 32 H        5.3230    -1.2370    -2.6240 H     1 <1>   0.0800 
 33 H        5.7360    -2.8870    -2.2800 H     1 <1>   0.0800 
 34 H        5.1150    -0.1620     1.0750 H     1 <1>   0.0800 
 35 H        6.1170     1.2200     1.4240 H     1 <1>   0.0800 
 36 H        6.7320    -0.3890     1.6840 H     1 <1>   0.0800 
 37 H        6.6760    -3.2700     0.9390 H     1 <1>   0.1500 
 38 H        8.9240    -1.6790    -2.2930 H     1 <1>   0.1500 
 39 H        8.5120    -4.8270     1.4510 H     1 <1>   0.1500 
 40 H       10.7590    -3.2350    -1.7840 H     1 <1>   0.1500 
 41 H       13.0620    -6.4670     0.1890 H     1 <1>   0.0800 
 42 H       13.5450    -5.6370     1.6410 H     1 <1>   0.0800 
 43 H       12.6740    -3.0920     1.8760 H     1 <1>   0.0800 
 44 H       11.6760    -2.4960     0.5860 H     1 <1>   0.0800 
 45 H       14.3520    -4.9230    -1.2000 H     1 <1>   0.0800 
 46 H       15.3950    -5.5290     0.0660 H     1 <1>   0.0800 
 47 H       14.0690    -1.7540     0.4030 H     1 <1>   0.0800 
 48 H       13.5580    -2.6690    -0.9980 H     1 <1>   0.0800 
@<TRIPOS>BOND
  1   1   2  1   
  2   2   3  ar  
  3   2   4  ar  
  4   3   5  ar  
  5   3  28  1   
  6   4   6  ar  
  7   4  29  1   
  8   5   7  ar  
  9   5  30  1   
 10   6   7  ar  
 11   6  31  1   
 12   7   8  1   
 13   8   9  1   
 14   8  32  1   
 15   8  33  1   
 16   9  10  am  
 17   9  11  1   
 18  10  12  2   
 19  10  13  2   
 20  10  14  1   
 21  11  15  ar  
 22  11  16  ar  
 23  14  34  1   
 24  14  35  1   
 25  14  36  1   
 26  15  17  ar  
 27  15  37  1   
 28  16  18  ar  
 29  16  38  1   
 30  17  19  ar  
 31  17  39  1   
 32  18  19  ar  
 33  18  40  1   
 34  19  20  1   
 35  20  21  2   
 36  20  22  am  
 37  22  23  1   
 38  22  24  1   
 39  23  25  1   
 40  23  41  1   
 41  23  42  1   
 42  24  26  1   
 43  24  43  1   
 44  24  44  1   
 45  25  27  1   
 46  25  45  1   
 47  25  46  1   
 48  26  27  1   
 49  26  47  1   
 50  26  48  1   
@<TRIPOS>SUBSTRUCTURE
  1 ****  11 GROUP 4 **** **** 0

# MOE 2024.06 (io_trps.svl 2023.06)
