@<TRIPOS>MOLECULE
NONAME
39 39 1 0 0 
SMALL
USER_CHARGES


@<TRIPOS>ATOM
  1 O       -1.0180     2.8370    -0.4790 O.3   1 <1>  -0.3630 
  2 C       -1.4190     3.9570     0.1970 C.ar  1 <1>   0.0830 
  3 C       -1.9640     1.8650    -0.8850 C.3   1 <1>   0.0400 
  4 C       -2.6050     4.6620    -0.0680 C.ar  1 <1>   0.0830 
  5 C       -0.5570     4.4060     1.1930 C.ar  1 <1>  -0.1440 
  6 O       -3.4140     4.2580    -1.0890 O.3   1 <1>  -0.3620 
  7 C       -2.9140     5.7790     0.7040 C.ar  1 <1>  -0.1500 
  8 C       -0.8790     5.5250     1.9450 C.ar  1 <1>  -0.1500 
  9 C        0.7390     3.6710     1.4520 C.3   1 <1>   0.4860 
 10 C       -4.5760     4.9710    -1.4580 C.3   1 <1>   0.0400 
 11 C       -2.0570     6.2040     1.7040 C.ar  1 <1>  -0.1500 
 12 N        1.5460     3.7910     0.2280 N.4   1 <1>  -0.9060 
 13 C        2.7690     2.9740     0.1670 C.3   1 <1>   0.4230 
 14 C        3.7760     3.6770    -0.7700 C.3   1 <1>   0.1200 
 15 C        2.4060     1.5550    -0.2960 C.3   1 <1>  -0.1600 
 16 O        3.6860     5.0650    -0.6060 O.3   1 <1>  -0.6800 
 17 C        3.6110     0.6020    -0.3010 C.3   1 <1>  -0.2400 
 18 H       -1.4600     0.9220    -0.9930 H     1 <1>   0.0800 
 19 H       -2.3830     2.1590    -1.8310 H     1 <1>   0.0800 
 20 H       -2.7360     1.7860    -0.1400 H     1 <1>   0.0800 
 21 H       -3.8160     6.3390     0.5460 H     1 <1>   0.1500 
 22 H       -0.2250     5.8800     2.7240 H     1 <1>   0.1500 
 23 H        0.5230     2.6360     1.6580 H     1 <1>   0.0800 
 24 H        1.2590     4.0990     2.2930 H     1 <1>   0.0800 
 25 H       -5.0190     4.4730    -2.3020 H     1 <1>   0.0800 
 26 H       -4.3000     5.9740    -1.7320 H     1 <1>   0.0800 
 27 H       -5.2650     4.9700    -0.6330 H     1 <1>   0.0800 
 28 H       -2.3110     7.0700     2.2920 H     1 <1>   0.1500 
 29 H        1.8540     4.7680     0.0900 H     1 <1>   0.4500 
 30 H        0.9140     3.5740    -0.5550 H     1 <1>   0.4500 
 31 H        3.2120     2.9230     1.1490 H     1 <1>   0.0800 
 32 H        3.5620     3.4480    -1.8010 H     1 <1>   0.0800 
 33 H        4.7820     3.3660    -0.5440 H     1 <1>   0.0800 
 34 H        1.9870     1.5900    -1.2880 H     1 <1>   0.0800 
 35 H        1.6620     1.1420     0.3630 H     1 <1>   0.0800 
 36 H        4.3640     5.5280    -1.1470 H     1 <1>   0.4000 
 37 H        4.3570     0.9150    -1.0110 H     1 <1>   0.0800 
 38 H        3.2900    -0.3880    -0.5760 H     1 <1>   0.0800 
 39 H        4.0610     0.5470     0.6760 H     1 <1>   0.0800 
@<TRIPOS>BOND
  1   1   2  1   
  2   1   3  1   
  3   2   4  ar  
  4   2   5  ar  
  5   3  18  1   
  6   3  19  1   
  7   3  20  1   
  8   4   6  1   
  9   4   7  ar  
 10   5   8  ar  
 11   5   9  1   
 12   6  10  1   
 13   7  11  ar  
 14   7  21  1   
 15   8  11  ar  
 16   8  22  1   
 17   9  12  1   
 18   9  23  1   
 19   9  24  1   
 20  10  25  1   
 21  10  26  1   
 22  10  27  1   
 23  11  28  1   
 24  12  13  1   
 25  12  29  1   
 26  12  30  1   
 27  13  14  1   
 28  13  15  1   
 29  13  31  1   
 30  14  16  1   
 31  14  32  1   
 32  14  33  1   
 33  15  17  1   
 34  15  34  1   
 35  15  35  1   
 36  16  36  1   
 37  17  37  1   
 38  17  38  1   
 39  17  39  1   
@<TRIPOS>SUBSTRUCTURE
  1 ****   2 GROUP 4 **** **** 0

# MOE 2024.06 (io_trps.svl 2023.06)
