@<TRIPOS>MOLECULE
NONAME
44 47 1 0 0 
SMALL
USER_CHARGES


@<TRIPOS>ATOM
  1 O       -2.1240    -2.3420    -1.6450 O.2   1 <1>  -0.5700 
  2 C       -2.6720    -2.1870    -0.5820 C.2   1 <1>   0.5690 
  3 N       -2.9280    -3.1880     0.3110 N.am  1 <1>  -0.5470 
  4 C       -3.1710    -0.7980    -0.1860 C.3   1 <1>   0.1710 
  5 C       -2.7320    -4.5690     0.2340 C.ar  1 <1>   0.1170 
  6 N       -4.5110    -0.8320     0.4730 N.3   1 <1>  -0.8100 
  7 C       -3.8150    -5.4480     0.4990 C.ar  1 <1>   0.0000 
  8 C       -1.5230    -5.1550    -0.0490 C.ar  1 <1>  -0.1440 
  9 C       -4.8270     0.4360     1.1790 C.3   1 <1>   0.1100 
 10 C       -5.5620    -1.1980    -0.5130 C.3   1 <1>   0.1100 
 11 C       -3.5790    -6.8430     0.4270 C.ar  1 <1>   0.3100 
 12 C       -5.1190    -5.0120     0.8320 C.ar  1 <1>  -0.1500 
 13 C       -1.4130    -6.5360    -0.0820 C.ar  1 <1>   0.1660 
 14 C       -0.1750    -4.5150    -0.3130 C.3   1 <1>  -0.0160 
 15 C       -5.8210     1.3280     0.4080 C.3   1 <1>   0.1200 
 16 C       -6.9570    -0.7350    -0.0600 C.3   1 <1>   0.1200 
 17 N       -2.3700    -7.3820     0.1360 N.ar  1 <1>  -0.6200 
 18 C       -4.6440    -7.7230     0.6760 C.ar  1 <1>  -0.1500 
 19 C       -6.1340    -5.8980     1.0720 C.ar  1 <1>  -0.1500 
 20 C       -0.0040    -6.9700    -0.3920 C.3   1 <1>  -0.0170 
 21 C        0.7080    -5.6730    -0.8050 C.3   1 <1>  -0.1600 
 22 O       -7.0210     0.6580     0.1180 O.3   1 <1>  -0.5600 
 23 C       -5.8960    -7.2710     0.9920 C.ar  1 <1>  -0.1500 
 24 H       -3.5750    -2.8690     1.0370 H     1 <1>   0.3700 
 25 H       -3.2010    -0.1700    -1.0590 H     1 <1>   0.0800 
 26 H       -2.4470    -0.3870     0.4940 H     1 <1>   0.0800 
 27 H       -3.9290     0.9910     1.3840 H     1 <1>   0.0800 
 28 H       -5.2720     0.1940     2.1300 H     1 <1>   0.0800 
 29 H       -5.5660    -2.2640    -0.6570 H     1 <1>   0.0800 
 30 H       -5.3560    -0.7440    -1.4680 H     1 <1>   0.0800 
 31 H       -5.3210    -3.9600     0.8980 H     1 <1>   0.1500 
 32 H        0.2110    -4.1070     0.6040 H     1 <1>   0.0800 
 33 H       -0.2210    -3.7450    -1.0580 H     1 <1>   0.0800 
 34 H       -5.3850     1.6460    -0.5230 H     1 <1>   0.0800 
 35 H       -6.0670     2.2010     0.9850 H     1 <1>   0.0800 
 36 H       -7.2110    -1.2010     0.8760 H     1 <1>   0.0800 
 37 H       -7.6990    -1.0030    -0.7910 H     1 <1>   0.0800 
 38 H       -4.4370    -8.7760     0.6100 H     1 <1>   0.1500 
 39 H       -7.1220    -5.5520     1.3230 H     1 <1>   0.1500 
 40 H        0.0070    -7.6980    -1.1830 H     1 <1>   0.0800 
 41 H        0.4380    -7.3870     0.4950 H     1 <1>   0.0800 
 42 H        1.7030    -5.6160    -0.4020 H     1 <1>   0.0800 
 43 H        0.7610    -5.6340    -1.8790 H     1 <1>   0.0800 
 44 H       -6.7020    -7.9600     1.1800 H     1 <1>   0.1500 
@<TRIPOS>BOND
  1   1   2  2   
  2   2   3  am  
  3   2   4  1   
  4   3   5  1   
  5   3  24  1   
  6   4   6  1   
  7   4  25  1   
  8   4  26  1   
  9   5   7  ar  
 10   5   8  ar  
 11   6   9  1   
 12   6  10  1   
 13   7  11  ar  
 14   7  12  ar  
 15   8  13  ar  
 16   8  14  1   
 17   9  15  1   
 18   9  27  1   
 19   9  28  1   
 20  10  16  1   
 21  10  29  1   
 22  10  30  1   
 23  11  17  ar  
 24  11  18  ar  
 25  12  19  ar  
 26  12  31  1   
 27  13  17  ar  
 28  13  20  1   
 29  14  21  1   
 30  14  32  1   
 31  14  33  1   
 32  15  22  1   
 33  15  34  1   
 34  15  35  1   
 35  16  22  1   
 36  16  36  1   
 37  16  37  1   
 38  18  23  ar  
 39  18  38  1   
 40  19  23  ar  
 41  19  39  1   
 42  20  21  1   
 43  20  40  1   
 44  20  41  1   
 45  21  42  1   
 46  21  43  1   
 47  23  44  1   
@<TRIPOS>SUBSTRUCTURE
  1 ****   3 GROUP 4 **** **** 0

# MOE 2024.06 (io_trps.svl 2023.06)
