@<TRIPOS>MOLECULE
NONAME
54 55 1 0 0 
SMALL
USER_CHARGES


@<TRIPOS>ATOM
  1 O       -0.9770    -5.2080     0.4890 O.3   1 <1>  -0.3630 
  2 C       -2.2940    -4.9770     0.2590 C.ar  1 <1>   0.0830 
  3 C       -0.4360    -6.5080     0.4010 C.3   1 <1>   0.1200 
  4 C       -2.7320    -3.6720     0.3950 C.ar  1 <1>  -0.1500 
  5 C       -3.2040    -5.9630    -0.0990 C.ar  1 <1>  -0.1500 
  6 C        1.0640    -6.4260     0.7080 C.3   1 <1>   0.2000 
  7 C       -4.0590    -3.3300     0.1810 C.ar  1 <1>  -0.1440 
  8 C       -4.5270    -5.6280    -0.3130 C.ar  1 <1>  -0.1500 
  9 O        1.6370    -5.4290    -0.0850 O.3   1 <1>  -0.6800 
 10 C        1.8040    -7.7510     0.4370 C.3   1 <1>   0.3430 
 11 C       -4.9760    -4.3190    -0.1790 C.ar  1 <1>  -0.1440 
 12 C       -4.4520    -1.8690     0.3540 C.3   1 <1>  -0.0970 
 13 N        3.2510    -7.4720     0.2160 N.4   1 <1>  -0.9060 
 14 C       -6.4610    -4.0210    -0.4320 C.3   1 <1>   0.0630 
 15 C        3.9940    -8.4220    -0.6110 C.3   1 <1>   0.5660 
 16 C       -7.3500    -4.7780     0.5610 C.3   1 <1>  -0.2400 
 17 C       -6.8510    -4.3580    -1.8760 C.3   1 <1>  -0.2400 
 18 C        5.4660    -8.1320    -0.3820 C.ar  1 <1>  -0.1430 
 19 C        3.5910    -8.2620    -2.0740 C.3   1 <1>  -0.2400 
 20 C        6.2570    -9.0990     0.2240 C.ar  1 <1>  -0.1500 
 21 C        6.0420    -6.9190    -0.7460 C.ar  1 <1>  -0.1500 
 22 C        7.5980    -8.8590     0.4640 C.ar  1 <1>  -0.1500 
 23 C        7.3840    -6.6810    -0.5050 C.ar  1 <1>  -0.1500 
 24 C        8.1620    -7.6500     0.1020 C.ar  1 <1>  -0.1500 
 25 H       -0.6040    -6.8770    -0.5960 H     1 <1>   0.0800 
 26 H       -0.9410    -7.1350     1.1160 H     1 <1>   0.0800 
 27 H       -2.0180    -2.9200     0.6740 H     1 <1>   0.1500 
 28 H       -2.9140    -6.9880    -0.2170 H     1 <1>   0.1500 
 29 H        1.1940    -6.1410     1.7380 H     1 <1>   0.0800 
 30 H       -5.2170    -6.4050    -0.5890 H     1 <1>   0.1500 
 31 H        1.0220    -4.6550    -0.0960 H     1 <1>   0.4000 
 32 H        1.3820    -8.1950    -0.4490 H     1 <1>   0.0800 
 33 H        1.6630    -8.4380     1.2560 H     1 <1>   0.0800 
 34 H       -3.6060    -1.2680     0.6340 H     1 <1>   0.0800 
 35 H       -5.1960    -1.7770     1.1250 H     1 <1>   0.0800 
 36 H       -4.8460    -1.4830    -0.5680 H     1 <1>   0.0800 
 37 H        3.7620    -7.3420     1.0950 H     1 <1>   0.4500 
 38 H        3.2730    -6.5460    -0.2450 H     1 <1>   0.4500 
 39 H       -6.6600    -2.9760    -0.2930 H     1 <1>   0.0800 
 40 H        3.7870    -9.4300    -0.2880 H     1 <1>   0.0800 
 41 H       -7.2680    -5.8410     0.4230 H     1 <1>   0.0800 
 42 H       -8.3790    -4.4950     0.4290 H     1 <1>   0.0800 
 43 H       -7.0560    -4.5390     1.5670 H     1 <1>   0.0800 
 44 H       -6.7570    -5.4110    -2.0670 H     1 <1>   0.0800 
 45 H       -6.2100    -3.8280    -2.5580 H     1 <1>   0.0800 
 46 H       -7.8680    -4.0650    -2.0650 H     1 <1>   0.0800 
 47 H        3.7100    -7.2470    -2.4080 H     1 <1>   0.0800 
 48 H        2.5750    -8.5730    -2.2310 H     1 <1>   0.0800 
 49 H        4.2220    -8.8870    -2.6820 H     1 <1>   0.0800 
 50 H        5.8470   -10.0520     0.5150 H     1 <1>   0.1500 
 51 H        5.4670    -6.1440    -1.2240 H     1 <1>   0.1500 
 52 H        8.2090    -9.6130     0.9330 H     1 <1>   0.1500 
 53 H        7.8280    -5.7420    -0.7900 H     1 <1>   0.1500 
 54 H        9.2060    -7.4640     0.2880 H     1 <1>   0.1500 
@<TRIPOS>BOND
  1   1   2  1   
  2   1   3  1   
  3   2   4  ar  
  4   2   5  ar  
  5   3   6  1   
  6   3  25  1   
  7   3  26  1   
  8   4   7  ar  
  9   4  27  1   
 10   5   8  ar  
 11   5  28  1   
 12   6   9  1   
 13   6  10  1   
 14   6  29  1   
 15   7  11  ar  
 16   7  12  1   
 17   8  11  ar  
 18   8  30  1   
 19   9  31  1   
 20  10  13  1   
 21  10  32  1   
 22  10  33  1   
 23  11  14  1   
 24  12  34  1   
 25  12  35  1   
 26  12  36  1   
 27  13  15  1   
 28  13  37  1   
 29  13  38  1   
 30  14  16  1   
 31  14  17  1   
 32  14  39  1   
 33  15  18  1   
 34  15  19  1   
 35  15  40  1   
 36  16  41  1   
 37  16  42  1   
 38  16  43  1   
 39  17  44  1   
 40  17  45  1   
 41  17  46  1   
 42  18  20  ar  
 43  18  21  ar  
 44  19  47  1   
 45  19  48  1   
 46  19  49  1   
 47  20  22  ar  
 48  20  50  1   
 49  21  23  ar  
 50  21  51  1   
 51  22  24  ar  
 52  22  52  1   
 53  23  24  ar  
 54  23  53  1   
 55  24  54  1   
@<TRIPOS>SUBSTRUCTURE
  1 ****   3 GROUP 4 **** **** 0

# MOE 2024.06 (io_trps.svl 2023.06)
