@<TRIPOS>MOLECULE
NONAME
39 40 1 0 0 
SMALL
USER_CHARGES


@<TRIPOS>ATOM
  1 I       -0.1030     0.1620     0.4810 I     1 <1>  -0.0810 
  2 C        1.8690     0.9340     0.2550 C.ar  1 <1>   0.0810 
  3 C        2.9370     0.1540     0.6570 C.ar  1 <1>  -0.1500 
  4 C        2.0290     2.1960    -0.2870 C.ar  1 <1>  -0.1500 
  5 C        4.2180     0.6590     0.5090 C.ar  1 <1>  -0.1500 
  6 C        3.3140     2.6890    -0.4300 C.ar  1 <1>  -0.1500 
  7 C        4.4100     1.9300    -0.0360 C.ar  1 <1>   0.0830 
  8 O        5.6300     2.4970    -0.2150 O.3   1 <1>  -0.3630 
  9 C        6.8120     1.8240     0.1390 C.3   1 <1>   0.1200 
 10 C        7.9830     2.7500    -0.1980 C.3   1 <1>  -0.1600 
 11 C        9.3390     2.1140     0.1410 C.3   1 <1>  -0.1600 
 12 C       10.4770     3.0780    -0.2040 C.3   1 <1>   0.3430 
 13 N       11.7910     2.5110     0.2080 N.4   1 <1>  -0.9590 
 14 C       12.8570     3.5750     0.1870 C.3   1 <1>   0.3430 
 15 C       12.2130     1.3450    -0.6510 C.3   1 <1>   0.3430 
 16 C       14.2480     2.9930     0.5050 C.3   1 <1>   0.1200 
 17 C       13.6340     0.8640    -0.2980 C.3   1 <1>   0.1200 
 18 O       14.5350     1.9310    -0.3560 O.3   1 <1>  -0.5600 
 19 H        2.7730    -0.8240     1.0740 H     1 <1>   0.1500 
 20 H        1.1770     2.7780    -0.5900 H     1 <1>   0.1500 
 21 H        5.0460     0.0520     0.8210 H     1 <1>   0.1500 
 22 H        3.4780     3.6660    -0.8470 H     1 <1>   0.1500 
 23 H        6.8640     0.9100    -0.4280 H     1 <1>   0.0800 
 24 H        6.7770     1.6110     1.1940 H     1 <1>   0.0800 
 25 H        7.8610     3.6660     0.3560 H     1 <1>   0.0800 
 26 H        7.9420     2.9800    -1.2500 H     1 <1>   0.0800 
 27 H        9.4390     1.2010    -0.4190 H     1 <1>   0.0800 
 28 H        9.3630     1.8870     1.1930 H     1 <1>   0.0800 
 29 H       10.3080     4.0090     0.3140 H     1 <1>   0.0800 
 30 H       10.4770     3.2810    -1.2640 H     1 <1>   0.0800 
 31 H       11.7110     2.1760     1.1760 H     1 <1>   0.4500 
 32 H       12.6230     4.3470     0.9020 H     1 <1>   0.0800 
 33 H       12.8980     4.0300    -0.7890 H     1 <1>   0.0800 
 34 H       12.2040     1.6350    -1.6890 H     1 <1>   0.0800 
 35 H       11.5240     0.5260    -0.5300 H     1 <1>   0.0800 
 36 H       14.3030     2.6430     1.5210 H     1 <1>   0.0800 
 37 H       15.0060     3.7440     0.3600 H     1 <1>   0.0800 
 38 H       13.9610     0.1220    -1.0060 H     1 <1>   0.0800 
 39 H       13.6680     0.4330     0.6880 H     1 <1>   0.0800 
@<TRIPOS>BOND
  1   1   2  1   
  2   2   3  ar  
  3   2   4  ar  
  4   3   5  ar  
  5   3  19  1   
  6   4   6  ar  
  7   4  20  1   
  8   5   7  ar  
  9   5  21  1   
 10   6   7  ar  
 11   6  22  1   
 12   7   8  1   
 13   8   9  1   
 14   9  10  1   
 15   9  23  1   
 16   9  24  1   
 17  10  11  1   
 18  10  25  1   
 19  10  26  1   
 20  11  12  1   
 21  11  27  1   
 22  11  28  1   
 23  12  13  1   
 24  12  29  1   
 25  12  30  1   
 26  13  14  1   
 27  13  15  1   
 28  13  31  1   
 29  14  16  1   
 30  14  32  1   
 31  14  33  1   
 32  15  17  1   
 33  15  34  1   
 34  15  35  1   
 35  16  18  1   
 36  16  36  1   
 37  16  37  1   
 38  17  18  1   
 39  17  38  1   
 40  17  39  1   
@<TRIPOS>SUBSTRUCTURE
  1 ****   9 GROUP 4 **** **** 0

# MOE 2024.06 (io_trps.svl 2023.06)
