@<TRIPOS>MOLECULE
NONAME
46 48 1 0 0 
SMALL
USER_CHARGES


@<TRIPOS>ATOM
  1 O        2.3520    -4.7880     0.4920 O.2   1 <1>  -0.5750 
  2 C        1.1420    -4.7950     0.4240 C.2   1 <1>   0.6860 
  3 N        0.4420    -5.9830     0.6100 N.am  1 <1>  -0.4260 
  4 N        0.4530    -3.6220     0.1450 N.am  1 <1>  -0.4420 
  5 C       -0.9330    -6.0350     0.4450 C.2   1 <1>   0.6990 
  6 C        1.2140    -7.2180     0.9610 C.3   1 <1>   0.0510 
  7 C       -0.9210    -3.6860     0.0250 C.2   1 <1>   0.4200 
  8 C        1.1850    -2.3320    -0.0370 C.3   1 <1>   0.0510 
  9 O       -1.5370    -7.0980     0.4860 O.2   1 <1>  -0.5750 
 10 C       -1.6400    -4.8200     0.1720 C.2   1 <1>   0.2700 
 11 N       -1.7770    -2.6690    -0.2430 N.pl3 1 <1>  -0.7040 
 12 N       -3.0040    -4.4690    -0.0080 N.pl3 1 <1>  -0.7680 
 13 C       -3.0210    -3.1360    -0.2170 C.cat 1 <1>   1.0680 
 14 C       -4.1840    -5.4090     0.0410 C.3   1 <1>   0.3470 
 15 N       -4.0960    -2.3420    -0.3700 N.pl3 1 <1>  -0.5970 
 16 C       -4.2820    -6.4070    -1.1500 C.3   1 <1>   0.3360 
 17 C       -5.2160    -2.2990     0.6190 C.3   1 <1>   0.1600 
 18 C       -4.0780    -1.1590    -1.2830 C.3   1 <1>   0.1600 
 19 N       -3.7910    -7.7970    -0.8670 N.4   1 <1>  -0.8560 
 20 C       -5.1320    -1.0130     1.4480 C.3   1 <1>  -0.1680 
 21 C       -3.9660     0.1350    -0.4720 C.3   1 <1>  -0.1680 
 22 C       -5.0920     0.2380     0.5630 C.3   1 <1>  -0.1680 
 23 H        1.9750    -6.9820     1.6860 H     1 <1>   0.0710 
 24 H        1.6900    -7.6090     0.0790 H     1 <1>   0.0710 
 25 H        0.5730    -7.9730     1.3820 H     1 <1>   0.0710 
 26 H        2.1680    -2.3860     0.4000 H     1 <1>   0.0710 
 27 H        0.6550    -1.5290     0.4430 H     1 <1>   0.0710 
 28 H        1.2910    -2.1180    -1.0860 H     1 <1>   0.0710 
 29 H       -1.5440    -1.6830    -0.3450 H     1 <1>   0.4440 
 30 H       -5.0880    -4.8310     0.0170 H     1 <1>   0.0710 
 31 H       -4.1790    -5.9470     0.9750 H     1 <1>   0.0710 
 32 H       -3.7420    -5.9950    -1.9880 H     1 <1>   0.0710 
 33 H       -5.3180    -6.4760    -1.4420 H     1 <1>   0.0710 
 34 H       -5.1690    -3.1350     1.2940 H     1 <1>   0.0710 
 35 H       -6.1570    -2.3310     0.0950 H     1 <1>   0.0710 
 36 H       -4.9940    -1.1430    -1.8520 H     1 <1>   0.0710 
 37 H       -3.2610    -1.2270    -1.9820 H     1 <1>   0.0710 
 38 H       -2.8510    -7.7920    -0.4230 H     1 <1>   0.4440 
 39 H       -3.7100    -8.3560    -1.7270 H     1 <1>   0.4440 
 40 H       -4.4080    -8.3180    -0.2310 H     1 <1>   0.4440 
 41 H       -4.2560    -1.0430     2.0720 H     1 <1>   0.0710 
 42 H       -5.9880    -0.9560     2.1000 H     1 <1>   0.0710 
 43 H       -4.0240     0.9770    -1.1400 H     1 <1>   0.0710 
 44 H       -3.0120     0.1800     0.0220 H     1 <1>   0.0710 
 45 H       -4.9470     1.1130     1.1750 H     1 <1>   0.0710 
 46 H       -6.0360     0.3480     0.0560 H     1 <1>   0.0710 
@<TRIPOS>BOND
  1   1   2  2   
  2   2   3  am  
  3   2   4  am  
  4   3   5  am  
  5   3   6  1   
  6   4   7  1   
  7   4   8  1   
  8   5   9  2   
  9   5  10  1   
 10   6  23  1   
 11   6  24  1   
 12   6  25  1   
 13   7  10  2   
 14   7  11  1   
 15   8  26  1   
 16   8  27  1   
 17   8  28  1   
 18  10  12  1   
 19  11  13  ar  
 20  11  29  1   
 21  12  13  ar  
 22  12  14  1   
 23  13  15  ar  
 24  14  16  1   
 25  14  30  1   
 26  14  31  1   
 27  15  17  1   
 28  15  18  1   
 29  16  19  1   
 30  16  32  1   
 31  16  33  1   
 32  17  20  1   
 33  17  34  1   
 34  17  35  1   
 35  18  21  1   
 36  18  36  1   
 37  18  37  1   
 38  19  38  1   
 39  19  39  1   
 40  19  40  1   
 41  20  22  1   
 42  20  41  1   
 43  20  42  1   
 44  21  22  1   
 45  21  43  1   
 46  21  44  1   
 47  22  45  1   
 48  22  46  1   
@<TRIPOS>SUBSTRUCTURE
  1 ****  10 GROUP 4 **** **** 0

# MOE 2024.06 (io_trps.svl 2023.06)
