@<TRIPOS>MOLECULE
NONAME
35 36 1 0 0 
SMALL
USER_CHARGES


@<TRIPOS>ATOM
  1 O        0.9020    -0.8310     1.0470 O.3   1 <1>  -0.0190 
  2 N       -0.3400    -1.1070     0.8890 N.2   1 <1>  -0.4100 
  3 C        1.6440    -1.7040     0.4210 C.2   1 <1>   0.4250 
  4 C       -0.3200    -2.1560     0.1610 C.2   1 <1>   0.3350 
  5 N        0.9050    -2.5790    -0.1690 N.2   1 <1>  -0.5650 
  6 C        3.0890    -1.6150     0.4450 C.ar  1 <1>   0.0530 
  7 C       -1.5590    -2.8910    -0.3160 C.3   1 <1>   0.0210 
  8 C        3.7550    -0.6010     1.1360 C.ar  1 <1>  -0.1500 
  9 C        3.8780    -2.5480    -0.2290 C.ar  1 <1>  -0.1500 
 10 C       -1.7420    -4.2290     0.4170 C.3   1 <1>  -0.1600 
 11 C        5.1350    -0.5240     1.1540 C.ar  1 <1>  -0.1500 
 12 C        5.2580    -2.4750    -0.2140 C.ar  1 <1>  -0.1500 
 13 C       -3.0000    -4.9660    -0.0540 C.3   1 <1>  -0.2400 
 14 C        5.8990    -1.4620     0.4800 C.ar  1 <1>  -0.1430 
 15 C        7.4170    -1.3800     0.4990 C.3   1 <1>  -0.0170 
 16 C        7.9250    -0.5210    -0.6650 C.3   1 <1>  -0.1600 
 17 C        9.4540    -0.4220    -0.6680 C.3   1 <1>  -0.2400 
 18 H       -1.4700    -3.0620    -1.3730 H     1 <1>   0.0800 
 19 H       -2.4180    -2.2670    -0.1490 H     1 <1>   0.0800 
 20 H        3.1870     0.1420     1.6700 H     1 <1>   0.1500 
 21 H        3.3980    -3.3430    -0.7740 H     1 <1>   0.1500 
 22 H       -1.8090    -4.0450     1.4760 H     1 <1>   0.0800 
 23 H       -0.8780    -4.8490     0.2440 H     1 <1>   0.0800 
 24 H        5.6170     0.2710     1.6960 H     1 <1>   0.1500 
 25 H        5.8350    -3.2110    -0.7470 H     1 <1>   0.1500 
 26 H       -3.8780    -4.3730     0.1320 H     1 <1>   0.0800 
 27 H       -3.0990    -5.8970     0.4760 H     1 <1>   0.0800 
 28 H       -2.9410    -5.1790    -1.1070 H     1 <1>   0.0800 
 29 H        7.8320    -2.3700     0.4270 H     1 <1>   0.0800 
 30 H        7.7430    -0.9570     1.4330 H     1 <1>   0.0800 
 31 H        7.5030     0.4670    -0.5880 H     1 <1>   0.0800 
 32 H        7.5920    -0.9500    -1.5950 H     1 <1>   0.0800 
 33 H        9.8050     0.0270     0.2450 H     1 <1>   0.0800 
 34 H        9.7810     0.1860    -1.4940 H     1 <1>   0.0800 
 35 H        9.8950    -1.3980    -0.7680 H     1 <1>   0.0800 
@<TRIPOS>BOND
  1   1   2  1   
  2   1   3  1   
  3   2   4  2   
  4   3   5  2   
  5   3   6  1   
  6   4   5  1   
  7   4   7  1   
  8   6   8  ar  
  9   6   9  ar  
 10   7  10  1   
 11   7  18  1   
 12   7  19  1   
 13   8  11  ar  
 14   8  20  1   
 15   9  12  ar  
 16   9  21  1   
 17  10  13  1   
 18  10  22  1   
 19  10  23  1   
 20  11  14  ar  
 21  11  24  1   
 22  12  14  ar  
 23  12  25  1   
 24  13  26  1   
 25  13  27  1   
 26  13  28  1   
 27  14  15  1   
 28  15  16  1   
 29  15  29  1   
 30  15  30  1   
 31  16  17  1   
 32  16  31  1   
 33  16  32  1   
 34  17  33  1   
 35  17  34  1   
 36  17  35  1   
@<TRIPOS>SUBSTRUCTURE
  1 ****   6 GROUP 4 **** **** 0

# MOE 2024.06 (io_trps.svl 2023.06)
