@<TRIPOS>MOLECULE
NONAME
51 53 1 0 0 
SMALL
USER_CHARGES


@<TRIPOS>ATOM
  1 O       -3.9150     3.1390     2.1290 O.2   1 <1>  -0.5700 
  2 C       -3.1820     2.6630     1.3040 C.2   1 <1>   0.6590 
  3 O       -1.9300     3.1100     1.2140 O.3   1 <1>  -0.4300 
  4 C       -3.6710     1.5630     0.3470 C.3   1 <1>  -0.0190 
  5 C       -0.8990     2.5960     0.3980 C.3   1 <1>   0.0400 
  6 C       -4.1610     2.1650    -0.9820 C.3   1 <1>  -0.1600 
  7 C       -4.8030     0.7170     0.9610 C.3   1 <1>  -0.1600 
  8 C       -4.6420     1.0770    -1.9430 C.3   1 <1>   0.1400 
  9 C       -5.3460    -0.3430    -0.0020 C.3   1 <1>   0.1400 
 10 N       -5.7270     0.2770    -1.3070 N.am  1 <1>  -0.6600 
 11 C       -6.9540     0.1670    -1.9220 C.2   1 <1>   0.5690 
 12 O       -7.2210     0.8020    -2.9150 O.2   1 <1>  -0.5700 
 13 C       -8.0440    -0.7700    -1.4340 C.3   1 <1>  -0.0990 
 14 C       -9.1930     0.0060    -0.7730 C.3   1 <1>   0.2070 
 15 C       -8.7160     0.7330     0.4860 C.ar  1 <1>  -0.1440 
 16 C      -10.4310    -0.8510    -0.4700 C.ar  1 <1>  -0.1440 
 17 C       -8.3340     2.0650     0.4090 C.ar  1 <1>  -0.1500 
 18 C       -8.6620     0.0870     1.7140 C.ar  1 <1>  -0.1500 
 19 C      -10.4190    -2.2420    -0.4300 C.ar  1 <1>  -0.1500 
 20 C      -11.6260    -0.1920    -0.2150 C.ar  1 <1>  -0.1500 
 21 C       -7.9080     2.7410     1.5400 C.ar  1 <1>  -0.1500 
 22 C       -8.2340     0.7610     2.8450 C.ar  1 <1>  -0.1500 
 23 C      -11.5750    -2.9500    -0.1480 C.ar  1 <1>  -0.1500 
 24 C      -12.7830    -0.8980     0.0670 C.ar  1 <1>  -0.1500 
 25 C       -7.8570     2.0890     2.7580 C.ar  1 <1>  -0.1500 
 26 C      -12.7590    -2.2790     0.1000 C.ar  1 <1>  -0.1500 
 27 H       -2.8590     0.8920     0.1440 H     1 <1>   0.0800 
 28 H       -0.0180     3.1940     0.5600 H     1 <1>   0.0800 
 29 H       -1.1930     2.6620    -0.6340 H     1 <1>   0.0800 
 30 H       -0.7000     1.5770     0.6800 H     1 <1>   0.0800 
 31 H       -3.3710     2.7230    -1.4510 H     1 <1>   0.0800 
 32 H       -4.9740     2.8470    -0.7950 H     1 <1>   0.0800 
 33 H       -5.6150     1.3590     1.2440 H     1 <1>   0.0800 
 34 H       -4.4530     0.2370     1.8580 H     1 <1>   0.0800 
 35 H       -3.8270     0.4210    -2.1960 H     1 <1>   0.0800 
 36 H       -4.9860     1.5380    -2.8540 H     1 <1>   0.0800 
 37 H       -6.1870    -0.8120     0.4720 H     1 <1>   0.0800 
 38 H       -4.5960    -1.0940    -0.1790 H     1 <1>   0.0800 
 39 H       -7.6570    -1.5160    -0.7730 H     1 <1>   0.0800 
 40 H       -8.4320    -1.2790    -2.2960 H     1 <1>   0.0800 
 41 H       -9.5110     0.7500    -1.4840 H     1 <1>   0.0800 
 42 H       -8.3590     2.5830    -0.5340 H     1 <1>   0.1500 
 43 H       -8.9600    -0.9430     1.7980 H     1 <1>   0.1500 
 44 H       -9.5210    -2.8000    -0.6130 H     1 <1>   0.1500 
 45 H      -11.6590     0.8840    -0.2300 H     1 <1>   0.1500 
 46 H       -7.6090     3.7730     1.4700 H     1 <1>   0.1500 
 47 H       -8.1960     0.2530     3.7920 H     1 <1>   0.1500 
 48 H      -11.5540    -4.0260    -0.1220 H     1 <1>   0.1500 
 49 H      -13.7000    -0.3700     0.2620 H     1 <1>   0.1500 
 50 H       -7.5200     2.6160     3.6340 H     1 <1>   0.1500 
 51 H      -13.6570    -2.8300     0.3180 H     1 <1>   0.1500 
@<TRIPOS>BOND
  1   1   2  2   
  2   2   3  1   
  3   2   4  1   
  4   3   5  1   
  5   4   6  1   
  6   4   7  1   
  7   4  27  1   
  8   5  28  1   
  9   5  29  1   
 10   5  30  1   
 11   6   8  1   
 12   6  31  1   
 13   6  32  1   
 14   7   9  1   
 15   7  33  1   
 16   7  34  1   
 17   8  10  1   
 18   8  35  1   
 19   8  36  1   
 20   9  10  1   
 21   9  37  1   
 22   9  38  1   
 23  10  11  am  
 24  11  12  2   
 25  11  13  1   
 26  13  14  1   
 27  13  39  1   
 28  13  40  1   
 29  14  15  1   
 30  14  16  1   
 31  14  41  1   
 32  15  17  ar  
 33  15  18  ar  
 34  16  19  ar  
 35  16  20  ar  
 36  17  21  ar  
 37  17  42  1   
 38  18  22  ar  
 39  18  43  1   
 40  19  23  ar  
 41  19  44  1   
 42  20  24  ar  
 43  20  45  1   
 44  21  25  ar  
 45  21  46  1   
 46  22  25  ar  
 47  22  47  1   
 48  23  26  ar  
 49  23  48  1   
 50  24  26  ar  
 51  24  49  1   
 52  25  50  1   
 53  26  51  1   
@<TRIPOS>SUBSTRUCTURE
  1 ****  15 GROUP 4 **** **** 0

# MOE 2024.06 (io_trps.svl 2023.06)
