@<TRIPOS>MOLECULE
NONAME
46 49 1 0 0 
SMALL
USER_CHARGES


@<TRIPOS>ATOM
  1 S       -0.4010     0.4070     0.3330 S.3   1 <1>  -0.0800 
  2 C        1.2610     0.2650    -0.2580 C.2   1 <1>   0.1040 
  3 C       -0.3620     2.1340     0.1010 C.2   1 <1>  -0.1400 
  4 N        1.8780    -0.9740    -0.3770 N.am  1 <1>  -0.4940 
  5 C        1.7860     1.5030    -0.5400 C.2   1 <1>  -0.0860 
  6 C        0.8100     2.5460    -0.3470 C.2   1 <1>  -0.1810 
  7 C       -1.4270     3.1660     0.2910 C.3   1 <1>   0.0200 
  8 C        1.5280    -2.2870    -0.2120 C.2   1 <1>   0.5690 
  9 C        3.1360     1.7220    -0.9830 C.2   1 <1>   0.8060 
 10 C        0.7760     4.0390    -0.5780 C.3   1 <1>   0.0210 
 11 C       -0.6890     4.4270    -0.2250 C.3   1 <1>  -0.1600 
 12 O        2.3870    -3.1260    -0.2940 O.2   1 <1>  -0.5700 
 13 C        0.1120    -2.7540     0.0900 C.3   1 <1>   0.1310 
 14 O        3.7760     0.8810    -1.5820 O.2   1 <1>  -0.5700 
 15 O        3.7570     2.8720    -0.7190 O.3   1 <1>  -0.4300 
 16 S       -0.9480    -2.6150    -1.4300 S.3   1 <1>  -0.2860 
 17 C        3.9290     3.3050     0.6130 C.3   1 <1>   0.1200 
 18 C       -2.6320    -2.3700    -0.8630 C.2   1 <1>   0.2420 
 19 C        5.1430     2.5940     1.2060 C.3   1 <1>  -0.2400 
 20 N       -3.6420    -2.5340    -1.6380 N.2   1 <1>  -0.5650 
 21 N       -2.9230    -1.9890     0.4030 N.pl3 1 <1>   0.0330 
 22 C       -4.7030    -2.2450    -0.8320 C.ar  1 <1>   0.2270 
 23 C       -4.2760    -1.9020     0.4420 C.ar  1 <1>  -0.1520 
 24 C       -6.0650    -2.2540    -1.1260 C.ar  1 <1>  -0.1500 
 25 C       -5.1850    -1.5590     1.4440 C.ar  1 <1>  -0.1500 
 26 C       -6.9700    -1.9190    -0.1420 C.ar  1 <1>  -0.1500 
 27 C       -6.5290    -1.5720     1.1410 C.ar  1 <1>  -0.1500 
 28 H        2.8410    -0.9170    -0.7320 H     1 <1>   0.3700 
 29 H       -1.6920     3.2530     1.3300 H     1 <1>   0.0800 
 30 H       -2.2940     2.9400    -0.3040 H     1 <1>   0.0800 
 31 H        1.0010     4.2690    -1.6050 H     1 <1>   0.0800 
 32 H        1.4670     4.5470     0.0680 H     1 <1>   0.0800 
 33 H       -0.7030     5.2000     0.5230 H     1 <1>   0.0800 
 34 H       -1.1850     4.7960    -1.1060 H     1 <1>   0.0800 
 35 H       -0.3210    -2.1860     0.8850 H     1 <1>   0.0800 
 36 H        0.1210    -3.7940     0.3590 H     1 <1>   0.0800 
 37 H        3.0420     3.0960     1.1850 H     1 <1>   0.0800 
 38 H        4.0940     4.3690     0.5900 H     1 <1>   0.0800 
 39 H        4.9810     1.5320     1.2460 H     1 <1>   0.0800 
 40 H        5.3190     2.9480     2.2060 H     1 <1>   0.0800 
 41 H        6.0180     2.7990     0.6140 H     1 <1>   0.0800 
 42 H       -2.2680    -1.7390     1.1430 H     1 <1>   0.2700 
 43 H       -6.3740    -2.5230    -2.1190 H     1 <1>   0.1500 
 44 H       -4.8400    -1.2930     2.4280 H     1 <1>   0.1500 
 45 H       -8.0250    -1.9220    -0.3540 H     1 <1>   0.1500 
 46 H       -7.2580    -1.3140     1.8910 H     1 <1>   0.1500 
@<TRIPOS>BOND
  1   1   2  1   
  2   1   3  1   
  3   2   4  1   
  4   2   5  2   
  5   3   6  2   
  6   3   7  1   
  7   4   8  am  
  8   4  28  1   
  9   5   6  1   
 10   5   9  1   
 11   6  10  1   
 12   7  11  1   
 13   7  29  1   
 14   7  30  1   
 15   8  12  2   
 16   8  13  1   
 17   9  14  2   
 18   9  15  1   
 19  10  11  1   
 20  10  31  1   
 21  10  32  1   
 22  11  33  1   
 23  11  34  1   
 24  13  16  1   
 25  13  35  1   
 26  13  36  1   
 27  15  17  1   
 28  16  18  1   
 29  17  19  1   
 30  17  37  1   
 31  17  38  1   
 32  18  20  2   
 33  18  21  1   
 34  19  39  1   
 35  19  40  1   
 36  19  41  1   
 37  20  22  1   
 38  21  23  1   
 39  21  42  1   
 40  22  23  ar  
 41  22  24  ar  
 42  23  25  ar  
 43  24  26  ar  
 44  24  43  1   
 45  25  27  ar  
 46  25  44  1   
 47  26  27  ar  
 48  26  45  1   
 49  27  46  1   
@<TRIPOS>SUBSTRUCTURE
  1 ****   1 GROUP 4 **** **** 0

# MOE 2024.06 (io_trps.svl 2023.06)
