@<TRIPOS>MOLECULE
Structure2317
23 24 1 0 0 
SMALL
USER_CHARGES


@<TRIPOS>ATOM
  1 F        0.7810     0.3010     1.5970 F     1 <1>  -0.1900 
  2 C        1.6610     0.9260     0.8630 C.ar  1 <1>   0.1900 
  3 C        2.9170     0.3740     0.7170 C.ar  1 <1>  -0.1500 
  4 C        1.3010     2.1170     0.2620 C.ar  1 <1>  -0.1500 
  5 C        3.8540     1.0410    -0.0560 C.ar  1 <1>   0.0830 
  6 C        2.2370     2.7760    -0.5180 C.ar  1 <1>  -0.1500 
  7 O        5.0800     0.4720    -0.1550 O.3   1 <1>  -0.3400 
  8 C        3.5070     2.2410    -0.6800 C.ar  1 <1>  -0.1500 
  9 C        6.2040     1.2280    -0.5550 C.3   1 <1>   0.2580 
 10 C        7.5100     0.4320    -0.3240 C.3   1 <1>   0.4720 
 11 C        6.6960     2.1750     0.5670 C.3   1 <1>   0.4720 
 12 N        8.0840     1.6250     0.3880 N.4   1 <1>  -0.8440 
 13 H        3.1550    -0.5560     1.1980 H     1 <1>   0.1500 
 14 H        0.3100     2.5130     0.4020 H     1 <1>   0.1500 
 15 H        1.9710     3.7010    -1.0010 H     1 <1>   0.1500 
 16 H        4.1960     2.7730    -1.3080 H     1 <1>   0.1500 
 17 H        6.1010     1.6510    -1.5380 H     1 <1>   0.0000 
 18 H        8.0570     0.2080    -1.2220 H     1 <1>   0.0000 
 19 H        7.3890    -0.3970     0.3510 H     1 <1>   0.0000 
 20 H        6.3060     1.9230     1.5370 H     1 <1>   0.0000 
 21 H        6.6500     3.2190     0.3170 H     1 <1>   0.0000 
 22 H        8.6730     2.2080    -0.2180 H     1 <1>   0.4500 
 23 H        8.5390     1.3820     1.2750 H     1 <1>   0.4500 
@<TRIPOS>BOND
  1   1   2  1   
  2   2   3  ar  
  3   2   4  ar  
  4   3   5  ar  
  5   3  13  1   
  6   4   6  ar  
  7   4  14  1   
  8   5   7  1   
  9   5   8  ar  
 10   6   8  ar  
 11   6  15  1   
 12   7   9  1   
 13   8  16  1   
 14   9  10  1   
 15   9  11  1   
 16   9  17  1   
 17  10  12  1   
 18  10  18  1   
 19  10  19  1   
 20  11  12  1   
 21  11  20  1   
 22  11  21  1   
 23  12  22  1   
 24  12  23  1   
@<TRIPOS>SUBSTRUCTURE
  1 ****   5 GROUP 4 **** **** 0

# MOE 2024.06 (io_trps.svl 2023.06)
