@<TRIPOS>MOLECULE
NONAME
47 48 1 0 0 
SMALL
USER_CHARGES


@<TRIPOS>ATOM
  1 O       -1.3090    -1.0600    -0.6210 O.2   1 <1>  -0.5700 
  2 C       -0.7450    -1.6860     0.2580 C.2   1 <1>   0.6900 
  3 N       -1.4750    -2.3160     1.2330 N.am  1 <1>  -0.6600 
  4 N        0.6170    -1.7620     0.3160 N.am  1 <1>  -0.5470 
  5 C       -2.9240    -2.0060     1.3930 C.3   1 <1>   0.1400 
  6 C       -1.0820    -3.6210     1.8320 C.3   1 <1>   0.1400 
  7 C        1.6090    -1.3590    -0.5880 C.ar  1 <1>   0.1170 
  8 C       -3.7460    -3.0780     0.6740 C.3   1 <1>  -0.0190 
  9 C       -1.9090    -4.7480     1.1960 C.3   1 <1>  -0.1600 
 10 C        1.3750    -1.2210    -1.9530 C.ar  1 <1>  -0.1500 
 11 C        2.8900    -1.1040    -0.1090 C.ar  1 <1>  -0.1500 
 12 C       -5.2240    -2.6960     0.7500 C.2   1 <1>   0.5690 
 13 C       -3.4210    -4.4680     1.2650 C.3   1 <1>  -0.1600 
 14 C        2.3880    -0.8360    -2.8120 C.ar  1 <1>  -0.1500 
 15 C        3.9070    -0.7200    -0.9650 C.ar  1 <1>  -0.1500 
 16 O       -5.8630    -3.1140     1.6890 O.2   1 <1>  -0.5700 
 17 N       -5.7970    -1.8800    -0.2010 N.am  1 <1>  -0.6600 
 18 C        3.6570    -0.5850    -2.3190 C.ar  1 <1>  -0.1500 
 19 C       -7.2410    -1.5340    -0.1160 C.3   1 <1>   0.1400 
 20 C       -5.0660    -1.2500    -1.3380 C.3   1 <1>   0.1400 
 21 C       -7.4090    -0.2300     0.6610 C.3   1 <1>  -0.2400 
 22 C       -5.1890    -2.1330    -2.5770 C.3   1 <1>  -0.2400 
 23 H        0.9450    -2.0590     1.2260 H     1 <1>   0.3700 
 24 H       -3.1440    -1.0320     0.9910 H     1 <1>   0.0800 
 25 H       -3.1750    -1.9930     2.4400 H     1 <1>   0.0800 
 26 H       -1.2660    -3.5880     2.8930 H     1 <1>   0.0800 
 27 H       -0.0360    -3.8180     1.6790 H     1 <1>   0.0800 
 28 H       -3.4500    -3.0970    -0.3570 H     1 <1>   0.0800 
 29 H       -1.6920    -5.6750     1.6960 H     1 <1>   0.0800 
 30 H       -1.6110    -4.8550     0.1670 H     1 <1>   0.0800 
 31 H        0.3960    -1.4170    -2.3490 H     1 <1>   0.1500 
 32 H        3.0960    -1.2020     0.9410 H     1 <1>   0.1500 
 33 H       -3.9610    -5.2260     0.7230 H     1 <1>   0.0800 
 34 H       -3.7430    -4.5060     2.2920 H     1 <1>   0.0800 
 35 H        2.1880    -0.7320    -3.8640 H     1 <1>   0.1500 
 36 H        4.8920    -0.5240    -0.5800 H     1 <1>   0.1500 
 37 H        4.4450    -0.2850    -2.9880 H     1 <1>   0.1500 
 38 H       -7.7770    -2.3240     0.3840 H     1 <1>   0.0800 
 39 H       -7.6520    -1.4340    -1.1060 H     1 <1>   0.0800 
 40 H       -4.0280    -1.1040    -1.0940 H     1 <1>   0.0800 
 41 H       -5.4830    -0.2790    -1.5420 H     1 <1>   0.0800 
 42 H       -7.0150    -0.3440     1.6550 H     1 <1>   0.0800 
 43 H       -8.4530     0.0120     0.7360 H     1 <1>   0.0800 
 44 H       -6.9040     0.5780     0.1650 H     1 <1>   0.0800 
 45 H       -4.7780    -3.1080    -2.3880 H     1 <1>   0.0800 
 46 H       -4.6450    -1.6880    -3.3900 H     1 <1>   0.0800 
 47 H       -6.2180    -2.2330    -2.8700 H     1 <1>   0.0800 
@<TRIPOS>BOND
  1   1   2  2   
  2   2   3  am  
  3   2   4  am  
  4   3   5  1   
  5   3   6  1   
  6   4   7  1   
  7   4  23  1   
  8   5   8  1   
  9   5  24  1   
 10   5  25  1   
 11   6   9  1   
 12   6  26  1   
 13   6  27  1   
 14   7  10  ar  
 15   7  11  ar  
 16   8  12  1   
 17   8  13  1   
 18   8  28  1   
 19   9  13  1   
 20   9  29  1   
 21   9  30  1   
 22  10  14  ar  
 23  10  31  1   
 24  11  15  ar  
 25  11  32  1   
 26  12  16  2   
 27  12  17  am  
 28  13  33  1   
 29  13  34  1   
 30  14  18  ar  
 31  14  35  1   
 32  15  18  ar  
 33  15  36  1   
 34  17  19  1   
 35  17  20  1   
 36  18  37  1   
 37  19  21  1   
 38  19  38  1   
 39  19  39  1   
 40  20  22  1   
 41  20  40  1   
 42  20  41  1   
 43  21  42  1   
 44  21  43  1   
 45  21  44  1   
 46  22  45  1   
 47  22  46  1   
 48  22  47  1   
@<TRIPOS>SUBSTRUCTURE
  1 ****   1 GROUP 4 **** **** 0

# MOE 2024.06 (io_trps.svl 2023.06)
