@<TRIPOS>MOLECULE
NONAME
47 50 1 0 0 
SMALL
USER_CHARGES


@<TRIPOS>ATOM
  1 N       -1.1040    -5.0620    -0.9540 N.ar  1 <1>  -0.6200 
  2 C       -0.9020    -3.8150    -0.5340 C.ar  1 <1>   0.1660 
  3 C       -2.3610    -5.3710    -1.2440 C.ar  1 <1>   0.1600 
  4 C       -1.9080    -2.8710    -0.3840 C.ar  1 <1>  -0.1500 
  5 C        0.5410    -3.4490    -0.2030 C.3   1 <1>   0.4870 
  6 C       -3.4290    -4.4990    -1.1280 C.ar  1 <1>  -0.1500 
  7 C       -3.2090    -3.2130    -0.6860 C.ar  1 <1>  -0.1500 
  8 N        1.2040    -4.6550     0.3640 N.4   1 <1>  -0.9060 
  9 C        2.6670    -4.7420     0.3060 C.3   1 <1>   0.5030 
 10 C        3.0730    -6.0570     0.9920 C.3   1 <1>  -0.1600 
 11 C        3.1510    -4.7630    -1.1560 C.3   1 <1>  -0.1600 
 12 C        3.3100    -3.5580     1.0530 C.3   1 <1>  -0.1600 
 13 C        4.6050    -6.2210     0.9730 C.3   1 <1>   0.0000 
 14 C        4.6860    -4.9080    -1.2000 C.3   1 <1>   0.0000 
 15 C        4.8420    -3.7000     1.0230 C.3   1 <1>  -0.0800 
 16 C        5.0840    -6.2200    -0.4930 C.3   1 <1>  -0.1600 
 17 C        5.2430    -5.0220     1.7040 C.3   1 <1>  -0.1600 
 18 C        5.0080    -7.5320     1.6590 C.3   1 <1>  -0.2400 
 19 C        5.3220    -3.7240    -0.4400 C.3   1 <1>  -0.1600 
 20 C        5.1740    -4.9240    -2.6540 C.3   1 <1>  -0.2400 
 21 H       -2.5540    -6.3720    -1.5930 H     1 <1>   0.1500 
 22 H       -1.6930    -1.8750    -0.0380 H     1 <1>   0.1500 
 23 H        0.5740    -2.6310     0.4960 H     1 <1>   0.0800 
 24 H        1.0280    -3.1510    -1.1150 H     1 <1>   0.0800 
 25 H       -4.4230    -4.8260    -1.3820 H     1 <1>   0.1500 
 26 H       -4.0190    -2.5100    -0.5840 H     1 <1>   0.1500 
 27 H        0.7900    -5.4290    -0.1810 H     1 <1>   0.4500 
 28 H        0.8780    -4.8060     1.3200 H     1 <1>   0.4500 
 29 H        2.6250    -6.8920     0.4830 H     1 <1>   0.0800 
 30 H        2.7340    -6.0620     2.0140 H     1 <1>   0.0800 
 31 H        2.7020    -5.5870    -1.6820 H     1 <1>   0.0800 
 32 H        2.8840    -3.8530    -1.6600 H     1 <1>   0.0800 
 33 H        2.9800    -3.5370     2.0770 H     1 <1>   0.0800 
 34 H        3.0480    -2.6240     0.5900 H     1 <1>   0.0800 
 35 H        5.3000    -2.8730     1.5410 H     1 <1>   0.0800 
 36 H        4.6620    -7.0600    -1.0170 H     1 <1>   0.0800 
 37 H        6.1550    -6.3320    -0.5210 H     1 <1>   0.0800 
 38 H        4.9350    -5.0090     2.7360 H     1 <1>   0.0800 
 39 H        6.3160    -5.1180     1.6940 H     1 <1>   0.0800 
 40 H        4.6820    -7.5420     2.6840 H     1 <1>   0.0800 
 41 H        6.0770    -7.6500     1.6450 H     1 <1>   0.0800 
 42 H        4.5700    -8.3760     1.1540 H     1 <1>   0.0800 
 43 H        5.0700    -2.7950    -0.9220 H     1 <1>   0.0800 
 44 H        6.3950    -3.8140    -0.4620 H     1 <1>   0.0800 
 45 H        4.7400    -5.7480    -3.1930 H     1 <1>   0.0800 
 46 H        6.2450    -5.0280    -2.6900 H     1 <1>   0.0800 
 47 H        4.9090    -4.0110    -3.1570 H     1 <1>   0.0800 
@<TRIPOS>BOND
  1   1   2  ar  
  2   1   3  ar  
  3   2   4  ar  
  4   2   5  1   
  5   3   6  ar  
  6   3  21  1   
  7   4   7  ar  
  8   4  22  1   
  9   5   8  1   
 10   5  23  1   
 11   5  24  1   
 12   6   7  ar  
 13   6  25  1   
 14   7  26  1   
 15   8   9  1   
 16   8  27  1   
 17   8  28  1   
 18   9  10  1   
 19   9  11  1   
 20   9  12  1   
 21  10  13  1   
 22  10  29  1   
 23  10  30  1   
 24  11  14  1   
 25  11  31  1   
 26  11  32  1   
 27  12  15  1   
 28  12  33  1   
 29  12  34  1   
 30  13  16  1   
 31  13  17  1   
 32  13  18  1   
 33  14  16  1   
 34  14  19  1   
 35  14  20  1   
 36  15  17  1   
 37  15  19  1   
 38  15  35  1   
 39  16  36  1   
 40  16  37  1   
 41  17  38  1   
 42  17  39  1   
 43  18  40  1   
 44  18  41  1   
 45  18  42  1   
 46  19  43  1   
 47  19  44  1   
 48  20  45  1   
 49  20  46  1   
 50  20  47  1   
@<TRIPOS>SUBSTRUCTURE
  1 ****   9 GROUP 4 **** **** 0

# MOE 2024.06 (io_trps.svl 2023.06)
