@<TRIPOS>MOLECULE
NONAME
31 31 1 0 0 
SMALL
USER_CHARGES


@<TRIPOS>ATOM
  1 S       -0.2910    -0.2430    -0.1760 S.3   1 <1>  -0.3320 
  2 C       -1.7160     0.8250    -0.0590 C.ar  1 <1>   0.7220 
  3 C        1.1550     0.8950     0.0360 C.3   1 <1>   0.0700 
  4 N       -1.4600     2.1140     0.1150 N.ar  1 <1>  -0.6200 
  5 N       -2.8810     0.2080    -0.1650 N.ar  1 <1>  -0.6200 
  6 C        2.4660     0.1110    -0.0820 C.3   1 <1>   0.2000 
  7 C       -2.5270     2.8740     0.1990 C.ar  1 <1>   0.1660 
  8 C       -3.9260     0.9940    -0.0780 C.ar  1 <1>   0.1660 
  9 O        2.6410    -0.6810     1.0400 O.3   1 <1>  -0.6800 
 10 C        3.6840     1.0380    -0.1970 C.3   1 <1>   0.1200 
 11 C       -3.7980     2.3530     0.1070 C.ar  1 <1>  -0.1500 
 12 C       -2.2980     4.3560     0.4030 C.3   1 <1>  -0.0970 
 13 C       -5.2850     0.3380    -0.1900 C.3   1 <1>  -0.0970 
 14 O        4.8570     0.2830    -0.0840 O.3   1 <1>  -0.5600 
 15 C        6.0230     1.0400    -0.1420 C.3   1 <1>   0.0400 
 16 H        1.0630     1.3670     0.9980 H     1 <1>   0.0800 
 17 H        1.0750     1.6310    -0.7420 H     1 <1>   0.0800 
 18 H        2.4280    -0.5340    -0.9430 H     1 <1>   0.0800 
 19 H        3.5840    -0.9540     1.0470 H     1 <1>   0.4000 
 20 H        3.6650     1.7690     0.5930 H     1 <1>   0.0800 
 21 H        3.6810     1.5370    -1.1500 H     1 <1>   0.0800 
 22 H       -4.6620     2.9850     0.1770 H     1 <1>   0.1500 
 23 H       -1.7490     4.5130     1.3140 H     1 <1>   0.0800 
 24 H       -3.2300     4.8880     0.4620 H     1 <1>   0.0800 
 25 H       -1.7250     4.7480    -0.4180 H     1 <1>   0.0800 
 26 H       -5.3980    -0.3890     0.5940 H     1 <1>   0.0800 
 27 H       -5.3640    -0.1630    -1.1380 H     1 <1>   0.0800 
 28 H       -6.0740     1.0620    -0.1110 H     1 <1>   0.0800 
 29 H        6.8610     0.3720    -0.0500 H     1 <1>   0.0800 
 30 H        6.0310     1.7440     0.6720 H     1 <1>   0.0800 
 31 H        6.0690     1.5510    -1.0880 H     1 <1>   0.0800 
@<TRIPOS>BOND
  1   1   2  1   
  2   1   3  1   
  3   2   4  ar  
  4   2   5  ar  
  5   3   6  1   
  6   3  16  1   
  7   3  17  1   
  8   4   7  ar  
  9   5   8  ar  
 10   6   9  1   
 11   6  10  1   
 12   6  18  1   
 13   7  11  ar  
 14   7  12  1   
 15   8  11  ar  
 16   8  13  1   
 17   9  19  1   
 18  10  14  1   
 19  10  20  1   
 20  10  21  1   
 21  11  22  1   
 22  12  23  1   
 23  12  24  1   
 24  12  25  1   
 25  13  26  1   
 26  13  27  1   
 27  13  28  1   
 28  14  15  1   
 29  15  29  1   
 30  15  30  1   
 31  15  31  1   
@<TRIPOS>SUBSTRUCTURE
  1 ****   1 GROUP 4 **** **** 0

# MOE 2024.06 (io_trps.svl 2023.06)
