@<TRIPOS>MOLECULE
NONAME
46 46 1 0 0 
SMALL
USER_CHARGES


@<TRIPOS>ATOM
  1 O       -0.5340    -0.4540     0.4700 O.3   1 <1>  -0.3630 
  2 C       -1.8060    -0.6350     0.0250 C.ar  1 <1>   0.0830 
  3 C        0.4220    -1.3060    -0.1210 C.3   1 <1>   0.0400 
  4 C       -2.3030     0.1270    -1.0410 C.ar  1 <1>   0.0830 
  5 C       -2.6200    -1.6190     0.5990 C.ar  1 <1>   0.0830 
  6 O       -1.6430     1.1430    -1.6620 O.3   1 <1>  -0.3630 
  7 C       -3.5630    -0.1440    -1.5490 C.ar  1 <1>  -0.1500 
  8 O       -2.2730    -2.3900     1.6650 O.3   1 <1>  -0.3630 
  9 C       -3.8760    -1.8710     0.0720 C.ar  1 <1>  -0.1500 
 10 C       -0.7930     2.0030    -0.9320 C.3   1 <1>   0.0400 
 11 C       -4.3590    -1.1370    -0.9990 C.ar  1 <1>  -0.1430 
 12 C       -1.6190    -1.8030     2.7700 C.3   1 <1>   0.0400 
 13 C       -5.7420    -1.4070    -1.5580 C.3   1 <1>   0.4860 
 14 N       -6.7630    -0.8380    -0.6330 N.4   1 <1>  -0.9590 
 15 C       -8.1210    -1.2680    -1.0390 C.3   1 <1>   0.4810 
 16 C       -6.6330     0.6370    -0.4910 C.3   1 <1>   0.3430 
 17 C       -8.2920    -2.7610    -0.7800 C.2   1 <1>  -0.2760 
 18 C       -7.3860     1.1040     0.7490 C.3   1 <1>  -0.2400 
 19 C       -7.5820    -3.5220     0.0660 C.2   1 <1>  -0.3000 
 20 C       -9.4280    -3.3610    -1.5980 C.3   1 <1>  -0.1020 
 21 H        0.4300    -1.1360    -1.1840 H     1 <1>   0.0800 
 22 H        0.1610    -2.3270     0.0940 H     1 <1>   0.0800 
 23 H        1.3850    -1.0740     0.2970 H     1 <1>   0.0800 
 24 H       -3.9020     0.4420    -2.3850 H     1 <1>   0.1500 
 25 H       -4.4570    -2.6560     0.5200 H     1 <1>   0.1500 
 26 H       -0.6970     2.9240    -1.4780 H     1 <1>   0.0800 
 27 H        0.1730     1.5410    -0.8340 H     1 <1>   0.0800 
 28 H       -1.2240     2.1910     0.0360 H     1 <1>   0.0800 
 29 H       -1.8080    -2.4130     3.6350 H     1 <1>   0.0800 
 30 H       -2.0050    -0.8110     2.9270 H     1 <1>   0.0800 
 31 H       -0.5620    -1.7710     2.5770 H     1 <1>   0.0800 
 32 H       -5.8810    -2.4720    -1.6550 H     1 <1>   0.0800 
 33 H       -5.8350    -0.9640    -2.5360 H     1 <1>   0.0800 
 34 H       -6.5870    -1.2580     0.2850 H     1 <1>   0.4500 
 35 H       -8.2650    -1.0610    -2.0870 H     1 <1>   0.0800 
 36 H       -8.8730    -0.7320    -0.4840 H     1 <1>   0.0800 
 37 H       -7.0110     1.1350    -1.3700 H     1 <1>   0.0800 
 38 H       -5.5940     0.9030    -0.3750 H     1 <1>   0.0800 
 39 H       -8.4460     0.9580     0.6530 H     1 <1>   0.0800 
 40 H       -7.2150     2.1580     0.8840 H     1 <1>   0.0800 
 41 H       -7.0260     0.5980     1.6270 H     1 <1>   0.0800 
 42 H       -7.7590    -4.5770     0.2040 H     1 <1>   0.1500 
 43 H       -6.7790    -3.1970     0.7030 H     1 <1>   0.1500 
 44 H      -10.3610    -2.8810    -1.3590 H     1 <1>   0.0800 
 45 H       -9.5360    -4.4120    -1.3910 H     1 <1>   0.0800 
 46 H       -9.2390    -3.2500    -2.6520 H     1 <1>   0.0800 
@<TRIPOS>BOND
  1   1   2  1   
  2   1   3  1   
  3   2   4  ar  
  4   2   5  ar  
  5   3  21  1   
  6   3  22  1   
  7   3  23  1   
  8   4   6  1   
  9   4   7  ar  
 10   5   8  1   
 11   5   9  ar  
 12   6  10  1   
 13   7  11  ar  
 14   7  24  1   
 15   8  12  1   
 16   9  11  ar  
 17   9  25  1   
 18  10  26  1   
 19  10  27  1   
 20  10  28  1   
 21  11  13  1   
 22  12  29  1   
 23  12  30  1   
 24  12  31  1   
 25  13  14  1   
 26  13  32  1   
 27  13  33  1   
 28  14  15  1   
 29  14  16  1   
 30  14  34  1   
 31  15  17  1   
 32  15  35  1   
 33  15  36  1   
 34  16  18  1   
 35  16  37  1   
 36  16  38  1   
 37  17  19  2   
 38  17  20  1   
 39  18  39  1   
 40  18  40  1   
 41  18  41  1   
 42  19  42  1   
 43  19  43  1   
 44  20  44  1   
 45  20  45  1   
 46  20  46  1   
@<TRIPOS>SUBSTRUCTURE
  1 ****  11 GROUP 4 **** **** 0

# MOE 2024.06 (io_trps.svl 2023.06)
