@<TRIPOS>MOLECULE
NONAME
26 26 1 0 0 
SMALL
USER_CHARGES


@<TRIPOS>ATOM
  1 CL       0.3560     0.7950    -0.0440 Cl    1 <1>  -0.1770 
  2 C       -1.3480     1.1790    -0.0040 C.ar  1 <1>   0.1770 
  3 C       -1.7830     2.3890    -0.5110 C.ar  1 <1>  -0.1500 
  4 C       -2.2360     0.2700     0.5320 C.ar  1 <1>  -0.1500 
  5 C       -3.1330     2.7030    -0.4830 C.ar  1 <1>  -0.1440 
  6 C       -3.5830     0.5820     0.5600 C.ar  1 <1>  -0.1500 
  7 C       -4.0510     1.7960     0.0580 C.ar  1 <1>   0.1170 
  8 C       -3.5860     4.0450    -1.0480 C.3   1 <1>  -0.0960 
  9 N       -5.4150     2.1350     0.0720 N.am  1 <1>  -0.5470 
 10 C       -6.5370     1.5610     0.6010 C.2   1 <1>   0.5690 
 11 O       -6.5490     0.5260     1.2230 O.2   1 <1>  -0.5700 
 12 C       -7.8570     2.2950     0.3820 C.3   1 <1>   0.1810 
 13 O       -7.6710     3.4970    -0.3340 O.3   1 <1>  -0.5600 
 14 C       -8.8500     4.2040    -0.5570 C.3   1 <1>   0.0400 
 15 H       -1.0590     3.0690    -0.9200 H     1 <1>   0.1500 
 16 H       -1.8790    -0.6660     0.9210 H     1 <1>   0.1500 
 17 H       -4.2680    -0.1320     0.9770 H     1 <1>   0.1500 
 18 H       -2.7470     4.6180    -1.4020 H     1 <1>   0.0800 
 19 H       -4.0850     4.6180    -0.2860 H     1 <1>   0.0800 
 20 H       -4.2600     3.8910    -1.8720 H     1 <1>   0.0800 
 21 H       -5.6440     3.0150    -0.3960 H     1 <1>   0.3700 
 22 H       -8.2920     2.5260     1.3380 H     1 <1>   0.0800 
 23 H       -8.5230     1.6610    -0.1740 H     1 <1>   0.0800 
 24 H       -8.6080     5.0970    -1.1060 H     1 <1>   0.0800 
 25 H       -9.2920     4.4680     0.3880 H     1 <1>   0.0800 
 26 H       -9.5260     3.5970    -1.1350 H     1 <1>   0.0800 
@<TRIPOS>BOND
  1   1   2  1   
  2   2   3  ar  
  3   2   4  ar  
  4   3   5  ar  
  5   3  15  1   
  6   4   6  ar  
  7   4  16  1   
  8   5   7  ar  
  9   5   8  1   
 10   6   7  ar  
 11   6  17  1   
 12   7   9  1   
 13   8  18  1   
 14   8  19  1   
 15   8  20  1   
 16   9  10  am  
 17   9  21  1   
 18  10  11  2   
 19  10  12  1   
 20  12  13  1   
 21  12  22  1   
 22  12  23  1   
 23  13  14  1   
 24  14  24  1   
 25  14  25  1   
 26  14  26  1   
@<TRIPOS>SUBSTRUCTURE
  1 ****   7 GROUP 4 **** **** 0

# MOE 2024.06 (io_trps.svl 2023.06)
