@<TRIPOS>MOLECULE
NONAME
52 54 1 0 0 
SMALL
USER_CHARGES


@<TRIPOS>ATOM
  1 S       -0.4570    -0.7630     1.5520 S.3   1 <1>  -0.3320 
  2 C       -1.9990    -1.3190     0.8160 C.ar  1 <1>   0.4120 
  3 C        0.7250    -2.1730     1.3780 C.3   1 <1>   0.2080 
  4 N       -2.0240    -2.5920     0.4690 N.ar  1 <1>  -0.6200 
  5 C       -3.0390    -0.4060     0.6640 C.ar  1 <1>   0.0730 
  6 C        1.2500    -2.1750    -0.0470 C.2   1 <1>  -0.2880 
  7 C       -3.1470    -3.0170    -0.0780 C.ar  1 <1>   0.4100 
  8 C       -2.8970     0.9570     1.0790 C.1   1 <1>   0.4840 
  9 C       -4.2180    -0.8730     0.0850 C.ar  1 <1>  -0.1440 
 10 C        2.5360    -2.0670    -0.3960 C.2   1 <1>  -0.3000 
 11 N       -3.1970    -4.3430    -0.4390 N.pl3 1 <1>  -0.8380 
 12 C       -4.2530    -2.1990    -0.2920 C.ar  1 <1>  -0.1440 
 13 N       -2.8910     2.0580     1.3750 N.1   1 <1>  -0.5570 
 14 C       -5.4290     0.0310    -0.1540 C.3   1 <1>  -0.0170 
 15 C       -3.3260    -5.3390     0.6780 C.3   1 <1>   0.2090 
 16 C       -2.2180    -4.8030    -1.4840 C.3   1 <1>   0.2090 
 17 C       -5.4670    -2.8410    -0.9310 C.3   1 <1>   0.4860 
 18 C       -6.7300    -0.7350    -0.4860 C.3   1 <1>   0.5030 
 19 C       -1.9620    -5.8720     1.1530 C.3   1 <1>   0.1200 
 20 C       -0.9270    -5.3860    -0.8770 C.3   1 <1>   0.1200 
 21 N       -6.4180    -1.8170    -1.4700 N.4   1 <1>  -0.9590 
 22 C       -7.3510    -1.3250     0.7900 C.3   1 <1>  -0.2400 
 23 C       -7.7260     0.2480    -1.1130 C.3   1 <1>  -0.2400 
 24 O       -1.2240    -6.3660     0.0750 O.3   1 <1>  -0.5600 
 25 C       -7.6070    -2.5150    -2.0610 C.3   1 <1>   0.2630 
 26 H        0.2060    -3.0830     1.6210 H     1 <1>   0.0800 
 27 H        1.5160    -2.0080     2.0860 H     1 <1>   0.0800 
 28 H        0.4610    -2.2720    -0.7720 H     1 <1>   0.1500 
 29 H        2.8840    -2.0680    -1.4140 H     1 <1>   0.1500 
 30 H        3.3480    -1.9650     0.3040 H     1 <1>   0.1500 
 31 H       -5.1900     0.6990    -0.9640 H     1 <1>   0.0800 
 32 H       -5.6050     0.6470     0.7120 H     1 <1>   0.0800 
 33 H       -3.9220    -6.1700     0.3440 H     1 <1>   0.0800 
 34 H       -3.8300    -4.8860     1.5140 H     1 <1>   0.0800 
 35 H       -1.9570    -3.9790    -2.1250 H     1 <1>   0.0800 
 36 H       -2.6830    -5.5590    -2.0940 H     1 <1>   0.0800 
 37 H       -5.9610    -3.4520    -0.1940 H     1 <1>   0.0800 
 38 H       -5.1380    -3.4900    -1.7270 H     1 <1>   0.0800 
 39 H       -2.1000    -6.6780     1.8520 H     1 <1>   0.0800 
 40 H       -1.3960    -5.0920     1.6320 H     1 <1>   0.0800 
 41 H       -0.3460    -4.6130    -0.4070 H     1 <1>   0.0800 
 42 H       -0.3300    -5.8450    -1.6450 H     1 <1>   0.0800 
 43 H       -5.9120    -1.3520    -2.2330 H     1 <1>   0.4500 
 44 H       -7.6260    -0.5270     1.4590 H     1 <1>   0.0800 
 45 H       -8.2440    -1.8810     0.5740 H     1 <1>   0.0800 
 46 H       -6.6600    -1.9530     1.3210 H     1 <1>   0.0800 
 47 H       -7.3730     0.6070    -2.0640 H     1 <1>   0.0800 
 48 H       -7.8500     1.1010    -0.4680 H     1 <1>   0.0800 
 49 H       -8.6980    -0.1920    -1.2370 H     1 <1>   0.0800 
 50 H       -8.1800    -3.0030    -1.2900 H     1 <1>   0.0800 
 51 H       -7.2880    -3.2590    -2.7740 H     1 <1>   0.0800 
 52 H       -8.2440    -1.8120    -2.5720 H     1 <1>   0.0800 
@<TRIPOS>BOND
  1   1   2  1   
  2   1   3  1   
  3   2   4  ar  
  4   2   5  ar  
  5   3   6  1   
  6   3  26  1   
  7   3  27  1   
  8   4   7  ar  
  9   5   8  1   
 10   5   9  ar  
 11   6  10  2   
 12   6  28  1   
 13   7  11  1   
 14   7  12  ar  
 15   8  13  3   
 16   9  12  ar  
 17   9  14  1   
 18  10  29  1   
 19  10  30  1   
 20  11  15  1   
 21  11  16  1   
 22  12  17  1   
 23  14  18  1   
 24  14  31  1   
 25  14  32  1   
 26  15  19  1   
 27  15  33  1   
 28  15  34  1   
 29  16  20  1   
 30  16  35  1   
 31  16  36  1   
 32  17  21  1   
 33  17  37  1   
 34  17  38  1   
 35  18  21  1   
 36  18  22  1   
 37  18  23  1   
 38  19  24  1   
 39  19  39  1   
 40  19  40  1   
 41  20  24  1   
 42  20  41  1   
 43  20  42  1   
 44  21  25  1   
 45  21  43  1   
 46  22  44  1   
 47  22  45  1   
 48  22  46  1   
 49  23  47  1   
 50  23  48  1   
 51  23  49  1   
 52  25  50  1   
 53  25  51  1   
 54  25  52  1   
@<TRIPOS>SUBSTRUCTURE
  1 ****   7 GROUP 4 **** **** 0

# MOE 2024.06 (io_trps.svl 2023.06)
