@<TRIPOS>MOLECULE
NONAME
35 38 1 0 0 
SMALL
USER_CHARGES


@<TRIPOS>ATOM
  1 O        2.2350     2.9050     0.2410 O.3   1 <1>  -0.2800 
  2 C        2.0750     1.6570    -0.1220 C.2   1 <1>   0.2980 
  3 C        1.0300     3.3950     0.3280 C.2   1 <1>  -0.0100 
  4 N        0.8540     1.2970    -0.2790 N.2   1 <1>  -0.5650 
  5 C        3.2950     0.7910    -0.3160 C.3   1 <1>  -0.0600 
  6 C        0.1590     2.4230     0.0120 C.2   1 <1>   0.0460 
  7 C       -1.3730     2.4620    -0.0450 C.3   1 <1>   0.1810 
  8 C       -1.9130     3.8630     0.3310 C.3   1 <1>  -0.1600 
  9 C       -1.8610     2.1190    -1.4700 C.3   1 <1>  -0.1600 
 10 C       -1.9670     1.4310     0.9410 C.3   1 <1>  -0.1600 
 11 C       -3.4520     3.8920     0.2710 C.3   1 <1>  -0.0800 
 12 C       -3.4000     2.1370    -1.5410 C.3   1 <1>  -0.0800 
 13 C       -3.5070     1.4450     0.8850 C.3   1 <1>  -0.0800 
 14 C       -3.9080     3.5390    -1.1570 C.3   1 <1>  -0.1600 
 15 C       -4.0150     2.8500     1.2560 C.3   1 <1>  -0.1600 
 16 C       -3.9620     1.1040    -0.5470 C.3   1 <1>  -0.1600 
 17 H        0.8940     4.4220     0.6150 H     1 <1>   0.1500 
 18 H        3.8450     0.7340     0.6050 H     1 <1>   0.0800 
 19 H        3.9190     1.2140    -1.0790 H     1 <1>   0.0800 
 20 H        2.9960    -0.1980    -0.6110 H     1 <1>   0.0800 
 21 H       -1.5160     4.5980    -0.3470 H     1 <1>   0.0800 
 22 H       -1.5900     4.1210     1.3240 H     1 <1>   0.0800 
 23 H       -1.5000     1.1440    -1.7490 H     1 <1>   0.0800 
 24 H       -1.4530     2.8260    -2.1710 H     1 <1>   0.0800 
 25 H       -1.6350     1.6540     1.9390 H     1 <1>   0.0800 
 26 H       -1.6070     0.4480     0.6930 H     1 <1>   0.0800 
 27 H       -3.8090     4.8730     0.5350 H     1 <1>   0.0800 
 28 H       -3.7210     1.8930    -2.5400 H     1 <1>   0.0800 
 29 H       -3.9030     0.7190     1.5760 H     1 <1>   0.0800 
 30 H       -3.5290     4.2670    -1.8520 H     1 <1>   0.0800 
 31 H       -4.9830     3.5640    -1.2120 H     1 <1>   0.0800 
 32 H       -5.0900     2.8670     1.2290 H     1 <1>   0.0800 
 33 H       -3.7110     3.0940     2.2600 H     1 <1>   0.0800 
 34 H       -3.6180     0.1190    -0.8120 H     1 <1>   0.0800 
 35 H       -5.0370     1.0980    -0.5960 H     1 <1>   0.0800 
@<TRIPOS>BOND
  1   1   2  1   
  2   1   3  1   
  3   2   4  2   
  4   2   5  1   
  5   3   6  2   
  6   3  17  1   
  7   4   6  1   
  8   5  18  1   
  9   5  19  1   
 10   5  20  1   
 11   6   7  1   
 12   7   8  1   
 13   7   9  1   
 14   7  10  1   
 15   8  11  1   
 16   8  21  1   
 17   8  22  1   
 18   9  12  1   
 19   9  23  1   
 20   9  24  1   
 21  10  13  1   
 22  10  25  1   
 23  10  26  1   
 24  11  14  1   
 25  11  15  1   
 26  11  27  1   
 27  12  14  1   
 28  12  16  1   
 29  12  28  1   
 30  13  15  1   
 31  13  16  1   
 32  13  29  1   
 33  14  30  1   
 34  14  31  1   
 35  15  32  1   
 36  15  33  1   
 37  16  34  1   
 38  16  35  1   
@<TRIPOS>SUBSTRUCTURE
  1 ****   7 GROUP 4 **** **** 0

# MOE 2024.06 (io_trps.svl 2023.06)
