@<TRIPOS>MOLECULE
NONAME
25 26 1 0 0 
SMALL
USER_CHARGES


@<TRIPOS>ATOM
  1 F        0.8410     1.4570    -1.9870 F     1 <1>  -0.1900 
  2 C        1.6060     1.5910    -0.9320 C.ar  1 <1>   0.1900 
  3 C        1.1080     2.2410     0.2040 C.ar  1 <1>   0.1170 
  4 C        2.8930     1.0990    -1.0110 C.ar  1 <1>  -0.1500 
  5 N       -0.2050     2.7310     0.2890 N.am  1 <1>  -0.5470 
  6 C        1.9690     2.4020     1.2880 C.ar  1 <1>  -0.1500 
  7 C        3.7040     1.2790     0.0920 C.ar  1 <1>   0.1900 
  8 C       -1.3490     1.9960     0.1980 C.2   1 <1>   0.6900 
  9 C        3.2690     1.9220     1.2370 C.ar  1 <1>  -0.1500 
 10 F        4.9310     0.8280     0.0510 F     1 <1>  -0.1900 
 11 O       -1.3090     0.7810     0.2160 O.2   1 <1>  -0.5700 
 12 N       -2.5310     2.6600     0.1120 N.am  1 <1>  -0.5790 
 13 C       -3.8550     2.0280     0.0310 C.3   1 <1>   0.0490 
 14 C       -4.8570     2.6170    -0.9060 C.3   1 <1>  -0.2000 
 15 C       -5.0250     2.7790     0.5740 C.3   1 <1>  -0.2000 
 16 H        3.2480     0.6000    -1.8930 H     1 <1>   0.1500 
 17 H       -0.3210     3.6820     0.6240 H     1 <1>   0.3700 
 18 H        1.6170     2.8950     2.1770 H     1 <1>   0.1500 
 19 H        3.9380     2.0390     2.0720 H     1 <1>   0.1500 
 20 H       -2.5210     3.6550    -0.0900 H     1 <1>   0.3700 
 21 H       -3.8270     0.9560     0.1500 H     1 <1>   0.1000 
 22 H       -5.5250     1.9520    -1.4250 H     1 <1>   0.1000 
 23 H       -4.5770     3.4680    -1.5010 H     1 <1>   0.1000 
 24 H       -4.8630     3.7450     1.0190 H     1 <1>   0.1000 
 25 H       -5.8090     2.2260     1.0600 H     1 <1>   0.1000 
@<TRIPOS>BOND
  1   1   2  1   
  2   2   3  ar  
  3   2   4  ar  
  4   3   5  1   
  5   3   6  ar  
  6   4   7  ar  
  7   4  16  1   
  8   5   8  am  
  9   5  17  1   
 10   6   9  ar  
 11   6  18  1   
 12   7   9  ar  
 13   7  10  1   
 14   8  11  2   
 15   8  12  am  
 16   9  19  1   
 17  12  13  1   
 18  12  20  1   
 19  13  14  1   
 20  13  15  1   
 21  13  21  1   
 22  14  15  1   
 23  14  22  1   
 24  14  23  1   
 25  15  24  1   
 26  15  25  1   
@<TRIPOS>SUBSTRUCTURE
  1 ****   5 GROUP 4 **** **** 0

# MOE 2024.06 (io_trps.svl 2023.06)
