@<TRIPOS>MOLECULE
NONAME
38 39 1 0 0 
SMALL
USER_CHARGES


@<TRIPOS>ATOM
  1 O        0.3030    -1.0350    -1.9700 O.2   1 <1>  -0.5700 
  2 C        0.3380    -1.7220    -0.9810 C.2   1 <1>   0.5700 
  3 N        1.4810    -1.9040    -0.2500 N.am  1 <1>  -0.6600 
  4 C        1.5710    -2.8790     0.8700 C.3   1 <1>   0.1400 
  5 C        2.7470    -1.1880    -0.5920 C.3   1 <1>   0.1400 
  6 C        2.7520    -3.8500     0.6540 C.3   1 <1>   0.3430 
  7 C        3.8980    -2.1890    -0.8000 C.3   1 <1>   0.3430 
  8 N        4.0480    -3.1330     0.3710 N.4   1 <1>  -0.9590 
  9 C        5.1550    -4.1110     0.1660 C.3   1 <1>   0.3430 
 10 C        6.5070    -3.4020     0.2230 C.3   1 <1>  -0.1600 
 11 C        7.6650    -4.4040     0.1440 C.3   1 <1>  -0.0170 
 12 C        8.9820    -3.6510     0.1840 C.ar  1 <1>  -0.1440 
 13 C        9.5960    -3.2510    -0.9930 C.ar  1 <1>  -0.1500 
 14 C        9.5780    -3.3480     1.3990 C.ar  1 <1>  -0.1500 
 15 C       10.7900    -2.5520    -0.9560 C.ar  1 <1>  -0.1500 
 16 C       10.7720    -2.6490     1.4360 C.ar  1 <1>  -0.1500 
 17 C       11.3780    -2.2490     0.2590 C.ar  1 <1>  -0.1500 
 18 H       -0.5620    -2.2240    -0.6700 H     1 <1>   0.0600 
 19 H        0.6550    -3.4400     0.9420 H     1 <1>   0.0800 
 20 H        1.7030    -2.3450     1.7960 H     1 <1>   0.0800 
 21 H        2.9950    -0.5040     0.2010 H     1 <1>   0.0800 
 22 H        2.6210    -0.6080    -1.4910 H     1 <1>   0.0800 
 23 H        2.5110    -4.4950    -0.1750 H     1 <1>   0.0800 
 24 H        2.8600    -4.4690     1.5300 H     1 <1>   0.0800 
 25 H        4.8110    -1.6370    -0.9520 H     1 <1>   0.0800 
 26 H        3.6990    -2.7510    -1.6980 H     1 <1>   0.0800 
 27 H        4.2780    -2.5640     1.1970 H     1 <1>   0.4500 
 28 H        5.0400    -4.6100    -0.7840 H     1 <1>   0.0800 
 29 H        5.1240    -4.8580     0.9440 H     1 <1>   0.0800 
 30 H        6.5950    -2.8540     1.1450 H     1 <1>   0.0800 
 31 H        6.6070    -2.7150    -0.5980 H     1 <1>   0.0800 
 32 H        7.6080    -4.9750    -0.7670 H     1 <1>   0.0800 
 33 H        7.6250    -5.0940     0.9700 H     1 <1>   0.0800 
 34 H        9.1540    -3.4800    -1.9470 H     1 <1>   0.1500 
 35 H        9.1220    -3.6540     2.3240 H     1 <1>   0.1500 
 36 H       11.2640    -2.2440    -1.8720 H     1 <1>   0.1500 
 37 H       11.2320    -2.4160     2.3810 H     1 <1>   0.1500 
 38 H       12.3060    -1.7060     0.2880 H     1 <1>   0.1500 
@<TRIPOS>BOND
  1   1   2  2   
  2   2   3  am  
  3   2  18  1   
  4   3   4  1   
  5   3   5  1   
  6   4   6  1   
  7   4  19  1   
  8   4  20  1   
  9   5   7  1   
 10   5  21  1   
 11   5  22  1   
 12   6   8  1   
 13   6  23  1   
 14   6  24  1   
 15   7   8  1   
 16   7  25  1   
 17   7  26  1   
 18   8   9  1   
 19   8  27  1   
 20   9  10  1   
 21   9  28  1   
 22   9  29  1   
 23  10  11  1   
 24  10  30  1   
 25  10  31  1   
 26  11  12  1   
 27  11  32  1   
 28  11  33  1   
 29  12  13  ar  
 30  12  14  ar  
 31  13  15  ar  
 32  13  34  1   
 33  14  16  ar  
 34  14  35  1   
 35  15  17  ar  
 36  15  36  1   
 37  16  17  ar  
 38  16  37  1   
 39  17  38  1   
@<TRIPOS>SUBSTRUCTURE
  1 ****  10 GROUP 4 **** **** 0

# MOE 2024.06 (io_trps.svl 2023.06)
