@<TRIPOS>MOLECULE
NONAME
32 32 1 0 0 
SMALL
USER_CHARGES


@<TRIPOS>ATOM
  1 BR       0.4180     0.3690     1.8790 Br    1 <1>  -0.1110 
  2 C        0.8650    -1.3780     1.2060 C.ar  1 <1>   0.1110 
  3 C        0.1060    -2.4580     1.6110 C.ar  1 <1>  -0.1500 
  4 C        1.9320    -1.5050     0.3390 C.ar  1 <1>  -0.1500 
  5 C        0.4260    -3.7180     1.1260 C.ar  1 <1>  -0.1440 
  6 C        2.2490    -2.7620    -0.1440 C.ar  1 <1>  -0.1500 
  7 C        1.4970    -3.8720     0.2450 C.ar  1 <1>   0.0830 
  8 C       -0.3810    -4.9240     1.5590 C.3   1 <1>   0.4870 
  9 O        1.7520    -5.1300    -0.2060 O.3   1 <1>  -0.3630 
 10 N       -0.9830    -5.5050     0.3470 N.4   1 <1>  -0.9060 
 11 C        2.9240    -5.4230    -0.9380 C.3   1 <1>   0.1200 
 12 C       -1.6690    -6.7830     0.5520 C.3   1 <1>   0.4810 
 13 C        2.9510    -6.9260    -1.2020 C.3   1 <1>  -0.2400 
 14 C       -2.2440    -7.1580    -0.7900 C.2   1 <1>  -0.2880 
 15 C       -3.5460    -7.1600    -1.0990 C.2   1 <1>  -0.3000 
 16 H       -0.7100    -2.2940     2.2930 H     1 <1>   0.1500 
 17 H        2.4990    -0.6370     0.0500 H     1 <1>   0.1500 
 18 H        3.0790    -2.8500    -0.8210 H     1 <1>   0.1500 
 19 H       -1.1450    -4.6340     2.2620 H     1 <1>   0.0800 
 20 H        0.2770    -5.6390     2.0280 H     1 <1>   0.0800 
 21 H       -0.2020    -5.6290    -0.3150 H     1 <1>   0.4500 
 22 H       -1.6220    -4.8350    -0.0920 H     1 <1>   0.4500 
 23 H        3.7790    -5.1250    -0.3540 H     1 <1>   0.0800 
 24 H        2.9000    -4.8770    -1.8660 H     1 <1>   0.0800 
 25 H       -2.4640    -6.6690     1.2720 H     1 <1>   0.0800 
 26 H       -0.9830    -7.5410     0.8960 H     1 <1>   0.0800 
 27 H        2.9640    -7.4690    -0.2740 H     1 <1>   0.0800 
 28 H        3.8410    -7.1770    -1.7520 H     1 <1>   0.0800 
 29 H        2.0990    -7.2210    -1.7880 H     1 <1>   0.0800 
 30 H       -1.4890    -7.4400    -1.5060 H     1 <1>   0.1500 
 31 H       -3.9290    -7.4380    -2.0680 H     1 <1>   0.1500 
 32 H       -4.3460    -6.8940    -0.4270 H     1 <1>   0.1500 
@<TRIPOS>BOND
  1   1   2  1   
  2   2   3  ar  
  3   2   4  ar  
  4   3   5  ar  
  5   3  16  1   
  6   4   6  ar  
  7   4  17  1   
  8   5   7  ar  
  9   5   8  1   
 10   6   7  ar  
 11   6  18  1   
 12   7   9  1   
 13   8  10  1   
 14   8  19  1   
 15   8  20  1   
 16   9  11  1   
 17  10  12  1   
 18  10  21  1   
 19  10  22  1   
 20  11  13  1   
 21  11  23  1   
 22  11  24  1   
 23  12  14  1   
 24  12  25  1   
 25  12  26  1   
 26  13  27  1   
 27  13  28  1   
 28  13  29  1   
 29  14  15  2   
 30  14  30  1   
 31  15  31  1   
 32  15  32  1   
@<TRIPOS>SUBSTRUCTURE
  1 ****   5 GROUP 4 **** **** 0

# MOE 2024.06 (io_trps.svl 2023.06)
