@<TRIPOS>MOLECULE
NONAME
49 52 1 0 0 
SMALL
USER_CHARGES


@<TRIPOS>ATOM
  1 O       -5.5910     4.8310    -1.8730 O.2   1 <1>  -0.5700 
  2 C       -5.6240     3.8960    -1.1090 C.2   1 <1>   0.5690 
  3 N       -6.5580     3.7900    -0.1310 N.am  1 <1>  -0.7300 
  4 C       -4.5940     2.7680    -1.2390 C.3   1 <1>   0.1710 
  5 C       -7.7060     4.6970     0.1030 C.3   1 <1>   0.1400 
  6 N       -4.3540     1.9910     0.0220 N.3   1 <1>  -0.8100 
  7 C       -9.0450     3.9310     0.1590 C.3   1 <1>   0.0000 
  8 C       -3.6390     2.8100     1.0270 C.3   1 <1>   0.1100 
  9 C       -3.5860     0.7530    -0.2520 C.3   1 <1>   0.1100 
 10 C       -9.3250     3.1960    -1.1740 C.3   1 <1>  -0.1600 
 11 C      -10.1910     4.9410     0.4060 C.3   1 <1>  -0.1600 
 12 C       -9.0560     2.8930     1.3090 C.3   1 <1>  -0.1600 
 13 C       -2.1790     3.1360     0.6210 C.3   1 <1>   0.1200 
 14 C       -2.0530     0.9000    -0.0980 C.3   1 <1>   0.1200 
 15 C      -10.6810     2.4680    -1.1210 C.3   1 <1>  -0.0800 
 16 C      -11.5520     4.2240     0.4660 C.3   1 <1>  -0.0800 
 17 C      -10.4120     2.1650     1.3720 C.3   1 <1>  -0.0800 
 18 O       -1.6460     2.2200    -0.2990 O.3   1 <1>  -0.5600 
 19 C      -11.7990     3.4960    -0.8680 C.3   1 <1>  -0.1600 
 20 C      -10.6620     1.4470     0.0320 C.3   1 <1>  -0.1600 
 21 C      -11.5310     3.1950     1.6110 C.3   1 <1>  -0.1600 
 22 H       -6.4820     2.9650     0.4710 H     1 <1>   0.3700 
 23 H       -3.6720     3.1840    -1.6060 H     1 <1>   0.0800 
 24 H       -4.9680     2.1020    -1.9950 H     1 <1>   0.0800 
 25 H       -7.7450     5.4290    -0.6860 H     1 <1>   0.0800 
 26 H       -7.5480     5.2190     1.0300 H     1 <1>   0.0800 
 27 H       -3.6180     2.2660     1.9550 H     1 <1>   0.0800 
 28 H       -4.1710     3.7260     1.2170 H     1 <1>   0.0800 
 29 H       -3.8060     0.3950    -1.2430 H     1 <1>   0.0800 
 30 H       -3.9160    -0.0120     0.4290 H     1 <1>   0.0800 
 31 H       -8.5480     2.4790    -1.3720 H     1 <1>   0.0800 
 32 H       -9.3250     3.9020    -1.9860 H     1 <1>   0.0800 
 33 H      -10.2090     5.6720    -0.3840 H     1 <1>   0.0800 
 34 H      -10.0240     5.4660     1.3310 H     1 <1>   0.0800 
 35 H       -8.2790     2.1650     1.1600 H     1 <1>   0.0800 
 36 H       -8.8680     3.3850     2.2480 H     1 <1>   0.0800 
 37 H       -1.5470     3.1500     1.4910 H     1 <1>   0.0800 
 38 H       -2.1380     4.1080     0.1610 H     1 <1>   0.0800 
 39 H       -1.5440     0.2800    -0.8140 H     1 <1>   0.0800 
 40 H       -1.7450     0.6010     0.8890 H     1 <1>   0.0800 
 41 H      -10.8580     1.9610    -2.0540 H     1 <1>   0.0800 
 42 H      -12.3350     4.9430     0.6380 H     1 <1>   0.0800 
 43 H      -10.4030     1.4460     2.1730 H     1 <1>   0.0800 
 44 H      -11.8260     4.2090    -1.6730 H     1 <1>   0.0800 
 45 H      -12.7520     2.9980    -0.8400 H     1 <1>   0.0800 
 46 H       -9.8890     0.7180    -0.1400 H     1 <1>   0.0800 
 47 H      -11.6010     0.9230     0.0700 H     1 <1>   0.0800 
 48 H      -12.4810     2.6930     1.6660 H     1 <1>   0.0800 
 49 H      -11.3710     3.6960     2.5500 H     1 <1>   0.0800 
@<TRIPOS>BOND
  1   1   2  2   
  2   2   3  am  
  3   2   4  1   
  4   3   5  1   
  5   3  22  1   
  6   4   6  1   
  7   4  23  1   
  8   4  24  1   
  9   5   7  1   
 10   5  25  1   
 11   5  26  1   
 12   6   8  1   
 13   6   9  1   
 14   7  10  1   
 15   7  11  1   
 16   7  12  1   
 17   8  13  1   
 18   8  27  1   
 19   8  28  1   
 20   9  14  1   
 21   9  29  1   
 22   9  30  1   
 23  10  15  1   
 24  10  31  1   
 25  10  32  1   
 26  11  16  1   
 27  11  33  1   
 28  11  34  1   
 29  12  17  1   
 30  12  35  1   
 31  12  36  1   
 32  13  18  1   
 33  13  37  1   
 34  13  38  1   
 35  14  18  1   
 36  14  39  1   
 37  14  40  1   
 38  15  19  1   
 39  15  20  1   
 40  15  41  1   
 41  16  19  1   
 42  16  21  1   
 43  16  42  1   
 44  17  20  1   
 45  17  21  1   
 46  17  43  1   
 47  19  44  1   
 48  19  45  1   
 49  20  46  1   
 50  20  47  1   
 51  21  48  1   
 52  21  49  1   
@<TRIPOS>SUBSTRUCTURE
  1 ****   3 GROUP 4 **** **** 0

# MOE 2024.06 (io_trps.svl 2023.06)
