@<TRIPOS>MOLECULE
NONAME
33 34 1 0 0 
SMALL
USER_CHARGES


@<TRIPOS>ATOM
  1 BR      -0.4300    -0.0900    -1.1420 Br    1 <1>  -0.1110 
  2 C       -0.0760     1.6630    -0.4330 C.ar  1 <1>   0.1110 
  3 C        1.1880     2.1990    -0.5820 C.ar  1 <1>  -0.1500 
  4 C       -1.0970     2.3400     0.2070 C.ar  1 <1>  -0.1500 
  5 C        1.4440     3.4620    -0.0720 C.ar  1 <1>   0.0830 
  6 C       -0.8370     3.6010     0.7160 C.ar  1 <1>  -0.1500 
  7 O        2.7000     3.9440    -0.2450 O.3   1 <1>  -0.3630 
  8 C        0.4250     4.1610     0.5790 C.ar  1 <1>  -0.1500 
  9 C        3.0620     5.2300     0.1940 C.3   1 <1>   0.1200 
 10 C        4.5360     5.4350    -0.1710 C.3   1 <1>   0.3430 
 11 N        5.0520     6.7840     0.2290 N.4   1 <1>  -0.9590 
 12 C        4.4270     7.9340    -0.5160 C.3   1 <1>   0.3430 
 13 C        6.5500     6.8670     0.1310 C.3   1 <1>   0.3430 
 14 C        5.0670     9.2840    -0.1170 C.3   1 <1>   0.1200 
 15 C        7.0660     8.2550     0.5790 C.3   1 <1>   0.1200 
 16 O        6.0050     9.1120     0.9100 O.3   1 <1>  -0.5600 
 17 H        1.9580     1.6440    -1.0850 H     1 <1>   0.1500 
 18 H       -2.0680     1.8890     0.3030 H     1 <1>   0.1500 
 19 H       -1.6190     4.1450     1.2190 H     1 <1>   0.1500 
 20 H        0.5870     5.1390     0.9890 H     1 <1>   0.1500 
 21 H        2.9200     5.2710     1.2600 H     1 <1>   0.0800 
 22 H        2.4300     5.9390    -0.3100 H     1 <1>   0.0800 
 23 H        4.6520     5.3050    -1.2340 H     1 <1>   0.0800 
 24 H        5.1100     4.6710     0.3280 H     1 <1>   0.0800 
 25 H        4.8510     6.9620     1.2260 H     1 <1>   0.4500 
 26 H        3.3700     7.9770    -0.3090 H     1 <1>   0.0800 
 27 H        4.5420     7.7940    -1.5780 H     1 <1>   0.0800 
 28 H        6.8630     6.6900    -0.8850 H     1 <1>   0.0800 
 29 H        7.0060     6.1090     0.7470 H     1 <1>   0.0800 
 30 H        4.3110     9.9640     0.2380 H     1 <1>   0.0800 
 31 H        5.5570     9.7390    -0.9610 H     1 <1>   0.0800 
 32 H        7.6520     8.7140    -0.1990 H     1 <1>   0.0800 
 33 H        7.6890     8.1560     1.4520 H     1 <1>   0.0800 
@<TRIPOS>BOND
  1   1   2  1   
  2   2   3  ar  
  3   2   4  ar  
  4   3   5  ar  
  5   3  17  1   
  6   4   6  ar  
  7   4  18  1   
  8   5   7  1   
  9   5   8  ar  
 10   6   8  ar  
 11   6  19  1   
 12   7   9  1   
 13   8  20  1   
 14   9  10  1   
 15   9  21  1   
 16   9  22  1   
 17  10  11  1   
 18  10  23  1   
 19  10  24  1   
 20  11  12  1   
 21  11  13  1   
 22  11  25  1   
 23  12  14  1   
 24  12  26  1   
 25  12  27  1   
 26  13  15  1   
 27  13  28  1   
 28  13  29  1   
 29  14  16  1   
 30  14  30  1   
 31  14  31  1   
 32  15  16  1   
 33  15  32  1   
 34  15  33  1   
@<TRIPOS>SUBSTRUCTURE
  1 ****   9 GROUP 4 **** **** 0

# MOE 2024.06 (io_trps.svl 2023.06)
