@<TRIPOS>MOLECULE
NONAME
55 58 1 0 0 
SMALL
USER_CHARGES


@<TRIPOS>ATOM
  1 O        1.6180    -0.9630    -0.5650 O.2   1 <1>  -0.5700 
  2 C        2.3190    -0.0010    -0.3870 C.2   1 <1>   0.4950 
  3 C        3.4700    -0.0090     0.4520 C.2   1 <1>  -0.1360 
  4 C        1.9620     1.3000    -1.0740 C.3   1 <1>  -0.0990 
  5 C        4.3070     1.0320     0.6830 C.2   1 <1>  -0.1380 
  6 C        3.1990     2.1950    -1.2740 C.3   1 <1>  -0.1600 
  7 C        5.4100     0.9270     1.6040 C.2   1 <1>  -0.1380 
  8 C        4.0610     2.3960     0.0040 C.3   1 <1>   0.1380 
  9 C        5.3590     0.2550     2.7660 C.2   1 <1>  -0.3000 
 10 C        6.7000     1.6070     1.1860 C.3   1 <1>  -0.0220 
 11 C        5.4090     3.0870    -0.4000 C.3   1 <1>  -0.0800 
 12 C        3.2570     3.2410     1.0170 C.3   1 <1>  -0.2400 
 13 C        6.4610     3.0530     0.7320 C.3   1 <1>  -0.0800 
 14 C        5.2450     4.5360    -0.9180 C.3   1 <1>  -0.1600 
 15 C        7.7990     3.7430     0.3610 C.3   1 <1>  -0.0800 
 16 C        6.5840     5.1610    -1.3340 C.3   1 <1>  -0.1600 
 17 C        7.6650     5.1680    -0.2110 C.3   1 <1>   0.0000 
 18 C        8.6830     2.9990    -0.6560 C.3   1 <1>  -0.1600 
 19 C        9.1000     5.4310    -0.7790 C.3   1 <1>   0.3410 
 20 C        7.2520     6.1800     0.8850 C.3   1 <1>  -0.2400 
 21 C        9.5430     4.0680    -1.3470 C.3   1 <1>  -0.1600 
 22 O        9.0400     6.3330    -1.8460 O.3   1 <1>  -0.6800 
 23 C       10.1130     5.9320     0.2920 C.2   1 <1>   0.4480 
 24 O       10.5900     5.2100     1.1210 O.2   1 <1>  -0.5700 
 25 C       10.5060     7.3990     0.2870 C.3   1 <1>  -0.1790 
 26 H        3.6420    -0.9570     0.9270 H     1 <1>   0.1500 
 27 H        1.2230     1.8060    -0.4790 H     1 <1>   0.0800 
 28 H        1.5190     1.0790    -2.0280 H     1 <1>   0.0800 
 29 H        2.8710     3.1420    -1.6610 H     1 <1>   0.0800 
 30 H        3.8110     1.7320    -2.0300 H     1 <1>   0.0800 
 31 H        6.1840     0.1630     3.4500 H     1 <1>   0.1500 
 32 H        4.4820    -0.2540     3.1260 H     1 <1>   0.1500 
 33 H        7.1250     1.0340     0.3810 H     1 <1>   0.0800 
 34 H        7.4040     1.5990     2.0000 H     1 <1>   0.0800 
 35 H        5.8140     2.5090    -1.2110 H     1 <1>   0.0800 
 36 H        2.4000     2.6940     1.3670 H     1 <1>   0.0800 
 37 H        2.9070     4.1560     0.5780 H     1 <1>   0.0800 
 38 H        3.8530     3.4770     1.8780 H     1 <1>   0.0800 
 39 H        6.0630     3.5860     1.5760 H     1 <1>   0.0800 
 40 H        4.7920     5.1530    -0.1650 H     1 <1>   0.0800 
 41 H        4.5970     4.5500    -1.7750 H     1 <1>   0.0800 
 42 H        8.3740     3.8110     1.2700 H     1 <1>   0.0800 
 43 H        6.4000     6.1700    -1.6610 H     1 <1>   0.0800 
 44 H        6.9410     4.6090    -2.1870 H     1 <1>   0.0800 
 45 H        8.0860     2.4940    -1.3950 H     1 <1>   0.0800 
 46 H        9.3020     2.2710    -0.1590 H     1 <1>   0.0800 
 47 H        7.9320     6.1560     1.7180 H     1 <1>   0.0800 
 48 H        7.2380     7.1770     0.4830 H     1 <1>   0.0800 
 49 H        6.2750     5.9630     1.2740 H     1 <1>   0.0800 
 50 H        9.3880     4.0160    -2.4100 H     1 <1>   0.0800 
 51 H       10.5860     3.8900    -1.1480 H     1 <1>   0.0800 
 52 H        8.3720     6.0220    -2.4830 H     1 <1>   0.4000 
 53 H        9.6280     8.0170     0.3170 H     1 <1>   0.0800 
 54 H       11.0640     7.6220    -0.6030 H     1 <1>   0.0800 
 55 H       11.1170     7.6170     1.1430 H     1 <1>   0.0800 
@<TRIPOS>BOND
  1   1   2  2   
  2   2   3  1   
  3   2   4  1   
  4   3   5  2   
  5   3  26  1   
  6   4   6  1   
  7   4  27  1   
  8   4  28  1   
  9   5   7  1   
 10   5   8  1   
 11   6   8  1   
 12   6  29  1   
 13   6  30  1   
 14   7   9  2   
 15   7  10  1   
 16   8  11  1   
 17   8  12  1   
 18   9  31  1   
 19   9  32  1   
 20  10  13  1   
 21  10  33  1   
 22  10  34  1   
 23  11  13  1   
 24  11  14  1   
 25  11  35  1   
 26  12  36  1   
 27  12  37  1   
 28  12  38  1   
 29  13  15  1   
 30  13  39  1   
 31  14  16  1   
 32  14  40  1   
 33  14  41  1   
 34  15  17  1   
 35  15  18  1   
 36  15  42  1   
 37  16  17  1   
 38  16  43  1   
 39  16  44  1   
 40  17  19  1   
 41  17  20  1   
 42  18  21  1   
 43  18  45  1   
 44  18  46  1   
 45  19  21  1   
 46  19  22  1   
 47  19  23  1   
 48  20  47  1   
 49  20  48  1   
 50  20  49  1   
 51  21  50  1   
 52  21  51  1   
 53  22  52  1   
 54  23  24  2   
 55  23  25  1   
 56  25  53  1   
 57  25  54  1   
 58  25  55  1   
@<TRIPOS>SUBSTRUCTURE
  1 ****  13 GROUP 4 **** **** 0

# MOE 2024.06 (io_trps.svl 2023.06)
