@<TRIPOS>MOLECULE
NONAME
39 41 1 0 0 
SMALL
USER_CHARGES


@<TRIPOS>ATOM
  1 O       -0.6040    -0.8400    -1.1600 O.3   1 <1>  -0.6800 
  2 C       -0.4140    -1.7040    -0.0990 C.3   1 <1>   0.4240 
  3 C        1.0550    -1.6120     0.3610 C.ar  1 <1>  -0.1440 
  4 C       -1.4170    -1.3300     1.0290 C.3   1 <1>  -0.0800 
  5 C       -0.7090    -3.0920    -0.6540 C.3   1 <1>  -0.1600 
  6 C        2.0160    -0.8820    -0.3390 C.ar  1 <1>  -0.1500 
  7 C        1.4660    -2.2910     1.5060 C.ar  1 <1>  -0.1500 
  8 C       -2.8780    -1.6520     0.6990 C.3   1 <1>   0.4230 
  9 C       -1.4530     0.1730     1.3640 C.3   1 <1>  -0.1600 
 10 C       -2.1400    -3.1480    -1.1690 C.3   1 <1>   0.3430 
 11 C        3.3250    -0.8150     0.1040 C.ar  1 <1>  -0.1500 
 12 C        2.7750    -2.2250     1.9490 C.ar  1 <1>  -0.1500 
 13 N       -3.0820    -2.9480    -0.0300 N.4   1 <1>  -0.9590 
 14 C       -3.4130    -0.4110    -0.0180 C.3   1 <1>  -0.1600 
 15 C       -2.6270     0.7690     0.5720 C.3   1 <1>  -0.1600 
 16 C        3.7070    -1.4830     1.2500 C.ar  1 <1>  -0.1500 
 17 C       -4.4960    -3.1210    -0.4850 C.3   1 <1>   0.2630 
 18 H       -0.2260     0.0270    -0.9140 H     1 <1>   0.4000 
 19 H       -1.1640    -1.8720     1.9200 H     1 <1>   0.0800 
 20 H       -0.5530    -3.8450     0.0970 H     1 <1>   0.0800 
 21 H       -0.0280    -3.2970    -1.4610 H     1 <1>   0.0800 
 22 H        1.7770    -0.3580    -1.2470 H     1 <1>   0.1500 
 23 H        0.7810    -2.8910     2.0750 H     1 <1>   0.1500 
 24 H       -3.4040    -1.7060     1.6390 H     1 <1>   0.0800 
 25 H       -0.5220     0.6700     1.1440 H     1 <1>   0.0800 
 26 H       -1.6470     0.2960     2.4170 H     1 <1>   0.0800 
 27 H       -2.3180    -4.1040    -1.6330 H     1 <1>   0.0800 
 28 H       -2.2860    -2.3780    -1.9100 H     1 <1>   0.0800 
 29 H        4.0510    -0.2430    -0.4490 H     1 <1>   0.1500 
 30 H        3.0730    -2.7520     2.8400 H     1 <1>   0.1500 
 31 H       -2.8810    -3.6960     0.6480 H     1 <1>   0.4500 
 32 H       -4.4680    -0.2830     0.1490 H     1 <1>   0.0800 
 33 H       -3.2210    -0.4660    -1.0750 H     1 <1>   0.0800 
 34 H       -2.2680     1.4080    -0.2190 H     1 <1>   0.0800 
 35 H       -3.2510     1.3580     1.2240 H     1 <1>   0.0800 
 36 H        4.7250    -1.4290     1.5940 H     1 <1>   0.1500 
 37 H       -4.7430    -2.3780    -1.2270 H     1 <1>   0.0800 
 38 H       -5.1730    -3.0170     0.3470 H     1 <1>   0.0800 
 39 H       -4.6330    -4.0980    -0.9200 H     1 <1>   0.0800 
@<TRIPOS>BOND
  1   1   2  1   
  2   1  18  1   
  3   2   3  1   
  4   2   4  1   
  5   2   5  1   
  6   3   6  ar  
  7   3   7  ar  
  8   4   8  1   
  9   4   9  1   
 10   4  19  1   
 11   5  10  1   
 12   5  20  1   
 13   5  21  1   
 14   6  11  ar  
 15   6  22  1   
 16   7  12  ar  
 17   7  23  1   
 18   8  13  1   
 19   8  14  1   
 20   8  24  1   
 21   9  15  1   
 22   9  25  1   
 23   9  26  1   
 24  10  13  1   
 25  10  27  1   
 26  10  28  1   
 27  11  16  ar  
 28  11  29  1   
 29  12  16  ar  
 30  12  30  1   
 31  13  17  1   
 32  13  31  1   
 33  14  15  1   
 34  14  32  1   
 35  14  33  1   
 36  15  34  1   
 37  15  35  1   
 38  16  36  1   
 39  17  37  1   
 40  17  38  1   
 41  17  39  1   
@<TRIPOS>SUBSTRUCTURE
  1 ****   2 GROUP 4 **** **** 0

# MOE 2024.06 (io_trps.svl 2023.06)
