@<TRIPOS>MOLECULE
NONAME
45 46 1 0 0 
SMALL
USER_CHARGES


@<TRIPOS>ATOM
  1 S        0.1250    -0.1670     0.8800 S.o2  1 <1>   1.3330 
  2 O        0.5640    -1.2850     1.6850 O.2   1 <1>  -0.6500 
  3 O       -0.8060     0.7900     1.4350 O.2   1 <1>  -0.6500 
  4 N        1.4970     0.6950     0.3760 N.am  1 <1>  -0.8490 
  5 C       -0.5240    -0.8140    -0.6680 C.3   1 <1>  -0.0550 
  6 C        2.5470     0.6970     1.4000 C.3   1 <1>   0.1960 
  7 C        1.1670     2.0550    -0.0650 C.3   1 <1>   0.1960 
  8 C       -1.8000    -1.6610    -0.5190 C.3   1 <1>  -0.2400 
  9 C        3.8230     1.3510     0.8610 C.3   1 <1>  -0.1600 
 10 C        2.3990     2.7350    -0.6650 C.3   1 <1>  -0.1600 
 11 C        3.5550     2.7750     0.3480 C.3   1 <1>  -0.0190 
 12 C        4.8170     3.4020    -0.2460 C.2   1 <1>   0.5690 
 13 O        5.2560     2.9620    -1.2790 O.2   1 <1>  -0.5700 
 14 N        5.3840     4.4510     0.4310 N.am  1 <1>  -0.5470 
 15 C        6.5320     5.2070     0.1710 C.ar  1 <1>   0.1170 
 16 C        6.6790     6.4370     0.8010 C.ar  1 <1>  -0.1500 
 17 C        7.5540     4.7930    -0.6770 C.ar  1 <1>  -0.1500 
 18 C        7.7950     7.2240     0.5890 C.ar  1 <1>  -0.1500 
 19 C        8.6680     5.5810    -0.8870 C.ar  1 <1>  -0.1500 
 20 C        8.8290     6.8220    -0.2640 C.ar  1 <1>   0.0860 
 21 C       10.0130     7.6180    -0.5120 C.2   1 <1>   0.4230 
 22 O       10.9200     7.2520    -1.2150 O.2   1 <1>  -0.5700 
 23 C       10.1660     8.9870     0.1220 C.3   1 <1>  -0.1790 
 24 H        0.2350    -1.4160    -1.1310 H     1 <1>   0.0800 
 25 H       -0.7340     0.0040    -1.3290 H     1 <1>   0.0800 
 26 H        2.7830    -0.3160     1.6830 H     1 <1>   0.0800 
 27 H        2.1980     1.2170     2.2780 H     1 <1>   0.0800 
 28 H        0.8010     2.6320     0.7690 H     1 <1>   0.0800 
 29 H        0.3900     2.0170    -0.8100 H     1 <1>   0.0800 
 30 H       -1.6080    -2.5090     0.1160 H     1 <1>   0.0800 
 31 H       -2.1270    -2.0150    -1.4800 H     1 <1>   0.0800 
 32 H       -2.5860    -1.0730    -0.0780 H     1 <1>   0.0800 
 33 H        4.2090     0.7430     0.0600 H     1 <1>   0.0800 
 34 H        4.5650     1.3760     1.6380 H     1 <1>   0.0800 
 35 H        2.1440     3.7360    -0.9670 H     1 <1>   0.0800 
 36 H        2.7000     2.1940    -1.5460 H     1 <1>   0.0800 
 37 H        3.2390     3.3740     1.1830 H     1 <1>   0.0800 
 38 H        4.8660     4.7500     1.2530 H     1 <1>   0.3700 
 39 H        5.9080     6.7870     1.4630 H     1 <1>   0.1500 
 40 H        7.4890     3.8450    -1.1800 H     1 <1>   0.1500 
 41 H        7.8570     8.1670     1.1010 H     1 <1>   0.1500 
 42 H        9.4400     5.2300    -1.5520 H     1 <1>   0.1500 
 43 H       10.1920     8.8960     1.1920 H     1 <1>   0.0800 
 44 H        9.3520     9.6230    -0.1720 H     1 <1>   0.0800 
 45 H       11.0860     9.4390    -0.2040 H     1 <1>   0.0800 
@<TRIPOS>BOND
  1   1   2  2   
  2   1   3  2   
  3   1   4  am  
  4   1   5  1   
  5   4   6  1   
  6   4   7  1   
  7   5   8  1   
  8   5  24  1   
  9   5  25  1   
 10   6   9  1   
 11   6  26  1   
 12   6  27  1   
 13   7  10  1   
 14   7  28  1   
 15   7  29  1   
 16   8  30  1   
 17   8  31  1   
 18   8  32  1   
 19   9  11  1   
 20   9  33  1   
 21   9  34  1   
 22  10  11  1   
 23  10  35  1   
 24  10  36  1   
 25  11  12  1   
 26  11  37  1   
 27  12  13  2   
 28  12  14  am  
 29  14  15  1   
 30  14  38  1   
 31  15  16  ar  
 32  15  17  ar  
 33  16  18  ar  
 34  16  39  1   
 35  17  19  ar  
 36  17  40  1   
 37  18  20  ar  
 38  18  41  1   
 39  19  20  ar  
 40  19  42  1   
 41  20  21  1   
 42  21  22  2   
 43  21  23  1   
 44  23  43  1   
 45  23  44  1   
 46  23  45  1   
@<TRIPOS>SUBSTRUCTURE
  1 ****  12 GROUP 4 **** **** 0

# MOE 2024.06 (io_trps.svl 2023.06)
