@<TRIPOS>MOLECULE
NONAME
34 35 1 0 0 
SMALL
USER_CHARGES


@<TRIPOS>ATOM
  1 S        0.3750    -0.2420    -0.4680 S.3   1 <1>  -0.0800 
  2 C       -0.0720     1.3640    -0.0170 C.2   1 <1>   0.4340 
  3 C       -1.1930    -0.7170     0.0930 C.2   1 <1>   0.1980 
  4 S        1.1080     2.6850    -0.2790 S.3   1 <1>  -0.2860 
  5 N       -1.2400     1.4640     0.4770 N.2   1 <1>  -0.3380 
  6 N       -1.8860     0.2550     0.5380 N.2   1 <1>  -0.3380 
  7 C       -1.5660    -2.1790     0.0000 C.3   1 <1>  -0.0600 
  8 C        2.6030     1.8860    -1.0150 C.3   1 <1>   0.0700 
  9 C        3.6500     2.9760    -1.2530 C.3   1 <1>  -0.0990 
 10 C        4.9430     2.4040    -1.8080 C.2   1 <1>   0.5690 
 11 O        4.9190     1.3770    -2.4360 O.2   1 <1>  -0.5700 
 12 N        6.1290     3.0290    -1.5910 N.am  1 <1>  -0.5470 
 13 C        6.4050     4.2300    -0.9330 C.ar  1 <1>   0.1170 
 14 C        7.2970     4.2450     0.1300 C.ar  1 <1>  -0.1500 
 15 C        5.8080     5.4200    -1.3270 C.ar  1 <1>  -0.1500 
 16 C        7.5890     5.4190     0.8150 C.ar  1 <1>  -0.1440 
 17 C        6.0890     6.5970    -0.6620 C.ar  1 <1>  -0.1500 
 18 C        6.9730     6.5980     0.4030 C.ar  1 <1>  -0.1500 
 19 C        8.5770     5.4020     1.9920 C.3   1 <1>   1.1630 
 20 F        9.8370     5.3900     1.5770 F     1 <1>  -0.3400 
 21 F        8.4560     6.4540     2.7930 F     1 <1>  -0.3400 
 22 F        8.4280     4.3310     2.7620 F     1 <1>  -0.3400 
 23 H       -1.5350    -2.5000    -1.0240 H     1 <1>   0.0800 
 24 H       -2.5600    -2.3240     0.3820 H     1 <1>   0.0800 
 25 H       -0.8800    -2.7690     0.5790 H     1 <1>   0.0800 
 26 H        2.3050     1.4180    -1.9380 H     1 <1>   0.0800 
 27 H        2.9570     1.1480    -0.3170 H     1 <1>   0.0800 
 28 H        3.8500     3.4720    -0.3210 H     1 <1>   0.0800 
 29 H        3.2650     3.6940    -1.9520 H     1 <1>   0.0800 
 30 H        6.9280     2.4980    -1.9410 H     1 <1>   0.3700 
 31 H        7.7610     3.3190     0.4250 H     1 <1>   0.1500 
 32 H        5.1290     5.4270    -2.1610 H     1 <1>   0.1500 
 33 H        5.6220     7.5170    -0.9730 H     1 <1>   0.1500 
 34 H        7.1770     7.5300     0.9070 H     1 <1>   0.1500 
@<TRIPOS>BOND
  1   1   2  1   
  2   1   3  1   
  3   2   4  1   
  4   2   5  2   
  5   3   6  2   
  6   3   7  1   
  7   4   8  1   
  8   5   6  1   
  9   7  23  1   
 10   7  24  1   
 11   7  25  1   
 12   8   9  1   
 13   8  26  1   
 14   8  27  1   
 15   9  10  1   
 16   9  28  1   
 17   9  29  1   
 18  10  11  2   
 19  10  12  am  
 20  12  13  1   
 21  12  30  1   
 22  13  14  ar  
 23  13  15  ar  
 24  14  16  ar  
 25  14  31  1   
 26  15  17  ar  
 27  15  32  1   
 28  16  18  ar  
 29  16  19  1   
 30  17  18  ar  
 31  17  33  1   
 32  18  34  1   
 33  19  20  1   
 34  19  21  1   
 35  19  22  1   
@<TRIPOS>SUBSTRUCTURE
  1 ****   9 GROUP 4 **** **** 0

# MOE 2024.06 (io_trps.svl 2023.06)
