@<TRIPOS>MOLECULE
NONAME
31 33 1 0 0 
SMALL
USER_CHARGES


@<TRIPOS>ATOM
  1 S        0.2310    -0.2470     1.2370 S.3   1 <1>  -0.2860 
  2 C       -0.9140    -1.6270     1.1080 C.2   1 <1>   0.2420 
  3 C        1.4670    -0.6280    -0.1040 C.3   1 <1>  -0.0360 
  4 N       -0.7640    -2.7340     1.7500 N.2   1 <1>  -0.3380 
  5 N       -2.0010    -1.5840     0.3250 N.pl3 1 <1>   0.3260 
  6 C        0.8130    -0.7320    -1.4680 C.2   1 <1>   0.9060 
  7 N       -1.7910    -3.5070     1.3760 N.2   1 <1>  -0.3380 
  8 C       -2.6910    -0.4560    -0.1970 C.ar  1 <1>  -0.0230 
  9 C       -2.4960    -2.8190     0.5360 C.2   1 <1>   0.1020 
 10 O        0.9070     0.2180    -2.2510 O.co2 1 <1>  -0.9000 
 11 O        0.2080    -1.7670    -1.7700 O.co2 1 <1>  -0.9000 
 12 C       -3.5210     0.2930     0.6310 C.ar  1 <1>  -0.1500 
 13 C       -2.5670    -0.0840    -1.5310 C.ar  1 <1>  -0.1500 
 14 C       -3.7540    -3.3150    -0.1600 C.3   1 <1>  -0.0150 
 15 C       -4.2180     1.3820     0.1380 C.ar  1 <1>  -0.1500 
 16 C       -3.2590     1.0070    -2.0250 C.ar  1 <1>  -0.1500 
 17 C       -5.1030    -2.9050     0.3460 C.3   1 <1>  -0.2000 
 18 C       -4.6510    -4.3260     0.4870 C.3   1 <1>  -0.2000 
 19 C       -4.0870     1.7390    -1.1930 C.ar  1 <1>  -0.1500 
 20 H        1.9270    -1.5650     0.1450 H     1 <1>   0.0800 
 21 H        2.1920     0.1610    -0.1080 H     1 <1>   0.0800 
 22 H       -3.6200     0.0220     1.6680 H     1 <1>   0.1500 
 23 H       -1.9180    -0.6410    -2.1880 H     1 <1>   0.1500 
 24 H       -3.6190    -3.3870    -1.2250 H     1 <1>   0.1000 
 25 H       -4.8560     1.9530     0.7880 H     1 <1>   0.1500 
 26 H       -3.1380     1.2830    -3.0580 H     1 <1>   0.1500 
 27 H       -5.8610    -2.6590    -0.3760 H     1 <1>   0.1000 
 28 H       -5.1590    -2.2940     1.2310 H     1 <1>   0.1000 
 29 H       -4.3760    -4.6960     1.4600 H     1 <1>   0.1000 
 30 H       -5.0920    -5.0850    -0.1350 H     1 <1>   0.1000 
 31 H       -4.6220     2.5880    -1.5810 H     1 <1>   0.1500 
@<TRIPOS>BOND
  1   1   2  1   
  2   1   3  1   
  3   2   4  2   
  4   2   5  1   
  5   3   6  1   
  6   3  20  1   
  7   3  21  1   
  8   4   7  1   
  9   5   8  1   
 10   5   9  1   
 11   6  10  ar  
 12   6  11  ar  
 13   7   9  2   
 14   8  12  ar  
 15   8  13  ar  
 16   9  14  1   
 17  12  15  ar  
 18  12  22  1   
 19  13  16  ar  
 20  13  23  1   
 21  14  17  1   
 22  14  18  1   
 23  14  24  1   
 24  15  19  ar  
 25  15  25  1   
 26  16  19  ar  
 27  16  26  1   
 28  17  18  1   
 29  17  27  1   
 30  17  28  1   
 31  18  29  1   
 32  18  30  1   
 33  19  31  1   
@<TRIPOS>SUBSTRUCTURE
  1 ****   5 GROUP 4 **** **** 0

# MOE 2024.06 (io_trps.svl 2023.06)
