@<TRIPOS>MOLECULE
NONAME
59 62 1 0 0 
SMALL
USER_CHARGES


@<TRIPOS>ATOM
  1 O        0.0550     0.3880    -1.9550 O.2   1 <1>  -0.5700 
  2 C        0.0560    -0.2370    -0.9220 C.2   1 <1>   0.4950 
  3 C        1.2240    -0.7400    -0.2760 C.2   1 <1>  -0.1240 
  4 C       -1.3040    -0.5630    -0.3230 C.3   1 <1>  -0.0990 
  5 C        1.1720    -1.5970     0.7760 C.2   1 <1>  -0.0380 
  6 C        2.5840    -0.3090    -0.8470 C.3   1 <1>   0.3400 
  7 C       -1.2240    -0.9420     1.1640 C.3   1 <1>  -0.1600 
  8 N        2.3010    -2.1680     1.3120 N.pl3 1 <1>  -0.6000 
  9 C       -0.1470    -2.0060     1.4120 C.3   1 <1>  -0.0220 
 10 C        3.7630    -1.0440    -0.2040 C.2   1 <1>  -0.1240 
 11 C        2.7900     1.2150    -0.7400 C.ar  1 <1>  -0.1440 
 12 C        3.5620    -1.9160     0.8180 C.2   1 <1>  -0.0380 
 13 C        5.0210    -0.6550    -0.7470 C.2   1 <1>   0.6160 
 14 C        3.1660     1.8530     0.4440 C.ar  1 <1>   0.0820 
 15 C        2.6140     1.9900    -1.8810 C.ar  1 <1>  -0.1500 
 16 C        4.6680    -2.6840     1.5220 C.3   1 <1>  -0.1020 
 17 O        5.3140    -0.9160    -1.8980 O.2   1 <1>  -0.5700 
 18 N        5.8660     0.0530     0.0630 N.am  1 <1>  -0.5470 
 19 O        3.3280     1.1280     1.5780 O.3   1 <1>  -0.3620 
 20 C        3.4010     3.2330     0.4570 C.ar  1 <1>   0.0820 
 21 C        2.8080     3.3600    -1.8570 C.ar  1 <1>  -0.1500 
 22 C        7.1300     0.5750    -0.0870 C.ar  1 <1>   0.4270 
 23 C        2.3230     1.2830     2.5530 C.3   1 <1>   0.0400 
 24 O        3.8390     3.8830     1.5630 O.3   1 <1>  -0.3630 
 25 C        3.2020     3.9820    -0.6870 C.ar  1 <1>  -0.1500 
 26 N        7.4900     1.3510     0.9280 N.ar  1 <1>  -0.6200 
 27 C        7.9580     0.3140    -1.1790 C.ar  1 <1>  -0.1500 
 28 C        5.1690     3.6080     1.9480 C.3   1 <1>   0.0400 
 29 C        8.6990     1.8810     0.8490 C.ar  1 <1>   0.1600 
 30 C        9.2140     0.8730    -1.2500 C.ar  1 <1>  -0.1440 
 31 C        9.5840     1.6810    -0.1940 C.ar  1 <1>  -0.1500 
 32 C       10.1480     0.6210    -2.4190 C.3   1 <1>  -0.0970 
 33 H       -1.7250    -1.3780    -0.8840 H     1 <1>   0.0800 
 34 H       -1.9490     0.2890    -0.4440 H     1 <1>   0.0800 
 35 H        2.5860    -0.5820    -1.8880 H     1 <1>   0.0800 
 36 H       -2.1810    -1.2980     1.5060 H     1 <1>   0.0800 
 37 H       -0.9760    -0.0610     1.7320 H     1 <1>   0.0800 
 38 H        2.2080    -2.8270     2.0930 H     1 <1>   0.4000 
 39 H       -0.0200    -2.1280     2.4740 H     1 <1>   0.0800 
 40 H       -0.4570    -2.9510     1.0000 H     1 <1>   0.0800 
 41 H        2.3140     1.5280    -2.8060 H     1 <1>   0.1500 
 42 H        4.4530    -3.7370     1.4980 H     1 <1>   0.0800 
 43 H        4.7400    -2.3640     2.5450 H     1 <1>   0.0800 
 44 H        5.6220    -2.5310     1.0510 H     1 <1>   0.0800 
 45 H        5.4140     0.3950     0.9110 H     1 <1>   0.3700 
 46 H        2.6540     3.9390    -2.7510 H     1 <1>   0.1500 
 47 H        1.3690     1.0810     2.1010 H     1 <1>   0.0800 
 48 H        2.3530     2.2880     2.9340 H     1 <1>   0.0800 
 49 H        2.5120     0.5800     3.3440 H     1 <1>   0.0800 
 50 H        3.3650     5.0440    -0.6590 H     1 <1>   0.1500 
 51 H        7.6160    -0.3260    -1.9670 H     1 <1>   0.1500 
 52 H        5.8140     3.7410     1.0970 H     1 <1>   0.0800 
 53 H        5.2350     2.5960     2.3050 H     1 <1>   0.0800 
 54 H        5.4420     4.2910     2.7300 H     1 <1>   0.0800 
 55 H        9.0050     2.5120     1.6660 H     1 <1>   0.1500 
 56 H       10.5500     2.1520    -0.1790 H     1 <1>   0.1500 
 57 H        9.6860    -0.0260    -3.1430 H     1 <1>   0.0800 
 58 H       11.0540     0.1570    -2.0720 H     1 <1>   0.0800 
 59 H       10.3930     1.5510    -2.8990 H     1 <1>   0.0800 
@<TRIPOS>BOND
  1   1   2  2   
  2   2   3  1   
  3   2   4  1   
  4   3   5  2   
  5   3   6  1   
  6   4   7  1   
  7   4  33  1   
  8   4  34  1   
  9   5   8  1   
 10   5   9  1   
 11   6  10  1   
 12   6  11  1   
 13   6  35  1   
 14   7   9  1   
 15   7  36  1   
 16   7  37  1   
 17   8  12  1   
 18   8  38  1   
 19   9  39  1   
 20   9  40  1   
 21  10  12  2   
 22  10  13  1   
 23  11  14  ar  
 24  11  15  ar  
 25  12  16  1   
 26  13  17  2   
 27  13  18  am  
 28  14  19  1   
 29  14  20  ar  
 30  15  21  ar  
 31  15  41  1   
 32  16  42  1   
 33  16  43  1   
 34  16  44  1   
 35  18  22  1   
 36  18  45  1   
 37  19  23  1   
 38  20  24  1   
 39  20  25  ar  
 40  21  25  ar  
 41  21  46  1   
 42  22  26  ar  
 43  22  27  ar  
 44  23  47  1   
 45  23  48  1   
 46  23  49  1   
 47  24  28  1   
 48  25  50  1   
 49  26  29  ar  
 50  27  30  ar  
 51  27  51  1   
 52  28  52  1   
 53  28  53  1   
 54  28  54  1   
 55  29  31  ar  
 56  29  55  1   
 57  30  31  ar  
 58  30  32  1   
 59  31  56  1   
 60  32  57  1   
 61  32  58  1   
 62  32  59  1   
@<TRIPOS>SUBSTRUCTURE
  1 ****  11 GROUP 4 **** **** 0

# MOE 2024.06 (io_trps.svl 2023.06)
