@<TRIPOS>MOLECULE
NONAME
59 62 1 0 0 
SMALL
USER_CHARGES


@<TRIPOS>ATOM
  1 S        0.1510    -0.1470     0.9930 S.3   1 <1>  -0.2420 
  2 C        1.3810     1.0430     1.5020 C.2   1 <1>   0.5300 
  3 C       -0.9780     1.0990     0.4290 C.2   1 <1>  -0.0370 
  4 N        2.5810     0.7400     1.7150 N.2   1 <1>  -0.6960 
  5 C        0.7420     2.4230     1.5350 C.3   1 <1>   0.1800 
  6 C       -0.5790     2.3250     0.7480 C.2   1 <1>  -0.2760 
  7 C       -2.2190     0.7000    -0.3420 C.3   1 <1>   0.4810 
  8 C        3.5690     1.7870     1.9540 C.3   1 <1>   0.6100 
  9 C        1.8310     3.3530     1.0490 C.2   1 <1>   0.5690 
 10 C       -1.4040     3.5480     0.3710 C.3   1 <1>  -0.0220 
 11 N       -2.7510     1.9300    -1.0320 N.4   1 <1>  -0.9590 
 12 N        3.1080     3.0470     1.3590 N.am  1 <1>  -0.7300 
 13 C        4.9000     1.4330     1.3060 C.ar  1 <1>  -0.1430 
 14 O        1.5610     4.3450     0.4200 O.2   1 <1>  -0.5700 
 15 C       -2.8080     3.1300    -0.1180 C.3   1 <1>   0.3430 
 16 C       -4.0720     1.6630    -1.6760 C.3   1 <1>   0.2630 
 17 C        6.0690     1.4740     2.0560 C.ar  1 <1>  -0.1500 
 18 C        4.9800     1.0800    -0.0360 C.ar  1 <1>  -0.1500 
 19 C        7.2880     1.1740     1.4750 C.ar  1 <1>  -0.1500 
 20 C        6.2000     0.7820    -0.6130 C.ar  1 <1>  -0.1500 
 21 C        7.3680     0.8270     0.1330 C.ar  1 <1>   0.1000 
 22 N        8.5850     0.5260    -0.4690 N.pl3 1 <1>  -0.8380 
 23 C        9.4830     1.6740    -0.7550 C.3   1 <1>   0.2090 
 24 C        9.2550    -0.7170    -0.0090 C.3   1 <1>   0.2090 
 25 C        9.3300     2.0620    -2.2260 C.3   1 <1>  -0.1600 
 26 C        9.7720    -1.4940    -1.2210 C.3   1 <1>  -0.1600 
 27 C       10.2460     3.2330    -2.6020 C.3   1 <1>  -0.2400 
 28 C       10.4220    -2.8200    -0.8070 C.3   1 <1>  -0.2400 
 29 H        0.5230     2.6770     2.5550 H     1 <1>   0.0800 
 30 H       -2.9510     0.2960     0.3390 H     1 <1>   0.0800 
 31 H       -1.9670    -0.0540    -1.0710 H     1 <1>   0.0800 
 32 H        3.7100     1.9090     3.0160 H     1 <1>   0.0800 
 33 H       -0.9040     4.1030    -0.4040 H     1 <1>   0.0800 
 34 H       -1.5100     4.2010     1.2210 H     1 <1>   0.0800 
 35 H       -2.0620     2.1580    -1.7640 H     1 <1>   0.4500 
 36 H        3.8570     3.6190     0.9670 H     1 <1>   0.3700 
 37 H       -3.2640     3.9640    -0.6270 H     1 <1>   0.0800 
 38 H       -3.4160     2.8910     0.7390 H     1 <1>   0.0800 
 39 H       -4.8120     1.4190    -0.9310 H     1 <1>   0.0800 
 40 H       -3.9940     0.8400    -2.3680 H     1 <1>   0.0800 
 41 H       -4.4060     2.5330    -2.2190 H     1 <1>   0.0800 
 42 H        6.0380     1.7400     3.0980 H     1 <1>   0.1500 
 43 H        4.0870     1.0350    -0.6350 H     1 <1>   0.1500 
 44 H        8.1890     1.2070     2.0580 H     1 <1>   0.1500 
 45 H        6.2660     0.5070    -1.6490 H     1 <1>   0.1500 
 46 H       10.5060     1.4100    -0.5500 H     1 <1>   0.0800 
 47 H        9.2150     2.5100    -0.1310 H     1 <1>   0.0800 
 48 H        8.5460    -1.3260     0.5270 H     1 <1>   0.0800 
 49 H       10.0650    -0.4760     0.6580 H     1 <1>   0.0800 
 50 H        8.3070     2.3390    -2.4080 H     1 <1>   0.0800 
 51 H        9.5660     1.2130    -2.8410 H     1 <1>   0.0800 
 52 H       10.4940    -0.8970    -1.7480 H     1 <1>   0.0800 
 53 H        8.9460    -1.6940    -1.8810 H     1 <1>   0.0800 
 54 H       10.0110     4.0990    -2.0090 H     1 <1>   0.0800 
 55 H       10.1120     3.4840    -3.6400 H     1 <1>   0.0800 
 56 H       11.2780     2.9710    -2.4440 H     1 <1>   0.0800 
 57 H       11.2600    -2.6430    -0.1560 H     1 <1>   0.0800 
 58 H       10.7710    -3.3450    -1.6790 H     1 <1>   0.0800 
 59 H        9.7090    -3.4440    -0.2960 H     1 <1>   0.0800 
@<TRIPOS>BOND
  1   1   2  1   
  2   1   3  1   
  3   2   4  2   
  4   2   5  1   
  5   3   6  2   
  6   3   7  1   
  7   4   8  1   
  8   5   6  1   
  9   5   9  1   
 10   5  29  1   
 11   6  10  1   
 12   7  11  1   
 13   7  30  1   
 14   7  31  1   
 15   8  12  1   
 16   8  13  1   
 17   8  32  1   
 18   9  12  am  
 19   9  14  2   
 20  10  15  1   
 21  10  33  1   
 22  10  34  1   
 23  11  15  1   
 24  11  16  1   
 25  11  35  1   
 26  12  36  1   
 27  13  17  ar  
 28  13  18  ar  
 29  15  37  1   
 30  15  38  1   
 31  16  39  1   
 32  16  40  1   
 33  16  41  1   
 34  17  19  ar  
 35  17  42  1   
 36  18  20  ar  
 37  18  43  1   
 38  19  21  ar  
 39  19  44  1   
 40  20  21  ar  
 41  20  45  1   
 42  21  22  1   
 43  22  23  1   
 44  22  24  1   
 45  23  25  1   
 46  23  46  1   
 47  23  47  1   
 48  24  26  1   
 49  24  48  1   
 50  24  49  1   
 51  25  27  1   
 52  25  50  1   
 53  25  51  1   
 54  26  28  1   
 55  26  52  1   
 56  26  53  1   
 57  27  54  1   
 58  27  55  1   
 59  27  56  1   
 60  28  57  1   
 61  28  58  1   
 62  28  59  1   
@<TRIPOS>SUBSTRUCTURE
  1 ****  18 GROUP 4 **** **** 0

# MOE 2024.06 (io_trps.svl 2023.06)
