@<TRIPOS>MOLECULE
NONAME
39 40 1 0 0 
SMALL
USER_CHARGES


@<TRIPOS>ATOM
  1 CL       2.9390     0.5370     2.8630 Cl    1 <1>  -0.1770 
  2 C        3.5270    -0.5640     1.6430 C.ar  1 <1>   0.1770 
  3 C        3.4350    -0.2090     0.3100 C.ar  1 <1>  -0.1500 
  4 C        4.0750    -1.7730     2.0260 C.ar  1 <1>  -0.1500 
  5 C        3.9000    -1.0850    -0.6570 C.ar  1 <1>  -0.1500 
  6 C        4.5370    -2.6450     1.0550 C.ar  1 <1>  -0.1500 
  7 C        4.4510    -2.3050    -0.2890 C.ar  1 <1>  -0.1430 
  8 C        4.9710    -3.2660    -1.3570 C.3   1 <1>   0.0450 
  9 C        6.4620    -3.1310    -1.6260 C.2   1 <1>   0.5690 
 10 O        6.9280    -3.6790    -2.5950 O.2   1 <1>  -0.5700 
 11 N        7.2410    -2.4210    -0.7770 N.am  1 <1>  -0.7300 
 12 C        8.7270    -2.3260    -0.8410 C.3   1 <1>   0.2010 
 13 C        9.3810    -2.0590     0.5230 C.2   1 <1>   0.5690 
 14 O        8.6510    -1.8160     1.4610 O.2   1 <1>  -0.5700 
 15 N       10.7490    -2.0870     0.6640 N.am  1 <1>  -0.6600 
 16 C       11.7200    -2.3620    -0.4340 C.3   1 <1>   0.1400 
 17 C       11.3960    -1.8040     1.9770 C.3   1 <1>   0.1400 
 18 C       12.6610    -1.1640    -0.5990 C.3   1 <1>  -0.1600 
 19 C       12.3380    -0.6030     1.8400 C.3   1 <1>  -0.1600 
 20 C       13.3660    -0.8140     0.7190 C.3   1 <1>  -0.1600 
 21 H        3.0070     0.7380     0.0380 H     1 <1>   0.1500 
 22 H        4.1400    -2.0240     3.0700 H     1 <1>   0.1500 
 23 H        3.8330    -0.8090    -1.6950 H     1 <1>   0.1500 
 24 H        4.9670    -3.5870     1.3530 H     1 <1>   0.1500 
 25 H        4.4470    -3.1000    -2.2800 H     1 <1>   0.0800 
 26 H        4.7770    -4.2780    -1.0570 H     1 <1>   0.0800 
 27 H        6.8360    -2.0050     0.0720 H     1 <1>   0.3700 
 28 H        8.9910    -1.5270    -1.5080 H     1 <1>   0.0800 
 29 H        9.1130    -3.2460    -1.2390 H     1 <1>   0.0800 
 30 H       11.2210    -2.5520    -1.3670 H     1 <1>   0.0800 
 31 H       12.2920    -3.2380    -0.1800 H     1 <1>   0.0800 
 32 H       11.9510    -2.6720     2.2890 H     1 <1>   0.0800 
 33 H       10.6570    -1.5950     2.7330 H     1 <1>   0.0800 
 34 H       12.0920    -0.3170    -0.9420 H     1 <1>   0.0800 
 35 H       13.3970    -1.3900    -1.3510 H     1 <1>   0.0800 
 36 H       12.8470    -0.4440     2.7730 H     1 <1>   0.0800 
 37 H       11.7490     0.2740     1.6350 H     1 <1>   0.0800 
 38 H       13.9540     0.0790     0.5920 H     1 <1>   0.0800 
 39 H       14.0320    -1.6150     0.9920 H     1 <1>   0.0800 
@<TRIPOS>BOND
  1   1   2  1   
  2   2   3  ar  
  3   2   4  ar  
  4   3   5  ar  
  5   3  21  1   
  6   4   6  ar  
  7   4  22  1   
  8   5   7  ar  
  9   5  23  1   
 10   6   7  ar  
 11   6  24  1   
 12   7   8  1   
 13   8   9  1   
 14   8  25  1   
 15   8  26  1   
 16   9  10  2   
 17   9  11  am  
 18  11  12  1   
 19  11  27  1   
 20  12  13  1   
 21  12  28  1   
 22  12  29  1   
 23  13  14  2   
 24  13  15  am  
 25  15  16  1   
 26  15  17  1   
 27  16  18  1   
 28  16  30  1   
 29  16  31  1   
 30  17  19  1   
 31  17  32  1   
 32  17  33  1   
 33  18  20  1   
 34  18  34  1   
 35  18  35  1   
 36  19  20  1   
 37  19  36  1   
 38  19  37  1   
 39  20  38  1   
 40  20  39  1   
@<TRIPOS>SUBSTRUCTURE
  1 ****  11 GROUP 4 **** **** 0

# MOE 2024.06 (io_trps.svl 2023.06)
