@<TRIPOS>MOLECULE
NONAME
43 45 1 0 0 
SMALL
USER_CHARGES


@<TRIPOS>ATOM
  1 CL      -0.3800    -2.5800     2.7030 Cl    1 <1>  -0.1770 
  2 C       -1.4510    -2.2140     1.3620 C.ar  1 <1>   0.1770 
  3 C       -1.0890    -2.5420     0.0480 C.ar  1 <1>   0.1000 
  4 C       -2.6510    -1.5950     1.6530 C.ar  1 <1>  -0.1500 
  5 N        0.1110    -3.1690    -0.3130 N.pl3 1 <1>  -0.8380 
  6 C       -1.9880    -2.2210    -0.9620 C.ar  1 <1>  -0.1500 
  7 C       -3.5280    -1.2870     0.6260 C.ar  1 <1>  -0.1500 
  8 C        0.2560    -4.5970     0.1030 C.3   1 <1>   0.2090 
  9 C        1.3490    -2.3440    -0.1670 C.3   1 <1>   0.2090 
 10 C       -3.1930    -1.6020    -0.6800 C.ar  1 <1>  -0.1500 
 11 C        1.4770    -5.2530    -0.5750 C.3   1 <1>   0.3430 
 12 C        2.5560    -3.0280    -0.8410 C.3   1 <1>   0.3430 
 13 N        2.7390    -4.4550    -0.3810 N.4   1 <1>  -0.9590 
 14 C        3.9180    -5.0960    -1.0190 C.3   1 <1>   0.4860 
 15 C        5.1590    -4.3310    -0.6010 C.ar  1 <1>  -0.1430 
 16 C        5.7060    -4.4540     0.6750 C.ar  1 <1>  -0.1430 
 17 C        5.7490    -3.4770    -1.5240 C.ar  1 <1>  -0.1500 
 18 C        6.8210    -3.6990     1.0080 C.ar  1 <1>  -0.1500 
 19 C        5.1390    -5.3930     1.7340 C.3   1 <1>  -0.0970 
 20 C        6.8620    -2.7330    -1.1810 C.ar  1 <1>  -0.1500 
 21 C        7.3960    -2.8420     0.0880 C.ar  1 <1>  -0.1500 
 22 H       -2.8980    -1.3570     2.6720 H     1 <1>   0.1500 
 23 H       -1.7350    -2.4620    -1.9790 H     1 <1>   0.1500 
 24 H       -4.4670    -0.8050     0.8420 H     1 <1>   0.1500 
 25 H       -0.6360    -5.1350    -0.1700 H     1 <1>   0.0800 
 26 H        0.3630    -4.6600     1.1720 H     1 <1>   0.0800 
 27 H        1.5650    -2.1840     0.8750 H     1 <1>   0.0800 
 28 H        1.1870    -1.3800    -0.6200 H     1 <1>   0.0800 
 29 H       -3.8740    -1.3620    -1.4790 H     1 <1>   0.1500 
 30 H        1.2640    -5.3400    -1.6280 H     1 <1>   0.0800 
 31 H        1.6030    -6.2470    -0.1790 H     1 <1>   0.0800 
 32 H        3.4430    -2.4550    -0.6250 H     1 <1>   0.0800 
 33 H        2.4000    -3.0080    -1.9060 H     1 <1>   0.0800 
 34 H        2.9490    -4.4050     0.6230 H     1 <1>   0.4500 
 35 H        3.8170    -5.0770    -2.0920 H     1 <1>   0.0800 
 36 H        4.0060    -6.1210    -0.7020 H     1 <1>   0.0800 
 37 H        5.3550    -3.3780    -2.5210 H     1 <1>   0.1500 
 38 H        7.2580    -3.7740     1.9890 H     1 <1>   0.1500 
 39 H        4.2850    -4.9490     2.2130 H     1 <1>   0.0800 
 40 H        5.8770    -5.5910     2.4920 H     1 <1>   0.0800 
 41 H        4.8620    -6.3400     1.3060 H     1 <1>   0.0800 
 42 H        7.3190    -2.0720    -1.8980 H     1 <1>   0.1500 
 43 H        8.2630    -2.2640     0.3600 H     1 <1>   0.1500 
@<TRIPOS>BOND
  1   1   2  1   
  2   2   3  ar  
  3   2   4  ar  
  4   3   5  1   
  5   3   6  ar  
  6   4   7  ar  
  7   4  22  1   
  8   5   8  1   
  9   5   9  1   
 10   6  10  ar  
 11   6  23  1   
 12   7  10  ar  
 13   7  24  1   
 14   8  11  1   
 15   8  25  1   
 16   8  26  1   
 17   9  12  1   
 18   9  27  1   
 19   9  28  1   
 20  10  29  1   
 21  11  13  1   
 22  11  30  1   
 23  11  31  1   
 24  12  13  1   
 25  12  32  1   
 26  12  33  1   
 27  13  14  1   
 28  13  34  1   
 29  14  15  1   
 30  14  35  1   
 31  14  36  1   
 32  15  16  ar  
 33  15  17  ar  
 34  16  18  ar  
 35  16  19  1   
 36  17  20  ar  
 37  17  37  1   
 38  18  21  ar  
 39  18  38  1   
 40  19  39  1   
 41  19  40  1   
 42  19  41  1   
 43  20  21  ar  
 44  20  42  1   
 45  21  43  1   
@<TRIPOS>SUBSTRUCTURE
  1 ****  12 GROUP 4 **** **** 0

# MOE 2024.06 (io_trps.svl 2023.06)
