@<TRIPOS>MOLECULE
NONAME
39 41 1 0 0 
SMALL
USER_CHARGES


@<TRIPOS>ATOM
  1 P        0.0990    -0.4480     0.2410 P.3   1 <1>   1.4220 
  2 O       -0.7130    -1.6130    -0.5150 O.3   1 <1>  -0.6130 
  3 O       -1.0140     0.6030    -0.2840 O.3   1 <1>  -0.6130 
  4 O        0.8110     0.7910     1.0110 O.3   1 <1>  -0.6130 
  5 O        1.1530    -0.3910    -0.9850 O.3   1 <1>  -0.6130 
  6 C        0.7110    -1.6110     1.4920 C.3   1 <1>   0.0200 
  7 C       -2.0530    -1.4530    -0.2470 C.3   1 <1>   0.1200 
  8 C       -2.2530     0.0380    -0.0800 C.3   1 <1>   0.1200 
  9 C        1.5780     1.5590     0.1510 C.3   1 <1>   0.1200 
 10 C        1.5220     0.9120    -1.2130 C.3   1 <1>   0.1200 
 11 N        1.7890    -2.6250     1.2070 N.3   1 <1>  -0.8100 
 12 C        1.5380    -3.5100     0.0420 C.3   1 <1>   0.2510 
 13 C        3.1190    -2.0580     1.0250 C.3   1 <1>   0.1100 
 14 C        0.3550    -4.5090     0.1220 C.2   1 <1>   0.6590 
 15 C        2.8940    -4.1920    -0.1300 C.3   1 <1>  -0.1600 
 16 C        3.9190    -3.1410     0.3020 C.3   1 <1>  -0.1600 
 17 O       -0.5020    -4.4840     0.9760 O.2   1 <1>  -0.5700 
 18 O        0.3210    -5.4260    -0.8460 O.3   1 <1>  -0.4300 
 19 C       -0.7040    -6.3930    -0.9190 C.3   1 <1>   0.0400 
 20 H       -0.1670    -2.1360     1.8140 H     1 <1>   0.0800 
 21 H        1.0270    -1.0130     2.3260 H     1 <1>   0.0800 
 22 H       -2.3040    -1.9960     0.6490 H     1 <1>   0.0800 
 23 H       -2.6180    -1.8420    -1.0760 H     1 <1>   0.0800 
 24 H       -2.9390     0.4330    -0.8100 H     1 <1>   0.0800 
 25 H       -2.5940     0.2820     0.9120 H     1 <1>   0.0800 
 26 H        2.5860     1.5760     0.5260 H     1 <1>   0.0800 
 27 H        1.1830     2.5590     0.1260 H     1 <1>   0.0800 
 28 H        0.7790     1.3790    -1.8370 H     1 <1>   0.0800 
 29 H        2.4740     0.9300    -1.7110 H     1 <1>   0.0800 
 30 H        1.3800    -2.9010    -0.8300 H     1 <1>   0.0800 
 31 H        3.5540    -1.8120     1.9780 H     1 <1>   0.0800 
 32 H        3.0720    -1.1740     0.4140 H     1 <1>   0.0800 
 33 H        3.0430    -4.5190    -1.1430 H     1 <1>   0.0800 
 34 H        2.9440    -5.0430     0.5270 H     1 <1>   0.0800 
 35 H        4.6540    -3.5700     0.9590 H     1 <1>   0.0800 
 36 H        4.4170    -2.7130    -0.5500 H     1 <1>   0.0800 
 37 H       -0.5220    -7.0200    -1.7730 H     1 <1>   0.0800 
 38 H       -1.6490    -5.8890    -1.0220 H     1 <1>   0.0800 
 39 H       -0.6920    -6.9800    -0.0170 H     1 <1>   0.0800 
@<TRIPOS>BOND
  1   1   2  1   
  2   1   3  1   
  3   1   4  1   
  4   1   5  1   
  5   1   6  1   
  6   2   7  1   
  7   3   8  1   
  8   4   9  1   
  9   5  10  1   
 10   6  11  1   
 11   6  20  1   
 12   6  21  1   
 13   7   8  1   
 14   7  22  1   
 15   7  23  1   
 16   8  24  1   
 17   8  25  1   
 18   9  10  1   
 19   9  26  1   
 20   9  27  1   
 21  10  28  1   
 22  10  29  1   
 23  11  12  1   
 24  11  13  1   
 25  12  14  1   
 26  12  15  1   
 27  12  30  1   
 28  13  16  1   
 29  13  31  1   
 30  13  32  1   
 31  14  17  2   
 32  14  18  1   
 33  15  16  1   
 34  15  33  1   
 35  15  34  1   
 36  16  35  1   
 37  16  36  1   
 38  18  19  1   
 39  19  37  1   
 40  19  38  1   
 41  19  39  1   
@<TRIPOS>SUBSTRUCTURE
  1 ****   6 GROUP 4 **** **** 0

# MOE 2024.06 (io_trps.svl 2023.06)
