@<TRIPOS>MOLECULE
NONAME
42 43 1 0 0 
SMALL
USER_CHARGES


@<TRIPOS>ATOM
  1 O      -11.2820     4.2460     1.3510 O.3   1 <1>  -0.3630 
  2 C      -10.4000     3.6450     0.5140 C.ar  1 <1>   0.0820 
  3 C      -11.9950     5.3590     0.8550 C.3   1 <1>   0.0400 
  4 C      -10.7520     3.1130    -0.7310 C.ar  1 <1>   0.0820 
  5 C       -9.0850     3.5700     0.9400 C.ar  1 <1>  -0.1500 
  6 O      -12.0240     3.0950    -1.1930 O.3   1 <1>  -0.3630 
  7 C       -9.7730     2.5630    -1.5400 C.ar  1 <1>  -0.1500 
  8 C       -8.1030     3.0090     0.1350 C.ar  1 <1>  -0.1440 
  9 C      -12.9120     2.2260    -0.5250 C.3   1 <1>   0.0400 
 10 C       -8.4580     2.5090    -1.1120 C.ar  1 <1>  -0.1500 
 11 C       -6.6610     2.9620     0.6250 C.3   1 <1>   0.0630 
 12 C       -5.7880     3.7880    -0.3430 C.3   1 <1>   0.3430 
 13 C       -6.2050     1.4970     0.8030 C.3   1 <1>  -0.0160 
 14 N       -4.4430     4.1130     0.2210 N.4   1 <1>  -0.8530 
 15 C       -4.7310     1.4210     1.1660 C.ar  1 <1>  -0.1440 
 16 C       -4.3070     1.7960     2.4310 C.ar  1 <1>  -0.1500 
 17 C       -3.7970     1.0220     0.2210 C.ar  1 <1>  -0.1500 
 18 C       -2.9580     1.8060     2.7380 C.ar  1 <1>  -0.1500 
 19 C       -2.4480     1.0330     0.5290 C.ar  1 <1>  -0.1500 
 20 C       -2.0280     1.4310     1.7850 C.ar  1 <1>  -0.1500 
 21 H      -12.4560     5.8600     1.6870 H     1 <1>   0.0800 
 22 H      -12.7530     5.0240     0.1710 H     1 <1>   0.0800 
 23 H      -11.3100     6.0230     0.3590 H     1 <1>   0.0800 
 24 H       -8.8540     3.9670     1.9130 H     1 <1>   0.1500 
 25 H      -10.0530     2.1710    -2.5020 H     1 <1>   0.1500 
 26 H      -13.8690     2.2820    -1.0120 H     1 <1>   0.0800 
 27 H      -13.0040     2.5320     0.5020 H     1 <1>   0.0800 
 28 H      -12.5260     1.2240    -0.5830 H     1 <1>   0.0800 
 29 H       -7.7290     2.0650    -1.7670 H     1 <1>   0.1500 
 30 H       -6.6260     3.4420     1.5880 H     1 <1>   0.0800 
 31 H       -6.3070     4.7050    -0.5750 H     1 <1>   0.0800 
 32 H       -5.6740     3.2350    -1.2610 H     1 <1>   0.0800 
 33 H       -6.3830     0.9370    -0.0990 H     1 <1>   0.0800 
 34 H       -6.7900     1.0340     1.5800 H     1 <1>   0.0800 
 35 H       -3.9880     3.2410     0.5530 H     1 <1>   0.4500 
 36 H       -4.5110     4.7390     1.0300 H     1 <1>   0.4500 
 37 H       -3.8270     4.5420    -0.4760 H     1 <1>   0.4500 
 38 H       -5.0200     2.0770     3.1890 H     1 <1>   0.1500 
 39 H       -4.1070     0.6950    -0.7590 H     1 <1>   0.1500 
 40 H       -2.6280     2.0930     3.7240 H     1 <1>   0.1500 
 41 H       -1.7220     0.7180    -0.2030 H     1 <1>   0.1500 
 42 H       -0.9780     1.4300     2.0280 H     1 <1>   0.1500 
@<TRIPOS>BOND
  1   1   2  1   
  2   1   3  1   
  3   2   4  ar  
  4   2   5  ar  
  5   3  21  1   
  6   3  22  1   
  7   3  23  1   
  8   4   6  1   
  9   4   7  ar  
 10   5   8  ar  
 11   5  24  1   
 12   6   9  1   
 13   7  10  ar  
 14   7  25  1   
 15   8  10  ar  
 16   8  11  1   
 17   9  26  1   
 18   9  27  1   
 19   9  28  1   
 20  10  29  1   
 21  11  12  1   
 22  11  13  1   
 23  11  30  1   
 24  12  14  1   
 25  12  31  1   
 26  12  32  1   
 27  13  15  1   
 28  13  33  1   
 29  13  34  1   
 30  14  35  1   
 31  14  36  1   
 32  14  37  1   
 33  15  16  ar  
 34  15  17  ar  
 35  16  18  ar  
 36  16  38  1   
 37  17  19  ar  
 38  17  39  1   
 39  18  20  ar  
 40  18  40  1   
 41  19  20  ar  
 42  19  41  1   
 43  20  42  1   
@<TRIPOS>SUBSTRUCTURE
  1 ****  11 GROUP 4 **** **** 0

# MOE 2024.06 (io_trps.svl 2023.06)
