@<TRIPOS>MOLECULE
NONAME
33 34 1 0 0 
SMALL
USER_CHARGES


@<TRIPOS>ATOM
  1 CL      -1.9560    -0.1290    -0.7680 Cl    1 <1>  -0.1770 
  2 C       -1.7920     1.4230     0.0110 C.ar  1 <1>   0.1770 
  3 C       -1.5720     2.5460    -0.7600 C.ar  1 <1>  -0.1500 
  4 C       -1.8840     1.5000     1.3870 C.ar  1 <1>  -0.1500 
  5 C       -1.4380     3.8030    -0.1690 C.ar  1 <1>   0.0860 
  6 C       -1.7490     2.7340     1.9970 C.ar  1 <1>  -0.1500 
  7 C       -1.1970     4.9780    -0.9920 C.2   1 <1>   0.5440 
  8 C       -1.5270     3.8630     1.2260 C.ar  1 <1>  -0.1500 
  9 O       -0.5310     4.8760    -2.0070 O.2   1 <1>  -0.5700 
 10 N       -1.7290     6.2220    -0.6800 N.am  1 <1>  -0.2980 
 11 N       -2.8010     6.4580     0.1580 N.2   1 <1>  -0.5120 
 12 C       -1.3070     7.4780    -1.3760 C.3   1 <1>   0.5800 
 13 C       -3.1620     7.6610     0.0760 C.2   1 <1>   0.3280 
 14 O       -1.5620     7.2770    -2.7370 O.3   1 <1>  -0.6800 
 15 C        0.1790     7.9270    -1.0520 C.3   1 <1>   1.0200 
 16 C       -2.3410     8.4980    -0.8680 C.3   1 <1>  -0.0990 
 17 C       -4.3100     8.3280     0.8230 C.3   1 <1>  -0.0990 
 18 F        0.4510     9.1470    -1.5120 F     1 <1>  -0.3400 
 19 F        1.1230     7.1390    -1.5570 F     1 <1>  -0.3400 
 20 F        0.4190     7.9850     0.2580 F     1 <1>  -0.3400 
 21 C       -5.0600     7.3820     1.7730 C.3   1 <1>  -0.2400 
 22 H       -1.5010     2.4470    -1.8290 H     1 <1>   0.1500 
 23 H       -2.0570     0.6100     1.9650 H     1 <1>   0.1500 
 24 H       -1.8160     2.8160     3.0680 H     1 <1>   0.1500 
 25 H       -1.4220     4.8150     1.7180 H     1 <1>   0.1500 
 26 H       -1.1680     6.4020    -2.9670 H     1 <1>   0.4000 
 27 H       -2.9470     8.8900    -1.6640 H     1 <1>   0.0800 
 28 H       -1.8840     9.3070    -0.3290 H     1 <1>   0.0800 
 29 H       -5.0050     8.7210     0.1020 H     1 <1>   0.0800 
 30 H       -3.9190     9.1530     1.3910 H     1 <1>   0.0800 
 31 H       -5.4800     6.5580     1.2230 H     1 <1>   0.0800 
 32 H       -5.8580     7.9070     2.2680 H     1 <1>   0.0800 
 33 H       -4.3900     6.9910     2.5180 H     1 <1>   0.0800 
@<TRIPOS>BOND
  1   1   2  1   
  2   2   3  ar  
  3   2   4  ar  
  4   3   5  ar  
  5   3  22  1   
  6   4   6  ar  
  7   4  23  1   
  8   5   7  1   
  9   5   8  ar  
 10   6   8  ar  
 11   6  24  1   
 12   7   9  2   
 13   7  10  am  
 14   8  25  1   
 15  10  11  1   
 16  10  12  1   
 17  11  13  2   
 18  12  14  1   
 19  12  15  1   
 20  12  16  1   
 21  13  16  1   
 22  13  17  1   
 23  14  26  1   
 24  15  18  1   
 25  15  19  1   
 26  15  20  1   
 27  16  27  1   
 28  16  28  1   
 29  17  21  1   
 30  17  29  1   
 31  17  30  1   
 32  21  31  1   
 33  21  32  1   
 34  21  33  1   
@<TRIPOS>SUBSTRUCTURE
  1 ****  10 GROUP 4 **** **** 0

# MOE 2024.06 (io_trps.svl 2023.06)
