@<TRIPOS>MOLECULE
NONAME
39 41 1 0 0 
SMALL
USER_CHARGES


@<TRIPOS>ATOM
  1 BR       1.2160    -0.4740     1.5150 Br    1 <1>  -0.0580 
  2 C        1.3010     1.4440     1.4360 C.2   1 <1>   0.1980 
  3 O        2.4420     1.9940     1.1070 O.3   1 <1>  -0.2800 
  4 C        0.3280     2.3440     1.6770 C.2   1 <1>  -0.1500 
  5 C        2.2540     3.3170     1.1200 C.2   1 <1>   0.0550 
  6 C        0.9560     3.5740     1.4690 C.2   1 <1>  -0.1500 
  7 C        3.3330     4.2190     0.7980 C.2   1 <1>   0.7150 
  8 O        3.1560     5.4240     0.8120 O.2   1 <1>  -0.5700 
  9 N        4.5560     3.6960     0.4770 N.am  1 <1>  -0.5470 
 10 C        5.8070     4.2180     0.1180 C.ar  1 <1>   0.1170 
 11 C        6.8210     3.2840    -0.1330 C.ar  1 <1>   0.1000 
 12 C        6.0810     5.5740     0.0040 C.ar  1 <1>  -0.1500 
 13 N        6.5540     1.9080    -0.0200 N.pl3 1 <1>  -0.8380 
 14 C        8.0800     3.7410    -0.4920 C.ar  1 <1>  -0.1500 
 15 C        7.3440     6.0320    -0.3560 C.ar  1 <1>  -0.1430 
 16 C        7.1530     1.1700     1.1340 C.3   1 <1>   0.2090 
 17 C        6.4910     1.1010    -1.2780 C.3   1 <1>   0.2090 
 18 C        8.3420     5.0950    -0.6030 C.ar  1 <1>  -0.1500 
 19 C        7.5990     7.5440    -0.4700 C.3   1 <1>   1.1630 
 20 C        8.4060     0.3700     0.7310 C.3   1 <1>   0.1200 
 21 C        7.7860     0.3050    -1.5280 C.3   1 <1>   0.1200 
 22 F        6.8170     8.1190    -1.3740 F     1 <1>  -0.3400 
 23 F        7.3770     8.1780     0.6750 F     1 <1>  -0.3400 
 24 F        8.8460     7.8410    -0.8190 F     1 <1>  -0.3400 
 25 O        8.1610    -0.4270    -0.3950 O.3   1 <1>  -0.5600 
 26 H       -0.6940     2.1760     1.9630 H     1 <1>   0.1500 
 27 H        0.4940     4.5420     1.5680 H     1 <1>   0.1500 
 28 H        4.5960     2.6710     0.4950 H     1 <1>   0.3700 
 29 H        5.3020     6.2900     0.1980 H     1 <1>   0.1500 
 30 H        8.8620     3.0320    -0.6870 H     1 <1>   0.1500 
 31 H        6.4200     0.4910     1.5320 H     1 <1>   0.0800 
 32 H        7.4100     1.8670     1.9140 H     1 <1>   0.0800 
 33 H        6.3040     1.7510    -2.1150 H     1 <1>   0.0800 
 34 H        5.6670     0.4120    -1.2090 H     1 <1>   0.0800 
 35 H        9.3340     5.4080    -0.8850 H     1 <1>   0.1500 
 36 H        8.7000    -0.2810     1.5340 H     1 <1>   0.0800 
 37 H        9.2240     1.0330     0.5120 H     1 <1>   0.0800 
 38 H        8.5910     0.9670    -1.7930 H     1 <1>   0.0800 
 39 H        7.6390    -0.3920    -2.3330 H     1 <1>   0.0800 
@<TRIPOS>BOND
  1   1   2  1   
  2   2   3  1   
  3   2   4  2   
  4   3   5  1   
  5   4   6  1   
  6   4  26  1   
  7   5   6  2   
  8   5   7  1   
  9   6  27  1   
 10   7   8  2   
 11   7   9  am  
 12   9  10  1   
 13   9  28  1   
 14  10  11  ar  
 15  10  12  ar  
 16  11  13  1   
 17  11  14  ar  
 18  12  15  ar  
 19  12  29  1   
 20  13  16  1   
 21  13  17  1   
 22  14  18  ar  
 23  14  30  1   
 24  15  18  ar  
 25  15  19  1   
 26  16  20  1   
 27  16  31  1   
 28  16  32  1   
 29  17  21  1   
 30  17  33  1   
 31  17  34  1   
 32  18  35  1   
 33  19  22  1   
 34  19  23  1   
 35  19  24  1   
 36  20  25  1   
 37  20  36  1   
 38  20  37  1   
 39  21  25  1   
 40  21  38  1   
 41  21  39  1   
@<TRIPOS>SUBSTRUCTURE
  1 ****  10 GROUP 4 **** **** 0

# MOE 2024.06 (io_trps.svl 2023.06)
