@<TRIPOS>MOLECULE
NONAME
51 52 1 0 0 
SMALL
USER_CHARGES


@<TRIPOS>ATOM
  1 O        4.1070    -3.5110    -1.4810 O.2   1 <1>  -0.5700 
  2 C        4.0330    -4.3960    -0.6690 C.2   1 <1>   0.6590 
  3 O        5.0890    -4.8510    -0.0130 O.3   1 <1>  -0.4300 
  4 C        2.7040    -5.0590    -0.3110 C.3   1 <1>  -0.0190 
  5 C        6.3750    -4.3200    -0.2360 C.3   1 <1>   0.1200 
  6 C        1.6420    -4.8900    -1.4180 C.3   1 <1>  -0.1600 
  7 C        2.1640    -4.5100     1.0220 C.3   1 <1>  -0.1600 
  8 C        7.3540    -5.0520     0.6760 C.3   1 <1>  -0.2400 
  9 C        0.2980    -5.4920    -1.0190 C.3   1 <1>   0.3430 
 10 C        0.8090    -5.1160     1.3850 C.3   1 <1>   0.3430 
 11 N       -0.1490    -4.8940     0.2690 N.4   1 <1>  -0.9590 
 12 C       -1.5540    -5.2660     0.6260 C.3   1 <1>   0.3430 
 13 C       -2.5530    -4.3960    -0.1670 C.3   1 <1>   0.2000 
 14 O       -2.0180    -3.1150    -0.3160 O.3   1 <1>  -0.6800 
 15 C       -3.9200    -4.2870     0.5190 C.3   1 <1>   0.1200 
 16 O       -4.6920    -3.3360    -0.1820 O.3   1 <1>  -0.3630 
 17 C       -5.9640    -3.0320     0.1900 C.ar  1 <1>   0.0820 
 18 C       -6.6620    -2.1140    -0.5910 C.ar  1 <1>  -0.1440 
 19 C       -6.5800    -3.5960     1.3050 C.ar  1 <1>  -0.1500 
 20 C       -7.9610    -1.7730    -0.2510 C.ar  1 <1>  -0.1500 
 21 C       -6.0170    -1.4800    -1.8160 C.3   1 <1>  -0.0970 
 22 C       -7.8780    -3.2480     1.6350 C.ar  1 <1>  -0.1500 
 23 C       -8.5690    -2.3370     0.8570 C.ar  1 <1>  -0.1500 
 24 H        2.9020    -6.1110    -0.1940 H     1 <1>   0.0800 
 25 H        6.3540    -3.2660    -0.0130 H     1 <1>   0.0800 
 26 H        6.6300    -4.4640    -1.2730 H     1 <1>   0.0800 
 27 H        1.9880    -5.3650    -2.3200 H     1 <1>   0.0800 
 28 H        1.5030    -3.8460    -1.6420 H     1 <1>   0.0800 
 29 H        2.0710    -3.4390     0.9660 H     1 <1>   0.0800 
 30 H        2.8660    -4.7300     1.8090 H     1 <1>   0.0800 
 31 H        7.0850    -4.9060     1.7060 H     1 <1>   0.0800 
 32 H        8.3460    -4.6670     0.5240 H     1 <1>   0.0800 
 33 H        7.3590    -6.1040     0.4490 H     1 <1>   0.0800 
 34 H        0.3950    -6.5610    -0.9130 H     1 <1>   0.0800 
 35 H       -0.4260    -5.2880    -1.7920 H     1 <1>   0.0800 
 36 H        0.4410    -4.6510     2.2860 H     1 <1>   0.0800 
 37 H        0.9210    -6.1730     1.5670 H     1 <1>   0.0800 
 38 H       -0.2240    -3.8690     0.1010 H     1 <1>   0.4500 
 39 H       -1.7130    -5.0790     1.6750 H     1 <1>   0.0800 
 40 H       -1.7350    -6.3120     0.4440 H     1 <1>   0.0800 
 41 H       -2.6910    -4.8100    -1.1520 H     1 <1>   0.0800 
 42 H       -2.7460    -2.5070    -0.5880 H     1 <1>   0.4000 
 43 H       -3.8120    -3.9510     1.5360 H     1 <1>   0.0800 
 44 H       -4.4390    -5.2300     0.4940 H     1 <1>   0.0800 
 45 H       -6.0770    -4.3050     1.9330 H     1 <1>   0.1500 
 46 H       -8.5110    -1.0650    -0.8460 H     1 <1>   0.1500 
 47 H       -5.7080    -2.2450    -2.5040 H     1 <1>   0.0800 
 48 H       -5.1560    -0.9080    -1.5200 H     1 <1>   0.0800 
 49 H       -6.7040    -0.8250    -2.3210 H     1 <1>   0.0800 
 50 H       -8.3530    -3.6840     2.4960 H     1 <1>   0.1500 
 51 H       -9.5780    -2.0650     1.1130 H     1 <1>   0.1500 
@<TRIPOS>BOND
  1   1   2  2   
  2   2   3  1   
  3   2   4  1   
  4   3   5  1   
  5   4   6  1   
  6   4   7  1   
  7   4  24  1   
  8   5   8  1   
  9   5  25  1   
 10   5  26  1   
 11   6   9  1   
 12   6  27  1   
 13   6  28  1   
 14   7  10  1   
 15   7  29  1   
 16   7  30  1   
 17   8  31  1   
 18   8  32  1   
 19   8  33  1   
 20   9  11  1   
 21   9  34  1   
 22   9  35  1   
 23  10  11  1   
 24  10  36  1   
 25  10  37  1   
 26  11  12  1   
 27  11  38  1   
 28  12  13  1   
 29  12  39  1   
 30  12  40  1   
 31  13  14  1   
 32  13  15  1   
 33  13  41  1   
 34  14  42  1   
 35  15  16  1   
 36  15  43  1   
 37  15  44  1   
 38  16  17  1   
 39  17  18  ar  
 40  17  19  ar  
 41  18  20  ar  
 42  18  21  1   
 43  19  22  ar  
 44  19  45  1   
 45  20  23  ar  
 46  20  46  1   
 47  21  47  1   
 48  21  48  1   
 49  21  49  1   
 50  22  23  ar  
 51  22  50  1   
 52  23  51  1   
@<TRIPOS>SUBSTRUCTURE
  1 ****  14 GROUP 4 **** **** 0

# MOE 2024.06 (io_trps.svl 2023.06)
