@<TRIPOS>MOLECULE
NONAME
26 26 1 0 0 
SMALL
USER_CHARGES


@<TRIPOS>ATOM
  1 CL       2.2420     0.8540     2.1050 Cl    1 <1>  -0.1770 
  2 C        1.3050     1.9840     1.1500 C.ar  1 <1>   0.1770 
  3 C        1.9010     2.6690     0.0960 C.ar  1 <1>   0.0830 
  4 C       -0.0270     2.1710     1.4710 C.ar  1 <1>  -0.1500 
  5 O        3.2150     2.4310    -0.1570 O.3   1 <1>  -0.3630 
  6 C        1.1270     3.5610    -0.6430 C.ar  1 <1>  -0.1500 
  7 C       -0.7860     3.0600     0.7290 C.ar  1 <1>  -0.1500 
  8 C        3.9110     3.0960    -1.2050 C.3   1 <1>   0.1810 
  9 C       -0.2080     3.7510    -0.3240 C.ar  1 <1>  -0.1500 
 10 C        5.3680     2.6540    -1.2680 C.2   1 <1>   0.5690 
 11 O        6.0790     3.1400    -2.1160 O.2   1 <1>  -0.5700 
 12 N        5.8280     1.7340    -0.3790 N.am  1 <1>  -0.7300 
 13 C        7.2050     1.2170    -0.2970 C.3   1 <1>   0.1400 
 14 C        7.6730     1.3160     1.1500 C.3   1 <1>  -0.2400 
 15 H       -0.4600     1.6270     2.2910 H     1 <1>   0.1500 
 16 H        1.5390     4.1140    -1.4660 H     1 <1>   0.1500 
 17 H       -1.8250     3.2130     0.9700 H     1 <1>   0.1500 
 18 H        3.8700     4.1540    -1.0240 H     1 <1>   0.0800 
 19 H        3.4300     2.8600    -2.1360 H     1 <1>   0.0800 
 20 H       -0.8030     4.4410    -0.8980 H     1 <1>   0.1500 
 21 H        5.1610     1.3650     0.3060 H     1 <1>   0.3700 
 22 H        7.8540     1.7940    -0.9370 H     1 <1>   0.0800 
 23 H        7.2210     0.1920    -0.6260 H     1 <1>   0.0800 
 24 H        7.6570     2.3420     1.4740 H     1 <1>   0.0800 
 25 H        8.6810     0.9500     1.2290 H     1 <1>   0.0800 
 26 H        7.0440     0.7260     1.7910 H     1 <1>   0.0800 
@<TRIPOS>BOND
  1   1   2  1   
  2   2   3  ar  
  3   2   4  ar  
  4   3   5  1   
  5   3   6  ar  
  6   4   7  ar  
  7   4  15  1   
  8   5   8  1   
  9   6   9  ar  
 10   6  16  1   
 11   7   9  ar  
 12   7  17  1   
 13   8  10  1   
 14   8  18  1   
 15   8  19  1   
 16   9  20  1   
 17  10  11  2   
 18  10  12  am  
 19  12  13  1   
 20  12  21  1   
 21  13  14  1   
 22  13  22  1   
 23  13  23  1   
 24  14  24  1   
 25  14  25  1   
 26  14  26  1   
@<TRIPOS>SUBSTRUCTURE
  1 ****   5 GROUP 4 **** **** 0

# MOE 2024.06 (io_trps.svl 2023.06)
