@<TRIPOS>MOLECULE
NONAME
40 41 1 0 0 
SMALL
USER_CHARGES


@<TRIPOS>ATOM
  1 S       -0.5370    -1.2080     1.7970 S.3   1 <1>  -0.3320 
  2 C        0.6330    -1.0690     0.4520 C.ar  1 <1>   0.7220 
  3 C       -2.1730    -1.5650     1.0150 C.3   1 <1>   0.0700 
  4 N        0.1440    -1.2090    -0.7730 N.ar  1 <1>  -0.6200 
  5 N        1.8780    -0.8380     0.8320 N.ar  1 <1>  -0.6200 
  6 C       -2.2600    -3.0680     0.7340 C.3   1 <1>  -0.1600 
  7 C        1.0360    -1.0980    -1.7310 C.ar  1 <1>   0.1600 
  8 C        2.7410    -0.7340    -0.1530 C.ar  1 <1>   0.1600 
  9 C       -3.5370    -3.4260    -0.0250 C.3   1 <1>   0.1200 
 10 C        2.3650    -0.8580    -1.4700 C.ar  1 <1>  -0.1500 
 11 O       -4.6500    -2.9760     0.7120 O.3   1 <1>  -0.3620 
 12 C       -5.8500    -3.1100     0.1050 C.ar  1 <1>   0.0830 
 13 C       -6.3420    -2.0720    -0.6820 C.ar  1 <1>  -0.1430 
 14 C       -6.5870    -4.2790     0.2810 C.ar  1 <1>  -0.1430 
 15 C       -7.5620    -2.2280    -1.3180 C.ar  1 <1>  -0.1500 
 16 C       -5.5690    -0.7710    -0.8480 C.3   1 <1>  -0.0970 
 17 C       -7.8050    -4.4110    -0.3660 C.ar  1 <1>  -0.1500 
 18 C       -6.0860    -5.4060     1.1720 C.3   1 <1>  -0.0970 
 19 C       -8.2950    -3.3950    -1.1690 C.ar  1 <1>  -0.1430 
 20 C       -9.6310    -3.5530    -1.8720 C.3   1 <1>  -0.0970 
 21 H       -2.2500    -0.9770     0.1180 H     1 <1>   0.0800 
 22 H       -2.9300    -1.2570     1.7150 H     1 <1>   0.0800 
 23 H       -2.2320    -3.6130     1.6610 H     1 <1>   0.0800 
 24 H       -1.4150    -3.3730     0.1430 H     1 <1>   0.0800 
 25 H        0.6990    -1.2020    -2.7500 H     1 <1>   0.1500 
 26 H        3.7720    -0.5450     0.0990 H     1 <1>   0.1500 
 27 H       -3.6220    -4.4910    -0.1530 H     1 <1>   0.0800 
 28 H       -3.5520    -2.9500    -0.9900 H     1 <1>   0.0800 
 29 H        3.0830    -0.7700    -2.2640 H     1 <1>   0.1500 
 30 H       -7.9500    -1.4360    -1.9330 H     1 <1>   0.1500 
 31 H       -4.7490    -0.9160    -1.5270 H     1 <1>   0.0800 
 32 H       -5.1830    -0.4490     0.1030 H     1 <1>   0.0800 
 33 H       -6.2040     0.0050    -1.2330 H     1 <1>   0.0800 
 34 H       -8.3800    -5.3110    -0.2420 H     1 <1>   0.1500 
 35 H       -5.3670    -6.0010     0.6390 H     1 <1>   0.0800 
 36 H       -6.8990    -6.0380     1.4800 H     1 <1>   0.0800 
 37 H       -5.6220    -5.0040     2.0540 H     1 <1>   0.0800 
 38 H       -9.6420    -2.9940    -2.7900 H     1 <1>   0.0800 
 39 H      -10.4200    -3.1940    -1.2360 H     1 <1>   0.0800 
 40 H       -9.8140    -4.5870    -2.1030 H     1 <1>   0.0800 
@<TRIPOS>BOND
  1   1   2  1   
  2   1   3  1   
  3   2   4  ar  
  4   2   5  ar  
  5   3   6  1   
  6   3  21  1   
  7   3  22  1   
  8   4   7  ar  
  9   5   8  ar  
 10   6   9  1   
 11   6  23  1   
 12   6  24  1   
 13   7  10  ar  
 14   7  25  1   
 15   8  10  ar  
 16   8  26  1   
 17   9  11  1   
 18   9  27  1   
 19   9  28  1   
 20  10  29  1   
 21  11  12  1   
 22  12  13  ar  
 23  12  14  ar  
 24  13  15  ar  
 25  13  16  1   
 26  14  17  ar  
 27  14  18  1   
 28  15  19  ar  
 29  15  30  1   
 30  16  31  1   
 31  16  32  1   
 32  16  33  1   
 33  17  19  ar  
 34  17  34  1   
 35  18  35  1   
 36  18  36  1   
 37  18  37  1   
 38  19  20  1   
 39  20  38  1   
 40  20  39  1   
 41  20  40  1   
@<TRIPOS>SUBSTRUCTURE
  1 ****   9 GROUP 4 **** **** 0

# MOE 2024.06 (io_trps.svl 2023.06)
