@<TRIPOS>MOLECULE
NONAME
41 42 1 0 0 
SMALL
USER_CHARGES


@<TRIPOS>ATOM
  1 S        0.2830    -1.6900    -0.5460 S.3   1 <1>  -0.2860 
  2 C       -1.4240    -1.1540    -0.3810 C.2   1 <1>   0.2420 
  3 C        1.1780    -0.0880    -0.8630 C.3   1 <1>   0.1310 
  4 N       -1.7870     0.0770    -0.4430 N.2   1 <1>  -0.3380 
  5 N       -2.4340    -2.0000    -0.1780 N.pl3 1 <1>   0.0480 
  6 C        2.6840    -0.2910    -0.9320 C.2   1 <1>   0.5690 
  7 N       -3.1120     0.0720    -0.2730 N.2   1 <1>  -0.3380 
  8 C       -3.4770    -1.1580    -0.1180 C.2   1 <1>   0.0060 
  9 C       -2.3990    -3.4740    -0.0580 C.3   1 <1>   0.0960 
 10 O        3.3340     0.5310    -1.5290 O.2   1 <1>  -0.5700 
 11 N        3.2250    -1.3860    -0.3120 N.am  1 <1>  -0.5470 
 12 C       -4.9140    -1.5880     0.1050 C.3   1 <1>  -0.0600 
 13 C       -2.1710    -3.8930     1.3970 C.3   1 <1>  -0.2400 
 14 C        4.5490    -1.8260    -0.1640 C.ar  1 <1>   0.1170 
 15 C        4.7720    -3.1440     0.2140 C.ar  1 <1>  -0.1500 
 16 C        5.6540    -1.0060    -0.3610 C.ar  1 <1>  -0.1500 
 17 C        6.0520    -3.6450     0.3900 C.ar  1 <1>  -0.1430 
 18 C        6.9350    -1.4950    -0.1890 C.ar  1 <1>  -0.1500 
 19 C        7.1470    -2.8120     0.1860 C.ar  1 <1>  -0.1430 
 20 C        6.2300    -5.1000     0.8020 C.3   1 <1>  -0.0970 
 21 C        8.5740    -3.3100     0.3640 C.3   1 <1>  -0.0970 
 22 H        0.9290     0.5840    -0.0640 H     1 <1>   0.0800 
 23 H        0.8090     0.3030    -1.7930 H     1 <1>   0.0800 
 24 H       -1.6080    -3.8550    -0.6800 H     1 <1>   0.0800 
 25 H       -3.3300    -3.8750    -0.4170 H     1 <1>   0.0800 
 26 H        2.5260    -2.0250     0.0670 H     1 <1>   0.3700 
 27 H       -5.2420    -2.2180    -0.7010 H     1 <1>   0.0800 
 28 H       -5.5510    -0.7210     0.1420 H     1 <1>   0.0800 
 29 H       -5.0040    -2.1180     1.0350 H     1 <1>   0.0800 
 30 H       -1.2300    -3.5120     1.7540 H     1 <1>   0.0800 
 31 H       -2.1500    -4.9660     1.4680 H     1 <1>   0.0800 
 32 H       -2.9630    -3.5260     2.0250 H     1 <1>   0.0800 
 33 H        3.9270    -3.7880     0.3690 H     1 <1>   0.1500 
 34 H        5.5220     0.0200    -0.6470 H     1 <1>   0.1500 
 35 H        7.7690    -0.8360    -0.3510 H     1 <1>   0.1500 
 36 H        5.2810    -5.5920     0.9110 H     1 <1>   0.0800 
 37 H        6.7480    -5.1550     1.7430 H     1 <1>   0.0800 
 38 H        6.7980    -5.6260     0.0570 H     1 <1>   0.0800 
 39 H        8.7680    -4.1210    -0.3150 H     1 <1>   0.0800 
 40 H        8.7220    -3.6520     1.3720 H     1 <1>   0.0800 
 41 H        9.2830    -2.5270     0.1660 H     1 <1>   0.0800 
@<TRIPOS>BOND
  1   1   2  1   
  2   1   3  1   
  3   2   4  2   
  4   2   5  1   
  5   3   6  1   
  6   3  22  1   
  7   3  23  1   
  8   4   7  1   
  9   5   8  1   
 10   5   9  1   
 11   6  10  2   
 12   6  11  am  
 13   7   8  2   
 14   8  12  1   
 15   9  13  1   
 16   9  24  1   
 17   9  25  1   
 18  11  14  1   
 19  11  26  1   
 20  12  27  1   
 21  12  28  1   
 22  12  29  1   
 23  13  30  1   
 24  13  31  1   
 25  13  32  1   
 26  14  15  ar  
 27  14  16  ar  
 28  15  17  ar  
 29  15  33  1   
 30  16  18  ar  
 31  16  34  1   
 32  17  19  ar  
 33  17  20  1   
 34  18  19  ar  
 35  18  35  1   
 36  19  21  1   
 37  20  36  1   
 38  20  37  1   
 39  20  38  1   
 40  21  39  1   
 41  21  40  1   
 42  21  41  1   
@<TRIPOS>SUBSTRUCTURE
  1 ****  11 GROUP 4 **** **** 0

# MOE 2024.06 (io_trps.svl 2023.06)
