@<TRIPOS>MOLECULE
NONAME
50 51 1 0 0 
SMALL
USER_CHARGES


@<TRIPOS>ATOM
  1 CL      -3.0590     1.7760     0.6270 Cl    1 <1>  -0.1770 
  2 C       -3.8750     0.2350     0.5860 C.ar  1 <1>   0.1770 
  3 C       -5.1770     0.1720     0.1210 C.ar  1 <1>  -0.1500 
  4 C       -3.2060    -0.8970     1.0180 C.ar  1 <1>  -0.1500 
  5 C       -5.8290    -1.0510     0.0870 C.ar  1 <1>  -0.1500 
  6 C       -3.8570    -2.1190     0.9850 C.ar  1 <1>  -0.1500 
  7 C       -5.1610    -2.1880     0.5230 C.ar  1 <1>   0.1020 
  8 S       -5.9370    -3.8130     0.5160 S.3   1 <1>  -0.3320 
  9 C       -7.6980    -3.5530     0.0160 C.3   1 <1>   0.0700 
 10 C       -8.3840    -4.9170    -0.0590 C.3   1 <1>   0.1400 
 11 N       -9.8450    -4.7530    -0.2450 N.am  1 <1>  -0.7300 
 12 C      -10.4590    -4.1850    -1.3180 C.2   1 <1>   0.5690 
 13 O       -9.8210    -3.7270    -2.2370 O.2   1 <1>  -0.5700 
 14 C      -11.9880    -4.1240    -1.3800 C.3   1 <1>   0.2570 
 15 N      -12.6310    -3.5850    -0.1400 N.am  1 <1>  -0.6930 
 16 S      -13.2020    -4.7830     0.9630 S.o2  1 <1>   1.3330 
 17 C      -13.2840    -2.3630    -0.2540 C.ar  1 <1>   0.1990 
 18 O      -12.0640    -5.6230     1.2520 O.2   1 <1>  -0.6500 
 19 O      -14.3980    -5.3420     0.3850 O.2   1 <1>  -0.6500 
 20 C      -13.5990    -3.8400     2.4210 C.3   1 <1>  -0.1350 
 21 C      -12.6740    -1.1690     0.1450 C.ar  1 <1>  -0.1430 
 22 C      -14.5790    -2.3250    -0.7610 C.ar  1 <1>  -0.1500 
 23 C      -13.3740     0.0230     0.0350 C.ar  1 <1>  -0.1500 
 24 C      -11.2540    -1.1210     0.7060 C.3   1 <1>  -0.0170 
 25 C      -15.2670    -1.1320    -0.8680 C.ar  1 <1>  -0.1500 
 26 C      -14.6630     0.0460    -0.4670 C.ar  1 <1>  -0.1500 
 27 C      -10.2680    -0.6100    -0.3490 C.3   1 <1>  -0.2400 
 28 H       -5.6690     1.0690    -0.2110 H     1 <1>   0.1500 
 29 H       -2.1940    -0.8190     1.3730 H     1 <1>   0.1500 
 30 H       -6.8350    -1.0970    -0.2790 H     1 <1>   0.1500 
 31 H       -3.3610    -3.0150     1.3140 H     1 <1>   0.1500 
 32 H       -7.6930    -3.0720    -0.9460 H     1 <1>   0.0800 
 33 H       -8.1510    -2.9270     0.7630 H     1 <1>   0.0800 
 34 H       -8.2060    -5.4620     0.8520 H     1 <1>   0.0800 
 35 H       -7.9800    -5.4780    -0.8840 H     1 <1>   0.0800 
 36 H      -10.4430    -5.1870     0.4780 H     1 <1>   0.3700 
 37 H      -12.3600    -5.1130    -1.5780 H     1 <1>   0.0800 
 38 H      -12.2590    -3.5040    -2.2160 H     1 <1>   0.0800 
 39 H      -12.7360    -3.3060     2.7640 H     1 <1>   0.0800 
 40 H      -13.9330    -4.4950     3.2020 H     1 <1>   0.0800 
 41 H      -14.3800    -3.1370     2.2090 H     1 <1>   0.0800 
 42 H      -15.0520    -3.2390    -1.0740 H     1 <1>   0.1500 
 43 H      -12.9150     0.9470     0.3400 H     1 <1>   0.1500 
 44 H      -10.9360    -2.0900     1.0470 H     1 <1>   0.0800 
 45 H      -11.2320    -0.4630     1.5570 H     1 <1>   0.0800 
 46 H      -16.2680    -1.1180    -1.2620 H     1 <1>   0.1500 
 47 H      -15.1940     0.9790    -0.5480 H     1 <1>   0.1500 
 48 H      -10.2750    -1.2550    -1.2090 H     1 <1>   0.0800 
 49 H       -9.2740    -0.5860     0.0570 H     1 <1>   0.0800 
 50 H      -10.5370     0.3820    -0.6640 H     1 <1>   0.0800 
@<TRIPOS>BOND
  1   1   2  1   
  2   2   3  ar  
  3   2   4  ar  
  4   3   5  ar  
  5   3  28  1   
  6   4   6  ar  
  7   4  29  1   
  8   5   7  ar  
  9   5  30  1   
 10   6   7  ar  
 11   6  31  1   
 12   7   8  1   
 13   8   9  1   
 14   9  10  1   
 15   9  32  1   
 16   9  33  1   
 17  10  11  1   
 18  10  34  1   
 19  10  35  1   
 20  11  12  am  
 21  11  36  1   
 22  12  13  2   
 23  12  14  1   
 24  14  15  1   
 25  14  37  1   
 26  14  38  1   
 27  15  16  am  
 28  15  17  1   
 29  16  18  2   
 30  16  19  2   
 31  16  20  1   
 32  17  21  ar  
 33  17  22  ar  
 34  20  39  1   
 35  20  40  1   
 36  20  41  1   
 37  21  23  ar  
 38  21  24  1   
 39  22  25  ar  
 40  22  42  1   
 41  23  26  ar  
 42  23  43  1   
 43  24  27  1   
 44  24  44  1   
 45  24  45  1   
 46  25  26  ar  
 47  25  46  1   
 48  26  47  1   
 49  27  48  1   
 50  27  49  1   
 51  27  50  1   
@<TRIPOS>SUBSTRUCTURE
  1 ****  27 GROUP 4 **** **** 0

# MOE 2024.06 (io_trps.svl 2023.06)
