@<TRIPOS>MOLECULE
NONAME
36 36 1 0 0 
SMALL
USER_CHARGES


@<TRIPOS>ATOM
  1 CL      -2.1060     0.7660     1.5660 Cl    1 <1>  -0.1770 
  2 C       -1.0100     1.9540     0.8980 C.ar  1 <1>   0.1770 
  3 C       -1.3320     2.5860    -0.2980 C.ar  1 <1>  -0.1440 
  4 C        0.1500     2.2470     1.5870 C.ar  1 <1>  -0.1500 
  5 C       -0.4570     3.5370    -0.8110 C.ar  1 <1>  -0.1500 
  6 C       -2.6110     2.2300    -1.0310 C.3   1 <1>   0.4870 
  7 C        1.0010     3.1980     1.0600 C.ar  1 <1>   0.1770 
  8 C        0.7110     3.8430    -0.1280 C.ar  1 <1>  -0.1500 
  9 N       -3.7820     2.6730    -0.2080 N.4   1 <1>  -0.9590 
 10 CL       2.4700     3.5930     1.9100 Cl    1 <1>  -0.1770 
 11 C       -5.0410     1.9580    -0.6290 C.3   1 <1>   0.3430 
 12 C       -3.8860     4.1730    -0.2220 C.3   1 <1>   0.2630 
 13 C       -6.2250     2.1110     0.3730 C.3   1 <1>   0.3430 
 14 N       -7.4620     1.3220     0.0140 N.4   1 <1>  -0.9590 
 15 C       -8.5950     1.6920     0.9300 C.3   1 <1>   0.2630 
 16 C       -7.2640    -0.1680     0.0770 C.3   1 <1>   0.2630 
 17 H        0.3910     1.7520     2.5110 H     1 <1>   0.1500 
 18 H       -0.6610     4.0450    -1.7400 H     1 <1>   0.1500 
 19 H       -2.6370     1.1600    -1.1720 H     1 <1>   0.0800 
 20 H       -2.6290     2.7010    -2.0010 H     1 <1>   0.0800 
 21 H        1.4000     4.5770    -0.5120 H     1 <1>   0.1500 
 22 H       -3.5220     2.3810     0.7520 H     1 <1>   0.4500 
 23 H       -4.8210     0.9070    -0.7250 H     1 <1>   0.0800 
 24 H       -5.3490     2.3250    -1.5950 H     1 <1>   0.0800 
 25 H       -4.1040     4.5290    -1.2170 H     1 <1>   0.0800 
 26 H       -2.9560     4.6160     0.0990 H     1 <1>   0.0800 
 27 H       -4.6630     4.5110     0.4440 H     1 <1>   0.0800 
 28 H       -6.4870     3.1550     0.4280 H     1 <1>   0.0800 
 29 H       -5.8920     1.8020     1.3500 H     1 <1>   0.0800 
 30 H       -7.7770     1.5620    -0.9430 H     1 <1>   0.4500 
 31 H       -8.3520     1.4480     1.9520 H     1 <1>   0.0800 
 32 H       -9.4900     1.1550     0.6560 H     1 <1>   0.0800 
 33 H       -8.8040     2.7490     0.8680 H     1 <1>   0.0800 
 34 H       -6.9630    -0.4680     1.0690 H     1 <1>   0.0800 
 35 H       -6.5110    -0.4860    -0.6250 H     1 <1>   0.0800 
 36 H       -8.1840    -0.6770    -0.1650 H     1 <1>   0.0800 
@<TRIPOS>BOND
  1   1   2  1   
  2   2   3  ar  
  3   2   4  ar  
  4   3   5  ar  
  5   3   6  1   
  6   4   7  ar  
  7   4  17  1   
  8   5   8  ar  
  9   5  18  1   
 10   6   9  1   
 11   6  19  1   
 12   6  20  1   
 13   7   8  ar  
 14   7  10  1   
 15   8  21  1   
 16   9  11  1   
 17   9  12  1   
 18   9  22  1   
 19  11  13  1   
 20  11  23  1   
 21  11  24  1   
 22  12  25  1   
 23  12  26  1   
 24  12  27  1   
 25  13  14  1   
 26  13  28  1   
 27  13  29  1   
 28  14  15  1   
 29  14  16  1   
 30  14  30  1   
 31  15  31  1   
 32  15  32  1   
 33  15  33  1   
 34  16  34  1   
 35  16  35  1   
 36  16  36  1   
@<TRIPOS>SUBSTRUCTURE
  1 ****   9 GROUP 4 **** **** 0

# MOE 2024.06 (io_trps.svl 2023.06)
