@<TRIPOS>MOLECULE
NONAME
41 43 1 0 0 
SMALL
USER_CHARGES


@<TRIPOS>ATOM
  1 O       -0.2330     0.3420    -0.8100 O.3   1 <1>  -0.0190 
  2 N       -1.4360    -0.1030    -0.6240 N.2   1 <1>  -0.4100 
  3 C       -0.3530     1.6400    -0.7100 C.2   1 <1>   0.2980 
  4 C       -2.2060     0.9090    -0.4230 C.2   1 <1>   0.4620 
  5 N       -1.5290     2.0610    -0.4800 N.2   1 <1>  -0.5650 
  6 C        0.8940     2.4970    -0.8990 C.3   1 <1>   0.2900 
  7 C       -3.6370     0.8470    -0.1690 C.ar  1 <1>   0.0540 
  8 N        1.9840     2.1200     0.0240 N.3   1 <1>  -0.9000 
  9 C       -4.3930     1.9970     0.0700 C.ar  1 <1>  -0.1500 
 10 C       -4.3160    -0.3730    -0.1550 C.ar  1 <1>  -0.1500 
 11 C        3.2610     2.7430    -0.2930 C.3   1 <1>   0.1900 
 12 C       -5.7560     1.9420     0.3100 C.ar  1 <1>  -0.1430 
 13 C       -5.6770    -0.4410     0.0820 C.ar  1 <1>  -0.1500 
 14 C        4.3510     1.9750     0.4600 C.3   1 <1>  -0.1600 
 15 C        3.2470     4.2190     0.1260 C.3   1 <1>  -0.1600 
 16 C       -6.3970     0.7160     0.3140 C.ar  1 <1>  -0.1500 
 17 C       -6.5470     3.2120     0.5650 C.3   1 <1>  -0.0970 
 18 C        5.7320     2.6180     0.2620 C.3   1 <1>  -0.1600 
 19 C        4.6240     4.8710    -0.0660 C.3   1 <1>  -0.1600 
 20 C        5.7170     4.0940     0.6790 C.3   1 <1>  -0.1600 
 21 H        0.6270     3.5260    -0.7370 H     1 <1>   0.0800 
 22 H        1.2250     2.3870    -1.9160 H     1 <1>   0.0800 
 23 H        2.1050     1.1010    -0.0340 H     1 <1>   0.3600 
 24 H       -3.8980     2.9520     0.0660 H     1 <1>   0.1500 
 25 H       -3.7700    -1.2830    -0.3330 H     1 <1>   0.1500 
 26 H        3.4570     2.6680    -1.3510 H     1 <1>   0.0800 
 27 H       -6.1760    -1.3940     0.0860 H     1 <1>   0.1500 
 28 H        4.3840     0.9580     0.1130 H     1 <1>   0.0800 
 29 H        4.1170     1.9690     1.5110 H     1 <1>   0.0800 
 30 H        2.9670     4.2870     1.1630 H     1 <1>   0.0800 
 31 H        2.5260     4.7640    -0.4550 H     1 <1>   0.0800 
 32 H       -7.4560     0.6580     0.4960 H     1 <1>   0.1500 
 33 H       -5.8960     4.0140     0.8610 H     1 <1>   0.0800 
 34 H       -7.2660     3.0510     1.3480 H     1 <1>   0.0800 
 35 H       -7.0670     3.5020    -0.3310 H     1 <1>   0.0800 
 36 H        6.0170     2.5430    -0.7740 H     1 <1>   0.0800 
 37 H        6.4630     2.0870     0.8450 H     1 <1>   0.0800 
 38 H        4.5960     5.8850     0.2940 H     1 <1>   0.0800 
 39 H        4.8620     4.9010    -1.1160 H     1 <1>   0.0800 
 40 H        6.6770     4.5370     0.4770 H     1 <1>   0.0800 
 41 H        5.5390     4.1610     1.7390 H     1 <1>   0.0800 
@<TRIPOS>BOND
  1   1   2  1   
  2   1   3  1   
  3   2   4  2   
  4   3   5  2   
  5   3   6  1   
  6   4   5  1   
  7   4   7  1   
  8   6   8  1   
  9   6  21  1   
 10   6  22  1   
 11   7   9  ar  
 12   7  10  ar  
 13   8  11  1   
 14   8  23  1   
 15   9  12  ar  
 16   9  24  1   
 17  10  13  ar  
 18  10  25  1   
 19  11  14  1   
 20  11  15  1   
 21  11  26  1   
 22  12  16  ar  
 23  12  17  1   
 24  13  16  ar  
 25  13  27  1   
 26  14  18  1   
 27  14  28  1   
 28  14  29  1   
 29  15  19  1   
 30  15  30  1   
 31  15  31  1   
 32  16  32  1   
 33  17  33  1   
 34  17  34  1   
 35  17  35  1   
 36  18  20  1   
 37  18  36  1   
 38  18  37  1   
 39  19  20  1   
 40  19  38  1   
 41  19  39  1   
 42  20  40  1   
 43  20  41  1   
@<TRIPOS>SUBSTRUCTURE
  1 ****   3 GROUP 4 **** **** 0

# MOE 2024.06 (io_trps.svl 2023.06)
