@<TRIPOS>MOLECULE
NONAME
48 49 1 0 0 
SMALL
USER_CHARGES


@<TRIPOS>ATOM
  1 CL      -0.0390    -0.6460     0.4170 Cl    1 <1>  -0.1770 
  2 C        1.6220    -1.1640     0.1950 C.ar  1 <1>   0.1770 
  3 C        2.6230    -0.2060     0.0920 C.ar  1 <1>  -0.1440 
  4 C        1.9030    -2.5220     0.1280 C.ar  1 <1>  -0.1440 
  5 C        3.9330    -0.6230    -0.0830 C.ar  1 <1>  -0.1500 
  6 C        2.2940     1.2790     0.1680 C.3   1 <1>  -0.0960 
  7 C        3.2190    -2.9180    -0.0470 C.ar  1 <1>  -0.1500 
  8 C        0.8000    -3.5640     0.2430 C.3   1 <1>  -0.0960 
  9 C        4.2350    -1.9810    -0.1540 C.ar  1 <1>   0.0830 
 10 O        5.4900    -2.4680    -0.3240 O.3   1 <1>  -0.3630 
 11 C        6.5980    -1.6090    -0.4950 C.3   1 <1>   0.1200 
 12 C        7.8530    -2.4730    -0.6770 C.3   1 <1>   0.2000 
 13 O        7.9190    -3.4060     0.3600 O.3   1 <1>  -0.6800 
 14 C        9.1560    -1.6490    -0.6770 C.3   1 <1>   0.3430 
 15 N       10.2990    -2.5320    -0.3130 N.4   1 <1>  -0.9060 
 16 C       11.4640    -1.8950     0.3010 C.3   1 <1>   0.5660 
 17 C       12.5920    -2.9080     0.2330 C.ar  1 <1>  -0.1430 
 18 C       11.1360    -1.4860     1.7340 C.3   1 <1>  -0.2400 
 19 C       13.7080    -2.6220    -0.5430 C.ar  1 <1>  -0.1500 
 20 C       12.5350    -4.1200     0.9130 C.ar  1 <1>  -0.1500 
 21 C       14.7460    -3.5310    -0.6420 C.ar  1 <1>  -0.1500 
 22 C       13.5740    -5.0280     0.8120 C.ar  1 <1>  -0.1500 
 23 C       14.6790    -4.7350     0.0350 C.ar  1 <1>  -0.1500 
 24 H        4.7010     0.1210    -0.1620 H     1 <1>   0.1500 
 25 H        1.8300     1.5030     1.1130 H     1 <1>   0.0800 
 26 H        1.6140     1.5450    -0.6220 H     1 <1>   0.0800 
 27 H        3.1790     1.8810     0.0730 H     1 <1>   0.0800 
 28 H        3.4680    -3.9620    -0.1040 H     1 <1>   0.1500 
 29 H        0.0800    -3.4240    -0.5440 H     1 <1>   0.0800 
 30 H        0.3000    -3.4660     1.1900 H     1 <1>   0.0800 
 31 H        1.1970    -4.5600     0.1680 H     1 <1>   0.0800 
 32 H        6.6840    -0.9890     0.3810 H     1 <1>   0.0800 
 33 H        6.4230    -0.9990    -1.3640 H     1 <1>   0.0800 
 34 H        7.7690    -3.0180    -1.6030 H     1 <1>   0.0800 
 35 H        7.0140    -3.7740     0.5040 H     1 <1>   0.4000 
 36 H        9.0560    -0.8660     0.0560 H     1 <1>   0.0800 
 37 H        9.3130    -1.1890    -1.6400 H     1 <1>   0.0800 
 38 H       10.6230    -3.0970    -1.1050 H     1 <1>   0.4500 
 39 H        9.9040    -3.2140     0.3570 H     1 <1>   0.4500 
 40 H       11.7470    -1.0240    -0.2670 H     1 <1>   0.0800 
 41 H       10.7720    -2.3180     2.3090 H     1 <1>   0.0800 
 42 H       10.4100    -0.6940     1.7530 H     1 <1>   0.0800 
 43 H       12.0300    -1.1210     2.2080 H     1 <1>   0.0800 
 44 H       13.7890    -1.6910    -1.0790 H     1 <1>   0.1500 
 45 H       11.6930    -4.3790     1.5310 H     1 <1>   0.1500 
 46 H       15.6100    -3.3050    -1.2440 H     1 <1>   0.1500 
 47 H       13.5290    -5.9660     1.3410 H     1 <1>   0.1500 
 48 H       15.4880    -5.4420    -0.0420 H     1 <1>   0.1500 
@<TRIPOS>BOND
  1   1   2  1   
  2   2   3  ar  
  3   2   4  ar  
  4   3   5  ar  
  5   3   6  1   
  6   4   7  ar  
  7   4   8  1   
  8   5   9  ar  
  9   5  24  1   
 10   6  25  1   
 11   6  26  1   
 12   6  27  1   
 13   7   9  ar  
 14   7  28  1   
 15   8  29  1   
 16   8  30  1   
 17   8  31  1   
 18   9  10  1   
 19  10  11  1   
 20  11  12  1   
 21  11  32  1   
 22  11  33  1   
 23  12  13  1   
 24  12  14  1   
 25  12  34  1   
 26  13  35  1   
 27  14  15  1   
 28  14  36  1   
 29  14  37  1   
 30  15  16  1   
 31  15  38  1   
 32  15  39  1   
 33  16  17  1   
 34  16  18  1   
 35  16  40  1   
 36  17  19  ar  
 37  17  20  ar  
 38  18  41  1   
 39  18  42  1   
 40  18  43  1   
 41  19  21  ar  
 42  19  44  1   
 43  20  22  ar  
 44  20  45  1   
 45  21  23  ar  
 46  21  46  1   
 47  22  23  ar  
 48  22  47  1   
 49  23  48  1   
@<TRIPOS>SUBSTRUCTURE
  1 ****  12 GROUP 4 **** **** 0

# MOE 2024.06 (io_trps.svl 2023.06)
