@<TRIPOS>MOLECULE
NONAME
27 27 1 0 0 
SMALL
USER_CHARGES


@<TRIPOS>ATOM
  1 S        0.1000    -0.3110     0.1280 S.o2  1 <1>   1.4470 
  2 O        0.2990    -1.0430     1.3580 O.2   1 <1>  -0.6500 
  3 O        0.3090    -0.9590    -1.1480 O.2   1 <1>  -0.6500 
  4 N       -1.5450     0.0320     0.2180 N.am  1 <1>  -0.9140 
  5 C        0.8960     1.3190     0.1590 C.ar  1 <1>  -0.0090 
  6 C       -2.3890    -1.0070    -0.3660 C.3   1 <1>   0.1160 
  7 C        2.2560     1.4230     0.4340 C.ar  1 <1>   0.0830 
  8 C        0.1890     2.4880    -0.1100 C.ar  1 <1>  -0.1500 
  9 O        2.9350     0.2710     0.6640 O.3   1 <1>  -0.3630 
 10 C        2.8770     2.6700     0.4600 C.ar  1 <1>  -0.1500 
 11 C        0.8000     3.7300    -0.0880 C.ar  1 <1>  -0.1430 
 12 C        4.3130     0.2510     0.9640 C.3   1 <1>   0.0400 
 13 C        2.1490     3.8160     0.2030 C.ar  1 <1>  -0.1500 
 14 C       -0.0030     4.9850    -0.3800 C.3   1 <1>  -0.0970 
 15 H       -1.7070     0.0230     1.2240 H     1 <1>   0.4200 
 16 H       -2.1570    -1.9660     0.0680 H     1 <1>   0.0800 
 17 H       -2.2270    -1.0590    -1.4310 H     1 <1>   0.0800 
 18 H       -3.4260    -0.7800    -0.1870 H     1 <1>   0.0800 
 19 H       -0.8600     2.4290    -0.3430 H     1 <1>   0.1500 
 20 H        3.9230     2.7700     0.6770 H     1 <1>   0.1500 
 21 H        4.6060    -0.7740     1.1080 H     1 <1>   0.0800 
 22 H        4.4820     0.8090     1.8680 H     1 <1>   0.0800 
 23 H        4.8570     0.6740     0.1380 H     1 <1>   0.0800 
 24 H        2.6370     4.7750     0.2270 H     1 <1>   0.1500 
 25 H       -0.8050     4.7690    -1.0640 H     1 <1>   0.0800 
 26 H        0.6230     5.7390    -0.8220 H     1 <1>   0.0800 
 27 H       -0.4200     5.3720     0.5330 H     1 <1>   0.0800 
@<TRIPOS>BOND
  1   1   2  2   
  2   1   3  2   
  3   1   4  am  
  4   1   5  1   
  5   4   6  1   
  6   4  15  1   
  7   5   7  ar  
  8   5   8  ar  
  9   6  16  1   
 10   6  17  1   
 11   6  18  1   
 12   7   9  1   
 13   7  10  ar  
 14   8  11  ar  
 15   8  19  1   
 16   9  12  1   
 17  10  13  ar  
 18  10  20  1   
 19  11  13  ar  
 20  11  14  1   
 21  12  21  1   
 22  12  22  1   
 23  12  23  1   
 24  13  24  1   
 25  14  25  1   
 26  14  26  1   
 27  14  27  1   
@<TRIPOS>SUBSTRUCTURE
  1 ****   5 GROUP 4 **** **** 0

# MOE 2024.06 (io_trps.svl 2023.06)
