@<TRIPOS>MOLECULE
NONAME
49 51 1 0 0 
SMALL
USER_CHARGES


@<TRIPOS>ATOM
  1 F        0.5090     0.3960    -1.0960 F     1 <1>  -0.1900 
  2 C        1.6130     1.0560    -0.8550 C.ar  1 <1>   0.1900 
  3 C        2.4160     0.6520     0.1950 C.ar  1 <1>  -0.1500 
  4 C        1.9360     2.1320    -1.6590 C.ar  1 <1>  -0.1500 
  5 C        3.5820     1.3540     0.4450 C.ar  1 <1>  -0.1500 
  6 C        3.1050     2.8250    -1.3970 C.ar  1 <1>  -0.1500 
  7 C        3.9370     2.4450    -0.3480 C.ar  1 <1>   0.1000 
  8 N        5.1040     3.1620    -0.1120 N.pl3 1 <1>  -0.8380 
  9 C        6.3810     2.4670    -0.4270 C.3   1 <1>   0.2090 
 10 C        5.1360     3.9850     1.1270 C.3   1 <1>   0.2090 
 11 C        7.5390     3.4860    -0.4870 C.3   1 <1>   0.3430 
 12 C        6.3010     4.9970     1.0640 C.3   1 <1>   0.3430 
 13 N        7.6430     4.3480     0.7640 N.4   1 <1>  -0.9590 
 14 C        8.7580     5.3460     0.7700 C.3   1 <1>   0.4230 
 15 C        8.7120     6.2950    -0.4350 C.3   1 <1>  -0.1600 
 16 C       10.1120     4.6360     0.8310 C.3   1 <1>  -0.1600 
 17 C        9.8660     7.2980    -0.3750 C.3   1 <1>   0.3430 
 18 C       11.2550     5.6530     0.8790 C.3   1 <1>   0.3430 
 19 N       11.1700     6.5780    -0.2920 N.4   1 <1>  -0.9590 
 20 C       12.2880     7.5680    -0.2840 C.3   1 <1>   0.3430 
 21 C       13.5950     6.8730    -0.6460 C.3   1 <1>  -0.2400 
 22 H        2.1280    -0.1910     0.7970 H     1 <1>   0.1500 
 23 H        1.2860     2.4160    -2.4670 H     1 <1>   0.1500 
 24 H        4.2170     1.0540     1.2570 H     1 <1>   0.1500 
 25 H        3.3810     3.6660    -2.0060 H     1 <1>   0.1500 
 26 H        6.2880     1.9720    -1.3800 H     1 <1>   0.0800 
 27 H        6.5820     1.7160     0.3170 H     1 <1>   0.0800 
 28 H        5.2420     3.3470     1.9880 H     1 <1>   0.0800 
 29 H        4.2040     4.5160     1.2230 H     1 <1>   0.0800 
 30 H        7.3700     4.1130    -1.3460 H     1 <1>   0.0800 
 31 H        8.4580     2.9480    -0.6460 H     1 <1>   0.0800 
 32 H        6.3470     5.5260     2.0010 H     1 <1>   0.0800 
 33 H        6.0640     5.7110     0.2940 H     1 <1>   0.0800 
 34 H        7.8020     3.6910     1.5400 H     1 <1>   0.4500 
 35 H        8.6640     5.9430     1.6650 H     1 <1>   0.0800 
 36 H        7.7920     6.8510    -0.4360 H     1 <1>   0.0800 
 37 H        8.7810     5.7570    -1.3630 H     1 <1>   0.0800 
 38 H       10.2590     3.9980    -0.0220 H     1 <1>   0.0800 
 39 H       10.1650     4.0310     1.7190 H     1 <1>   0.0800 
 40 H        9.7490     7.9370     0.4870 H     1 <1>   0.0800 
 41 H        9.8470     7.9220    -1.2550 H     1 <1>   0.0800 
 42 H       12.1980     5.1290     0.8690 H     1 <1>   0.0800 
 43 H       11.2020     6.2210     1.7950 H     1 <1>   0.0800 
 44 H       11.2970     6.0290    -1.1560 H     1 <1>   0.4500 
 45 H       12.3720     8.0370     0.6840 H     1 <1>   0.0800 
 46 H       12.0970     8.3400    -1.0140 H     1 <1>   0.0800 
 47 H       13.8920     6.1630     0.1040 H     1 <1>   0.0800 
 48 H       14.3750     7.6120    -0.7130 H     1 <1>   0.0800 
 49 H       13.5240     6.3870    -1.6030 H     1 <1>   0.0800 
@<TRIPOS>BOND
  1   1   2  1   
  2   2   3  ar  
  3   2   4  ar  
  4   3   5  ar  
  5   3  22  1   
  6   4   6  ar  
  7   4  23  1   
  8   5   7  ar  
  9   5  24  1   
 10   6   7  ar  
 11   6  25  1   
 12   7   8  1   
 13   8   9  1   
 14   8  10  1   
 15   9  11  1   
 16   9  26  1   
 17   9  27  1   
 18  10  12  1   
 19  10  28  1   
 20  10  29  1   
 21  11  13  1   
 22  11  30  1   
 23  11  31  1   
 24  12  13  1   
 25  12  32  1   
 26  12  33  1   
 27  13  14  1   
 28  13  34  1   
 29  14  15  1   
 30  14  16  1   
 31  14  35  1   
 32  15  17  1   
 33  15  36  1   
 34  15  37  1   
 35  16  18  1   
 36  16  38  1   
 37  16  39  1   
 38  17  19  1   
 39  17  40  1   
 40  17  41  1   
 41  18  19  1   
 42  18  42  1   
 43  18  43  1   
 44  19  20  1   
 45  19  44  1   
 46  20  21  1   
 47  20  45  1   
 48  20  46  1   
 49  21  47  1   
 50  21  48  1   
 51  21  49  1   
@<TRIPOS>SUBSTRUCTURE
  1 ****  11 GROUP 4 **** **** 0

# MOE 2024.06 (io_trps.svl 2023.06)
