@<TRIPOS>MOLECULE
NONAME
41 42 1 0 0 
SMALL
USER_CHARGES


@<TRIPOS>ATOM
  1 CL       1.9860     1.7110    -3.2180 Cl    1 <1>  -0.1770 
  2 C        2.6980     1.9900    -1.6440 C.ar  1 <1>   0.1770 
  3 C        2.3490     3.1070    -0.8960 C.ar  1 <1>   0.0820 
  4 C        3.6120     1.0610    -1.1810 C.ar  1 <1>  -0.1500 
  5 O        1.4340     3.9780    -1.3890 O.3   1 <1>  -0.3630 
  6 C        2.9610     3.2960     0.3510 C.ar  1 <1>   0.0830 
  7 C        4.2060     1.2410     0.0600 C.ar  1 <1>  -0.1440 
  8 C        0.0850     3.6760    -1.1070 C.3   1 <1>   0.0400 
  9 O        2.7450     4.3500     1.1810 O.3   1 <1>  -0.3630 
 10 C        3.8670     2.3550     0.8160 C.ar  1 <1>  -0.1500 
 11 C        5.2210     0.2520     0.5840 C.3   1 <1>   0.4860 
 12 C        2.5080     5.6410     0.6630 C.3   1 <1>   0.1200 
 13 N        6.5470     0.7700     0.1930 N.4   1 <1>  -0.9060 
 14 C        2.8630     6.6550     1.7450 C.3   1 <1>  -0.2400 
 15 C        7.6900    -0.0340     0.6700 C.3   1 <1>   0.4860 
 16 C        8.9400     0.6300     0.1490 C.ar  1 <1>  -0.1430 
 17 C        9.6180     1.5480     0.9380 C.ar  1 <1>   0.1600 
 18 C        9.4270     0.3450    -1.1140 C.ar  1 <1>  -0.1500 
 19 N       10.7020     2.2010     0.5660 N.ar  1 <1>  -0.6200 
 20 C       10.5650     1.0150    -1.5090 C.ar  1 <1>  -0.1500 
 21 C       11.1560     1.9210    -0.6450 C.ar  1 <1>   0.1600 
 22 H        3.8370     0.2130    -1.8030 H     1 <1>   0.1500 
 23 H       -0.5280     4.4510    -1.5290 H     1 <1>   0.0800 
 24 H       -0.0480     3.6390    -0.0400 H     1 <1>   0.0800 
 25 H       -0.1640     2.7290    -1.5510 H     1 <1>   0.0800 
 26 H        4.2990     2.5240     1.7880 H     1 <1>   0.1500 
 27 H        5.0490    -0.7220     0.1530 H     1 <1>   0.0800 
 28 H        5.1420     0.1800     1.6580 H     1 <1>   0.0800 
 29 H        1.4680     5.7190     0.4010 H     1 <1>   0.0800 
 30 H        3.1200     5.7830    -0.2110 H     1 <1>   0.0800 
 31 H        6.6380     1.7350     0.5340 H     1 <1>   0.4500 
 32 H        6.5910     0.8490    -0.8290 H     1 <1>   0.4500 
 33 H        2.2510     6.4980     2.6150 H     1 <1>   0.0800 
 34 H        2.6870     7.6510     1.3790 H     1 <1>   0.0800 
 35 H        3.9000     6.5670     2.0120 H     1 <1>   0.0800 
 36 H        7.6290    -1.0430     0.2920 H     1 <1>   0.0800 
 37 H        7.7100    -0.0660     1.7480 H     1 <1>   0.0800 
 38 H        9.2600     1.7700     1.9300 H     1 <1>   0.1500 
 39 H        8.9600    -0.3650    -1.7760 H     1 <1>   0.1500 
 40 H       11.0010     0.8400    -2.4770 H     1 <1>   0.1500 
 41 H       12.0450     2.4410    -0.9640 H     1 <1>   0.1500 
@<TRIPOS>BOND
  1   1   2  1   
  2   2   3  ar  
  3   2   4  ar  
  4   3   5  1   
  5   3   6  ar  
  6   4   7  ar  
  7   4  22  1   
  8   5   8  1   
  9   6   9  1   
 10   6  10  ar  
 11   7  10  ar  
 12   7  11  1   
 13   8  23  1   
 14   8  24  1   
 15   8  25  1   
 16   9  12  1   
 17  10  26  1   
 18  11  13  1   
 19  11  27  1   
 20  11  28  1   
 21  12  14  1   
 22  12  29  1   
 23  12  30  1   
 24  13  15  1   
 25  13  31  1   
 26  13  32  1   
 27  14  33  1   
 28  14  34  1   
 29  14  35  1   
 30  15  16  1   
 31  15  36  1   
 32  15  37  1   
 33  16  17  ar  
 34  16  18  ar  
 35  17  19  ar  
 36  17  38  1   
 37  18  20  ar  
 38  18  39  1   
 39  19  21  ar  
 40  20  21  ar  
 41  20  40  1   
 42  21  41  1   
@<TRIPOS>SUBSTRUCTURE
  1 ****   7 GROUP 4 **** **** 0

# MOE 2024.06 (io_trps.svl 2023.06)
