@<TRIPOS>MOLECULE
NONAME
46 48 1 0 0 
SMALL
USER_CHARGES


@<TRIPOS>ATOM
  1 O       -7.0380    -2.1400     0.3730 O.3   1 <1>  -0.3630 
  2 C       -8.0130    -1.2040     0.4970 C.ar  1 <1>   0.0830 
  3 C       -7.3470    -3.2940    -0.4010 C.3   1 <1>   0.2000 
  4 C       -9.3330    -1.4890     0.1410 C.ar  1 <1>   0.0830 
  5 C       -7.6830     0.0510     0.9800 C.ar  1 <1>  -0.1500 
  6 C       -8.7700    -3.7730    -0.0760 C.3   1 <1>   0.1200 
  7 C       -6.2860    -4.3730    -0.1430 C.3   1 <1>   0.1200 
  8 O       -9.6920    -2.7230    -0.2960 O.3   1 <1>  -0.3630 
  9 C      -10.3020    -0.5060     0.2380 C.ar  1 <1>  -0.1500 
 10 C       -8.6580     1.0300     1.0820 C.ar  1 <1>  -0.1500 
 11 O       -5.0230    -3.8200    -0.3650 O.3   1 <1>  -0.5600 
 12 C       -9.9630     0.7530     0.7070 C.ar  1 <1>  -0.1500 
 13 C       -3.9380    -4.6510    -0.1110 C.3   1 <1>   0.1200 
 14 C       -2.6740    -3.7850    -0.1880 C.3   1 <1>   0.2000 
 15 O       -1.5620    -4.5420     0.1610 O.3   1 <1>  -0.6800 
 16 C       -2.7460    -2.5430     0.7300 C.3   1 <1>   0.3430 
 17 N       -2.8660    -1.2430    -0.0120 N.4   1 <1>  -0.9590 
 18 C       -2.6200    -0.0550     0.8690 C.3   1 <1>   0.3430 
 19 C       -4.1890    -1.0940    -0.7170 C.3   1 <1>   0.3430 
 20 C       -2.7990     1.2770     0.1020 C.3   1 <1>   0.1200 
 21 C       -4.3450     0.2940    -1.3760 C.3   1 <1>   0.1200 
 22 O       -3.1790     1.0590    -1.2300 O.3   1 <1>  -0.5600 
 23 H       -7.3100    -3.0100    -1.4380 H     1 <1>   0.0800 
 24 H       -6.6740     0.2620     1.2770 H     1 <1>   0.1500 
 25 H       -8.8460    -4.0740     0.9540 H     1 <1>   0.0800 
 26 H       -9.0540    -4.5960    -0.7080 H     1 <1>   0.0800 
 27 H       -6.4240    -5.2040    -0.8130 H     1 <1>   0.0800 
 28 H       -6.3480    -4.7150     0.8770 H     1 <1>   0.0800 
 29 H      -11.3130    -0.7310    -0.0490 H     1 <1>   0.1500 
 30 H       -8.4080     2.0080     1.4550 H     1 <1>   0.1500 
 31 H      -10.7190     1.5160     0.7840 H     1 <1>   0.1500 
 32 H       -3.9170    -5.4270    -0.8580 H     1 <1>   0.0800 
 33 H       -4.0520    -5.0750     0.8720 H     1 <1>   0.0800 
 34 H       -2.5170    -3.4770    -1.2070 H     1 <1>   0.0800 
 35 H       -1.7320    -5.1360     0.9210 H     1 <1>   0.4000 
 36 H       -1.8490    -2.5220     1.3260 H     1 <1>   0.0800 
 37 H       -3.5890    -2.6490     1.3930 H     1 <1>   0.0800 
 38 H       -2.1490    -1.1940    -0.7520 H     1 <1>   0.4500 
 39 H       -1.6210    -0.0960     1.2720 H     1 <1>   0.0800 
 40 H       -3.3050    -0.0700     1.7000 H     1 <1>   0.0800 
 41 H       -4.9920    -1.2380    -0.0160 H     1 <1>   0.0800 
 42 H       -4.2920    -1.8550    -1.4740 H     1 <1>   0.0800 
 43 H       -1.8720     1.8240     0.0910 H     1 <1>   0.0800 
 44 H       -3.5450     1.8910     0.5770 H     1 <1>   0.0800 
 45 H       -5.1700     0.8300    -0.9400 H     1 <1>   0.0800 
 46 H       -4.5380     0.1830    -2.4290 H     1 <1>   0.0800 
@<TRIPOS>BOND
  1   1   2  1   
  2   1   3  1   
  3   2   4  ar  
  4   2   5  ar  
  5   3   6  1   
  6   3   7  1   
  7   3  23  1   
  8   4   8  1   
  9   4   9  ar  
 10   5  10  ar  
 11   5  24  1   
 12   6   8  1   
 13   6  25  1   
 14   6  26  1   
 15   7  11  1   
 16   7  27  1   
 17   7  28  1   
 18   9  12  ar  
 19   9  29  1   
 20  10  12  ar  
 21  10  30  1   
 22  11  13  1   
 23  12  31  1   
 24  13  14  1   
 25  13  32  1   
 26  13  33  1   
 27  14  15  1   
 28  14  16  1   
 29  14  34  1   
 30  15  35  1   
 31  16  17  1   
 32  16  36  1   
 33  16  37  1   
 34  17  18  1   
 35  17  19  1   
 36  17  38  1   
 37  18  20  1   
 38  18  39  1   
 39  18  40  1   
 40  19  21  1   
 41  19  41  1   
 42  19  42  1   
 43  20  22  1   
 44  20  43  1   
 45  20  44  1   
 46  21  22  1   
 47  21  45  1   
 48  21  46  1   
@<TRIPOS>SUBSTRUCTURE
  1 ****   1 GROUP 4 **** **** 0

# MOE 2024.06 (io_trps.svl 2023.06)
