@<TRIPOS>MOLECULE
NONAME
40 42 1 0 0 
SMALL
USER_CHARGES


@<TRIPOS>ATOM
  1 S       -0.0140     0.0940    -1.2880 S.o2  1 <1>   1.3330 
  2 O       -1.1760    -0.7600    -1.3600 O.2   1 <1>  -0.6500 
  3 O        0.8360     0.2480    -2.4470 O.2   1 <1>  -0.6500 
  4 N       -0.5200     1.6980    -0.8090 N.am  1 <1>  -0.5140 
  5 C        0.9850    -0.4160     0.0940 C.3   1 <1>  -0.1350 
  6 N       -1.5430     2.0720     0.0260 N.2   1 <1>  -0.4300 
  7 C        0.2280     2.8400    -1.3230 C.3   1 <1>   0.4190 
  8 C       -1.6530     3.3440     0.0250 C.2   1 <1>   0.4740 
  9 C        1.6210     2.8770    -0.6960 C.ar  1 <1>  -0.1440 
 10 C       -0.6460     4.0120    -0.8870 C.3   1 <1>  -0.0990 
 11 C       -2.5820     4.1560     0.7630 C.2   1 <1>   0.0550 
 12 C        2.7410     2.7770    -1.5080 C.ar  1 <1>  -0.1500 
 13 C        1.7980     2.9880     0.6780 C.ar  1 <1>  -0.1500 
 14 O       -3.4520     3.5990     1.6020 O.3   1 <1>  -0.2800 
 15 C       -2.7720     5.5070     0.7840 C.2   1 <1>  -0.1500 
 16 C        4.0110     2.7970    -0.9600 C.ar  1 <1>  -0.1500 
 17 C        3.0690     3.0090     1.2240 C.ar  1 <1>  -0.1500 
 18 C       -4.1830     4.5490     2.1490 C.2   1 <1>  -0.0100 
 19 C       -3.8100     5.7580     1.6830 C.2   1 <1>  -0.1500 
 20 C        4.1840     2.9160     0.4080 C.ar  1 <1>  -0.1440 
 21 C        5.5800     2.9370     1.0080 C.3   1 <1>  -0.0170 
 22 C        6.0350     1.5180     1.3570 C.3   1 <1>  -0.2400 
 23 H        1.8370     0.2270     0.1970 H     1 <1>   0.0800 
 24 H        1.3280    -1.4200    -0.0530 H     1 <1>   0.0800 
 25 H        0.4080    -0.3750     0.9970 H     1 <1>   0.0800 
 26 H        0.2830     2.7860    -2.3980 H     1 <1>   0.0800 
 27 H       -1.1450     4.4400    -1.7360 H     1 <1>   0.0800 
 28 H       -0.0800     4.7680    -0.3750 H     1 <1>   0.0800 
 29 H        2.6320     2.6710    -2.5740 H     1 <1>   0.1500 
 30 H        0.9470     3.0480     1.3350 H     1 <1>   0.1500 
 31 H       -2.2460     6.2650     0.2310 H     1 <1>   0.1500 
 32 H        4.8680     2.7160    -1.6070 H     1 <1>   0.1500 
 33 H        3.1880     3.0950     2.2900 H     1 <1>   0.1500 
 34 H       -4.9450     4.2740     2.8580 H     1 <1>   0.1500 
 35 H       -4.2100     6.7250     1.9330 H     1 <1>   0.1500 
 36 H        5.5860     3.5460     1.8950 H     1 <1>   0.0800 
 37 H        6.2700     3.3750     0.3080 H     1 <1>   0.0800 
 38 H        5.3620     1.0780     2.0710 H     1 <1>   0.0800 
 39 H        7.0240     1.5390     1.7800 H     1 <1>   0.0800 
 40 H        6.0490     0.9060     0.4730 H     1 <1>   0.0800 
@<TRIPOS>BOND
  1   1   2  2   
  2   1   3  2   
  3   1   4  am  
  4   1   5  1   
  5   4   6  1   
  6   4   7  1   
  7   5  23  1   
  8   5  24  1   
  9   5  25  1   
 10   6   8  2   
 11   7   9  1   
 12   7  10  1   
 13   7  26  1   
 14   8  10  1   
 15   8  11  1   
 16   9  12  ar  
 17   9  13  ar  
 18  10  27  1   
 19  10  28  1   
 20  11  14  1   
 21  11  15  2   
 22  12  16  ar  
 23  12  29  1   
 24  13  17  ar  
 25  13  30  1   
 26  14  18  1   
 27  15  19  1   
 28  15  31  1   
 29  16  20  ar  
 30  16  32  1   
 31  17  20  ar  
 32  17  33  1   
 33  18  19  2   
 34  18  34  1   
 35  19  35  1   
 36  20  21  1   
 37  21  22  1   
 38  21  36  1   
 39  21  37  1   
 40  22  38  1   
 41  22  39  1   
 42  22  40  1   
@<TRIPOS>SUBSTRUCTURE
  1 ****   7 GROUP 4 **** **** 0

# MOE 2024.06 (io_trps.svl 2023.06)
