@<TRIPOS>MOLECULE
NONAME
38 38 1 0 0 
SMALL
USER_CHARGES


@<TRIPOS>ATOM
  1 CL       0.0540     0.6260     0.6660 Cl    1 <1>  -0.1770 
  2 C       -1.5840     1.1800     0.3770 C.ar  1 <1>   0.1770 
  3 C       -2.6160     0.2650     0.2050 C.ar  1 <1>   0.0830 
  4 C       -1.8080     2.5420     0.3260 C.ar  1 <1>  -0.1500 
  5 O       -2.3190    -1.0640     0.2700 O.3   1 <1>  -0.3630 
  6 C       -3.9010     0.7480    -0.0240 C.ar  1 <1>  -0.1500 
  7 C       -3.0950     3.0150     0.1010 C.ar  1 <1>   0.0830 
  8 C       -3.3360    -2.0410     0.2150 C.3   1 <1>   0.0400 
  9 C       -4.1550     2.1150    -0.0710 C.ar  1 <1>   0.1170 
 10 O       -3.3910     4.3510     0.0340 O.3   1 <1>  -0.3630 
 11 N       -5.4370     2.6440    -0.2960 N.am  1 <1>  -0.5470 
 12 C       -2.4020     5.3270     0.2820 C.3   1 <1>   0.0400 
 13 C       -6.7030     2.1390    -0.2270 C.2   1 <1>   0.6900 
 14 O       -6.8940     0.9800     0.0910 O.2   1 <1>  -0.5700 
 15 N       -7.7620     2.9740    -0.5120 N.am  1 <1>  -0.6600 
 16 C       -9.1610     2.4590    -0.4770 C.3   1 <1>   0.1400 
 17 C       -7.5930     4.3360    -1.0910 C.3   1 <1>   0.1400 
 18 C       -9.8900     2.9990     0.7500 C.3   1 <1>  -0.2400 
 19 C       -7.2870     5.3510     0.0110 C.3   1 <1>  -0.2400 
 20 H       -0.9690     3.1950     0.4630 H     1 <1>   0.1500 
 21 H       -4.7150     0.0690    -0.1740 H     1 <1>   0.1500 
 22 H       -2.8790    -3.0060     0.3360 H     1 <1>   0.0800 
 23 H       -3.8240    -1.9850    -0.7430 H     1 <1>   0.0800 
 24 H       -4.0360    -1.8640     1.0130 H     1 <1>   0.0800 
 25 H       -5.4270     3.6560    -0.3890 H     1 <1>   0.3700 
 26 H       -2.8630     6.2960     0.2100 H     1 <1>   0.0800 
 27 H       -1.6270     5.2370    -0.4590 H     1 <1>   0.0800 
 28 H       -2.0080     5.1830     1.2730 H     1 <1>   0.0800 
 29 H       -9.1630     1.3820    -0.4400 H     1 <1>   0.0800 
 30 H       -9.6790     2.7480    -1.3750 H     1 <1>   0.0800 
 31 H       -8.4930     4.6270    -1.6060 H     1 <1>   0.0800 
 32 H       -6.7970     4.3240    -1.8160 H     1 <1>   0.0800 
 33 H       -9.3390     2.7530     1.6410 H     1 <1>   0.0800 
 34 H      -10.8630     2.5500     0.8160 H     1 <1>   0.0800 
 35 H      -10.0130     4.0630     0.6820 H     1 <1>   0.0800 
 36 H       -8.0930     5.3930     0.7200 H     1 <1>   0.0800 
 37 H       -7.1700     6.3280    -0.4230 H     1 <1>   0.0800 
 38 H       -6.3790     5.1030     0.5300 H     1 <1>   0.0800 
@<TRIPOS>BOND
  1   1   2  1   
  2   2   3  ar  
  3   2   4  ar  
  4   3   5  1   
  5   3   6  ar  
  6   4   7  ar  
  7   4  20  1   
  8   5   8  1   
  9   6   9  ar  
 10   6  21  1   
 11   7   9  ar  
 12   7  10  1   
 13   8  22  1   
 14   8  23  1   
 15   8  24  1   
 16   9  11  1   
 17  10  12  1   
 18  11  13  am  
 19  11  25  1   
 20  12  26  1   
 21  12  27  1   
 22  12  28  1   
 23  13  14  2   
 24  13  15  am  
 25  15  16  1   
 26  15  17  1   
 27  16  18  1   
 28  16  29  1   
 29  16  30  1   
 30  17  19  1   
 31  17  31  1   
 32  17  32  1   
 33  18  33  1   
 34  18  34  1   
 35  18  35  1   
 36  19  36  1   
 37  19  37  1   
 38  19  38  1   
@<TRIPOS>SUBSTRUCTURE
  1 ****   9 GROUP 4 **** **** 0

# MOE 2024.06 (io_trps.svl 2023.06)
