@<TRIPOS>MOLECULE
NONAME
40 41 1 0 0 
SMALL
USER_CHARGES


@<TRIPOS>ATOM
  1 S       -0.3050     0.0100    -0.2610 S.o2  1 <1>   1.3330 
  2 O       -0.6300     1.3680     0.1170 O.2   1 <1>  -0.6500 
  3 O        0.0860    -0.2800    -1.6230 O.2   1 <1>  -0.6500 
  4 N       -1.6440    -0.9650     0.0930 N.am  1 <1>  -0.8490 
  5 C        0.9430    -0.6110     0.8760 C.3   1 <1>  -0.0550 
  6 C       -2.9160    -0.2190    -0.0060 C.3   1 <1>   0.1960 
  7 C       -1.6620    -2.2260    -0.6480 C.3   1 <1>   0.1960 
  8 C        2.3040     0.1000     0.7780 C.3   1 <1>  -0.2400 
  9 C       -4.1560    -1.1270    -0.1460 C.3   1 <1>  -0.0190 
 10 C       -2.6890    -3.1880    -0.0270 C.3   1 <1>  -0.1600 
 11 C       -5.3950    -0.4110     0.3740 C.2   1 <1>   0.5690 
 12 C       -3.9290    -2.4800     0.5520 C.3   1 <1>  -0.1600 
 13 O       -5.4200    -0.0510     1.5250 O.2   1 <1>  -0.5700 
 14 N       -6.4360    -0.2200    -0.4960 N.am  1 <1>  -0.5470 
 15 C       -7.6640     0.4370    -0.3170 C.ar  1 <1>   0.1170 
 16 C       -8.7380     0.0710    -1.1250 C.ar  1 <1>  -0.1500 
 17 C       -7.8430     1.4520     0.6240 C.ar  1 <1>  -0.1500 
 18 C       -9.9680     0.6960    -1.0010 C.ar  1 <1>  -0.1500 
 19 C       -9.0660     2.0850     0.7610 C.ar  1 <1>  -0.1500 
 20 C      -10.1080     1.6940    -0.0560 C.ar  1 <1>   0.1900 
 21 F      -11.2660     2.2880     0.0670 F     1 <1>  -0.1900 
 22 H        1.0900    -1.6570     0.6930 H     1 <1>   0.0800 
 23 H        0.5730    -0.5070     1.8780 H     1 <1>   0.0800 
 24 H       -2.8850     0.4490    -0.8520 H     1 <1>   0.0800 
 25 H       -3.0070     0.3890     0.8800 H     1 <1>   0.0800 
 26 H       -0.6880    -2.6870    -0.6270 H     1 <1>   0.0800 
 27 H       -1.9100    -2.0280    -1.6790 H     1 <1>   0.0800 
 28 H        2.7090    -0.0100    -0.2130 H     1 <1>   0.0800 
 29 H        2.9960    -0.3210     1.4860 H     1 <1>   0.0800 
 30 H        2.1880     1.1490     0.9880 H     1 <1>   0.0800 
 31 H       -4.2970    -1.3170    -1.1930 H     1 <1>   0.0800 
 32 H       -2.2130    -3.7520     0.7560 H     1 <1>   0.0800 
 33 H       -2.9910    -3.8890    -0.7840 H     1 <1>   0.0800 
 34 H       -4.7970    -3.1100     0.4580 H     1 <1>   0.0800 
 35 H       -3.7680    -2.2960     1.6020 H     1 <1>   0.0800 
 36 H       -6.3260    -0.6590    -1.4070 H     1 <1>   0.3700 
 37 H       -8.6180    -0.7090    -1.8540 H     1 <1>   0.1500 
 38 H       -7.0260     1.7550     1.2530 H     1 <1>   0.1500 
 39 H      -10.8030     0.4190    -1.6180 H     1 <1>   0.1500 
 40 H       -9.2090     2.8660     1.4860 H     1 <1>   0.1500 
@<TRIPOS>BOND
  1   1   2  2   
  2   1   3  2   
  3   1   4  am  
  4   1   5  1   
  5   4   6  1   
  6   4   7  1   
  7   5   8  1   
  8   5  22  1   
  9   5  23  1   
 10   6   9  1   
 11   6  24  1   
 12   6  25  1   
 13   7  10  1   
 14   7  26  1   
 15   7  27  1   
 16   8  28  1   
 17   8  29  1   
 18   8  30  1   
 19   9  11  1   
 20   9  12  1   
 21   9  31  1   
 22  10  12  1   
 23  10  32  1   
 24  10  33  1   
 25  11  13  2   
 26  11  14  am  
 27  12  34  1   
 28  12  35  1   
 29  14  15  1   
 30  14  36  1   
 31  15  16  ar  
 32  15  17  ar  
 33  16  18  ar  
 34  16  37  1   
 35  17  19  ar  
 36  17  38  1   
 37  18  20  ar  
 38  18  39  1   
 39  19  20  ar  
 40  19  40  1   
 41  20  21  1   
@<TRIPOS>SUBSTRUCTURE
  1 ****  11 GROUP 4 **** **** 0

# MOE 2024.06 (io_trps.svl 2023.06)
