@<TRIPOS>MOLECULE
NONAME
35 36 1 0 0 
SMALL
USER_CHARGES


@<TRIPOS>ATOM
  1 CL      -1.9930    -1.6650     0.8270 Cl    1 <1>  -0.1230 
  2 C       -0.3390    -2.2270     0.6360 C.2   1 <1>   0.1230 
  3 C        0.6850    -1.5270     0.0190 C.2   1 <1>   0.1080 
  4 C        0.1800    -3.3960     1.0520 C.2   1 <1>  -0.3320 
  5 N        1.7890    -2.2040     0.0410 N.2   1 <1>  -0.7070 
  6 C        0.5750    -0.1530    -0.6050 C.3   1 <1>  -0.0590 
  7 N        1.4990    -3.3910     0.6840 N.pl3 1 <1>   0.5840 
  8 C       -0.5050    -4.5390     1.7910 C.3   1 <1>  -0.0600 
  9 S        2.6820    -4.7020     1.0020 S.o2  1 <1>   1.2950 
 10 O        2.2230    -5.9250     0.3660 O.2   1 <1>  -0.6500 
 11 O        2.9670    -4.7530     2.4250 O.2   1 <1>  -0.6500 
 12 C        4.1660    -4.1210     0.1370 C.ar  1 <1>  -0.0090 
 13 C        4.4410    -4.5200    -1.1670 C.ar  1 <1>  -0.1500 
 14 C        5.0550    -3.2420     0.7470 C.ar  1 <1>  -0.1500 
 15 C        5.5610    -4.0570    -1.8360 C.ar  1 <1>  -0.1500 
 16 C        6.1770    -2.7740     0.0870 C.ar  1 <1>  -0.1500 
 17 C        6.4360    -3.1820    -1.2180 C.ar  1 <1>   0.0830 
 18 O        7.5060    -2.7730    -1.9410 O.3   1 <1>  -0.3630 
 19 C        8.4390    -1.8560    -1.4200 C.3   1 <1>   0.1200 
 20 C        9.4940    -1.5960    -2.4910 C.3   1 <1>  -0.2400 
 21 H       -0.4110     0.0000    -1.0030 H     1 <1>   0.0800 
 22 H        1.2910    -0.0570    -1.4010 H     1 <1>   0.0800 
 23 H        0.7770     0.5980     0.1370 H     1 <1>   0.0800 
 24 H       -0.4660    -5.4430     1.2070 H     1 <1>   0.0800 
 25 H       -0.0250    -4.7170     2.7380 H     1 <1>   0.0800 
 26 H       -1.5380    -4.3020     1.9760 H     1 <1>   0.0800 
 27 H        3.7740    -5.2010    -1.6700 H     1 <1>   0.1500 
 28 H        4.8670    -2.9170     1.7570 H     1 <1>   0.1500 
 29 H        5.7640    -4.3720    -2.8440 H     1 <1>   0.1500 
 30 H        6.8330    -2.0970     0.6000 H     1 <1>   0.1500 
 31 H        8.8870    -2.2870    -0.5420 H     1 <1>   0.0800 
 32 H        7.9190    -0.9470    -1.1690 H     1 <1>   0.0800 
 33 H        9.9940    -2.5120    -2.7470 H     1 <1>   0.0800 
 34 H       10.2230    -0.8970    -2.1230 H     1 <1>   0.0800 
 35 H        9.0340    -1.1800    -3.3700 H     1 <1>   0.0800 
@<TRIPOS>BOND
  1   1   2  1   
  2   2   3  1   
  3   2   4  2   
  4   3   5  2   
  5   3   6  1   
  6   4   7  1   
  7   4   8  1   
  8   5   7  1   
  9   6  21  1   
 10   6  22  1   
 11   6  23  1   
 12   7   9  1   
 13   8  24  1   
 14   8  25  1   
 15   8  26  1   
 16   9  10  2   
 17   9  11  2   
 18   9  12  1   
 19  12  13  ar  
 20  12  14  ar  
 21  13  15  ar  
 22  13  27  1   
 23  14  16  ar  
 24  14  28  1   
 25  15  17  ar  
 26  15  29  1   
 27  16  17  ar  
 28  16  30  1   
 29  17  18  1   
 30  18  19  1   
 31  19  20  1   
 32  19  31  1   
 33  19  32  1   
 34  20  33  1   
 35  20  34  1   
 36  20  35  1   
@<TRIPOS>SUBSTRUCTURE
  1 ****  12 GROUP 4 **** **** 0

# MOE 2024.06 (io_trps.svl 2023.06)
