@<TRIPOS>MOLECULE
NONAME
47 49 1 0 0 
SMALL
USER_CHARGES


@<TRIPOS>ATOM
  1 S       -0.0180     0.2020     2.2540 S.o2  1 <1>   1.4470 
  2 O        0.6560    -0.8490     2.9880 O.2   1 <1>  -0.6500 
  3 O       -0.7190     1.2340     2.9860 O.2   1 <1>  -0.6500 
  4 N        1.1750     0.9700     1.3240 N.am  1 <1>  -0.8490 
  5 C       -1.1270    -0.5120     1.0060 C.ar  1 <1>  -0.0090 
  6 C        2.0320     0.0050     0.6280 C.3   1 <1>   0.1960 
  7 C        1.9570     1.9060     2.1350 C.3   1 <1>   0.1960 
  8 C       -1.6070     0.2580    -0.0460 C.ar  1 <1>  -0.1500 
  9 C       -1.5250    -1.8420     1.0700 C.ar  1 <1>  -0.1500 
 10 C        2.9940     0.7340    -0.3120 C.3   1 <1>  -0.1600 
 11 C        2.9300     2.6920     1.2520 C.3   1 <1>  -0.1600 
 12 C       -2.4480    -0.2790    -1.0050 C.ar  1 <1>  -0.1500 
 13 C       -2.3660    -2.3860     0.1150 C.ar  1 <1>  -0.1500 
 14 C        3.8530     1.7550     0.4550 C.3   1 <1>  -0.0190 
 15 C       -2.8300    -1.6070    -0.9300 C.ar  1 <1>  -0.1440 
 16 C        4.7800     2.5390    -0.4730 C.2   1 <1>   0.5690 
 17 C       -3.7540    -2.2000    -1.9790 C.3   1 <1>  -0.0970 
 18 O        4.3120     3.0990    -1.4320 O.2   1 <1>  -0.5700 
 19 N        6.1110     2.5740    -0.1550 N.am  1 <1>  -0.5470 
 20 C        7.2230     3.1890    -0.7700 C.ar  1 <1>   0.1170 
 21 C        8.4590     3.1710    -0.1170 C.ar  1 <1>   0.1900 
 22 C        7.1720     3.8220    -2.0140 C.ar  1 <1>  -0.1500 
 23 F        8.5440     2.5800     1.0510 F     1 <1>  -0.1900 
 24 C        9.6050     3.7420    -0.6340 C.ar  1 <1>  -0.1500 
 25 C        8.3030     4.4060    -2.5640 C.ar  1 <1>  -0.1500 
 26 C        9.4960     4.3560    -1.8650 C.ar  1 <1>   0.1900 
 27 F       10.5590     4.9090    -2.3880 F     1 <1>  -0.1900 
 28 H        1.4250    -0.6690     0.0480 H     1 <1>   0.0800 
 29 H        2.5900    -0.5770     1.3450 H     1 <1>   0.0800 
 30 H        2.4950     1.3670     2.8980 H     1 <1>   0.0800 
 31 H        1.2970     2.6060     2.6210 H     1 <1>   0.0800 
 32 H       -1.3170     1.2940    -0.1130 H     1 <1>   0.1500 
 33 H       -1.1730    -2.4610     1.8790 H     1 <1>   0.1500 
 34 H        2.4200     1.2350    -1.0730 H     1 <1>   0.0800 
 35 H        3.6300     0.0170    -0.8000 H     1 <1>   0.0800 
 36 H        3.5190     3.3480     1.8670 H     1 <1>   0.0800 
 37 H        2.3610     3.3050     0.5730 H     1 <1>   0.0800 
 38 H       -2.8040     0.3430    -1.8080 H     1 <1>   0.1500 
 39 H       -2.6580    -3.4190     0.1910 H     1 <1>   0.1500 
 40 H        4.4570     1.2100     1.1580 H     1 <1>   0.0800 
 41 H       -3.5990    -1.7220    -2.9300 H     1 <1>   0.0800 
 42 H       -4.7780    -2.0590    -1.6830 H     1 <1>   0.0800 
 43 H       -3.5670    -3.2520    -2.0950 H     1 <1>   0.0800 
 44 H        6.3590     2.0950     0.7110 H     1 <1>   0.3700 
 45 H        6.2520     3.8640    -2.5680 H     1 <1>   0.1500 
 46 H       10.5390     3.7110    -0.1050 H     1 <1>   0.1500 
 47 H        8.2630     4.8950    -3.5210 H     1 <1>   0.1500 
@<TRIPOS>BOND
  1   1   2  2   
  2   1   3  2   
  3   1   4  am  
  4   1   5  1   
  5   4   6  1   
  6   4   7  1   
  7   5   8  ar  
  8   5   9  ar  
  9   6  10  1   
 10   6  28  1   
 11   6  29  1   
 12   7  11  1   
 13   7  30  1   
 14   7  31  1   
 15   8  12  ar  
 16   8  32  1   
 17   9  13  ar  
 18   9  33  1   
 19  10  14  1   
 20  10  34  1   
 21  10  35  1   
 22  11  14  1   
 23  11  36  1   
 24  11  37  1   
 25  12  15  ar  
 26  12  38  1   
 27  13  15  ar  
 28  13  39  1   
 29  14  16  1   
 30  14  40  1   
 31  15  17  1   
 32  16  18  2   
 33  16  19  am  
 34  17  41  1   
 35  17  42  1   
 36  17  43  1   
 37  19  20  1   
 38  19  44  1   
 39  20  21  ar  
 40  20  22  ar  
 41  21  23  1   
 42  21  24  ar  
 43  22  25  ar  
 44  22  45  1   
 45  24  26  ar  
 46  24  46  1   
 47  25  26  ar  
 48  25  47  1   
 49  26  27  1   
@<TRIPOS>SUBSTRUCTURE
  1 ****  10 GROUP 4 **** **** 0

# MOE 2024.06 (io_trps.svl 2023.06)
