@<TRIPOS>MOLECULE
NONAME
33 33 1 0 0 
SMALL
USER_CHARGES


@<TRIPOS>ATOM
  1 S       -0.2560    -0.0240     0.3290 S.o2  1 <1>   1.4470 
  2 O       -0.6000     0.5240     1.6210 O.2   1 <1>  -0.6500 
  3 O       -0.7670    -1.3120    -0.0800 O.2   1 <1>  -0.6500 
  4 N       -0.7730     1.0170    -0.8850 N.am  1 <1>  -0.9140 
  5 C        1.5470     0.0160     0.1310 C.ar  1 <1>  -0.0090 
  6 C       -2.0410     1.7130    -0.7460 C.3   1 <1>   0.2760 
  7 C        2.2650    -1.1260    -0.2140 C.ar  1 <1>  -0.1500 
  8 C        2.2540     1.2000     0.3160 C.ar  1 <1>  -0.1500 
  9 C       -1.9180     2.9050     0.2180 C.3   1 <1>  -0.1600 
 10 C       -3.1820     0.7540    -0.3990 C.3   1 <1>  -0.2400 
 11 C        3.6400    -1.0880    -0.3710 C.ar  1 <1>  -0.1500 
 12 C        3.6300     1.2530     0.1640 C.ar  1 <1>  -0.1500 
 13 C       -3.0540     3.9260     0.0530 C.3   1 <1>  -0.2400 
 14 C        4.3160     0.1010    -0.1810 C.ar  1 <1>   0.1010 
 15 S        6.1030     0.0750    -0.4020 S.3   1 <1>  -0.3310 
 16 C        6.7070     1.7890    -0.0710 C.3   1 <1>  -0.0100 
 17 H       -0.8840     0.3880    -1.6760 H     1 <1>   0.4200 
 18 H       -2.2610     2.1280    -1.7170 H     1 <1>   0.0800 
 19 H        1.7430    -2.0570    -0.3620 H     1 <1>   0.1500 
 20 H        1.7140     2.0930     0.5850 H     1 <1>   0.1500 
 21 H       -0.9850     3.4070     0.0300 H     1 <1>   0.0800 
 22 H       -1.9160     2.5650     1.2370 H     1 <1>   0.0800 
 23 H       -3.1050     0.4090     0.6160 H     1 <1>   0.0800 
 24 H       -3.1820    -0.0910    -1.0640 H     1 <1>   0.0800 
 25 H       -4.1250     1.2560    -0.5030 H     1 <1>   0.0800 
 26 H        4.1880    -1.9750    -0.6370 H     1 <1>   0.1500 
 27 H        4.1410     2.1840     0.3160 H     1 <1>   0.1500 
 28 H       -3.0910     4.2930    -0.9570 H     1 <1>   0.0800 
 29 H       -2.8900     4.7600     0.7120 H     1 <1>   0.0800 
 30 H       -4.0040     3.4850     0.3010 H     1 <1>   0.0800 
 31 H        7.7750     1.7850    -0.1960 H     1 <1>   0.0800 
 32 H        6.4420     2.0450     0.9390 H     1 <1>   0.0800 
 33 H        6.2420     2.4480    -0.7810 H     1 <1>   0.0800 
@<TRIPOS>BOND
  1   1   2  2   
  2   1   3  2   
  3   1   4  am  
  4   1   5  1   
  5   4   6  1   
  6   4  17  1   
  7   5   7  ar  
  8   5   8  ar  
  9   6   9  1   
 10   6  10  1   
 11   6  18  1   
 12   7  11  ar  
 13   7  19  1   
 14   8  12  ar  
 15   8  20  1   
 16   9  13  1   
 17   9  21  1   
 18   9  22  1   
 19  10  23  1   
 20  10  24  1   
 21  10  25  1   
 22  11  14  ar  
 23  11  26  1   
 24  12  14  ar  
 25  12  27  1   
 26  13  28  1   
 27  13  29  1   
 28  13  30  1   
 29  14  15  1   
 30  15  16  1   
 31  16  31  1   
 32  16  32  1   
 33  16  33  1   
@<TRIPOS>SUBSTRUCTURE
  1 ****   5 GROUP 4 **** **** 0

# MOE 2024.06 (io_trps.svl 2023.06)
