@<TRIPOS>MOLECULE
NONAME
46 47 1 0 0 
SMALL
USER_CHARGES


@<TRIPOS>ATOM
  1 O       -0.4630     1.1100    -1.8280 O.2   1 <1>  -0.5700 
  2 C       -0.0560     1.3910    -0.7180 C.2   1 <1>   0.5440 
  3 N       -0.8920     1.2020     0.3470 N.am  1 <1>  -0.7300 
  4 C        1.2870     1.9040    -0.5210 C.ar  1 <1>   0.0860 
  5 C       -2.2320     0.5850     0.2660 C.3   1 <1>   0.2200 
  6 C        2.3220     1.5530    -1.3850 C.ar  1 <1>  -0.1500 
  7 C        1.6050     2.7610     0.5320 C.ar  1 <1>  -0.1500 
  8 C       -3.2610     1.6760    -0.0660 C.3   1 <1>  -0.0160 
  9 C       -2.5350    -0.1340     1.5920 C.3   1 <1>  -0.1600 
 10 C        3.6180     2.0080    -1.2160 C.ar  1 <1>   0.0820 
 11 C        2.8900     3.2380     0.7170 C.ar  1 <1>  -0.1500 
 12 C       -4.6580     1.1030    -0.2620 C.ar  1 <1>  -0.1440 
 13 C       -1.5140    -1.2290     1.9400 C.3   1 <1>  -0.2400 
 14 O        4.5070     1.5500    -2.1420 O.3   1 <1>  -0.3630 
 15 C        3.9160     2.8760    -0.1520 C.ar  1 <1>   0.0820 
 16 C       -5.6370     1.2690     0.7060 C.ar  1 <1>  -0.1500 
 17 C       -4.9600     0.4040    -1.4210 C.ar  1 <1>  -0.1500 
 18 C        5.8660     1.3450    -1.8220 C.3   1 <1>   0.0400 
 19 O        5.1780     3.3630     0.0030 O.3   1 <1>  -0.3630 
 20 C       -6.9020     0.7380     0.5200 C.ar  1 <1>  -0.1500 
 21 C       -6.2240    -0.1270    -1.6080 C.ar  1 <1>  -0.1500 
 22 C        5.5030     4.3540     0.9530 C.3   1 <1>   0.0400 
 23 C       -7.1960     0.0390    -0.6370 C.ar  1 <1>  -0.1500 
 24 H       -0.5200     1.2800     1.2920 H     1 <1>   0.3700 
 25 H       -2.2320    -0.1410    -0.5310 H     1 <1>   0.0800 
 26 H        2.1090     0.9010    -2.2140 H     1 <1>   0.1500 
 27 H        0.8320     3.0700     1.2130 H     1 <1>   0.1500 
 28 H       -2.9660     2.1660    -0.9770 H     1 <1>   0.0800 
 29 H       -3.2730     2.4120     0.7160 H     1 <1>   0.0800 
 30 H       -3.5030    -0.5980     1.5150 H     1 <1>   0.0800 
 31 H       -2.5880     0.5840     2.3910 H     1 <1>   0.0800 
 32 H        3.0690     3.8960     1.5450 H     1 <1>   0.1500 
 33 H       -1.4470    -1.9430     1.1380 H     1 <1>   0.0800 
 34 H       -1.8220    -1.7470     2.8310 H     1 <1>   0.0800 
 35 H       -0.5370    -0.8130     2.1110 H     1 <1>   0.0800 
 36 H       -5.4200     1.8100     1.6100 H     1 <1>   0.1500 
 37 H       -4.2090     0.2720    -2.1820 H     1 <1>   0.1500 
 38 H        6.3780     2.2890    -1.8620 H     1 <1>   0.0800 
 39 H        5.9350     0.9130    -0.8390 H     1 <1>   0.0800 
 40 H        6.2830     0.6750    -2.5510 H     1 <1>   0.0800 
 41 H       -7.6570     0.8690     1.2750 H     1 <1>   0.1500 
 42 H       -6.4510    -0.6690    -2.5100 H     1 <1>   0.1500 
 43 H        6.5410     4.6060     0.8300 H     1 <1>   0.0800 
 44 H        4.8930     5.2220     0.7740 H     1 <1>   0.0800 
 45 H        5.3380     3.9600     1.9400 H     1 <1>   0.0800 
 46 H       -8.1790    -0.3730    -0.7830 H     1 <1>   0.1500 
@<TRIPOS>BOND
  1   1   2  2   
  2   2   3  am  
  3   2   4  1   
  4   3   5  1   
  5   3  24  1   
  6   4   6  ar  
  7   4   7  ar  
  8   5   8  1   
  9   5   9  1   
 10   5  25  1   
 11   6  10  ar  
 12   6  26  1   
 13   7  11  ar  
 14   7  27  1   
 15   8  12  1   
 16   8  28  1   
 17   8  29  1   
 18   9  13  1   
 19   9  30  1   
 20   9  31  1   
 21  10  14  1   
 22  10  15  ar  
 23  11  15  ar  
 24  11  32  1   
 25  12  16  ar  
 26  12  17  ar  
 27  13  33  1   
 28  13  34  1   
 29  13  35  1   
 30  14  18  1   
 31  15  19  1   
 32  16  20  ar  
 33  16  36  1   
 34  17  21  ar  
 35  17  37  1   
 36  18  38  1   
 37  18  39  1   
 38  18  40  1   
 39  19  22  1   
 40  20  23  ar  
 41  20  41  1   
 42  21  23  ar  
 43  21  42  1   
 44  22  43  1   
 45  22  44  1   
 46  22  45  1   
 47  23  46  1   
@<TRIPOS>SUBSTRUCTURE
  1 ****   2 GROUP 4 **** **** 0

# MOE 2024.06 (io_trps.svl 2023.06)
