@<TRIPOS>MOLECULE
NONAME
29 30 1 0 0 
SMALL
USER_CHARGES


@<TRIPOS>ATOM
  1 BR       0.1880     0.8870    -2.1650 Br    1 <1>  -0.1110 
  2 C        1.6560     1.3890    -1.0230 C.ar  1 <1>   0.1110 
  3 C        1.7490     2.6720    -0.4930 C.ar  1 <1>  -0.1790 
  4 C        2.6110     0.4190    -0.7920 C.ar  1 <1>  -0.1500 
  5 C        0.7800     3.7210    -0.7270 C.2   1 <1>   0.9790 
  6 C        2.8730     2.9360     0.2900 C.ar  1 <1>  -0.1500 
  7 C        3.7160     0.7280    -0.0170 C.ar  1 <1>  -0.1500 
  8 O       -0.4360     3.5330    -0.5680 O.co2 1 <1>  -0.9000 
  9 O        1.1850     4.8560    -1.0350 O.co2 1 <1>  -0.9000 
 10 C        3.8670     1.9960     0.5340 C.ar  1 <1>  -0.0090 
 11 S        5.3440     2.4350     1.4930 S.o2  1 <1>   1.4470 
 12 O        5.0380     3.4400     2.4890 O.2   1 <1>  -0.6500 
 13 O        6.0320     1.2310     1.9110 O.2   1 <1>  -0.6500 
 14 N        6.3460     3.1800     0.3470 N.am  1 <1>  -0.8490 
 15 C        5.8360     4.4410    -0.1740 C.3   1 <1>   0.1960 
 16 C        7.6650     3.4780     0.8670 C.3   1 <1>   0.1960 
 17 C        7.0490     5.1050    -0.8150 C.3   1 <1>  -0.1600 
 18 C        8.2580     4.4630    -0.1340 C.3   1 <1>  -0.1600 
 19 H        2.4930    -0.5600    -1.2200 H     1 <1>   0.1500 
 20 H        2.9640     3.9260     0.7100 H     1 <1>   0.1500 
 21 H        4.4720    -0.0190     0.1580 H     1 <1>   0.1500 
 22 H        5.4710     5.0600     0.6300 H     1 <1>   0.0800 
 23 H        5.0460     4.2800    -0.8890 H     1 <1>   0.0800 
 24 H        8.2570     2.5810     0.9540 H     1 <1>   0.0800 
 25 H        7.5810     3.9470     1.8350 H     1 <1>   0.0800 
 26 H        7.0180     6.1700    -0.6710 H     1 <1>   0.0800 
 27 H        7.0580     4.8930    -1.8700 H     1 <1>   0.0800 
 28 H        8.8520     3.9290    -0.8550 H     1 <1>   0.0800 
 29 H        8.8770     5.1880     0.3640 H     1 <1>   0.0800 
@<TRIPOS>BOND
  1   1   2  1   
  2   2   3  ar  
  3   2   4  ar  
  4   3   5  1   
  5   3   6  ar  
  6   4   7  ar  
  7   4  19  1   
  8   5   8  ar  
  9   5   9  ar  
 10   6  10  ar  
 11   6  20  1   
 12   7  10  ar  
 13   7  21  1   
 14  10  11  1   
 15  11  12  2   
 16  11  13  2   
 17  11  14  am  
 18  14  15  1   
 19  14  16  1   
 20  15  17  1   
 21  15  22  1   
 22  15  23  1   
 23  16  18  1   
 24  16  24  1   
 25  16  25  1   
 26  17  18  1   
 27  17  26  1   
 28  17  27  1   
 29  18  28  1   
 30  18  29  1   
@<TRIPOS>SUBSTRUCTURE
  1 ****  10 GROUP 4 **** **** 0

# MOE 2024.06 (io_trps.svl 2023.06)
