@<TRIPOS>MOLECULE
NONAME
36 38 1 0 0 
SMALL
USER_CHARGES


@<TRIPOS>ATOM
  1 S       -0.4700    -0.2070    -0.1370 S.3   1 <1>  -0.0800 
  2 C       -1.3920     1.2800    -0.0590 C.ar  1 <1>   0.0400 
  3 C        1.0170     0.7320    -0.0420 C.2   1 <1>   0.1980 
  4 C       -0.4990     2.3300     0.0310 C.ar  1 <1>   0.2270 
  5 C       -2.7630     1.4420    -0.0790 C.ar  1 <1>  -0.1500 
  6 N        0.8510     1.9880     0.0370 N.2   1 <1>  -0.5650 
  7 C        2.3150    -0.0400    -0.0640 C.3   1 <1>  -0.0600 
  8 C       -1.0150     3.6150     0.1040 C.ar  1 <1>  -0.1500 
  9 C       -3.2810     2.7300    -0.0030 C.ar  1 <1>   0.1170 
 10 C       -2.3870     3.8060     0.0840 C.ar  1 <1>  -0.1500 
 11 N       -4.6720     2.8890    -0.0370 N.am  1 <1>  -0.5470 
 12 C       -5.4970     3.9030     0.3660 C.2   1 <1>   0.6900 
 13 O       -5.0490     4.9210     0.8580 O.2   1 <1>  -0.5700 
 14 N       -6.8530     3.7550     0.2040 N.am  1 <1>  -0.6600 
 15 C       -7.5140     2.4450    -0.0820 C.3   1 <1>   0.1400 
 16 C       -7.7470     4.9360     0.4090 C.3   1 <1>   0.1400 
 17 C       -8.9320     2.4100     0.4970 C.3   1 <1>  -0.1600 
 18 C       -9.0240     4.7950    -0.4260 C.3   1 <1>  -0.1600 
 19 C       -9.8230     3.5290    -0.0690 C.3   1 <1>  -0.1600 
 20 H       -3.4050     0.5840    -0.1470 H     1 <1>   0.1500 
 21 H        2.3520    -0.7150     0.7710 H     1 <1>   0.0800 
 22 H        3.1430     0.6420    -0.0010 H     1 <1>   0.0800 
 23 H        2.3910    -0.6000    -0.9780 H     1 <1>   0.0800 
 24 H       -0.3370     4.4460     0.1730 H     1 <1>   0.1500 
 25 H       -2.7670     4.8100     0.1340 H     1 <1>   0.1500 
 26 H       -5.1880     2.1070    -0.4190 H     1 <1>   0.3700 
 27 H       -6.9440     1.6430     0.3550 H     1 <1>   0.0800 
 28 H       -7.5570     2.3000    -1.1480 H     1 <1>   0.0800 
 29 H       -7.2300     5.8370     0.1230 H     1 <1>   0.0800 
 30 H       -7.9950     5.0100     1.4540 H     1 <1>   0.0800 
 31 H       -8.8610     2.5140     1.5660 H     1 <1>   0.0800 
 32 H       -9.3840     1.4550     0.2960 H     1 <1>   0.0800 
 33 H       -8.7420     4.7650    -1.4640 H     1 <1>   0.0800 
 34 H       -9.6430     5.6640    -0.2860 H     1 <1>   0.0800 
 35 H      -10.5760     3.7710     0.6620 H     1 <1>   0.0800 
 36 H      -10.3280     3.1810    -0.9530 H     1 <1>   0.0800 
@<TRIPOS>BOND
  1   1   2  1   
  2   1   3  1   
  3   2   4  ar  
  4   2   5  ar  
  5   3   6  2   
  6   3   7  1   
  7   4   6  1   
  8   4   8  ar  
  9   5   9  ar  
 10   5  20  1   
 11   7  21  1   
 12   7  22  1   
 13   7  23  1   
 14   8  10  ar  
 15   8  24  1   
 16   9  10  ar  
 17   9  11  1   
 18  10  25  1   
 19  11  12  am  
 20  11  26  1   
 21  12  13  2   
 22  12  14  am  
 23  14  15  1   
 24  14  16  1   
 25  15  17  1   
 26  15  27  1   
 27  15  28  1   
 28  16  18  1   
 29  16  29  1   
 30  16  30  1   
 31  17  19  1   
 32  17  31  1   
 33  17  32  1   
 34  18  19  1   
 35  18  33  1   
 36  18  34  1   
 37  19  35  1   
 38  19  36  1   
@<TRIPOS>SUBSTRUCTURE
  1 ****   9 GROUP 4 **** **** 0

# MOE 2024.06 (io_trps.svl 2023.06)
