@<TRIPOS>MOLECULE
NONAME
56 59 1 0 0 
SMALL
USER_CHARGES


@<TRIPOS>ATOM
  1 O        0.4510     0.2370    -0.3120 O.2   1 <1>  -0.5700 
  2 C        1.1860    -0.7000    -0.2550 C.2   1 <1>   0.4480 
  3 C        0.8000    -2.0910    -0.7860 C.3   1 <1>   0.0610 
  4 C        2.6270    -0.5960     0.2670 C.3   1 <1>   0.0610 
  5 C       -0.6760    -2.2800    -1.2700 C.3   1 <1>  -0.0800 
  6 C        1.7680    -2.3560    -1.9480 C.3   1 <1>   0.3430 
  7 C        1.1370    -3.1270     0.3040 C.3   1 <1>   0.1100 
  8 C        3.0630     0.7750     0.8810 C.3   1 <1>  -0.0800 
  9 C        3.5230    -0.9390    -0.9300 C.3   1 <1>   0.3430 
 10 C        2.8380    -1.7250     1.2900 C.3   1 <1>   0.1100 
 11 C       -1.0520    -1.4290    -2.5000 C.3   1 <1>  -0.2400 
 12 C       -1.7250    -2.0440    -0.1670 C.3   1 <1>  -0.2400 
 13 N        3.1910    -2.3010    -1.4770 N.4   1 <1>  -0.9590 
 14 N        2.5640    -3.0340     0.6590 N.3   1 <1>  -0.8100 
 15 C        2.2340     1.1960     2.1100 C.3   1 <1>  -0.2400 
 16 C        3.0790     1.9410    -0.1270 C.3   1 <1>  -0.2400 
 17 C        3.4430    -3.3570    -0.4720 C.3   1 <1>   0.8360 
 18 C        4.9280    -3.4400    -0.0850 C.ar  1 <1>  -0.1440 
 19 C        5.9460    -3.1030    -0.9780 C.ar  1 <1>  -0.1500 
 20 C        5.2930    -3.8910     1.1810 C.ar  1 <1>  -0.1500 
 21 C        7.2730    -3.1830    -0.5990 C.ar  1 <1>  -0.1500 
 22 C        6.6200    -3.9730     1.5610 C.ar  1 <1>  -0.1500 
 23 C        7.6220    -3.6110     0.6690 C.ar  1 <1>   0.0820 
 24 O        8.9440    -3.6510     0.9560 O.3   1 <1>  -0.3620 
 25 C        9.4140    -4.1170     2.2020 C.3   1 <1>   0.0400 
 26 H       -0.7860    -3.3090    -1.5740 H     1 <1>   0.0800 
 27 H        1.5580    -3.3240    -2.3720 H     1 <1>   0.0800 
 28 H        1.6120    -1.6130    -2.7140 H     1 <1>   0.0800 
 29 H        0.9150    -4.1250    -0.0380 H     1 <1>   0.0800 
 30 H        0.5460    -2.9490     1.1870 H     1 <1>   0.0800 
 31 H        4.0780     0.6640     1.2270 H     1 <1>   0.0800 
 32 H        4.5540    -0.9110    -0.6160 H     1 <1>   0.0800 
 33 H        3.3850    -0.1970    -1.6990 H     1 <1>   0.0800 
 34 H        2.1760    -1.5970     2.1310 H     1 <1>   0.0800 
 35 H        3.8460    -1.7000     1.6700 H     1 <1>   0.0800 
 36 H       -0.4330    -1.6480    -3.3500 H     1 <1>   0.0800 
 37 H       -2.0690    -1.6350    -2.7880 H     1 <1>   0.0800 
 38 H       -0.9870    -0.3770    -2.2840 H     1 <1>   0.0800 
 39 H       -1.6950    -1.0300     0.1930 H     1 <1>   0.0800 
 40 H       -1.5860    -2.7080     0.6670 H     1 <1>   0.0800 
 41 H       -2.7130    -2.2220    -0.5530 H     1 <1>   0.0800 
 42 H        3.8200    -2.5110    -2.2560 H     1 <1>   0.4500 
 43 H        1.1990     1.3410     1.8550 H     1 <1>   0.0800 
 44 H        2.6050     2.1260     2.5040 H     1 <1>   0.0800 
 45 H        2.2950     0.4700     2.9000 H     1 <1>   0.0800 
 46 H        2.0950     2.1370    -0.5180 H     1 <1>   0.0800 
 47 H        3.7490     1.7590    -0.9470 H     1 <1>   0.0800 
 48 H        3.4150     2.8400     0.3610 H     1 <1>   0.0800 
 49 H        3.1520    -4.3170    -0.8710 H     1 <1>   0.0800 
 50 H        5.7450    -2.7790    -1.9820 H     1 <1>   0.1500 
 51 H        4.5400    -4.1860     1.8940 H     1 <1>   0.1500 
 52 H        8.0590    -2.9190    -1.2860 H     1 <1>   0.1500 
 53 H        6.8560    -4.3200     2.5500 H     1 <1>   0.1500 
 54 H       10.4880    -4.0720     2.1920 H     1 <1>   0.0800 
 55 H        9.0920    -5.1340     2.3390 H     1 <1>   0.0800 
 56 H        9.0300    -3.4810     2.9800 H     1 <1>   0.0800 
@<TRIPOS>BOND
  1   1   2  2   
  2   2   3  1   
  3   2   4  1   
  4   3   5  1   
  5   3   6  1   
  6   3   7  1   
  7   4   8  1   
  8   4   9  1   
  9   4  10  1   
 10   5  11  1   
 11   5  12  1   
 12   5  26  1   
 13   6  13  1   
 14   6  27  1   
 15   6  28  1   
 16   7  14  1   
 17   7  29  1   
 18   7  30  1   
 19   8  15  1   
 20   8  16  1   
 21   8  31  1   
 22   9  13  1   
 23   9  32  1   
 24   9  33  1   
 25  10  14  1   
 26  10  34  1   
 27  10  35  1   
 28  11  36  1   
 29  11  37  1   
 30  11  38  1   
 31  12  39  1   
 32  12  40  1   
 33  12  41  1   
 34  13  17  1   
 35  13  42  1   
 36  14  17  1   
 37  15  43  1   
 38  15  44  1   
 39  15  45  1   
 40  16  46  1   
 41  16  47  1   
 42  16  48  1   
 43  17  18  1   
 44  17  49  1   
 45  18  19  ar  
 46  18  20  ar  
 47  19  21  ar  
 48  19  50  1   
 49  20  22  ar  
 50  20  51  1   
 51  21  23  ar  
 52  21  52  1   
 53  22  23  ar  
 54  22  53  1   
 55  23  24  1   
 56  24  25  1   
 57  25  54  1   
 58  25  55  1   
 59  25  56  1   
@<TRIPOS>SUBSTRUCTURE
  1 ****  17 GROUP 4 **** **** 0

# MOE 2024.06 (io_trps.svl 2023.06)
