@<TRIPOS>MOLECULE
NONAME
42 43 1 0 0 
SMALL
USER_CHARGES


@<TRIPOS>ATOM
  1 S        0.3450    -0.7430     0.1250 S.o2  1 <1>   1.3330 
  2 O        0.4630    -2.1290    -0.2590 O.2   1 <1>  -0.6500 
  3 O        0.3850    -0.3300     1.5060 O.2   1 <1>  -0.6500 
  4 N        1.6870    -0.0280    -0.6680 N.am  1 <1>  -0.7570 
  5 C       -1.0480     0.0200    -0.7200 C.3   1 <1>   0.0890 
  6 C        2.7460     0.5810     0.0010 C.ar  1 <1>   0.1990 
  7 C       -2.4090    -0.4780    -0.2530 C.ar  1 <1>  -0.1440 
  8 C        2.6730     1.9180     0.4140 C.ar  1 <1>  -0.1440 
  9 C        3.9180    -0.1540     0.2300 C.ar  1 <1>  -0.1430 
 10 C       -2.8830    -0.1300     1.0030 C.ar  1 <1>  -0.1500 
 11 C       -3.1850    -1.2820    -1.0750 C.ar  1 <1>  -0.1500 
 12 C        3.7640     2.5060     1.0290 C.ar  1 <1>  -0.1500 
 13 C        1.4260     2.7770     0.2170 C.3   1 <1>  -0.0170 
 14 C        4.9950     0.4650     0.8510 C.ar  1 <1>  -0.1500 
 15 C        3.9820    -1.6300    -0.1960 C.3   1 <1>  -0.0170 
 16 C       -4.1220    -0.5750     1.4300 C.ar  1 <1>  -0.1500 
 17 C       -4.4240    -1.7270    -0.6480 C.ar  1 <1>  -0.1500 
 18 C        4.9210     1.7860     1.2460 C.ar  1 <1>  -0.1500 
 19 C        1.2920     3.2510    -1.2330 C.3   1 <1>  -0.2400 
 20 C        5.2970    -2.3640     0.0970 C.3   1 <1>  -0.2400 
 21 C       -4.8940    -1.3730     0.6050 C.ar  1 <1>  -0.1500 
 22 H        2.0030    -0.7070    -1.3510 H     1 <1>   0.4200 
 23 H       -0.9550    -0.1580    -1.7720 H     1 <1>   0.0800 
 24 H       -1.0140     1.0800    -0.5740 H     1 <1>   0.0800 
 25 H       -2.2910     0.4850     1.6600 H     1 <1>   0.1500 
 26 H       -2.8330    -1.5710    -2.0500 H     1 <1>   0.1500 
 27 H        3.7240     3.5330     1.3470 H     1 <1>   0.1500 
 28 H        1.4770     3.6400     0.8580 H     1 <1>   0.0800 
 29 H        0.5560     2.2280     0.5180 H     1 <1>   0.0800 
 30 H        5.9100    -0.0610     1.0460 H     1 <1>   0.1500 
 31 H        3.8000    -1.6930    -1.2540 H     1 <1>   0.0800 
 32 H        3.1910    -2.1620     0.3050 H     1 <1>   0.0800 
 33 H       -4.4830    -0.3030     2.4060 H     1 <1>   0.1500 
 34 H       -5.0220    -2.3510    -1.2880 H     1 <1>   0.1500 
 35 H        5.7630     2.2520     1.7260 H     1 <1>   0.1500 
 36 H        2.1580     3.8240    -1.5130 H     1 <1>   0.0800 
 37 H        0.4190     3.8690    -1.3420 H     1 <1>   0.0800 
 38 H        1.2090     2.4110    -1.8990 H     1 <1>   0.0800 
 39 H        6.1150    -1.8930    -0.4180 H     1 <1>   0.0800 
 40 H        5.2270    -3.3830    -0.2400 H     1 <1>   0.0800 
 41 H        5.4950    -2.3710     1.1540 H     1 <1>   0.0800 
 42 H       -5.8570    -1.7200     0.9370 H     1 <1>   0.1500 
@<TRIPOS>BOND
  1   1   2  2   
  2   1   3  2   
  3   1   4  am  
  4   1   5  1   
  5   4   6  1   
  6   4  22  1   
  7   5   7  1   
  8   5  23  1   
  9   5  24  1   
 10   6   8  ar  
 11   6   9  ar  
 12   7  10  ar  
 13   7  11  ar  
 14   8  12  ar  
 15   8  13  1   
 16   9  14  ar  
 17   9  15  1   
 18  10  16  ar  
 19  10  25  1   
 20  11  17  ar  
 21  11  26  1   
 22  12  18  ar  
 23  12  27  1   
 24  13  19  1   
 25  13  28  1   
 26  13  29  1   
 27  14  18  ar  
 28  14  30  1   
 29  15  20  1   
 30  15  31  1   
 31  15  32  1   
 32  16  21  ar  
 33  16  33  1   
 34  17  21  ar  
 35  17  34  1   
 36  18  35  1   
 37  19  36  1   
 38  19  37  1   
 39  19  38  1   
 40  20  39  1   
 41  20  40  1   
 42  20  41  1   
 43  21  42  1   
@<TRIPOS>SUBSTRUCTURE
  1 ****   1 GROUP 4 **** **** 0

# MOE 2024.06 (io_trps.svl 2023.06)
