@<TRIPOS>MOLECULE
NONAME
28 32 1 0 0 
SMALL
USER_CHARGES


@<TRIPOS>ATOM
  1 O       -0.5140    -1.8020     2.9500 O.2   1 <1>  -0.5700 
  2 C       -0.3780    -2.3320     1.8780 C.2   1 <1>   0.6590 
  3 O       -1.2820    -3.1060     1.2740 O.3   1 <1>  -0.0870 
  4 C        0.8420    -2.2370     0.9880 C.3   1 <1>   0.1220 
  5 N       -0.8560    -3.5530     0.0920 N.2   1 <1>  -0.5130 
  6 C        0.2990    -3.1070    -0.1140 C.2   1 <1>   0.3280 
  7 C        2.1330    -2.8900     1.5410 C.3   1 <1>  -0.1600 
  8 C        1.1440    -0.8350     0.3980 C.3   1 <1>  -0.1600 
  9 C        1.2510    -3.2910    -1.2880 C.3   1 <1>  -0.0190 
 10 C        3.1380    -3.0350     0.3720 C.3   1 <1>   0.1220 
 11 C        2.1650    -0.9760    -0.7570 C.3   1 <1>  -0.0190 
 12 C        2.5520    -3.9320    -0.7490 C.3   1 <1>  -0.1600 
 13 C        1.5690    -1.8860    -1.8600 C.3   1 <1>  -0.1600 
 14 C        4.5710    -3.3190     0.7660 C.2   1 <1>   0.6590 
 15 C        3.4030    -1.6700    -0.2040 C.2   1 <1>   0.3280 
 16 O        4.9720    -4.3220     1.2970 O.2   1 <1>  -0.5700 
 17 O        5.3190    -2.2670     0.4280 O.3   1 <1>  -0.0870 
 18 N        4.6020    -1.3010    -0.1470 N.2   1 <1>  -0.5130 
 19 H        1.9170    -3.8590     1.9590 H     1 <1>   0.0800 
 20 H        2.5470    -2.2750     2.3220 H     1 <1>   0.0800 
 21 H        1.5390    -0.1930     1.1670 H     1 <1>   0.0800 
 22 H        0.2370    -0.3860     0.0300 H     1 <1>   0.0800 
 23 H        0.7980    -3.9160    -2.0390 H     1 <1>   0.0800 
 24 H        2.4280    -0.0110    -1.1560 H     1 <1>   0.0800 
 25 H        3.2660    -4.0360    -1.5500 H     1 <1>   0.0800 
 26 H        2.3490    -4.9160    -0.3610 H     1 <1>   0.0800 
 27 H        0.6700    -1.4420    -2.2520 H     1 <1>   0.0800 
 28 H        2.2690    -1.9740    -2.6740 H     1 <1>   0.0800 
@<TRIPOS>BOND
  1   1   2  2   
  2   2   3  1   
  3   2   4  1   
  4   3   5  1   
  5   4   6  1   
  6   4   7  1   
  7   4   8  1   
  8   5   6  2   
  9   6   9  1   
 10   7  10  1   
 11   7  19  1   
 12   7  20  1   
 13   8  11  1   
 14   8  21  1   
 15   8  22  1   
 16   9  12  1   
 17   9  13  1   
 18   9  23  1   
 19  10  12  1   
 20  10  14  1   
 21  10  15  1   
 22  11  13  1   
 23  11  15  1   
 24  11  24  1   
 25  12  25  1   
 26  12  26  1   
 27  13  27  1   
 28  13  28  1   
 29  14  16  2   
 30  14  17  1   
 31  15  18  2   
 32  17  18  1   
@<TRIPOS>SUBSTRUCTURE
  1 ****   7 GROUP 4 **** **** 0

# MOE 2024.06 (io_trps.svl 2023.06)
