@<TRIPOS>MOLECULE
NONAME
47 50 1 0 0 
SMALL
USER_CHARGES


@<TRIPOS>ATOM
  1 F        0.1590    -1.8930    -2.1140 F     1 <1>  -0.1900 
  2 C        1.2090    -1.5430    -1.4220 C.ar  1 <1>   0.1900 
  3 C        1.3110    -1.8840    -0.0770 C.ar  1 <1>  -0.1440 
  4 C        2.1840    -0.8210    -2.0840 C.ar  1 <1>  -0.1500 
  5 C        2.4470    -1.4610     0.6030 C.ar  1 <1>  -0.1500 
  6 C        0.2570    -2.6960     0.6880 C.3   1 <1>   0.3640 
  7 C        3.3070    -0.4150    -1.3880 C.ar  1 <1>  -0.1500 
  8 C        3.4350    -0.7340    -0.0460 C.ar  1 <1>  -0.1500 
  9 N       -0.2430    -3.8910    -0.0380 N.am  1 <1>  -0.2980 
 10 C       -1.0300    -1.9350     1.0350 C.3   1 <1>  -0.0190 
 11 N       -1.6030    -3.7940    -0.2390 N.2   1 <1>  -0.5120 
 12 C        0.5500    -4.9660    -0.4330 C.2   1 <1>   0.5690 
 13 C       -2.0630    -2.7280     0.2780 C.2   1 <1>   0.3030 
 14 C       -1.1590    -0.4420     0.6860 C.3   1 <1>  -0.1600 
 15 O        0.0920    -5.9410    -0.9840 O.2   1 <1>  -0.5700 
 16 C        2.0590    -4.9450    -0.1680 C.3   1 <1>  -0.0990 
 17 C       -3.4030    -2.2030     0.2130 C.ar  1 <1>   0.0860 
 18 C       -2.5610     0.0510     1.0780 C.3   1 <1>  -0.0170 
 19 C        2.7550    -6.3130    -0.2890 C.3   1 <1>  -0.2400 
 20 C       -3.6740    -0.8780     0.5880 C.ar  1 <1>  -0.1430 
 21 C       -4.4590    -2.9930    -0.2390 C.ar  1 <1>  -0.1500 
 22 C       -4.9670    -0.3870     0.5200 C.ar  1 <1>  -0.1500 
 23 C       -5.7530    -2.4970    -0.3080 C.ar  1 <1>   0.0830 
 24 C       -6.0010    -1.1910     0.0760 C.ar  1 <1>  -0.1500 
 25 O       -6.8180    -3.2200    -0.7390 O.3   1 <1>  -0.3630 
 26 C       -6.6570    -4.5390    -1.2130 C.3   1 <1>   0.0400 
 27 H        2.0600    -0.5850    -3.1260 H     1 <1>   0.1500 
 28 H        2.5800    -1.6920     1.6460 H     1 <1>   0.1500 
 29 H        0.6900    -3.0410     1.6100 H     1 <1>   0.0800 
 30 H        4.0780     0.1480    -1.8860 H     1 <1>   0.1500 
 31 H        4.3100    -0.4150     0.4950 H     1 <1>   0.1500 
 32 H       -1.2170    -2.0620     2.0860 H     1 <1>   0.0800 
 33 H       -1.0330    -0.3000    -0.3730 H     1 <1>   0.0800 
 34 H       -0.4080     0.1340     1.1980 H     1 <1>   0.0800 
 35 H        2.2400    -4.5730     0.8220 H     1 <1>   0.0800 
 36 H        2.5100    -4.2710    -0.8720 H     1 <1>   0.0800 
 37 H       -2.7100     1.0380     0.6760 H     1 <1>   0.0800 
 38 H       -2.6270     0.1210     2.1500 H     1 <1>   0.0800 
 39 H        2.3180    -7.0150     0.4000 H     1 <1>   0.0800 
 40 H        3.8050    -6.2200    -0.0740 H     1 <1>   0.0800 
 41 H        2.6400    -6.7000    -1.2870 H     1 <1>   0.0800 
 42 H       -4.2350    -4.0010    -0.5330 H     1 <1>   0.1500 
 43 H       -5.1790     0.6270     0.8100 H     1 <1>   0.1500 
 44 H       -7.0050    -0.8110     0.0220 H     1 <1>   0.1500 
 45 H       -7.6190    -4.9030    -1.5240 H     1 <1>   0.0800 
 46 H       -6.2730    -5.1520    -0.4170 H     1 <1>   0.0800 
 47 H       -5.9810    -4.5300    -2.0510 H     1 <1>   0.0800 
@<TRIPOS>BOND
  1   1   2  1   
  2   2   3  ar  
  3   2   4  ar  
  4   3   5  ar  
  5   3   6  1   
  6   4   7  ar  
  7   4  27  1   
  8   5   8  ar  
  9   5  28  1   
 10   6   9  1   
 11   6  10  1   
 12   6  29  1   
 13   7   8  ar  
 14   7  30  1   
 15   8  31  1   
 16   9  11  1   
 17   9  12  am  
 18  10  13  1   
 19  10  14  1   
 20  10  32  1   
 21  11  13  2   
 22  12  15  2   
 23  12  16  1   
 24  13  17  1   
 25  14  18  1   
 26  14  33  1   
 27  14  34  1   
 28  16  19  1   
 29  16  35  1   
 30  16  36  1   
 31  17  20  ar  
 32  17  21  ar  
 33  18  20  1   
 34  18  37  1   
 35  18  38  1   
 36  19  39  1   
 37  19  40  1   
 38  19  41  1   
 39  20  22  ar  
 40  21  23  ar  
 41  21  42  1   
 42  22  24  ar  
 43  22  43  1   
 44  23  24  ar  
 45  23  25  1   
 46  24  44  1   
 47  25  26  1   
 48  26  45  1   
 49  26  46  1   
 50  26  47  1   
@<TRIPOS>SUBSTRUCTURE
  1 ****  13 GROUP 4 **** **** 0

# MOE 2024.06 (io_trps.svl 2023.06)
