@<TRIPOS>MOLECULE
NONAME
30 31 1 0 0 
SMALL
USER_CHARGES


@<TRIPOS>ATOM
  1 S        0.0330     0.3490    -0.3260 S.3   1 <1>  -0.3320 
  2 C       -1.4250    -0.7080    -0.2460 C.ar  1 <1>   0.1020 
  3 C        1.4490    -0.6600     0.2970 C.3   1 <1>   0.0700 
  4 C       -1.3740    -2.0020     0.2500 C.ar  1 <1>  -0.1500 
  5 C       -2.6150    -0.1720    -0.7040 C.ar  1 <1>  -0.1500 
  6 C        2.7040     0.2100     0.2420 C.3   1 <1>  -0.0990 
  7 C       -2.5320    -2.7620     0.2820 C.ar  1 <1>  -0.1500 
  8 C       -3.7690    -0.9360    -0.6700 C.ar  1 <1>  -0.1500 
  9 C        3.9270    -0.5850     0.6430 C.2   1 <1>   0.5690 
 10 C       -3.7260    -2.2300    -0.1770 C.ar  1 <1>  -0.1500 
 11 O        3.8860    -1.2410     1.6560 O.2   1 <1>  -0.5700 
 12 N        5.0250    -0.5330    -0.1550 N.am  1 <1>  -0.5790 
 13 C        6.2880    -1.2430     0.0880 C.3   1 <1>   0.0490 
 14 C        7.5580    -0.5740    -0.3190 C.3   1 <1>  -0.2000 
 15 C        7.0450    -1.7510    -1.0940 C.3   1 <1>  -0.2000 
 16 H        1.5370    -1.5220    -0.3400 H     1 <1>   0.0800 
 17 H        1.2220    -0.9570     1.3060 H     1 <1>   0.0800 
 18 H       -0.4590    -2.4290     0.6110 H     1 <1>   0.1500 
 19 H       -2.6340     0.8340    -1.0840 H     1 <1>   0.1500 
 20 H        2.5960     1.0360     0.9200 H     1 <1>   0.0800 
 21 H        2.8280     0.5950    -0.7530 H     1 <1>   0.0800 
 22 H       -2.5040    -3.7670     0.6650 H     1 <1>   0.1500 
 23 H       -4.6980    -0.5240    -1.0250 H     1 <1>   0.1500 
 24 H       -4.6230    -2.8230    -0.1500 H     1 <1>   0.1500 
 25 H        5.0130     0.0410    -0.9960 H     1 <1>   0.3700 
 26 H        6.2810    -1.8340     0.9910 H     1 <1>   0.1000 
 27 H        8.4310    -0.7120     0.2960 H     1 <1>   0.1000 
 28 H        7.5140     0.4050    -0.7610 H     1 <1>   0.1000 
 29 H        6.6420    -1.5950    -2.0790 H     1 <1>   0.1000 
 30 H        7.5710    -2.6850    -1.0050 H     1 <1>   0.1000 
@<TRIPOS>BOND
  1   1   2  1   
  2   1   3  1   
  3   2   4  ar  
  4   2   5  ar  
  5   3   6  1   
  6   3  16  1   
  7   3  17  1   
  8   4   7  ar  
  9   4  18  1   
 10   5   8  ar  
 11   5  19  1   
 12   6   9  1   
 13   6  20  1   
 14   6  21  1   
 15   7  10  ar  
 16   7  22  1   
 17   8  10  ar  
 18   8  23  1   
 19   9  11  2   
 20   9  12  am  
 21  10  24  1   
 22  12  13  1   
 23  12  25  1   
 24  13  14  1   
 25  13  15  1   
 26  13  26  1   
 27  14  15  1   
 28  14  27  1   
 29  14  28  1   
 30  15  29  1   
 31  15  30  1   
@<TRIPOS>SUBSTRUCTURE
  1 ****   3 GROUP 4 **** **** 0

# MOE 2024.06 (io_trps.svl 2023.06)
