@<TRIPOS>MOLECULE
NONAME
46 47 1 0 0 
SMALL
USER_CHARGES


@<TRIPOS>ATOM
  1 O        0.5070     0.7520     1.7620 O.2   1 <1>  -0.5700 
  2 C       -0.1570     1.7570     1.8510 C.2   1 <1>   0.5690 
  3 N       -1.2300     1.9570     1.0060 N.am  1 <1>  -0.6600 
  4 C        0.2710     2.7630     2.9290 C.3   1 <1>   0.1810 
  5 C       -1.3580     1.1340    -0.2390 C.3   1 <1>   0.1400 
  6 C       -2.1860     3.1050     1.1080 C.3   1 <1>   0.1400 
  7 O        0.1660     4.1220     2.5190 O.3   1 <1>  -0.3620 
  8 C       -2.8180     0.7340    -0.5110 C.3   1 <1>   0.3430 
  9 C       -3.6320     2.6820     0.7850 C.3   1 <1>   0.3430 
 10 C        0.8330     4.6030     1.4380 C.ar  1 <1>   0.0820 
 11 N       -3.7330     1.9250    -0.5110 N.4   1 <1>  -0.9590 
 12 C        1.8350     3.9070     0.7680 C.ar  1 <1>  -0.1500 
 13 C        0.4610     5.8570     0.9880 C.ar  1 <1>  -0.1500 
 14 C       -5.1230     1.5380    -0.8330 C.3   1 <1>   0.4810 
 15 C        2.4400     4.4490    -0.3560 C.ar  1 <1>  -0.1440 
 16 C        1.0630     6.4020    -0.1300 C.ar  1 <1>  -0.1500 
 17 C       -5.8530     2.7960    -1.2420 C.2   1 <1>  -0.2880 
 18 C        2.0500     5.7050    -0.8110 C.ar  1 <1>  -0.1440 
 19 C        3.5280     3.6530    -1.0630 C.3   1 <1>  -0.0970 
 20 C       -6.1660     3.1300    -2.4980 C.2   1 <1>  -0.3000 
 21 C        2.6890     6.3400    -2.0380 C.3   1 <1>  -0.0970 
 22 H        1.2910     2.5810     3.2150 H     1 <1>   0.0800 
 23 H       -0.3500     2.6380     3.7960 H     1 <1>   0.0800 
 24 H       -0.7670     0.2370    -0.1630 H     1 <1>   0.0800 
 25 H       -0.9760     1.7000    -1.0710 H     1 <1>   0.0800 
 26 H       -1.8740     3.8830     0.4320 H     1 <1>   0.0800 
 27 H       -2.1740     3.5120     2.1030 H     1 <1>   0.0800 
 28 H       -3.1260     0.0370     0.2510 H     1 <1>   0.0800 
 29 H       -2.8690     0.2290    -1.4620 H     1 <1>   0.0800 
 30 H       -4.2490     3.5650     0.7450 H     1 <1>   0.0800 
 31 H       -3.9930     2.0650     1.5910 H     1 <1>   0.0800 
 32 H       -3.4360     2.5610    -1.2650 H     1 <1>   0.4500 
 33 H        2.1590     2.9430     1.1110 H     1 <1>   0.1500 
 34 H       -0.2960     6.4050     1.5150 H     1 <1>   0.1500 
 35 H       -5.6040     1.0670     0.0090 H     1 <1>   0.0800 
 36 H       -5.1250     0.8480    -1.6630 H     1 <1>   0.0800 
 37 H        0.7620     7.3790    -0.4650 H     1 <1>   0.1500 
 38 H       -6.1200     3.4210    -0.4070 H     1 <1>   0.1500 
 39 H        3.6860     2.7020    -0.5870 H     1 <1>   0.0800 
 40 H        4.4540     4.1980    -1.0400 H     1 <1>   0.0800 
 41 H        3.2510     3.4740    -2.0860 H     1 <1>   0.0800 
 42 H       -6.6950     4.0320    -2.7640 H     1 <1>   0.1500 
 43 H       -5.9350     2.5450    -3.3740 H     1 <1>   0.1500 
 44 H        3.7450     6.4630    -1.8790 H     1 <1>   0.0800 
 45 H        2.2650     7.3070    -2.2380 H     1 <1>   0.0800 
 46 H        2.5340     5.7180    -2.9000 H     1 <1>   0.0800 
@<TRIPOS>BOND
  1   1   2  2   
  2   2   3  am  
  3   2   4  1   
  4   3   5  1   
  5   3   6  1   
  6   4   7  1   
  7   4  22  1   
  8   4  23  1   
  9   5   8  1   
 10   5  24  1   
 11   5  25  1   
 12   6   9  1   
 13   6  26  1   
 14   6  27  1   
 15   7  10  1   
 16   8  11  1   
 17   8  28  1   
 18   8  29  1   
 19   9  11  1   
 20   9  30  1   
 21   9  31  1   
 22  10  12  ar  
 23  10  13  ar  
 24  11  14  1   
 25  11  32  1   
 26  12  15  ar  
 27  12  33  1   
 28  13  16  ar  
 29  13  34  1   
 30  14  17  1   
 31  14  35  1   
 32  14  36  1   
 33  15  18  ar  
 34  15  19  1   
 35  16  18  ar  
 36  16  37  1   
 37  17  20  2   
 38  17  38  1   
 39  18  21  1   
 40  19  39  1   
 41  19  40  1   
 42  19  41  1   
 43  20  42  1   
 44  20  43  1   
 45  21  44  1   
 46  21  45  1   
 47  21  46  1   
@<TRIPOS>SUBSTRUCTURE
  1 ****   3 GROUP 4 **** **** 0

# MOE 2024.06 (io_trps.svl 2023.06)
