@<TRIPOS>MOLECULE
NONAME
49 50 1 0 0 
SMALL
USER_CHARGES


@<TRIPOS>ATOM
  1 O       -3.6140     6.3860    -1.0100 O.3   1 <1>  -0.3630 
  2 C       -4.8210     6.1190    -0.4610 C.ar  1 <1>   0.0830 
  3 C       -2.5060     6.1600    -0.1770 C.3   1 <1>   0.1200 
  4 C       -5.5030     7.1200     0.2260 C.ar  1 <1>  -0.1440 
  5 C       -5.3730     4.8470    -0.5940 C.ar  1 <1>  -0.1440 
  6 C       -1.2510     6.5540    -0.9570 C.3   1 <1>  -0.1600 
  7 C       -6.7230     6.8250     0.8110 C.ar  1 <1>  -0.1500 
  8 C       -4.9440     8.5310     0.3400 C.3   1 <1>  -0.0960 
  9 C       -6.5940     4.5770     0.0010 C.ar  1 <1>  -0.1500 
 10 C       -4.6690     3.7520    -1.3830 C.3   1 <1>  -0.0970 
 11 C        0.0230     6.3560    -0.1240 C.3   1 <1>  -0.1600 
 12 C       -7.2700     5.5570     0.7080 C.ar  1 <1>  -0.1430 
 13 C        1.2570     6.7660    -0.9310 C.3   1 <1>   0.3430 
 14 C       -8.6080     5.2470     1.3550 C.3   1 <1>  -0.0970 
 15 N        2.4850     6.6850    -0.0930 N.4   1 <1>  -0.9590 
 16 C        3.6280     7.4050    -0.7610 C.3   1 <1>   0.3430 
 17 C        2.8800     5.2620     0.2150 C.3   1 <1>   0.3430 
 18 C        4.9280     7.3140     0.0670 C.3   1 <1>   0.1100 
 19 C        4.1900     5.1930     1.0300 C.3   1 <1>   0.1100 
 20 N        5.2780     5.9150     0.3540 N.3   1 <1>  -0.9000 
 21 H       -2.4930     5.1180     0.0920 H     1 <1>   0.0800 
 22 H       -2.6220     6.7600     0.7100 H     1 <1>   0.0800 
 23 H       -1.3410     7.5880    -1.2460 H     1 <1>   0.0800 
 24 H       -1.2020     5.9520    -1.8490 H     1 <1>   0.0800 
 25 H       -7.2560     7.5880     1.3500 H     1 <1>   0.1500 
 26 H       -4.4830     8.8240    -0.5860 H     1 <1>   0.0800 
 27 H       -4.2120     8.5730     1.1260 H     1 <1>   0.0800 
 28 H       -5.7270     9.2330     0.5600 H     1 <1>   0.0800 
 29 H       -7.0270     3.5970    -0.0890 H     1 <1>   0.1500 
 30 H       -3.9050     3.2990    -0.7790 H     1 <1>   0.0800 
 31 H       -4.2210     4.1630    -2.2690 H     1 <1>   0.0800 
 32 H       -5.3680     2.9920    -1.6840 H     1 <1>   0.0800 
 33 H        0.0900     5.3200     0.1590 H     1 <1>   0.0800 
 34 H       -0.0460     6.9590     0.7650 H     1 <1>   0.0800 
 35 H        1.1220     7.7800    -1.2730 H     1 <1>   0.0800 
 36 H        1.3570     6.1330    -1.7980 H     1 <1>   0.0800 
 37 H       -8.7490     5.8500     2.2340 H     1 <1>   0.0800 
 38 H       -8.6550     4.2120     1.6440 H     1 <1>   0.0800 
 39 H       -9.4020     5.4510     0.6600 H     1 <1>   0.0800 
 40 H        2.3080     7.1590     0.8000 H     1 <1>   0.4500 
 41 H        3.3750     8.4420    -0.9080 H     1 <1>   0.0800 
 42 H        3.8150     6.9690    -1.7290 H     1 <1>   0.0800 
 43 H        3.0280     4.7200    -0.7050 H     1 <1>   0.0800 
 44 H        2.0980     4.7710     0.7690 H     1 <1>   0.0800 
 45 H        4.8150     7.8610     0.9870 H     1 <1>   0.0800 
 46 H        5.7310     7.7670    -0.4900 H     1 <1>   0.0800 
 47 H        4.4770     4.1610     1.1480 H     1 <1>   0.0800 
 48 H        4.0310     5.6050     2.0130 H     1 <1>   0.0800 
 49 H        6.1360     5.8780     0.9300 H     1 <1>   0.3600 
@<TRIPOS>BOND
  1   1   2  1   
  2   1   3  1   
  3   2   4  ar  
  4   2   5  ar  
  5   3   6  1   
  6   3  21  1   
  7   3  22  1   
  8   4   7  ar  
  9   4   8  1   
 10   5   9  ar  
 11   5  10  1   
 12   6  11  1   
 13   6  23  1   
 14   6  24  1   
 15   7  12  ar  
 16   7  25  1   
 17   8  26  1   
 18   8  27  1   
 19   8  28  1   
 20   9  12  ar  
 21   9  29  1   
 22  10  30  1   
 23  10  31  1   
 24  10  32  1   
 25  11  13  1   
 26  11  33  1   
 27  11  34  1   
 28  12  14  1   
 29  13  15  1   
 30  13  35  1   
 31  13  36  1   
 32  14  37  1   
 33  14  38  1   
 34  14  39  1   
 35  15  16  1   
 36  15  17  1   
 37  15  40  1   
 38  16  18  1   
 39  16  41  1   
 40  16  42  1   
 41  17  19  1   
 42  17  43  1   
 43  17  44  1   
 44  18  20  1   
 45  18  45  1   
 46  18  46  1   
 47  19  20  1   
 48  19  47  1   
 49  19  48  1   
 50  20  49  1   
@<TRIPOS>SUBSTRUCTURE
  1 ****   3 GROUP 4 **** **** 0

# MOE 2024.06 (io_trps.svl 2023.06)
