@<TRIPOS>MOLECULE
NONAME
43 43 1 0 0 
SMALL
USER_CHARGES


@<TRIPOS>ATOM
  1 P        0.2950    -0.2370     0.0500 P.3   1 <1>   1.1730 
  2 N       -0.0380    -1.5670     0.9400 N.2   1 <1>  -0.7570 
  3 N       -1.0600     0.3950    -0.6110 N.2   1 <1>  -0.7570 
  4 N        0.9990     0.9100     1.0110 N.3   1 <1>  -0.7980 
  5 N        1.3700    -0.6420    -1.1410 N.3   1 <1>  -0.7980 
  6 C       -1.2280    -1.9780     0.9490 C.2   1 <1>   0.5660 
  7 C       -2.1380    -0.2340    -0.4380 C.2   1 <1>   0.5660 
  8 C        1.3690     2.1260     0.2770 C.3   1 <1>   0.0580 
  9 C        0.2030     1.2610     2.1900 C.3   1 <1>   0.0580 
 10 C        2.6210    -1.2040    -0.6160 C.3   1 <1>   0.0580 
 11 C        0.8170    -1.5280    -2.1680 C.3   1 <1>   0.0580 
 12 N       -2.2410    -1.3910     0.2620 N.pl3 1 <1>  -0.4830 
 13 N       -1.5900    -3.0690     1.6960 N.pl3 1 <1>  -0.7780 
 14 N       -3.3180     0.2400    -0.9500 N.pl3 1 <1>  -0.7780 
 15 C       -2.0780    -4.2920     0.9960 C.3   1 <1>   0.1550 
 16 C       -0.8020    -3.3510     2.9340 C.3   1 <1>   0.1550 
 17 C       -3.9990    -0.5490    -2.0170 C.3   1 <1>   0.1550 
 18 C       -3.4570     1.7180    -1.1130 C.3   1 <1>   0.1550 
 19 H        2.0150     1.8750    -0.5480 H     1 <1>   0.1070 
 20 H        1.8970     2.8080     0.9210 H     1 <1>   0.1070 
 21 H        0.4910     2.6120    -0.1150 H     1 <1>   0.1070 
 22 H        0.0110     0.3790     2.7780 H     1 <1>   0.1070 
 23 H       -0.7390     1.6920     1.8940 H     1 <1>   0.1070 
 24 H        0.7370     1.9640     2.8060 H     1 <1>   0.1070 
 25 H        3.0640    -0.5180     0.0880 H     1 <1>   0.1070 
 26 H        3.3230    -1.3680    -1.4140 H     1 <1>   0.1070 
 27 H        2.4330    -2.1360    -0.1080 H     1 <1>   0.1070 
 28 H       -0.0460    -1.0680    -2.6190 H     1 <1>   0.1070 
 29 H        0.5240    -2.4700    -1.7350 H     1 <1>   0.1070 
 30 H        1.5460    -1.7020    -2.9410 H     1 <1>   0.1070 
 31 H       -3.1700    -1.6200     0.5820 H     1 <1>   0.4200 
 32 H       -2.9010    -4.7230     1.5410 H     1 <1>   0.1070 
 33 H       -1.2860    -5.0180     0.9250 H     1 <1>   0.1070 
 34 H       -2.4080    -4.0570    -0.0020 H     1 <1>   0.1070 
 35 H       -0.5480    -2.4280     3.4260 H     1 <1>   0.1070 
 36 H        0.1120    -3.8610     2.6810 H     1 <1>   0.1070 
 37 H       -1.3750    -3.9560     3.6150 H     1 <1>   0.1070 
 38 H       -3.7610    -0.1410    -2.9860 H     1 <1>   0.1070 
 39 H       -5.0660    -0.5150    -1.8750 H     1 <1>   0.1070 
 40 H       -3.6800    -1.5770    -1.9980 H     1 <1>   0.1070 
 41 H       -2.9500     2.0400    -2.0070 H     1 <1>   0.1070 
 42 H       -3.0120     2.2230    -0.2710 H     1 <1>   0.1070 
 43 H       -4.4960     1.9950    -1.1680 H     1 <1>   0.1070 
@<TRIPOS>BOND
  1   1   2  1   
  2   1   3  1   
  3   1   4  1   
  4   1   5  1   
  5   2   6  2   
  6   3   7  2   
  7   4   8  1   
  8   4   9  1   
  9   5  10  1   
 10   5  11  1   
 11   6  12  1   
 12   6  13  1   
 13   7  12  1   
 14   7  14  1   
 15   8  19  1   
 16   8  20  1   
 17   8  21  1   
 18   9  22  1   
 19   9  23  1   
 20   9  24  1   
 21  10  25  1   
 22  10  26  1   
 23  10  27  1   
 24  11  28  1   
 25  11  29  1   
 26  11  30  1   
 27  12  31  1   
 28  13  15  1   
 29  13  16  1   
 30  14  17  1   
 31  14  18  1   
 32  15  32  1   
 33  15  33  1   
 34  15  34  1   
 35  16  35  1   
 36  16  36  1   
 37  16  37  1   
 38  17  38  1   
 39  17  39  1   
 40  17  40  1   
 41  18  41  1   
 42  18  42  1   
 43  18  43  1   
@<TRIPOS>SUBSTRUCTURE
  1 ****   1 GROUP 4 **** **** 0

# MOE 2024.06 (io_trps.svl 2023.06)
