@<TRIPOS>MOLECULE
NONAME
47 48 1 0 0 
SMALL
USER_CHARGES


@<TRIPOS>ATOM
  1 O        3.8220    -1.5260     3.4770 O.3   1 <1>  -0.6800 
  2 C        3.7120    -0.8650     2.2670 C.3   1 <1>   0.1200 
  3 C        4.9390     0.0450     2.1230 C.3   1 <1>   0.3430 
  4 N        4.9490     0.7790     0.8150 N.4   1 <1>  -0.9590 
  5 C        6.3400     1.2340     0.4460 C.3   1 <1>   0.3430 
  6 C        3.9620     1.8940     0.7920 C.3   1 <1>   0.3430 
  7 C        7.2490     0.0730    -0.0160 C.3   1 <1>   0.2070 
  8 C        3.6240     2.2650    -0.6530 C.3   1 <1>  -0.1600 
  9 C        8.4720     0.6130    -0.7670 C.ar  1 <1>  -0.1440 
 10 C        6.3920    -0.9100    -0.8230 C.ar  1 <1>  -0.1440 
 11 C        2.5310     3.3380    -0.7010 C.3   1 <1>  -0.2400 
 12 C        8.9200     0.0360    -1.9510 C.ar  1 <1>  -0.1500 
 13 C        9.1790     1.6960    -0.2520 C.ar  1 <1>  -0.1500 
 14 C        6.2030    -2.2060    -0.3650 C.ar  1 <1>  -0.1500 
 15 C        5.7580    -0.5060    -1.9930 C.ar  1 <1>  -0.1500 
 16 C       10.0220     0.5450    -2.6150 C.ar  1 <1>  -0.1500 
 17 C       10.2810     2.2050    -0.9160 C.ar  1 <1>  -0.1500 
 18 C        5.3780    -3.0780    -1.0530 C.ar  1 <1>  -0.1500 
 19 C        4.9330    -1.3790    -2.6800 C.ar  1 <1>  -0.1500 
 20 C       10.7020     1.6320    -2.1010 C.ar  1 <1>  -0.1500 
 21 C        4.7400    -2.6640    -2.2080 C.ar  1 <1>  -0.1500 
 22 H        3.0690    -2.1380     3.6280 H     1 <1>   0.4000 
 23 H        2.7970    -0.2990     2.2800 H     1 <1>   0.0800 
 24 H        3.6870    -1.6050     1.4840 H     1 <1>   0.0800 
 25 H        5.8140    -0.5790     2.1920 H     1 <1>   0.0800 
 26 H        4.9580     0.7490     2.9390 H     1 <1>   0.0800 
 27 H        4.6830     0.0990     0.0800 H     1 <1>   0.4500 
 28 H        6.7970     1.7500     1.2730 H     1 <1>   0.0800 
 29 H        6.2750     1.9280    -0.3750 H     1 <1>   0.0800 
 30 H        4.3530     2.7520     1.3150 H     1 <1>   0.0800 
 31 H        3.0540     1.5870     1.2860 H     1 <1>   0.0800 
 32 H        7.6220    -0.4270     0.8600 H     1 <1>   0.0800 
 33 H        3.2720     1.3950    -1.1800 H     1 <1>   0.0800 
 34 H        4.4930     2.6470    -1.1590 H     1 <1>   0.0800 
 35 H        1.6270     2.9880    -0.2320 H     1 <1>   0.0800 
 36 H        2.3030     3.5860    -1.7240 H     1 <1>   0.0800 
 37 H        2.8530     4.2370    -0.2030 H     1 <1>   0.0800 
 38 H        8.4290    -0.8210    -2.3790 H     1 <1>   0.1500 
 39 H        8.8990     2.1620     0.6760 H     1 <1>   0.1500 
 40 H        6.6960    -2.5570     0.5270 H     1 <1>   0.1500 
 41 H        5.9080     0.4860    -2.3860 H     1 <1>   0.1500 
 42 H       10.3540     0.0910    -3.5340 H     1 <1>   0.1500 
 43 H       10.8190     3.0450    -0.5110 H     1 <1>   0.1500 
 44 H        5.2380    -4.0850    -0.6970 H     1 <1>   0.1500 
 45 H        4.4470    -1.0640    -3.5880 H     1 <1>   0.1500 
 46 H       11.5590     2.0270    -2.6200 H     1 <1>   0.1500 
 47 H        4.1020    -3.3450    -2.7450 H     1 <1>   0.1500 
@<TRIPOS>BOND
  1   1   2  1   
  2   1  22  1   
  3   2   3  1   
  4   2  23  1   
  5   2  24  1   
  6   3   4  1   
  7   3  25  1   
  8   3  26  1   
  9   4   5  1   
 10   4   6  1   
 11   4  27  1   
 12   5   7  1   
 13   5  28  1   
 14   5  29  1   
 15   6   8  1   
 16   6  30  1   
 17   6  31  1   
 18   7   9  1   
 19   7  10  1   
 20   7  32  1   
 21   8  11  1   
 22   8  33  1   
 23   8  34  1   
 24   9  12  ar  
 25   9  13  ar  
 26  10  14  ar  
 27  10  15  ar  
 28  11  35  1   
 29  11  36  1   
 30  11  37  1   
 31  12  16  ar  
 32  12  38  1   
 33  13  17  ar  
 34  13  39  1   
 35  14  18  ar  
 36  14  40  1   
 37  15  19  ar  
 38  15  41  1   
 39  16  20  ar  
 40  16  42  1   
 41  17  20  ar  
 42  17  43  1   
 43  18  21  ar  
 44  18  44  1   
 45  19  21  ar  
 46  19  45  1   
 47  20  46  1   
 48  21  47  1   
@<TRIPOS>SUBSTRUCTURE
  1 ****   7 GROUP 4 **** **** 0

# MOE 2024.06 (io_trps.svl 2023.06)
