@<TRIPOS>MOLECULE
NONAME
45 48 1 0 0 
SMALL
USER_CHARGES


@<TRIPOS>ATOM
  1 F       -1.7250    -1.3930    -1.5470 F     1 <1>  -0.1900 
  2 C       -2.7630    -0.7230    -1.1280 C.ar  1 <1>   0.1900 
  3 C       -2.9740    -0.6010     0.2320 C.ar  1 <1>  -0.1500 
  4 C       -3.6140    -0.1600    -2.0580 C.ar  1 <1>  -0.1500 
  5 C       -4.0790     0.1080     0.6730 C.ar  1 <1>  -0.1500 
  6 C       -4.7160     0.5480    -1.6090 C.ar  1 <1>  -0.1500 
  7 C       -4.9540     0.6800    -0.2450 C.ar  1 <1>  -0.1430 
  8 C       -6.1680     1.4400     0.2420 C.3   1 <1>   0.4870 
  9 N       -7.2860     0.4790     0.2550 N.4   1 <1>  -0.9060 
 10 C       -8.5610     0.9810     0.7600 C.3   1 <1>   0.6030 
 11 C       -9.4980    -0.2020     0.6870 C.2   1 <1>  -0.3320 
 12 C       -9.0510     2.1360    -0.1450 C.3   1 <1>  -0.1600 
 13 N       -9.3340    -1.4220     1.2980 N.pl3 1 <1>   0.0330 
 14 C      -10.6690    -0.2040     0.0110 C.2   1 <1>  -0.1810 
 15 C      -10.5870     2.2700    -0.2010 C.3   1 <1>  -0.1600 
 16 C      -10.4010    -2.2120     0.9590 C.ar  1 <1>  -0.1520 
 17 C      -11.2580    -1.4770     0.1480 C.ar  1 <1>   0.0000 
 18 C      -11.2480     0.9850    -0.7270 C.3   1 <1>   0.0210 
 19 C      -10.7000    -3.5320     1.3020 C.ar  1 <1>  -0.1500 
 20 C      -12.4310    -2.0670    -0.3350 C.ar  1 <1>  -0.1500 
 21 C      -11.8570    -4.0980     0.8190 C.ar  1 <1>  -0.1500 
 22 C      -12.7280    -3.3690    -0.0020 C.ar  1 <1>  -0.1430 
 23 C      -13.9920    -4.0390    -0.5090 C.3   1 <1>  -0.0970 
 24 H       -2.2810    -1.0520     0.9210 H     1 <1>   0.1500 
 25 H       -3.4090    -0.2750    -3.1090 H     1 <1>   0.1500 
 26 H       -4.2360     0.2060     1.7340 H     1 <1>   0.1500 
 27 H       -5.3750     0.9920    -2.3380 H     1 <1>   0.1500 
 28 H       -6.3780     2.2620    -0.4230 H     1 <1>   0.0800 
 29 H       -5.9870     1.8260     1.2320 H     1 <1>   0.0800 
 30 H       -7.0130    -0.3460     0.7890 H     1 <1>   0.4500 
 31 H       -7.4640     0.1330    -0.6930 H     1 <1>   0.4500 
 32 H       -8.4770     1.3140     1.7830 H     1 <1>   0.0800 
 33 H       -8.7140     1.9800    -1.1550 H     1 <1>   0.0800 
 34 H       -8.6380     3.0640     0.2100 H     1 <1>   0.0800 
 35 H       -8.6160    -1.7290     1.9620 H     1 <1>   0.2700 
 36 H      -10.8650     3.0970    -0.8330 H     1 <1>   0.0800 
 37 H      -10.9650     2.4740     0.7870 H     1 <1>   0.0800 
 38 H      -12.3110     1.0330    -0.5650 H     1 <1>   0.0800 
 39 H      -11.0710     0.8700    -1.7820 H     1 <1>   0.0800 
 40 H      -10.0360    -4.0960     1.9330 H     1 <1>   0.1500 
 41 H      -13.0830    -1.4880    -0.9610 H     1 <1>   0.1500 
 42 H      -12.1040    -5.1140     1.0720 H     1 <1>   0.1500 
 43 H      -14.5630    -3.3660    -1.1240 H     1 <1>   0.0800 
 44 H      -14.6020    -4.3450     0.3220 H     1 <1>   0.0800 
 45 H      -13.7370    -4.9050    -1.0930 H     1 <1>   0.0800 
@<TRIPOS>BOND
  1   1   2  1   
  2   2   3  ar  
  3   2   4  ar  
  4   3   5  ar  
  5   3  24  1   
  6   4   6  ar  
  7   4  25  1   
  8   5   7  ar  
  9   5  26  1   
 10   6   7  ar  
 11   6  27  1   
 12   7   8  1   
 13   8   9  1   
 14   8  28  1   
 15   8  29  1   
 16   9  10  1   
 17   9  30  1   
 18   9  31  1   
 19  10  11  1   
 20  10  12  1   
 21  10  32  1   
 22  11  13  1   
 23  11  14  2   
 24  12  15  1   
 25  12  33  1   
 26  12  34  1   
 27  13  16  1   
 28  13  35  1   
 29  14  17  1   
 30  14  18  1   
 31  15  18  1   
 32  15  36  1   
 33  15  37  1   
 34  16  17  ar  
 35  16  19  ar  
 36  17  20  ar  
 37  18  38  1   
 38  18  39  1   
 39  19  21  ar  
 40  19  40  1   
 41  20  22  ar  
 42  20  41  1   
 43  21  22  ar  
 44  21  42  1   
 45  22  23  1   
 46  23  43  1   
 47  23  44  1   
 48  23  45  1   
@<TRIPOS>SUBSTRUCTURE
  1 ****  11 GROUP 4 **** **** 0

# MOE 2024.06 (io_trps.svl 2023.06)
