@<TRIPOS>MOLECULE
NONAME
47 49 1 0 0 
SMALL
USER_CHARGES


@<TRIPOS>ATOM
  1 S       -0.0880    -0.1820    -1.3160 S.o2  1 <1>   1.4470 
  2 O       -1.1310    -1.1310    -0.9840 O.2   1 <1>  -0.6500 
  3 O       -0.0380     0.3440    -2.6620 O.2   1 <1>  -0.6500 
  4 N       -0.3050     1.1450    -0.2830 N.am  1 <1>  -0.8490 
  5 C        1.5550    -0.8510    -0.8850 C.ar  1 <1>  -0.0090 
  6 C       -1.3590     2.0400    -0.7210 C.3   1 <1>   0.1960 
  7 C       -0.6290     0.8090     1.0940 C.3   1 <1>   0.1960 
  8 C        1.9560    -2.1390    -1.2490 C.ar  1 <1>  -0.1440 
  9 C        2.4720    -0.0650    -0.1950 C.ar  1 <1>  -0.1500 
 10 C       -1.6530     2.9130     0.4950 C.3   1 <1>  -0.1600 
 11 C       -1.1140     2.1240     1.6890 C.3   1 <1>  -0.1600 
 12 C        3.2120    -2.6060    -0.8970 C.ar  1 <1>  -0.1500 
 13 C        1.0370    -3.0650    -2.0390 C.3   1 <1>  -0.0970 
 14 C        3.7400    -0.5080     0.1710 C.ar  1 <1>   0.0860 
 15 C        4.0890    -1.8050    -0.1930 C.ar  1 <1>  -0.1500 
 16 C        4.6460     0.3570     0.9060 C.2   1 <1>   0.5440 
 17 O        4.2210     1.1950     1.6760 O.2   1 <1>  -0.5700 
 18 N        5.9950     0.2580     0.7420 N.am  1 <1>  -0.7300 
 19 C        6.9780     1.1300     1.4010 C.3   1 <1>   0.2840 
 20 C        8.3380     0.8300     0.8000 C.ar  1 <1>  -0.1440 
 21 C        8.7710     1.5120    -0.3270 C.ar  1 <1>  -0.1500 
 22 C        9.1570    -0.1350     1.3680 C.ar  1 <1>  -0.1500 
 23 C       10.0090     1.2340    -0.8800 C.ar  1 <1>  -0.1500 
 24 C       10.3960    -0.4130     0.8170 C.ar  1 <1>  -0.1500 
 25 C       10.8230     0.2720    -0.3080 C.ar  1 <1>  -0.1500 
 26 H       -2.2360     1.4710    -0.9860 H     1 <1>   0.0800 
 27 H       -1.0410     2.6230    -1.5700 H     1 <1>   0.0800 
 28 H        0.2300     0.4230     1.6190 H     1 <1>   0.0800 
 29 H       -1.4280     0.0850     1.1280 H     1 <1>   0.0800 
 30 H        2.2050     0.9430     0.0750 H     1 <1>   0.1500 
 31 H       -2.7090     3.0980     0.5780 H     1 <1>   0.0800 
 32 H       -1.1370     3.8520     0.4030 H     1 <1>   0.0800 
 33 H       -0.2820     2.6430     2.1320 H     1 <1>   0.0800 
 34 H       -1.8640     1.9540     2.4400 H     1 <1>   0.0800 
 35 H        3.5150    -3.6030    -1.1680 H     1 <1>   0.1500 
 36 H        0.2180    -3.3900    -1.4220 H     1 <1>   0.0800 
 37 H        1.5660    -3.9360    -2.3810 H     1 <1>   0.0800 
 38 H        0.6430    -2.5590    -2.9040 H     1 <1>   0.0800 
 39 H        5.0530    -2.1950     0.0800 H     1 <1>   0.1500 
 40 H        6.3920    -0.3380     0.0150 H     1 <1>   0.3700 
 41 H        6.9770     0.9360     2.4600 H     1 <1>   0.0800 
 42 H        6.7110     2.1610     1.2420 H     1 <1>   0.0800 
 43 H        8.1430     2.2600    -0.7800 H     1 <1>   0.1500 
 44 H        8.8330    -0.6740     2.2420 H     1 <1>   0.1500 
 45 H       10.3400     1.7680    -1.7540 H     1 <1>   0.1500 
 46 H       11.0280    -1.1610     1.2620 H     1 <1>   0.1500 
 47 H       11.7860     0.0570    -0.7360 H     1 <1>   0.1500 
@<TRIPOS>BOND
  1   1   2  2   
  2   1   3  2   
  3   1   4  am  
  4   1   5  1   
  5   4   6  1   
  6   4   7  1   
  7   5   8  ar  
  8   5   9  ar  
  9   6  10  1   
 10   6  26  1   
 11   6  27  1   
 12   7  11  1   
 13   7  28  1   
 14   7  29  1   
 15   8  12  ar  
 16   8  13  1   
 17   9  14  ar  
 18   9  30  1   
 19  10  11  1   
 20  10  31  1   
 21  10  32  1   
 22  11  33  1   
 23  11  34  1   
 24  12  15  ar  
 25  12  35  1   
 26  13  36  1   
 27  13  37  1   
 28  13  38  1   
 29  14  15  ar  
 30  14  16  1   
 31  15  39  1   
 32  16  17  2   
 33  16  18  am  
 34  18  19  1   
 35  18  40  1   
 36  19  20  1   
 37  19  41  1   
 38  19  42  1   
 39  20  21  ar  
 40  20  22  ar  
 41  21  23  ar  
 42  21  43  1   
 43  22  24  ar  
 44  22  44  1   
 45  23  25  ar  
 46  23  45  1   
 47  24  25  ar  
 48  24  46  1   
 49  25  47  1   
@<TRIPOS>SUBSTRUCTURE
  1 ****  14 GROUP 4 **** **** 0

# MOE 2024.06 (io_trps.svl 2023.06)
