@<TRIPOS>MOLECULE
NONAME
36 37 1 0 0 
SMALL
USER_CHARGES


@<TRIPOS>ATOM
  1 O       -6.0070     4.0110    -0.2770 O.3   1 <1>  -0.3630 
  2 C       -5.7400     2.8610     0.4140 C.ar  1 <1>   0.0830 
  3 C       -4.9920     4.9690    -0.4960 C.3   1 <1>   0.1200 
  4 C       -4.5520     2.1230     0.2900 C.ar  1 <1>   0.0830 
  5 C       -6.7450     2.4190     1.2690 C.ar  1 <1>  -0.1440 
  6 C       -5.6580     6.3300    -0.6760 C.3   1 <1>  -0.2400 
  7 O       -3.5990     2.5290    -0.5970 O.3   1 <1>  -0.3630 
  8 C       -4.3880     0.9750     1.0600 C.ar  1 <1>  -0.1500 
  9 C       -6.5640     1.2700     2.0230 C.ar  1 <1>  -0.1500 
 10 C       -8.0400     3.1940     1.3750 C.3   1 <1>   0.4860 
 11 C       -2.4030     1.8080    -0.8030 C.3   1 <1>   0.0400 
 12 C       -5.3860     0.5550     1.9200 C.ar  1 <1>  -0.1500 
 13 N       -8.6520     3.1990     0.0350 N.4   1 <1>  -0.7990 
 14 C       -9.8730     3.9980    -0.0570 C.3   1 <1>   0.2960 
 15 C      -11.1690     3.3390     0.2700 C.3   1 <1>  -0.2000 
 16 C      -10.8270     3.6750    -1.1530 C.3   1 <1>  -0.2000 
 17 H       -4.4480     4.6940    -1.3840 H     1 <1>   0.0800 
 18 H       -4.3270     4.9760     0.3520 H     1 <1>   0.0800 
 19 H       -6.3180     6.3140    -1.5240 H     1 <1>   0.0800 
 20 H       -4.9030     7.0760    -0.8500 H     1 <1>   0.0800 
 21 H       -6.2020     6.6010     0.2100 H     1 <1>   0.0800 
 22 H       -3.4910     0.3860     1.0060 H     1 <1>   0.1500 
 23 H       -7.3270     0.9170     2.6970 H     1 <1>   0.1500 
 24 H       -7.8290     4.2030     1.6910 H     1 <1>   0.0800 
 25 H       -8.7010     2.7310     2.0890 H     1 <1>   0.0800 
 26 H       -1.8290     2.3190    -1.5550 H     1 <1>   0.0800 
 27 H       -2.6450     0.8160    -1.1430 H     1 <1>   0.0800 
 28 H       -1.8490     1.7760     0.1190 H     1 <1>   0.0800 
 29 H       -5.2420    -0.3360     2.5100 H     1 <1>   0.1500 
 30 H       -8.8130     2.2340    -0.2650 H     1 <1>   0.4500 
 31 H       -7.9170     3.5740    -0.5880 H     1 <1>   0.4500 
 32 H       -9.7370     5.0370     0.2060 H     1 <1>   0.1000 
 33 H      -11.9460     3.9140     0.7430 H     1 <1>   0.1000 
 34 H      -11.1970     2.3010     0.5540 H     1 <1>   0.1000 
 35 H      -10.6160     2.8700    -1.8360 H     1 <1>   0.1000 
 36 H      -11.3740     4.4750    -1.6220 H     1 <1>   0.1000 
@<TRIPOS>BOND
  1   1   2  1   
  2   1   3  1   
  3   2   4  ar  
  4   2   5  ar  
  5   3   6  1   
  6   3  17  1   
  7   3  18  1   
  8   4   7  1   
  9   4   8  ar  
 10   5   9  ar  
 11   5  10  1   
 12   6  19  1   
 13   6  20  1   
 14   6  21  1   
 15   7  11  1   
 16   8  12  ar  
 17   8  22  1   
 18   9  12  ar  
 19   9  23  1   
 20  10  13  1   
 21  10  24  1   
 22  10  25  1   
 23  11  26  1   
 24  11  27  1   
 25  11  28  1   
 26  12  29  1   
 27  13  14  1   
 28  13  30  1   
 29  13  31  1   
 30  14  15  1   
 31  14  16  1   
 32  14  32  1   
 33  15  16  1   
 34  15  33  1   
 35  15  34  1   
 36  16  35  1   
 37  16  36  1   
@<TRIPOS>SUBSTRUCTURE
  1 ****   2 GROUP 4 **** **** 0

# MOE 2024.06 (io_trps.svl 2023.06)
