@<TRIPOS>MOLECULE
NONAME
55 57 1 0 0 
SMALL
USER_CHARGES


@<TRIPOS>ATOM
  1 O       -0.4490    -0.3480    -2.7570 O.2   1 <1>  -0.5700 
  2 C       -0.4270    -1.2890    -2.0010 C.2   1 <1>   0.5690 
  3 N        0.6270    -1.5780    -1.1790 N.am  1 <1>  -0.5470 
  4 C       -1.6550    -2.2070    -1.9290 C.3   1 <1>   0.1710 
  5 C        1.8360    -0.9140    -0.9010 C.ar  1 <1>   0.1170 
  6 N       -2.7400    -1.7400    -1.0110 N.3   1 <1>  -0.8100 
  7 C        2.5490    -1.3080     0.2360 C.ar  1 <1>   0.0820 
  8 C        2.3550     0.0970    -1.7030 C.ar  1 <1>  -0.1500 
  9 C       -3.9330    -2.6170    -1.0540 C.3   1 <1>   0.1100 
 10 C       -2.2960    -1.4970     0.3840 C.3   1 <1>   0.1100 
 11 O        2.0080    -2.3100     0.9970 O.3   1 <1>  -0.3630 
 12 C        3.7520    -0.6870     0.5520 C.ar  1 <1>  -0.1500 
 13 C        3.5530     0.7120    -1.3850 C.ar  1 <1>  -0.1500 
 14 C       -5.0830    -2.0880    -0.1610 C.3   1 <1>   0.3430 
 15 C       -3.4320    -0.9170     1.2640 C.3   1 <1>   0.3430 
 16 C        2.7320    -2.8650     2.0750 C.3   1 <1>   0.0400 
 17 C        4.2570     0.3210    -0.2510 C.ar  1 <1>   0.0820 
 18 N       -4.7050    -0.7860     0.4850 N.4   1 <1>  -0.9590 
 19 O        5.4390     0.8720     0.1340 O.3   1 <1>  -0.3620 
 20 C       -5.8100    -0.1240     1.2240 C.3   1 <1>   0.4860 
 21 C        6.0290     1.9150    -0.6100 C.3   1 <1>   0.0400 
 22 C       -6.9910     0.0510     0.2890 C.ar  1 <1>  -0.1440 
 23 C       -8.1410    -0.7050     0.4700 C.ar  1 <1>  -0.1500 
 24 C       -6.9300     0.9600    -0.7590 C.ar  1 <1>  -0.1500 
 25 C       -9.2120    -0.5620    -0.3940 C.ar  1 <1>  -0.1500 
 26 C       -8.0030     1.1020    -1.6210 C.ar  1 <1>  -0.1500 
 27 C       -9.1430     0.3400    -1.4400 C.ar  1 <1>  -0.1500 
 28 H        0.5200    -2.3930    -0.5740 H     1 <1>   0.3700 
 29 H       -1.3350    -3.1920    -1.6390 H     1 <1>   0.0800 
 30 H       -2.0540    -2.2760    -2.9260 H     1 <1>   0.0800 
 31 H        1.8290     0.4100    -2.5860 H     1 <1>   0.1500 
 32 H       -3.6710    -3.6140    -0.7410 H     1 <1>   0.0800 
 33 H       -4.2900    -2.6800    -2.0690 H     1 <1>   0.0800 
 34 H       -1.4810    -0.7920     0.3900 H     1 <1>   0.0800 
 35 H       -1.9360    -2.4130     0.8220 H     1 <1>   0.0800 
 36 H        4.3240    -0.9590     1.4180 H     1 <1>   0.1500 
 37 H        3.9160     1.4880    -2.0310 H     1 <1>   0.1500 
 38 H       -5.3170    -2.8220     0.5930 H     1 <1>   0.0800 
 39 H       -5.9620    -1.9560    -0.7720 H     1 <1>   0.0800 
 40 H       -3.1250     0.0490     1.6290 H     1 <1>   0.0800 
 41 H       -3.5830    -1.5590     2.1160 H     1 <1>   0.0800 
 42 H        2.1540    -3.6700     2.4920 H     1 <1>   0.0800 
 43 H        2.8890    -2.1060     2.8210 H     1 <1>   0.0800 
 44 H        3.6710    -3.2430     1.7090 H     1 <1>   0.0800 
 45 H       -4.4520    -0.1970    -0.3230 H     1 <1>   0.4500 
 46 H       -5.4910     0.8420     1.5800 H     1 <1>   0.0800 
 47 H       -6.1020    -0.7230     2.0710 H     1 <1>   0.0800 
 48 H        6.9450     2.1960    -0.1220 H     1 <1>   0.0800 
 49 H        5.3550     2.7520    -0.6330 H     1 <1>   0.0800 
 50 H        6.2400     1.5600    -1.6030 H     1 <1>   0.0800 
 51 H       -8.2210    -1.4100     1.2800 H     1 <1>   0.1500 
 52 H       -6.0560     1.5690    -0.9180 H     1 <1>   0.1500 
 53 H      -10.1050    -1.1480    -0.2530 H     1 <1>   0.1500 
 54 H       -7.9550     1.8070    -2.4340 H     1 <1>   0.1500 
 55 H       -9.9780     0.4520    -2.1110 H     1 <1>   0.1500 
@<TRIPOS>BOND
  1   1   2  2   
  2   2   3  am  
  3   2   4  1   
  4   3   5  1   
  5   3  28  1   
  6   4   6  1   
  7   4  29  1   
  8   4  30  1   
  9   5   7  ar  
 10   5   8  ar  
 11   6   9  1   
 12   6  10  1   
 13   7  11  1   
 14   7  12  ar  
 15   8  13  ar  
 16   8  31  1   
 17   9  14  1   
 18   9  32  1   
 19   9  33  1   
 20  10  15  1   
 21  10  34  1   
 22  10  35  1   
 23  11  16  1   
 24  12  17  ar  
 25  12  36  1   
 26  13  17  ar  
 27  13  37  1   
 28  14  18  1   
 29  14  38  1   
 30  14  39  1   
 31  15  18  1   
 32  15  40  1   
 33  15  41  1   
 34  16  42  1   
 35  16  43  1   
 36  16  44  1   
 37  17  19  1   
 38  18  20  1   
 39  18  45  1   
 40  19  21  1   
 41  20  22  1   
 42  20  46  1   
 43  20  47  1   
 44  21  48  1   
 45  21  49  1   
 46  21  50  1   
 47  22  23  ar  
 48  22  24  ar  
 49  23  25  ar  
 50  23  51  1   
 51  24  26  ar  
 52  24  52  1   
 53  25  27  ar  
 54  25  53  1   
 55  26  27  ar  
 56  26  54  1   
 57  27  55  1   
@<TRIPOS>SUBSTRUCTURE
  1 ****  10 GROUP 4 **** **** 0

# MOE 2024.06 (io_trps.svl 2023.06)
