@<TRIPOS>MOLECULE
NONAME
28 29 1 0 0 
SMALL
USER_CHARGES


@<TRIPOS>ATOM
  1 CL       0.9480     1.1210    -0.7670 Cl    1 <1>  -0.1770 
  2 C       -0.4370     2.0900    -0.3180 C.ar  1 <1>   0.1770 
  3 C       -0.2780     3.4010     0.1000 C.ar  1 <1>   0.1770 
  4 C       -1.6950     1.5220    -0.3860 C.ar  1 <1>  -0.1500 
  5 CL       1.3110     4.1290     0.1900 Cl    1 <1>  -0.1770 
  6 C       -1.3810     4.1540     0.4550 C.ar  1 <1>  -0.1500 
  7 C       -2.8170     2.2650    -0.0360 C.ar  1 <1>   0.1170 
  8 C       -2.6420     3.5830     0.3870 C.ar  1 <1>  -0.1500 
  9 N       -4.0780     1.6580    -0.1050 N.am  1 <1>  -0.5470 
 10 C       -5.3200     2.1910    -0.3010 C.2   1 <1>   0.6900 
 11 O       -5.4670     3.3730    -0.5460 O.2   1 <1>  -0.5700 
 12 N       -6.4070     1.3610    -0.2360 N.am  1 <1>  -0.6600 
 13 C       -6.4110    -0.0380     0.2460 C.3   1 <1>   0.1400 
 14 C       -7.7870     1.8660    -0.4070 C.3   1 <1>   0.1400 
 15 C       -7.8680    -0.4770     0.1640 C.3   1 <1>  -0.1600 
 16 C       -8.6710     0.8180     0.2580 C.3   1 <1>  -0.1600 
 17 H       -1.7950     0.5050    -0.7160 H     1 <1>   0.1500 
 18 H       -1.2560     5.1720     0.7780 H     1 <1>   0.1500 
 19 H       -3.4980     4.1710     0.6680 H     1 <1>   0.1500 
 20 H       -4.0880     0.6450    -0.1100 H     1 <1>   0.3700 
 21 H       -6.0710    -0.0590     1.2690 H     1 <1>   0.0800 
 22 H       -5.7830    -0.6620    -0.3670 H     1 <1>   0.0800 
 23 H       -8.0050     1.9370    -1.4590 H     1 <1>   0.0800 
 24 H       -7.9070     2.8340     0.0500 H     1 <1>   0.0800 
 25 H       -8.1230    -1.1740     0.9430 H     1 <1>   0.0800 
 26 H       -8.0400    -0.9420    -0.7910 H     1 <1>   0.0800 
 27 H       -9.6310     0.7440    -0.2210 H     1 <1>   0.0800 
 28 H       -8.8130     1.0870     1.2900 H     1 <1>   0.0800 
@<TRIPOS>BOND
  1   1   2  1   
  2   2   3  ar  
  3   2   4  ar  
  4   3   5  1   
  5   3   6  ar  
  6   4   7  ar  
  7   4  17  1   
  8   6   8  ar  
  9   6  18  1   
 10   7   8  ar  
 11   7   9  1   
 12   8  19  1   
 13   9  10  am  
 14   9  20  1   
 15  10  11  2   
 16  10  12  am  
 17  12  13  1   
 18  12  14  1   
 19  13  15  1   
 20  13  21  1   
 21  13  22  1   
 22  14  16  1   
 23  14  23  1   
 24  14  24  1   
 25  15  16  1   
 26  15  25  1   
 27  15  26  1   
 28  16  27  1   
 29  16  28  1   
@<TRIPOS>SUBSTRUCTURE
  1 ****   9 GROUP 4 **** **** 0

# MOE 2024.06 (io_trps.svl 2023.06)
