@<TRIPOS>MOLECULE
NONAME
30 31 1 0 0 
SMALL
USER_CHARGES


@<TRIPOS>ATOM
  1 CL       6.3730     1.4400    -2.5230 Cl    1 <1>  -0.1400 
  2 C        6.0010     0.4090    -1.1490 C.2   1 <1>   0.1540 
  3 C        7.0640    -0.2530    -0.4670 C.2   1 <1>   0.4860 
  4 C        4.7290     0.2400    -0.7340 C.2   1 <1>  -0.0410 
  5 N        6.8660    -1.0300     0.5460 N.2   1 <1>  -0.6610 
  6 N        8.3540    -0.1060    -0.8470 N.pl3 1 <1>  -0.8500 
  7 N        4.5090    -0.5850     0.3540 N.am  1 <1>  -0.4690 
  8 C        5.5860    -1.2080     0.9680 C.2   1 <1>   0.8410 
  9 C        3.1560    -0.8100     0.9390 C.3   1 <1>   0.5000 
 10 O        5.3860    -1.9660     1.9070 O.2   1 <1>  -0.5700 
 11 O        2.2540     0.0920     0.3720 O.3   1 <1>  -0.5600 
 12 C        2.5880    -2.2090     0.6580 C.3   1 <1>   0.2000 
 13 C        0.9720    -0.4720     0.2800 C.3   1 <1>   0.2000 
 14 O        2.9720    -3.1660     1.6150 O.3   1 <1>  -0.6800 
 15 C        1.0900    -1.9480     0.6920 C.3   1 <1>   0.2000 
 16 C        0.4830    -0.2710    -1.1630 C.3   1 <1>   0.1200 
 17 O        0.6240    -2.0970     1.9960 O.3   1 <1>  -0.6800 
 18 O       -0.7260    -0.9260    -1.3720 O.3   1 <1>  -0.6800 
 19 H        3.8980     0.7270    -1.2160 H     1 <1>   0.1500 
 20 H        9.0870    -0.5870    -0.3210 H     1 <1>   0.4000 
 21 H        8.6540     0.4950    -1.6170 H     1 <1>   0.4000 
 22 H        3.1660    -0.6240     2.0010 H     1 <1>   0.0800 
 23 H        2.8980    -2.5410    -0.3160 H     1 <1>   0.0800 
 24 H        0.3280     0.0610     0.9590 H     1 <1>   0.0800 
 25 H        3.9350    -3.0520     1.8310 H     1 <1>   0.4000 
 26 H        0.5410    -2.6170     0.0530 H     1 <1>   0.0800 
 27 H        1.1940    -0.6810    -1.8590 H     1 <1>   0.0800 
 28 H        0.3390     0.7750    -1.3690 H     1 <1>   0.0800 
 29 H        1.1520    -2.8240     2.4020 H     1 <1>   0.4000 
 30 H       -1.4330    -0.5510    -0.8080 H     1 <1>   0.4000 
@<TRIPOS>BOND
  1   1   2  1   
  2   2   3  1   
  3   2   4  2   
  4   3   5  2   
  5   3   6  1   
  6   4   7  1   
  7   4  19  1   
  8   5   8  1   
  9   6  20  1   
 10   6  21  1   
 11   7   8  am  
 12   7   9  1   
 13   8  10  2   
 14   9  11  1   
 15   9  12  1   
 16   9  22  1   
 17  11  13  1   
 18  12  14  1   
 19  12  15  1   
 20  12  23  1   
 21  13  15  1   
 22  13  16  1   
 23  13  24  1   
 24  14  25  1   
 25  15  17  1   
 26  15  26  1   
 27  16  18  1   
 28  16  27  1   
 29  16  28  1   
 30  17  29  1   
 31  18  30  1   
@<TRIPOS>SUBSTRUCTURE
  1 ****   7 GROUP 4 **** **** 0

# MOE 2024.06 (io_trps.svl 2023.06)
