@<TRIPOS>MOLECULE
NONAME
47 49 1 0 0 
SMALL
USER_CHARGES


@<TRIPOS>ATOM
  1 O        0.1200     0.3630    -0.3740 O.3   1 <1>  -0.3630 
  2 C        1.2710     1.0380    -0.1310 C.ar  1 <1>   0.0820 
  3 C       -0.7710     0.1890     0.7080 C.3   1 <1>   0.0400 
  4 C        1.3120     2.3500     0.3460 C.ar  1 <1>   0.0820 
  5 C        2.4540     0.3650    -0.3770 C.ar  1 <1>  -0.1500 
  6 O        0.2030     3.0960     0.5620 O.3   1 <1>  -0.3630 
  7 C        2.5350     2.9390     0.6070 C.ar  1 <1>  -0.1500 
  8 C        3.6900     0.9510    -0.1190 C.ar  1 <1>  -0.1440 
  9 C       -0.5290     3.4760    -0.5830 C.3   1 <1>   0.0400 
 10 C        3.7180     2.2560     0.3750 C.ar  1 <1>  -0.1440 
 11 C        4.9870     0.1790    -0.3990 C.3   1 <1>   0.5660 
 12 C        5.0290     2.9720     0.6690 C.3   1 <1>  -0.0160 
 13 N        6.1120     0.7980     0.3310 N.4   1 <1>  -0.9060 
 14 C        4.8950    -1.3150    -0.0450 C.3   1 <1>  -0.1600 
 15 C        6.2250     2.2490     0.0500 C.3   1 <1>   0.3430 
 16 C        6.2420    -2.0480     0.0630 C.3   1 <1>   0.3430 
 17 O        7.0570    -1.5670    -0.9410 O.3   1 <1>  -0.6800 
 18 C        6.2220    -3.5710    -0.0510 C.ar  1 <1>  -0.1440 
 19 C        7.4380    -4.2460    -0.0120 C.ar  1 <1>  -0.1500 
 20 C        5.0550    -4.3190    -0.1770 C.ar  1 <1>  -0.1500 
 21 C        7.4910    -5.6240    -0.1130 C.ar  1 <1>  -0.1500 
 22 C        5.1080    -5.6990    -0.2780 C.ar  1 <1>  -0.1500 
 23 C        6.3250    -6.3530    -0.2490 C.ar  1 <1>  -0.1500 
 24 H       -1.5140    -0.5330     0.4170 H     1 <1>   0.0800 
 25 H       -0.2230    -0.1700     1.5600 H     1 <1>   0.0800 
 26 H       -1.2470     1.1250     0.9360 H     1 <1>   0.0800 
 27 H        2.3670    -0.6300    -0.7750 H     1 <1>   0.1500 
 28 H        2.5420     3.9450     0.9890 H     1 <1>   0.1500 
 29 H       -0.9060     2.5970    -1.0750 H     1 <1>   0.0800 
 30 H       -1.3470     4.0980    -0.2690 H     1 <1>   0.0800 
 31 H        0.1190     4.0240    -1.2430 H     1 <1>   0.0800 
 32 H        5.1940     0.2520    -1.4560 H     1 <1>   0.0800 
 33 H        5.1630     3.0430     1.7340 H     1 <1>   0.0800 
 34 H        4.9910     3.9750     0.2810 H     1 <1>   0.0800 
 35 H        5.9670     0.6440     1.3320 H     1 <1>   0.4500 
 36 H        6.9540     0.2860     0.0200 H     1 <1>   0.4500 
 37 H        4.3190    -1.7790    -0.8240 H     1 <1>   0.0800 
 38 H        4.3530    -1.4450     0.8740 H     1 <1>   0.0800 
 39 H        7.1400     2.6430     0.4620 H     1 <1>   0.0800 
 40 H        6.2310     2.4130    -1.0160 H     1 <1>   0.0800 
 41 H        6.7120    -1.7940     0.9990 H     1 <1>   0.0800 
 42 H        7.3450    -2.3410    -1.4770 H     1 <1>   0.4000 
 43 H        8.3630    -3.7050     0.1020 H     1 <1>   0.1500 
 44 H        4.0840    -3.8620    -0.1950 H     1 <1>   0.1500 
 45 H        8.4400    -6.1330    -0.0840 H     1 <1>   0.1500 
 46 H        4.2000    -6.2680    -0.3790 H     1 <1>   0.1500 
 47 H        6.3640    -7.4260    -0.3290 H     1 <1>   0.1500 
@<TRIPOS>BOND
  1   1   2  1   
  2   1   3  1   
  3   2   4  ar  
  4   2   5  ar  
  5   3  24  1   
  6   3  25  1   
  7   3  26  1   
  8   4   6  1   
  9   4   7  ar  
 10   5   8  ar  
 11   5  27  1   
 12   6   9  1   
 13   7  10  ar  
 14   7  28  1   
 15   8  10  ar  
 16   8  11  1   
 17   9  29  1   
 18   9  30  1   
 19   9  31  1   
 20  10  12  1   
 21  11  13  1   
 22  11  14  1   
 23  11  32  1   
 24  12  15  1   
 25  12  33  1   
 26  12  34  1   
 27  13  15  1   
 28  13  35  1   
 29  13  36  1   
 30  14  16  1   
 31  14  37  1   
 32  14  38  1   
 33  15  39  1   
 34  15  40  1   
 35  16  17  1   
 36  16  18  1   
 37  16  41  1   
 38  17  42  1   
 39  18  19  ar  
 40  18  20  ar  
 41  19  21  ar  
 42  19  43  1   
 43  20  22  ar  
 44  20  44  1   
 45  21  23  ar  
 46  21  45  1   
 47  22  23  ar  
 48  22  46  1   
 49  23  47  1   
@<TRIPOS>SUBSTRUCTURE
  1 ****  14 GROUP 4 **** **** 0

# MOE 2024.06 (io_trps.svl 2023.06)
