@<TRIPOS>MOLECULE
NONAME
44 44 1 0 0 
SMALL
USER_CHARGES


@<TRIPOS>ATOM
  1 O       -1.7100     1.8330    -0.3620 O.3   1 <1>  -0.3630 
  2 C       -2.3980     2.9360     0.0640 C.ar  1 <1>   0.0830 
  3 C       -2.3990     0.6170    -0.5810 C.3   1 <1>   0.1200 
  4 C       -3.6580     3.3130    -0.4290 C.ar  1 <1>   0.0820 
  5 C       -1.7700     3.7160     1.0310 C.ar  1 <1>  -0.1440 
  6 C       -1.4150    -0.5310    -0.3760 C.3   1 <1>  -0.2400 
  7 O       -4.2310     2.5810    -1.4270 O.3   1 <1>  -0.3630 
  8 C       -4.2770     4.4440     0.0960 C.ar  1 <1>  -0.1500 
  9 C       -2.4020     4.8410     1.5370 C.ar  1 <1>  -0.1500 
 10 C       -0.3940     3.3350     1.5290 C.3   1 <1>   0.4860 
 11 C       -5.4960     2.9030    -1.9660 C.3   1 <1>   0.0400 
 12 C       -3.6530     5.1980     1.0720 C.ar  1 <1>  -0.1500 
 13 N        0.4940     3.3540     0.3420 N.4   1 <1>  -0.9060 
 14 C        1.8520     2.7640     0.5750 C.3   1 <1>   0.3430 
 15 C        2.7110     2.6700    -0.7200 C.3   1 <1>   0.3430 
 16 N        4.0890     2.0780    -0.5250 N.4   1 <1>  -0.9590 
 17 C        4.8930     2.2150    -1.7880 C.3   1 <1>   0.2630 
 18 C        4.0690     0.6290    -0.1240 C.3   1 <1>   0.2630 
 19 H       -2.7790     0.6140    -1.5890 H     1 <1>   0.0800 
 20 H       -3.2190     0.5470     0.1150 H     1 <1>   0.0800 
 21 H       -0.6070    -0.4640    -1.0810 H     1 <1>   0.0800 
 22 H       -1.9240    -1.4650    -0.5390 H     1 <1>   0.0800 
 23 H       -1.0370    -0.5270     0.6300 H     1 <1>   0.0800 
 24 H       -5.2460     4.7620    -0.2430 H     1 <1>   0.1500 
 25 H       -1.9400     5.4520     2.2950 H     1 <1>   0.1500 
 26 H       -0.4360     2.3460     1.9570 H     1 <1>   0.0800 
 27 H       -0.0560     4.0340     2.2780 H     1 <1>   0.0800 
 28 H       -5.7300     2.1800    -2.7260 H     1 <1>   0.0800 
 29 H       -5.4530     3.8860    -2.4010 H     1 <1>   0.0800 
 30 H       -6.2330     2.8580    -1.1830 H     1 <1>   0.0800 
 31 H       -4.1480     6.0700     1.4690 H     1 <1>   0.1500 
 32 H        0.5000     4.3210    -0.0120 H     1 <1>   0.4500 
 33 H       -0.0620     2.8080    -0.3470 H     1 <1>   0.4500 
 34 H        1.7320     1.7730     0.9820 H     1 <1>   0.0800 
 35 H        2.3760     3.3670     1.2990 H     1 <1>   0.0800 
 36 H        2.8200     3.6630    -1.1250 H     1 <1>   0.0800 
 37 H        2.1800     2.0750    -1.4460 H     1 <1>   0.0800 
 38 H        4.6060     2.6050     0.2010 H     1 <1>   0.4500 
 39 H        4.4270     1.6720    -2.5950 H     1 <1>   0.0800 
 40 H        5.8880     1.8240    -1.6450 H     1 <1>   0.0800 
 41 H        4.9760     3.2520    -2.0740 H     1 <1>   0.0800 
 42 H        3.5670     0.0360    -0.8720 H     1 <1>   0.0800 
 43 H        3.5650     0.4970     0.8200 H     1 <1>   0.0800 
 44 H        5.0770     0.2570    -0.0200 H     1 <1>   0.0800 
@<TRIPOS>BOND
  1   1   2  1   
  2   1   3  1   
  3   2   4  ar  
  4   2   5  ar  
  5   3   6  1   
  6   3  19  1   
  7   3  20  1   
  8   4   7  1   
  9   4   8  ar  
 10   5   9  ar  
 11   5  10  1   
 12   6  21  1   
 13   6  22  1   
 14   6  23  1   
 15   7  11  1   
 16   8  12  ar  
 17   8  24  1   
 18   9  12  ar  
 19   9  25  1   
 20  10  13  1   
 21  10  26  1   
 22  10  27  1   
 23  11  28  1   
 24  11  29  1   
 25  11  30  1   
 26  12  31  1   
 27  13  14  1   
 28  13  32  1   
 29  13  33  1   
 30  14  15  1   
 31  14  34  1   
 32  14  35  1   
 33  15  16  1   
 34  15  36  1   
 35  15  37  1   
 36  16  17  1   
 37  16  18  1   
 38  16  38  1   
 39  17  39  1   
 40  17  40  1   
 41  17  41  1   
 42  18  42  1   
 43  18  43  1   
 44  18  44  1   
@<TRIPOS>SUBSTRUCTURE
  1 ****   1 GROUP 4 **** **** 0

# MOE 2024.06 (io_trps.svl 2023.06)
