@<TRIPOS>MOLECULE
NONAME
47 50 1 0 0 
SMALL
USER_CHARGES


@<TRIPOS>ATOM
  1 CL       0.0780     0.5290    -1.5020 Cl    1 <1>  -0.1770 
  2 C        1.6540     0.2620    -0.8030 C.ar  1 <1>   0.1770 
  3 C        2.6770    -0.2180    -1.5980 C.ar  1 <1>  -0.1500 
  4 C        1.8560     0.5350     0.5370 C.ar  1 <1>  -0.1500 
  5 C        3.9260    -0.4260    -1.0390 C.ar  1 <1>  -0.1500 
  6 C        3.1080     0.3240     1.0910 C.ar  1 <1>  -0.1500 
  7 C        4.1480    -0.1560     0.3060 C.ar  1 <1>  -0.1430 
  8 C        5.5270    -0.3890     0.9090 C.3   1 <1>   0.2540 
  9 N        6.5440     0.4490     0.2420 N.3   1 <1>  -0.8100 
 10 C        7.9040     0.1170     0.7040 C.3   1 <1>   0.1100 
 11 C        6.2600     1.8930     0.3790 C.3   1 <1>   0.1100 
 12 C        8.9660     0.9540    -0.0380 C.3   1 <1>   0.3430 
 13 C        7.3090     2.7440    -0.3630 C.3   1 <1>   0.3430 
 14 N        8.7110     2.4340     0.0940 N.4   1 <1>  -0.9590 
 15 C        9.7260     3.2350    -0.6510 C.3   1 <1>   0.4230 
 16 C       11.2590     2.9730    -0.1330 C.3   1 <1>  -0.0800 
 17 C        9.4360     4.8790    -0.5300 C.3   1 <1>  -0.1600 
 18 C       11.0600     4.2960    -0.1840 C.3   1 <1>  -0.1600 
 19 C       12.6870     3.7040     0.1840 C.3   1 <1>  -0.1600 
 20 C       10.8570     5.6160    -0.1870 C.3   1 <1>  -0.0800 
 21 C       12.4060     5.3510     0.2690 C.3   1 <1>  -0.1600 
 22 H        2.4940    -0.4240    -2.6370 H     1 <1>   0.1500 
 23 H        1.0420     0.9060     1.1330 H     1 <1>   0.1500 
 24 H        4.7310    -0.7980    -1.6500 H     1 <1>   0.1500 
 25 H        3.2620     0.5340     2.1350 H     1 <1>   0.1500 
 26 H        5.7790    -1.4290     0.7820 H     1 <1>   0.0800 
 27 H        5.5100    -0.1770     1.9650 H     1 <1>   0.0800 
 28 H        8.0960    -0.9260     0.5160 H     1 <1>   0.0800 
 29 H        7.9860     0.2840     1.7650 H     1 <1>   0.0800 
 30 H        6.2340     2.1690     1.4200 H     1 <1>   0.0800 
 31 H        5.2930     2.1130    -0.0440 H     1 <1>   0.0800 
 32 H        8.9470     0.6760    -1.0790 H     1 <1>   0.0800 
 33 H        9.9390     0.7080     0.3520 H     1 <1>   0.0800 
 34 H        7.0860     3.7860    -0.2040 H     1 <1>   0.0800 
 35 H        7.2180     2.5430    -1.4180 H     1 <1>   0.0800 
 36 H        8.7800     2.6840     1.0860 H     1 <1>   0.4500 
 37 H        9.6820     2.9680    -1.6960 H     1 <1>   0.0800 
 38 H       11.1120     2.4270     0.7890 H     1 <1>   0.0800 
 39 H        8.7290     5.1010     0.2550 H     1 <1>   0.0800 
 40 H        9.0320     5.2550    -1.4570 H     1 <1>   0.0800 
 41 H       10.7610     4.2720     0.9580 H     1 <1>   0.0800 
 42 H       11.3740     4.3400    -1.3190 H     1 <1>   0.0800 
 43 H       13.3990     3.4920    -0.6010 H     1 <1>   0.0800 
 44 H       13.1150     3.3480     1.1080 H     1 <1>   0.0800 
 45 H       11.0050     6.2110    -1.0790 H     1 <1>   0.0800 
 46 H       13.0960     5.8840    -0.3670 H     1 <1>   0.0800 
 47 H       12.5620     5.7040     1.2780 H     1 <1>   0.0800 
@<TRIPOS>BOND
  1   1   2  1   
  2   2   3  ar  
  3   2   4  ar  
  4   3   5  ar  
  5   3  22  1   
  6   4   6  ar  
  7   4  23  1   
  8   5   7  ar  
  9   5  24  1   
 10   6   7  ar  
 11   6  25  1   
 12   7   8  1   
 13   8   9  1   
 14   8  26  1   
 15   8  27  1   
 16   9  10  1   
 17   9  11  1   
 18  10  12  1   
 19  10  28  1   
 20  10  29  1   
 21  11  13  1   
 22  11  30  1   
 23  11  31  1   
 24  12  14  1   
 25  12  32  1   
 26  12  33  1   
 27  13  14  1   
 28  13  34  1   
 29  13  35  1   
 30  14  15  1   
 31  14  36  1   
 32  15  16  1   
 33  15  17  1   
 34  15  37  1   
 35  16  18  1   
 36  16  19  1   
 37  16  38  1   
 38  17  20  1   
 39  17  39  1   
 40  17  40  1   
 41  18  20  1   
 42  18  41  1   
 43  18  42  1   
 44  19  21  1   
 45  19  43  1   
 46  19  44  1   
 47  20  21  1   
 48  20  45  1   
 49  21  46  1   
 50  21  47  1   
@<TRIPOS>SUBSTRUCTURE
  1 ****  11 GROUP 4 **** **** 0

# MOE 2024.06 (io_trps.svl 2023.06)
