@<TRIPOS>MOLECULE
NONAME
41 42 1 0 0 
SMALL
USER_CHARGES


@<TRIPOS>ATOM
  1 S        0.3640     0.3040     0.4710 S.3   1 <1>  -0.3320 
  2 C        2.0070    -0.3480     0.2240 C.ar  1 <1>   0.7220 
  3 C       -0.7650    -1.1450     0.2630 C.3   1 <1>  -0.0100 
  4 N        2.9660     0.5260     0.3160 N.ar  1 <1>  -0.6200 
  5 N        2.0930    -1.6190    -0.0210 N.ar  1 <1>  -0.6200 
  6 C        4.1440    -0.0110     0.1250 C.ar  1 <1>   0.7030 
  7 C        3.3240    -2.0350    -0.1980 C.ar  1 <1>   0.7200 
  8 O        5.1770     0.8510     0.2020 O.3   1 <1>  -0.1650 
  9 N        4.3860    -1.2690    -0.1370 N.ar  1 <1>  -0.6200 
 10 N        3.5170    -3.3710    -0.4630 N.pl3 1 <1>  -0.8380 
 11 C        6.4820     0.5160     0.3500 C.ar  1 <1>   0.0830 
 12 C        4.8250    -3.9120    -0.9350 C.3   1 <1>   0.1290 
 13 C        2.4370    -4.3880    -0.3060 C.3   1 <1>   0.1290 
 14 C        6.9080    -0.4780     1.2220 C.ar  1 <1>  -0.1500 
 15 C        7.4240     1.2210    -0.3820 C.ar  1 <1>  -0.1500 
 16 C        8.2550    -0.7690     1.3380 C.ar  1 <1>  -0.1500 
 17 C        8.7690     0.9250    -0.2590 C.ar  1 <1>  -0.1500 
 18 C        9.2230    -0.0800     0.6010 C.ar  1 <1>   0.0860 
 19 C       10.6320    -0.4040     0.7340 C.2   1 <1>   0.6340 
 20 O       11.0500    -1.2700     1.4760 O.2   1 <1>  -0.5700 
 21 O       11.5080     0.2900     0.0000 O.3   1 <1>  -0.4300 
 22 C       12.8940     0.0400     0.0700 C.3   1 <1>   0.1200 
 23 C       13.5970     0.9990    -0.8850 C.3   1 <1>  -0.2400 
 24 H       -1.7740    -0.7970     0.3960 H     1 <1>   0.0800 
 25 H       -0.5060    -1.8750     1.0080 H     1 <1>   0.0800 
 26 H       -0.6190    -1.5370    -0.7280 H     1 <1>   0.0800 
 27 H        5.3930    -3.1530    -1.4460 H     1 <1>   0.0800 
 28 H        4.6630    -4.7260    -1.6200 H     1 <1>   0.0800 
 29 H        5.3940    -4.2660    -0.0930 H     1 <1>   0.0800 
 30 H        1.7050    -4.0630     0.4120 H     1 <1>   0.0800 
 31 H        2.8540    -5.3180     0.0390 H     1 <1>   0.0800 
 32 H        1.9520    -4.5470    -1.2530 H     1 <1>   0.0800 
 33 H        6.1910    -1.0250     1.8100 H     1 <1>   0.1500 
 34 H        7.0970     2.0000    -1.0490 H     1 <1>   0.1500 
 35 H        8.5690    -1.5460     2.0150 H     1 <1>   0.1500 
 36 H        9.4800     1.4840    -0.8420 H     1 <1>   0.1500 
 37 H       13.0700    -0.9850    -0.2100 H     1 <1>   0.0800 
 38 H       13.2180     0.1970     1.0860 H     1 <1>   0.0800 
 39 H       13.2550     0.8360    -1.8910 H     1 <1>   0.0800 
 40 H       14.6580     0.8300    -0.8520 H     1 <1>   0.0800 
 41 H       13.4030     2.0170    -0.5980 H     1 <1>   0.0800 
@<TRIPOS>BOND
  1   1   2  1   
  2   1   3  1   
  3   2   4  ar  
  4   2   5  ar  
  5   3  24  1   
  6   3  25  1   
  7   3  26  1   
  8   4   6  ar  
  9   5   7  ar  
 10   6   8  1   
 11   6   9  ar  
 12   7   9  ar  
 13   7  10  1   
 14   8  11  1   
 15  10  12  1   
 16  10  13  1   
 17  11  14  ar  
 18  11  15  ar  
 19  12  27  1   
 20  12  28  1   
 21  12  29  1   
 22  13  30  1   
 23  13  31  1   
 24  13  32  1   
 25  14  16  ar  
 26  14  33  1   
 27  15  17  ar  
 28  15  34  1   
 29  16  18  ar  
 30  16  35  1   
 31  17  18  ar  
 32  17  36  1   
 33  18  19  1   
 34  19  20  2   
 35  19  21  1   
 36  21  22  1   
 37  22  23  1   
 38  22  37  1   
 39  22  38  1   
 40  23  39  1   
 41  23  40  1   
 42  23  41  1   
@<TRIPOS>SUBSTRUCTURE
  1 ****  11 GROUP 4 **** **** 0

# MOE 2024.06 (io_trps.svl 2023.06)
