@<TRIPOS>MOLECULE
NONAME
51 53 1 0 0 
SMALL
USER_CHARGES


@<TRIPOS>ATOM
  1 O        0.5400     0.7760    -0.9390 O.2   1 <1>  -0.5700 
  2 C        0.3090     1.7770    -0.2870 C.2   1 <1>   0.5440 
  3 N        1.3130     2.3160     0.4960 N.am  1 <1>  -0.6600 
  4 C       -1.0120     2.3730    -0.3600 C.ar  1 <1>   0.0860 
  5 C        2.6060     1.6060     0.6980 C.3   1 <1>   0.1400 
  6 C        1.2660     3.6940     1.0600 C.3   1 <1>   0.1400 
  7 C       -1.5380     2.7990    -1.5780 C.ar  1 <1>  -0.1500 
  8 C       -1.8000     2.5380     0.7790 C.ar  1 <1>  -0.1500 
  9 C        3.7460     2.4300     0.0910 C.3   1 <1>  -0.1600 
 10 C        2.4030     4.5300     0.4660 C.3   1 <1>  -0.1600 
 11 C       -2.7910     3.3810    -1.6560 C.ar  1 <1>  -0.1500 
 12 C       -3.0540     3.1180     0.7080 C.ar  1 <1>  -0.1500 
 13 C        3.7790     3.8590     0.6650 C.3   1 <1>  -0.0190 
 14 C       -3.5500     3.5430    -0.5110 C.ar  1 <1>  -0.1500 
 15 C        4.9310     4.6660     0.0620 C.2   1 <1>   0.5690 
 16 O        4.7070     5.4710    -0.8090 O.2   1 <1>  -0.5700 
 17 N        6.1850     4.4150     0.5500 N.am  1 <1>  -0.5470 
 18 C        7.4360     4.9650     0.2210 C.ar  1 <1>   0.1170 
 19 C        8.5780     4.2450     0.5410 C.ar  1 <1>  -0.1500 
 20 C        7.5910     6.2000    -0.3960 C.ar  1 <1>  -0.1500 
 21 C        9.8450     4.7240     0.2570 C.ar  1 <1>   0.0830 
 22 C        8.8480     6.7010    -0.6810 C.ar  1 <1>  -0.1500 
 23 O       10.8640     3.8930     0.6200 O.3   1 <1>  -0.3630 
 24 C        9.9940     5.9800    -0.3530 C.ar  1 <1>   0.0830 
 25 C       12.0420     3.8140    -0.1510 C.3   1 <1>   0.0400 
 26 O       11.2450     6.4790    -0.5960 O.3   1 <1>  -0.3630 
 27 C       11.4420     7.8180    -0.9920 C.3   1 <1>   0.0400 
 28 H        2.5840     0.6310     0.2410 H     1 <1>   0.0800 
 29 H        2.7680     1.4700     1.7530 H     1 <1>   0.0800 
 30 H        1.3680     3.6380     2.1300 H     1 <1>   0.0800 
 31 H        0.3290     4.1730     0.8370 H     1 <1>   0.0800 
 32 H       -0.9490     2.6660    -2.4690 H     1 <1>   0.1500 
 33 H       -1.4200     2.2010     1.7270 H     1 <1>   0.1500 
 34 H        3.6110     2.4700    -0.9770 H     1 <1>   0.0800 
 35 H        4.6780     1.9300     0.2830 H     1 <1>   0.0800 
 36 H        2.4060     5.5030     0.9240 H     1 <1>   0.0800 
 37 H        2.2130     4.6680    -0.5850 H     1 <1>   0.0800 
 38 H       -3.1760     3.7040    -2.6080 H     1 <1>   0.1500 
 39 H       -3.6460     3.2370     1.6000 H     1 <1>   0.1500 
 40 H        3.9540     3.7940     1.7240 H     1 <1>   0.0800 
 41 H       -4.5250     3.9950    -0.5700 H     1 <1>   0.1500 
 42 H        6.2350     3.6610     1.2310 H     1 <1>   0.3700 
 43 H        8.4930     3.2870     1.0160 H     1 <1>   0.1500 
 44 H        6.7270     6.7830    -0.6560 H     1 <1>   0.1500 
 45 H        8.9060     7.6590    -1.1600 H     1 <1>   0.1500 
 46 H       12.5200     2.8760     0.0620 H     1 <1>   0.0800 
 47 H       12.6930     4.6240     0.1260 H     1 <1>   0.0800 
 48 H       11.7850     3.8700    -1.1940 H     1 <1>   0.0800 
 49 H       12.5000     8.0030    -1.0280 H     1 <1>   0.0800 
 50 H       10.9830     8.4680    -0.2680 H     1 <1>   0.0800 
 51 H       11.0140     7.9620    -1.9680 H     1 <1>   0.0800 
@<TRIPOS>BOND
  1   1   2  2   
  2   2   3  am  
  3   2   4  1   
  4   3   5  1   
  5   3   6  1   
  6   4   7  ar  
  7   4   8  ar  
  8   5   9  1   
  9   5  28  1   
 10   5  29  1   
 11   6  10  1   
 12   6  30  1   
 13   6  31  1   
 14   7  11  ar  
 15   7  32  1   
 16   8  12  ar  
 17   8  33  1   
 18   9  13  1   
 19   9  34  1   
 20   9  35  1   
 21  10  13  1   
 22  10  36  1   
 23  10  37  1   
 24  11  14  ar  
 25  11  38  1   
 26  12  14  ar  
 27  12  39  1   
 28  13  15  1   
 29  13  40  1   
 30  14  41  1   
 31  15  16  2   
 32  15  17  am  
 33  17  18  1   
 34  17  42  1   
 35  18  19  ar  
 36  18  20  ar  
 37  19  21  ar  
 38  19  43  1   
 39  20  22  ar  
 40  20  44  1   
 41  21  23  1   
 42  21  24  ar  
 43  22  24  ar  
 44  22  45  1   
 45  23  25  1   
 46  24  26  1   
 47  25  46  1   
 48  25  47  1   
 49  25  48  1   
 50  26  27  1   
 51  27  49  1   
 52  27  50  1   
 53  27  51  1   
@<TRIPOS>SUBSTRUCTURE
  1 ****  13 GROUP 4 **** **** 0

# MOE 2024.06 (io_trps.svl 2023.06)
