@<TRIPOS>MOLECULE
NONAME
50 53 1 0 0 
SMALL
USER_CHARGES


@<TRIPOS>ATOM
  1 O        0.1110     1.1500    -1.3810 O.2   1 <1>  -0.5700 
  2 C        0.9750     1.8230    -0.9050 C.2   1 <1>   0.4480 
  3 C        1.3620     1.7750     0.5670 C.3   1 <1>  -0.0190 
  4 C        1.8150     2.8090    -1.7060 C.3   1 <1>  -0.0190 
  5 C        2.8480     1.3720     0.6610 C.3   1 <1>  -0.1600 
  6 C        1.1790     3.1820     1.1690 C.3   1 <1>  -0.1600 
  7 C        3.2950     2.3860    -1.6000 C.3   1 <1>  -0.1600 
  8 C        1.6400     4.2130    -1.0870 C.3   1 <1>  -0.1600 
  9 C        3.7240     2.3800    -0.1150 C.3   1 <1>   0.2800 
 10 C        2.0520     4.1980     0.4020 C.3   1 <1>  -0.0800 
 11 O        5.0540     1.9240     0.0340 O.3   1 <1>  -0.4300 
 12 C        3.5310     3.7780     0.5110 C.3   1 <1>  -0.1600 
 13 C        6.1710     2.4730    -0.4580 C.2   1 <1>   0.6340 
 14 O        6.1010     3.4910    -1.1140 O.2   1 <1>  -0.5700 
 15 C        7.4270     1.8050    -0.1720 C.ar  1 <1>   0.0860 
 16 C        8.6380     2.3380    -0.6150 C.ar  1 <1>  -0.1500 
 17 C        7.4840     0.6120     0.5530 C.ar  1 <1>  -0.1500 
 18 C        9.8500     1.7280    -0.3560 C.ar  1 <1>   0.0820 
 19 C        8.6880    -0.0290     0.8200 C.ar  1 <1>   0.0820 
 20 O       10.9520     2.3640    -0.8380 O.3   1 <1>  -0.3630 
 21 C        9.8830     0.5220     0.3530 C.ar  1 <1>   0.0820 
 22 O        8.7500    -1.1950     1.5280 O.3   1 <1>  -0.3630 
 23 C       12.0860     2.5040    -0.0080 C.3   1 <1>   0.0400 
 24 O       11.0570    -0.1160     0.5860 O.3   1 <1>  -0.3630 
 25 C        7.6310    -1.7150     2.2110 C.3   1 <1>   0.0400 
 26 C       11.3480    -1.2010    -0.2630 C.3   1 <1>   0.0400 
 27 H        0.7440     1.0610     1.0820 H     1 <1>   0.0800 
 28 H        1.4950     2.8070    -2.7330 H     1 <1>   0.0800 
 29 H        3.1490     1.3460     1.6930 H     1 <1>   0.0800 
 30 H        2.9750     0.3880     0.2450 H     1 <1>   0.0800 
 31 H        1.4510     3.1750     2.2100 H     1 <1>   0.0800 
 32 H        0.1440     3.4700     1.1030 H     1 <1>   0.0800 
 33 H        3.8890     3.0800    -2.1670 H     1 <1>   0.0800 
 34 H        3.4200     1.4050    -2.0230 H     1 <1>   0.0800 
 35 H        2.2400     4.9270    -1.6270 H     1 <1>   0.0800 
 36 H        0.6110     4.5190    -1.1760 H     1 <1>   0.0800 
 37 H        1.9220     5.1810     0.8240 H     1 <1>   0.0800 
 38 H        4.1300     4.5080    -0.0030 H     1 <1>   0.0800 
 39 H        3.8320     3.7630     1.5430 H     1 <1>   0.0800 
 40 H        8.6370     3.2570    -1.1760 H     1 <1>   0.1500 
 41 H        6.5620     0.1900     0.9010 H     1 <1>   0.1500 
 42 H       12.6510     3.3500    -0.3530 H     1 <1>   0.0800 
 43 H       12.6840     1.6140    -0.0820 H     1 <1>   0.0800 
 44 H       11.7650     2.6620     1.0060 H     1 <1>   0.0800 
 45 H        7.9520    -2.5800     2.7640 H     1 <1>   0.0800 
 46 H        6.8830    -2.0000     1.4930 H     1 <1>   0.0800 
 47 H        7.2560    -0.9680     2.8880 H     1 <1>   0.0800 
 48 H       12.3100    -1.5940     0.0100 H     1 <1>   0.0800 
 49 H       11.3650    -0.8500    -1.2800 H     1 <1>   0.0800 
 50 H       10.5930    -1.9570    -0.1380 H     1 <1>   0.0800 
@<TRIPOS>BOND
  1   1   2  2   
  2   2   3  1   
  3   2   4  1   
  4   3   5  1   
  5   3   6  1   
  6   3  27  1   
  7   4   7  1   
  8   4   8  1   
  9   4  28  1   
 10   5   9  1   
 11   5  29  1   
 12   5  30  1   
 13   6  10  1   
 14   6  31  1   
 15   6  32  1   
 16   7   9  1   
 17   7  33  1   
 18   7  34  1   
 19   8  10  1   
 20   8  35  1   
 21   8  36  1   
 22   9  11  1   
 23   9  12  1   
 24  10  12  1   
 25  10  37  1   
 26  11  13  1   
 27  12  38  1   
 28  12  39  1   
 29  13  14  2   
 30  13  15  1   
 31  15  16  ar  
 32  15  17  ar  
 33  16  18  ar  
 34  16  40  1   
 35  17  19  ar  
 36  17  41  1   
 37  18  20  1   
 38  18  21  ar  
 39  19  21  ar  
 40  19  22  1   
 41  20  23  1   
 42  21  24  1   
 43  22  25  1   
 44  23  42  1   
 45  23  43  1   
 46  23  44  1   
 47  24  26  1   
 48  25  45  1   
 49  25  46  1   
 50  25  47  1   
 51  26  48  1   
 52  26  49  1   
 53  26  50  1   
@<TRIPOS>SUBSTRUCTURE
  1 ****  11 GROUP 4 **** **** 0

# MOE 2024.06 (io_trps.svl 2023.06)
