@<TRIPOS>MOLECULE
NONAME
52 54 1 0 0 
SMALL
USER_CHARGES


@<TRIPOS>ATOM
  1 S       -0.7260     0.4200    -2.5520 S.o2  1 <1>   1.3330 
  2 O       -0.5720     0.3580    -3.9850 O.2   1 <1>  -0.6500 
  3 O       -2.0270     0.6040    -1.9570 O.2   1 <1>  -0.6500 
  4 N        0.2790     1.7140    -2.0040 N.am  1 <1>  -0.6930 
  5 C        0.0340    -1.0140    -1.8200 C.3   1 <1>  -0.1350 
  6 C       -0.0890     2.5910    -0.9760 C.ar  1 <1>   0.1990 
  7 C        1.6290     1.8490    -2.6230 C.3   1 <1>   0.2570 
  8 C       -0.2540     3.9660    -1.1980 C.ar  1 <1>   0.0830 
  9 C       -0.2580     2.1060     0.3140 C.ar  1 <1>  -0.1500 
 10 C        2.7280     1.3950    -1.6660 C.2   1 <1>   0.5690 
 11 O       -0.1070     4.5110    -2.4340 O.3   1 <1>  -0.3630 
 12 C       -0.5570     4.8210    -0.1530 C.ar  1 <1>  -0.1500 
 13 C       -0.5690     2.9620     1.3650 C.ar  1 <1>   0.0830 
 14 O        3.1460     0.2630    -1.7500 O.2   1 <1>  -0.5700 
 15 N        3.1770     2.2620    -0.7210 N.am  1 <1>  -0.7300 
 16 C       -1.1880     4.2980    -3.3180 C.3   1 <1>   0.0400 
 17 C       -0.7160     4.3180     1.1260 C.ar  1 <1>  -0.1500 
 18 O       -0.7310     2.5530     2.6510 O.3   1 <1>  -0.3620 
 19 C        4.1350     1.9420     0.3520 C.3   1 <1>   0.2200 
 20 C       -0.6790     1.1850     2.9900 C.3   1 <1>   0.0400 
 21 C        3.5280     2.1310     1.7580 C.3   1 <1>  -0.0800 
 22 C        5.3180     2.9230     0.3540 C.3   1 <1>  -0.1600 
 23 C        4.7910     2.3210     2.5850 C.3   1 <1>  -0.1600 
 24 C        2.8840     3.5250     1.9070 C.3   1 <1>  -0.1600 
 25 C        5.2890     3.5090     1.7780 C.3   1 <1>  -0.0800 
 26 C        4.0960     4.4720     1.8840 C.3   1 <1>  -0.1600 
 27 H        1.0300    -1.1430    -2.1950 H     1 <1>   0.0800 
 28 H       -0.5350    -1.8910    -2.0610 H     1 <1>   0.0800 
 29 H        0.0760    -0.9150    -0.7540 H     1 <1>   0.0800 
 30 H        1.6890     1.2620    -3.5220 H     1 <1>   0.0800 
 31 H        1.8010     2.8740    -2.8920 H     1 <1>   0.0800 
 32 H       -0.1320     1.0570     0.4810 H     1 <1>   0.1500 
 33 H       -0.6700     5.8730    -0.3430 H     1 <1>   0.1500 
 34 H        2.7380     3.1800    -0.6250 H     1 <1>   0.3700 
 35 H       -0.9940     4.8410    -4.2250 H     1 <1>   0.0800 
 36 H       -1.2730     3.2480    -3.5340 H     1 <1>   0.0800 
 37 H       -2.0910     4.6570    -2.8580 H     1 <1>   0.0800 
 38 H       -0.9550     4.9740     1.9440 H     1 <1>   0.1500 
 39 H        4.4980     0.9330     0.2410 H     1 <1>   0.0800 
 40 H       -0.8700     1.0960     4.0440 H     1 <1>   0.0800 
 41 H        0.3010     0.8050     2.7630 H     1 <1>   0.0800 
 42 H       -1.4370     0.6590     2.4360 H     1 <1>   0.0800 
 43 H        2.9050     1.3130     2.0720 H     1 <1>   0.0800 
 44 H        5.2320     3.6860    -0.3990 H     1 <1>   0.0800 
 45 H        6.2330     2.3780     0.2020 H     1 <1>   0.0800 
 46 H        5.4570     1.4750     2.5380 H     1 <1>   0.0800 
 47 H        4.5860     2.5720     3.6130 H     1 <1>   0.0800 
 48 H        2.3800     3.5950     2.8560 H     1 <1>   0.0800 
 49 H        2.1770     3.7550     1.1330 H     1 <1>   0.0800 
 50 H        6.2260     3.9300     2.1020 H     1 <1>   0.0800 
 51 H        4.1470     5.0320     2.8020 H     1 <1>   0.0800 
 52 H        4.0570     5.1570     1.0540 H     1 <1>   0.0800 
@<TRIPOS>BOND
  1   1   2  2   
  2   1   3  2   
  3   1   4  am  
  4   1   5  1   
  5   4   6  1   
  6   4   7  1   
  7   5  27  1   
  8   5  28  1   
  9   5  29  1   
 10   6   8  ar  
 11   6   9  ar  
 12   7  10  1   
 13   7  30  1   
 14   7  31  1   
 15   8  11  1   
 16   8  12  ar  
 17   9  13  ar  
 18   9  32  1   
 19  10  14  2   
 20  10  15  am  
 21  11  16  1   
 22  12  17  ar  
 23  12  33  1   
 24  13  17  ar  
 25  13  18  1   
 26  15  19  1   
 27  15  34  1   
 28  16  35  1   
 29  16  36  1   
 30  16  37  1   
 31  17  38  1   
 32  18  20  1   
 33  19  21  1   
 34  19  22  1   
 35  19  39  1   
 36  20  40  1   
 37  20  41  1   
 38  20  42  1   
 39  21  23  1   
 40  21  24  1   
 41  21  43  1   
 42  22  25  1   
 43  22  44  1   
 44  22  45  1   
 45  23  25  1   
 46  23  46  1   
 47  23  47  1   
 48  24  26  1   
 49  24  48  1   
 50  24  49  1   
 51  25  26  1   
 52  25  50  1   
 53  26  51  1   
 54  26  52  1   
@<TRIPOS>SUBSTRUCTURE
  1 ****   6 GROUP 4 **** **** 0

# MOE 2024.06 (io_trps.svl 2023.06)
