@<TRIPOS>MOLECULE
NONAME
53 54 1 0 0 
SMALL
USER_CHARGES


@<TRIPOS>ATOM
  1 S        0.7000     0.9080     1.5460 S.o2  1 <1>   1.3330 
  2 O        1.9860     1.1640     2.1520 O.2   1 <1>  -0.6500 
  3 O        0.4120    -0.3870     0.9840 O.2   1 <1>  -0.6500 
  4 N        0.5230     2.0740     0.2860 N.am  1 <1>  -0.6930 
  5 C       -0.5790     1.3720     2.6940 C.3   1 <1>  -0.1350 
  6 C       -0.6300     2.1130    -0.4990 C.ar  1 <1>   0.1990 
  7 C        1.4530     3.2440     0.2560 C.3   1 <1>   0.2570 
  8 C       -1.6810     3.0030    -0.2300 C.ar  1 <1>   0.0830 
  9 C       -0.7410     1.2450    -1.5760 C.ar  1 <1>  -0.1500 
 10 C        2.7670     2.9580    -0.4750 C.2   1 <1>   0.5690 
 11 O       -1.5480     3.8320     0.8510 O.3   1 <1>  -0.3630 
 12 C       -2.8070     3.0080    -1.0470 C.ar  1 <1>  -0.1500 
 13 C       -1.8630     1.2540    -2.3840 C.ar  1 <1>  -0.1500 
 14 O        2.9850     3.5360    -1.5150 O.2   1 <1>  -0.5700 
 15 N        3.6460     2.0710     0.0800 N.am  1 <1>  -0.5470 
 16 C       -2.4900     4.8470     1.1150 C.3   1 <1>   0.1200 
 17 C       -2.8950     2.1370    -2.1210 C.ar  1 <1>  -0.1500 
 18 C        4.7790     1.4910    -0.5070 C.ar  1 <1>   0.1170 
 19 C       -2.0070     5.6270     2.3330 C.3   1 <1>  -0.2400 
 20 C        5.9740     2.2010    -0.6610 C.ar  1 <1>  -0.1430 
 21 C        4.7130     0.1580    -0.9200 C.ar  1 <1>  -0.1430 
 22 C        7.0720     1.5760    -1.2300 C.ar  1 <1>  -0.1500 
 23 C        6.1290     3.6510    -0.2080 C.3   1 <1>  -0.0170 
 24 C        5.8220    -0.4470    -1.4850 C.ar  1 <1>  -0.1500 
 25 C        3.4310    -0.6530    -0.7600 C.3   1 <1>  -0.0970 
 26 C        6.9990     0.2590    -1.6420 C.ar  1 <1>  -0.1500 
 27 C        6.4350     3.7220     1.2900 C.3   1 <1>  -0.2400 
 28 H       -0.5520     0.7310     3.5530 H     1 <1>   0.0800 
 29 H       -1.5410     1.2840     2.2290 H     1 <1>   0.0800 
 30 H       -0.4420     2.3860     3.0120 H     1 <1>   0.0800 
 31 H        1.6720     3.5610     1.2590 H     1 <1>   0.0800 
 32 H        0.9700     4.0650    -0.2450 H     1 <1>   0.0800 
 33 H        0.0630     0.5590    -1.7770 H     1 <1>   0.1500 
 34 H       -3.6280     3.6760    -0.8720 H     1 <1>   0.1500 
 35 H       -1.9310     0.5750    -3.2160 H     1 <1>   0.1500 
 36 H        3.3080     1.5880     0.9230 H     1 <1>   0.3700 
 37 H       -3.4430     4.3870     1.3120 H     1 <1>   0.0800 
 38 H       -2.5530     5.4880     0.2520 H     1 <1>   0.0800 
 39 H       -3.7670     2.1440    -2.7510 H     1 <1>   0.1500 
 40 H       -1.9340     4.9770     3.1860 H     1 <1>   0.0800 
 41 H       -2.7050     6.4130     2.5600 H     1 <1>   0.0800 
 42 H       -1.0480     6.0700     2.1330 H     1 <1>   0.0800 
 43 H        7.9960     2.1130    -1.3530 H     1 <1>   0.1500 
 44 H        5.2380     4.2100    -0.4250 H     1 <1>   0.0800 
 45 H        6.9280     4.1180    -0.7550 H     1 <1>   0.0800 
 46 H        5.7770    -1.4720    -1.8080 H     1 <1>   0.1500 
 47 H        3.5200    -1.6170    -1.2250 H     1 <1>   0.0800 
 48 H        3.2140    -0.7990     0.2830 H     1 <1>   0.0800 
 49 H        2.6060    -0.1360    -1.2170 H     1 <1>   0.0800 
 50 H        7.8580    -0.2160    -2.0840 H     1 <1>   0.1500 
 51 H        5.6320     3.2830     1.8540 H     1 <1>   0.0800 
 52 H        6.5540     4.7460     1.5950 H     1 <1>   0.0800 
 53 H        7.3420     3.1860     1.5070 H     1 <1>   0.0800 
@<TRIPOS>BOND
  1   1   2  2   
  2   1   3  2   
  3   1   4  am  
  4   1   5  1   
  5   4   6  1   
  6   4   7  1   
  7   5  28  1   
  8   5  29  1   
  9   5  30  1   
 10   6   8  ar  
 11   6   9  ar  
 12   7  10  1   
 13   7  31  1   
 14   7  32  1   
 15   8  11  1   
 16   8  12  ar  
 17   9  13  ar  
 18   9  33  1   
 19  10  14  2   
 20  10  15  am  
 21  11  16  1   
 22  12  17  ar  
 23  12  34  1   
 24  13  17  ar  
 25  13  35  1   
 26  15  18  1   
 27  15  36  1   
 28  16  19  1   
 29  16  37  1   
 30  16  38  1   
 31  17  39  1   
 32  18  20  ar  
 33  18  21  ar  
 34  19  40  1   
 35  19  41  1   
 36  19  42  1   
 37  20  22  ar  
 38  20  23  1   
 39  21  24  ar  
 40  21  25  1   
 41  22  26  ar  
 42  22  43  1   
 43  23  27  1   
 44  23  44  1   
 45  23  45  1   
 46  24  26  ar  
 47  24  46  1   
 48  25  47  1   
 49  25  48  1   
 50  25  49  1   
 51  26  50  1   
 52  27  51  1   
 53  27  52  1   
 54  27  53  1   
@<TRIPOS>SUBSTRUCTURE
  1 ****   7 GROUP 4 **** **** 0

# MOE 2024.06 (io_trps.svl 2023.06)
