@<TRIPOS>MOLECULE
NONAME
48 50 1 0 0 
SMALL
USER_CHARGES


@<TRIPOS>ATOM
  1 O       -0.9740     0.1990     1.8830 O.2   1 <1>  -0.5700 
  2 C       -1.5640     0.7850     0.9940 C.2   1 <1>   0.7060 
  3 O       -2.8430     0.4460     0.8080 O.3   1 <1>  -0.2320 
  4 C       -0.9770     1.7990     0.1540 C.2   1 <1>   0.0290 
  5 C       -3.6430     0.9970    -0.1310 C.ar  1 <1>   0.0830 
  6 C        0.4070     2.1850     0.3410 C.2   1 <1>   0.6160 
  7 C       -1.7630     2.3710    -0.8020 C.2   1 <1>  -0.1780 
  8 C       -3.1220     1.9850    -0.9740 C.ar  1 <1>   0.0280 
  9 C       -4.9660     0.5780    -0.2480 C.ar  1 <1>  -0.1440 
 10 O        0.8890     3.0730    -0.3370 O.2   1 <1>  -0.5700 
 11 N        1.2400     1.5970     1.2520 N.am  1 <1>  -0.7300 
 12 C       -3.9550     2.5420    -1.9430 C.ar  1 <1>  -0.1500 
 13 C       -5.7670     1.1470    -1.2230 C.ar  1 <1>  -0.1500 
 14 C       -5.5490    -0.4950     0.6640 C.3   1 <1>   0.1220 
 15 C        2.6100     2.0290     1.6360 C.3   1 <1>   0.1400 
 16 C       -5.2640     2.1270    -2.0660 C.ar  1 <1>  -0.1500 
 17 C       -5.4200    -1.8620     0.0150 C.2   1 <1>  -0.2880 
 18 C        3.5820     1.9900     0.4370 C.3   1 <1>   0.3430 
 19 C       -6.4380    -2.6740    -0.2880 C.2   1 <1>  -0.3000 
 20 N        4.3170     3.2810     0.2250 N.4   1 <1>  -0.9590 
 21 C        3.4130     4.4120    -0.1880 C.3   1 <1>   0.3430 
 22 C        5.4320     3.1480    -0.7710 C.3   1 <1>   0.3430 
 23 C        4.2090     5.7200    -0.4030 C.3   1 <1>   0.1200 
 24 C        6.1250     4.5060    -1.0350 C.3   1 <1>   0.1200 
 25 O        5.5860     5.5160    -0.2250 O.3   1 <1>  -0.5600 
 26 H       -1.3850     3.1350    -1.4610 H     1 <1>   0.1500 
 27 H        0.8060     0.8820     1.8630 H     1 <1>   0.3700 
 28 H       -3.5720     3.3030    -2.6000 H     1 <1>   0.1500 
 29 H       -6.7890     0.8290    -1.3370 H     1 <1>   0.1500 
 30 H       -6.5860    -0.2790     0.8540 H     1 <1>   0.0800 
 31 H       -5.0470    -0.5010     1.6150 H     1 <1>   0.0800 
 32 H        2.9750     1.3660     2.4020 H     1 <1>   0.0800 
 33 H        2.5540     3.0200     2.0530 H     1 <1>   0.0800 
 34 H       -5.9010     2.5590    -2.8180 H     1 <1>   0.1500 
 35 H       -4.3940    -2.1230    -0.1850 H     1 <1>   0.1500 
 36 H        3.0210     1.7520    -0.4530 H     1 <1>   0.0800 
 37 H        4.2930     1.1980     0.6030 H     1 <1>   0.0800 
 38 H       -6.3170    -3.6390    -0.7490 H     1 <1>   0.1500 
 39 H       -7.4740    -2.4470    -0.1040 H     1 <1>   0.1500 
 40 H        4.7660     3.5970     1.0970 H     1 <1>   0.4500 
 41 H        2.6530     4.5790     0.5570 H     1 <1>   0.0800 
 42 H        2.9030     4.1570    -1.1030 H     1 <1>   0.0800 
 43 H        5.0490     2.7670    -1.7040 H     1 <1>   0.0800 
 44 H        6.1660     2.4450    -0.4110 H     1 <1>   0.0800 
 45 H        3.8930     6.4650     0.3060 H     1 <1>   0.0800 
 46 H        4.0410     6.1080    -1.3940 H     1 <1>   0.0800 
 47 H        6.0150     4.7960    -2.0660 H     1 <1>   0.0800 
 48 H        7.1770     4.4350    -0.8170 H     1 <1>   0.0800 
@<TRIPOS>BOND
  1   1   2  2   
  2   2   3  1   
  3   2   4  1   
  4   3   5  1   
  5   4   6  1   
  6   4   7  2   
  7   5   8  ar  
  8   5   9  ar  
  9   6  10  2   
 10   6  11  am  
 11   7   8  1   
 12   7  26  1   
 13   8  12  ar  
 14   9  13  ar  
 15   9  14  1   
 16  11  15  1   
 17  11  27  1   
 18  12  16  ar  
 19  12  28  1   
 20  13  16  ar  
 21  13  29  1   
 22  14  17  1   
 23  14  30  1   
 24  14  31  1   
 25  15  18  1   
 26  15  32  1   
 27  15  33  1   
 28  16  34  1   
 29  17  19  2   
 30  17  35  1   
 31  18  20  1   
 32  18  36  1   
 33  18  37  1   
 34  19  38  1   
 35  19  39  1   
 36  20  21  1   
 37  20  22  1   
 38  20  40  1   
 39  21  23  1   
 40  21  41  1   
 41  21  42  1   
 42  22  24  1   
 43  22  43  1   
 44  22  44  1   
 45  23  25  1   
 46  23  45  1   
 47  23  46  1   
 48  24  25  1   
 49  24  47  1   
 50  24  48  1   
@<TRIPOS>SUBSTRUCTURE
  1 ****   4 GROUP 4 **** **** 0

# MOE 2024.06 (io_trps.svl 2023.06)
