@<TRIPOS>MOLECULE
NONAME
46 48 1 0 0 
SMALL
USER_CHARGES


@<TRIPOS>ATOM
  1 CL      -1.8850     0.5370    -0.9680 Cl    1 <1>  -0.1770 
  2 C       -1.0710     2.0480    -0.6330 C.ar  1 <1>   0.1770 
  3 C       -1.5410     2.8720     0.3800 C.ar  1 <1>  -0.1440 
  4 C        0.0240     2.3960    -1.4000 C.ar  1 <1>  -0.1500 
  5 C       -0.8850     4.0710     0.6210 C.ar  1 <1>  -0.1500 
  6 C       -2.7460     2.4660     1.2040 C.3   1 <1>   0.4870 
  7 C        0.6680     3.5950    -1.1530 C.ar  1 <1>  -0.1500 
  8 C        0.2140     4.4290    -0.1450 C.ar  1 <1>  -0.1500 
  9 N       -3.9600     2.4960     0.3460 N.4   1 <1>  -0.9590 
 10 C       -4.2400     3.8720    -0.2110 C.3   1 <1>   0.3430 
 11 C       -5.1670     1.9400     1.0580 C.3   1 <1>   0.3430 
 12 C       -5.4880     3.9090    -1.1180 C.3   1 <1>   0.2090 
 13 C       -6.4180     1.9100     0.1570 C.3   1 <1>   0.2090 
 14 N       -6.6580     3.2350    -0.4810 N.pl3 1 <1>  -0.8380 
 15 C       -7.6950     4.0150     0.0340 C.ar  1 <1>   0.1000 
 16 C       -9.0030     3.9020    -0.4490 C.ar  1 <1>  -0.1430 
 17 C       -7.4270     4.9070     1.0670 C.ar  1 <1>  -0.1500 
 18 C      -10.0190     4.6650     0.1220 C.ar  1 <1>  -0.1430 
 19 C       -9.3150     2.9420    -1.6000 C.3   1 <1>  -0.0970 
 20 C       -8.4320     5.6710     1.6210 C.ar  1 <1>  -0.1500 
 21 C       -9.7250     5.5470     1.1510 C.ar  1 <1>  -0.1500 
 22 C      -11.4660     4.5680    -0.3430 C.3   1 <1>  -0.0970 
 23 H        0.3700     1.7380    -2.1790 H     1 <1>   0.1500 
 24 H       -1.2100     4.7370     1.4030 H     1 <1>   0.1500 
 25 H       -2.8640     3.1380     2.0380 H     1 <1>   0.0800 
 26 H       -2.5900     1.4700     1.5880 H     1 <1>   0.0800 
 27 H        1.5250     3.8790    -1.7430 H     1 <1>   0.1500 
 28 H        0.7240     5.3590     0.0450 H     1 <1>   0.1500 
 29 H       -3.7640     1.8810    -0.4570 H     1 <1>   0.4500 
 30 H       -3.3910     4.2210    -0.7770 H     1 <1>   0.0800 
 31 H       -4.3970     4.5620     0.6010 H     1 <1>   0.0800 
 32 H       -5.3920     2.5490     1.9180 H     1 <1>   0.0800 
 33 H       -4.9640     0.9400     1.4030 H     1 <1>   0.0800 
 34 H       -5.2710     3.4220    -2.0520 H     1 <1>   0.0800 
 35 H       -5.7420     4.9320    -1.3390 H     1 <1>   0.0800 
 36 H       -7.2770     1.6380     0.7480 H     1 <1>   0.0800 
 37 H       -6.3020     1.1650    -0.6100 H     1 <1>   0.0800 
 38 H       -6.4310     5.0060     1.4450 H     1 <1>   0.1500 
 39 H       -8.4480     2.7610    -2.2060 H     1 <1>   0.0800 
 40 H      -10.0680     3.3490    -2.2480 H     1 <1>   0.0800 
 41 H       -9.6630     2.0060    -1.2050 H     1 <1>   0.0800 
 42 H       -8.2180     6.3610     2.4190 H     1 <1>   0.1500 
 43 H      -10.5020     6.1450     1.5930 H     1 <1>   0.1500 
 44 H      -11.7770     3.5400    -0.3860 H     1 <1>   0.0800 
 45 H      -11.5680     5.0100    -1.3180 H     1 <1>   0.0800 
 46 H      -12.1240     5.0850     0.3330 H     1 <1>   0.0800 
@<TRIPOS>BOND
  1   1   2  1   
  2   2   3  ar  
  3   2   4  ar  
  4   3   5  ar  
  5   3   6  1   
  6   4   7  ar  
  7   4  23  1   
  8   5   8  ar  
  9   5  24  1   
 10   6   9  1   
 11   6  25  1   
 12   6  26  1   
 13   7   8  ar  
 14   7  27  1   
 15   8  28  1   
 16   9  10  1   
 17   9  11  1   
 18   9  29  1   
 19  10  12  1   
 20  10  30  1   
 21  10  31  1   
 22  11  13  1   
 23  11  32  1   
 24  11  33  1   
 25  12  14  1   
 26  12  34  1   
 27  12  35  1   
 28  13  14  1   
 29  13  36  1   
 30  13  37  1   
 31  14  15  1   
 32  15  16  ar  
 33  15  17  ar  
 34  16  18  ar  
 35  16  19  1   
 36  17  20  ar  
 37  17  38  1   
 38  18  21  ar  
 39  18  22  1   
 40  19  39  1   
 41  19  40  1   
 42  19  41  1   
 43  20  21  ar  
 44  20  42  1   
 45  21  43  1   
 46  22  44  1   
 47  22  45  1   
 48  22  46  1   
@<TRIPOS>SUBSTRUCTURE
  1 ****  10 GROUP 4 **** **** 0

# MOE 2024.06 (io_trps.svl 2023.06)
