@<TRIPOS>MOLECULE
NONAME
45 46 1 0 0 
SMALL
USER_CHARGES


@<TRIPOS>ATOM
  1 S       -0.0070    -0.5060    -0.1090 S.3   1 <1>  -0.0800 
  2 C       -0.2160     1.2400    -0.1820 C.2   1 <1>   0.1040 
  3 C        1.7310    -0.3370    -0.0430 C.2   1 <1>  -0.1400 
  4 N       -1.4880     1.7880    -0.2570 N.am  1 <1>  -0.4940 
  5 C        0.9950     1.8860    -0.1500 C.2   1 <1>  -0.0860 
  6 C        2.0970     0.9480    -0.0920 C.2   1 <1>  -0.1810 
  7 C        2.6370    -1.5480     0.0540 C.3   1 <1>   0.3000 
  8 C       -2.7480     1.2510    -0.2600 C.2   1 <1>   0.5690 
  9 C        1.1140     3.3220    -0.1570 C.2   1 <1>   0.8060 
 10 C        3.5900     1.2510    -0.0740 C.3   1 <1>   0.0210 
 11 O        3.9380    -1.1130     0.3570 O.3   1 <1>  -0.5600 
 12 O       -2.9890     0.0730    -0.1860 O.2   1 <1>  -0.5700 
 13 C       -3.9110     2.2220    -0.3700 C.3   1 <1>  -0.0990 
 14 O        0.1540     4.0660    -0.2770 O.2   1 <1>  -0.5700 
 15 O        2.3230     3.8760    -0.0160 O.3   1 <1>  -0.4300 
 16 C        4.4040    -0.0250    -0.4050 C.3   1 <1>   0.2000 
 17 C       -3.9760     3.2250     0.7950 C.3   1 <1>  -0.2400 
 18 C        2.5070     5.2740     0.0030 C.3   1 <1>   0.1200 
 19 C        5.9300     0.1360    -0.1990 C.3   1 <1>  -0.0800 
 20 C        3.9980     5.5480     0.1730 C.3   1 <1>  -0.2400 
 21 C        6.6850    -1.0740    -0.7710 C.3   1 <1>  -0.2400 
 22 C        6.3390     0.3380     1.2720 C.3   1 <1>  -0.2400 
 23 H       -1.4790     2.8120    -0.3050 H     1 <1>   0.3700 
 24 H        2.6590    -2.0880    -0.8760 H     1 <1>   0.0800 
 25 H        2.3150    -2.2020     0.8450 H     1 <1>   0.0800 
 26 H        3.8550     1.6340     0.8930 H     1 <1>   0.0800 
 27 H        3.8270     1.9960    -0.8110 H     1 <1>   0.0800 
 28 H       -4.8250     1.6550    -0.3950 H     1 <1>   0.0800 
 29 H       -3.8300     2.7510    -1.3020 H     1 <1>   0.0800 
 30 H        4.2320    -0.2700    -1.4400 H     1 <1>   0.0800 
 31 H       -4.0440     2.6990     1.7310 H     1 <1>   0.0800 
 32 H       -4.8440     3.8520     0.6920 H     1 <1>   0.0800 
 33 H       -3.1030     3.8530     0.8130 H     1 <1>   0.0800 
 34 H        1.9440     5.6820     0.8260 H     1 <1>   0.0800 
 35 H        2.1430     5.6810    -0.9250 H     1 <1>   0.0800 
 36 H        6.2460     1.0030    -0.7530 H     1 <1>   0.0800 
 37 H        4.3510     5.1260     1.0970 H     1 <1>   0.0800 
 38 H        4.1710     6.6090     0.1950 H     1 <1>   0.0800 
 39 H        4.5500     5.1290    -0.6500 H     1 <1>   0.0800 
 40 H        6.4160    -1.9690    -0.2370 H     1 <1>   0.0800 
 41 H        7.7470    -0.9300    -0.6860 H     1 <1>   0.0800 
 42 H        6.4440    -1.2110    -1.8100 H     1 <1>   0.0800 
 43 H        6.0060    -0.4920     1.8710 H     1 <1>   0.0800 
 44 H        5.9180     1.2400     1.6740 H     1 <1>   0.0800 
 45 H        7.4090     0.4080     1.3550 H     1 <1>   0.0800 
@<TRIPOS>BOND
  1   1   2  1   
  2   1   3  1   
  3   2   4  1   
  4   2   5  2   
  5   3   6  2   
  6   3   7  1   
  7   4   8  am  
  8   4  23  1   
  9   5   6  1   
 10   5   9  1   
 11   6  10  1   
 12   7  11  1   
 13   7  24  1   
 14   7  25  1   
 15   8  12  2   
 16   8  13  1   
 17   9  14  2   
 18   9  15  1   
 19  10  16  1   
 20  10  26  1   
 21  10  27  1   
 22  11  16  1   
 23  13  17  1   
 24  13  28  1   
 25  13  29  1   
 26  15  18  1   
 27  16  19  1   
 28  16  30  1   
 29  17  31  1   
 30  17  32  1   
 31  17  33  1   
 32  18  20  1   
 33  18  34  1   
 34  18  35  1   
 35  19  21  1   
 36  19  22  1   
 37  19  36  1   
 38  20  37  1   
 39  20  38  1   
 40  20  39  1   
 41  21  40  1   
 42  21  41  1   
 43  21  42  1   
 44  22  43  1   
 45  22  44  1   
 46  22  45  1   
@<TRIPOS>SUBSTRUCTURE
  1 ****   5 GROUP 4 **** **** 0

# MOE 2024.06 (io_trps.svl 2023.06)
