@<TRIPOS>MOLECULE
NONAME
45 46 1 0 0 
SMALL
USER_CHARGES


@<TRIPOS>ATOM
  1 CL      -0.8970     0.7220    -2.2110 Cl    1 <1>  -0.1770 
  2 C       -0.5750     2.0660    -1.1350 C.ar  1 <1>   0.1770 
  3 C       -1.6130     2.6460    -0.4130 C.ar  1 <1>   0.0830 
  4 C        0.7240     2.5250    -1.0270 C.ar  1 <1>  -0.1500 
  5 O       -2.8650     2.1390    -0.5700 O.3   1 <1>  -0.3630 
  6 C       -1.3180     3.7130     0.4330 C.ar  1 <1>  -0.1500 
  7 C        1.0110     3.5860    -0.1820 C.ar  1 <1>  -0.1430 
  8 C       -3.9640     2.6290     0.1530 C.3   1 <1>   0.1200 
  9 C       -0.0160     4.1740     0.5420 C.ar  1 <1>  -0.1500 
 10 C        2.4320     4.1040    -0.0530 C.3   1 <1>  -0.0960 
 11 C       -5.1740     1.7990    -0.2730 C.3   1 <1>  -0.1600 
 12 C       -6.4270     2.2200     0.4920 C.3   1 <1>   0.3430 
 13 N       -7.6130     1.4790    -0.0170 N.4   1 <1>  -0.9590 
 14 C       -8.9100     2.0330     0.4890 C.3   1 <1>   0.3430 
 15 C       -7.5690    -0.0090     0.2350 C.3   1 <1>   0.3430 
 16 C      -10.1150     1.3710    -0.2300 C.3   1 <1>   0.2000 
 17 C       -8.9250    -0.7100    -0.0490 C.3   1 <1>   0.2000 
 18 O       -9.7690     0.1300    -0.7900 O.3   1 <1>  -0.5600 
 19 C      -10.6220     2.2280    -1.3890 C.3   1 <1>  -0.2400 
 20 C       -9.6500    -1.1790     1.2190 C.3   1 <1>  -0.2400 
 21 H        1.4980     2.0510    -1.6030 H     1 <1>   0.1500 
 22 H       -2.0790     4.1990     1.0110 H     1 <1>   0.1500 
 23 H       -4.0940     3.6700    -0.0940 H     1 <1>   0.0800 
 24 H       -3.7550     2.5110     1.2030 H     1 <1>   0.0800 
 25 H        0.1990     5.0000     1.1980 H     1 <1>   0.1500 
 26 H        3.1400     3.3370    -0.3120 H     1 <1>   0.0800 
 27 H        2.6260     4.4160     0.9580 H     1 <1>   0.0800 
 28 H        2.5750     4.9430    -0.7100 H     1 <1>   0.0800 
 29 H       -4.9510     0.7650    -0.0790 H     1 <1>   0.0800 
 30 H       -5.3270     1.9410    -1.3280 H     1 <1>   0.0800 
 31 H       -6.5800     3.2790     0.3550 H     1 <1>   0.0800 
 32 H       -6.2960     2.0310     1.5450 H     1 <1>   0.0800 
 33 H       -7.6630     1.5780    -1.0430 H     1 <1>   0.4500 
 34 H       -8.9530     3.0990     0.3390 H     1 <1>   0.0800 
 35 H       -8.9940     1.8500     1.5480 H     1 <1>   0.0800 
 36 H       -7.2900    -0.2020     1.2570 H     1 <1>   0.0800 
 37 H       -6.8150    -0.4570    -0.3910 H     1 <1>   0.0800 
 38 H      -10.9200     1.2150     0.4690 H     1 <1>   0.0800 
 39 H       -8.7380    -1.5750    -0.6630 H     1 <1>   0.0800 
 40 H       -9.8510     2.3750    -2.1240 H     1 <1>   0.0800 
 41 H      -10.9480     3.1880    -1.0310 H     1 <1>   0.0800 
 42 H      -11.4620     1.7440    -1.8560 H     1 <1>   0.0800 
 43 H       -9.8040    -0.3790     1.9180 H     1 <1>   0.0800 
 44 H       -9.0690    -1.9410     1.7080 H     1 <1>   0.0800 
 45 H      -10.6000    -1.6100     0.9550 H     1 <1>   0.0800 
@<TRIPOS>BOND
  1   1   2  1   
  2   2   3  ar  
  3   2   4  ar  
  4   3   5  1   
  5   3   6  ar  
  6   4   7  ar  
  7   4  21  1   
  8   5   8  1   
  9   6   9  ar  
 10   6  22  1   
 11   7   9  ar  
 12   7  10  1   
 13   8  11  1   
 14   8  23  1   
 15   8  24  1   
 16   9  25  1   
 17  10  26  1   
 18  10  27  1   
 19  10  28  1   
 20  11  12  1   
 21  11  29  1   
 22  11  30  1   
 23  12  13  1   
 24  12  31  1   
 25  12  32  1   
 26  13  14  1   
 27  13  15  1   
 28  13  33  1   
 29  14  16  1   
 30  14  34  1   
 31  14  35  1   
 32  15  17  1   
 33  15  36  1   
 34  15  37  1   
 35  16  18  1   
 36  16  19  1   
 37  16  38  1   
 38  17  18  1   
 39  17  20  1   
 40  17  39  1   
 41  19  40  1   
 42  19  41  1   
 43  19  42  1   
 44  20  43  1   
 45  20  44  1   
 46  20  45  1   
@<TRIPOS>SUBSTRUCTURE
  1 ****  11 GROUP 4 **** **** 0

# MOE 2024.06 (io_trps.svl 2023.06)
