@<TRIPOS>MOLECULE
NONAME
48 49 1 0 0 
SMALL
USER_CHARGES


@<TRIPOS>ATOM
  1 O       -0.0080     0.7770     0.3940 O.3   1 <1>  -0.5600 
  2 C       -1.0220    -0.1830     0.4650 C.3   1 <1>   0.1200 
  3 C       -0.1960     1.7610    -0.5810 C.3   1 <1>   0.1200 
  4 C       -2.3740     0.4890     0.7720 C.3   1 <1>   0.3430 
  5 C       -1.5080     2.5250    -0.3210 C.3   1 <1>   0.3430 
  6 N       -2.6830     1.5900    -0.2110 N.4   1 <1>  -0.9590 
  7 C       -3.9220     2.3380     0.1400 C.3   1 <1>   0.3430 
  8 C       -5.1590     1.4650    -0.0860 C.3   1 <1>  -0.1600 
  9 C       -6.4430     2.2680     0.1680 C.3   1 <1>  -0.1600 
 10 C       -7.6920     1.4070    -0.0610 C.3   1 <1>  -0.1600 
 11 C       -8.9710     2.2170     0.1930 C.3   1 <1>  -0.1600 
 12 C      -10.2260     1.3720    -0.0330 C.3   1 <1>   0.1200 
 13 O      -11.3500     2.1820     0.2200 O.3   1 <1>  -0.3630 
 14 C      -12.6110     1.6970     0.0980 C.ar  1 <1>   0.0820 
 15 C      -13.6460     2.5760     0.3680 C.ar  1 <1>  -0.1500 
 16 C      -12.9080     0.3890    -0.2760 C.ar  1 <1>  -0.1500 
 17 C      -14.9630     2.1630     0.2680 C.ar  1 <1>  -0.1500 
 18 C      -14.2260    -0.0200    -0.3750 C.ar  1 <1>  -0.1500 
 19 C      -15.2600     0.8630    -0.1060 C.ar  1 <1>  -0.1430 
 20 C      -16.7040     0.4080    -0.2140 C.3   1 <1>  -0.0970 
 21 H       -0.7640    -0.8720     1.2510 H     1 <1>   0.0800 
 22 H       -1.0560    -0.7240    -0.4650 H     1 <1>   0.0800 
 23 H       -0.2000     1.2940    -1.5510 H     1 <1>   0.0800 
 24 H        0.6420     2.4350    -0.5290 H     1 <1>   0.0800 
 25 H       -2.3320     0.8940     1.7700 H     1 <1>   0.0800 
 26 H       -3.1520    -0.2570     0.7500 H     1 <1>   0.0800 
 27 H       -1.6720     3.2320    -1.1180 H     1 <1>   0.0800 
 28 H       -1.3980     3.0810     0.5960 H     1 <1>   0.0800 
 29 H       -2.8200     1.1570    -1.1340 H     1 <1>   0.4500 
 30 H       -4.0020     3.2150    -0.4830 H     1 <1>   0.0800 
 31 H       -3.8830     2.6600     1.1680 H     1 <1>   0.0800 
 32 H       -5.1460     0.6220     0.5810 H     1 <1>   0.0800 
 33 H       -5.1700     1.1080    -1.1020 H     1 <1>   0.0800 
 34 H       -6.4780     3.1180    -0.4930 H     1 <1>   0.0800 
 35 H       -6.4500     2.6340     1.1820 H     1 <1>   0.0800 
 36 H       -7.6740     0.5580     0.6020 H     1 <1>   0.0800 
 37 H       -7.7010     1.0420    -1.0750 H     1 <1>   0.0800 
 38 H       -9.0020     3.0630    -0.4720 H     1 <1>   0.0800 
 39 H       -8.9760     2.5770     1.2080 H     1 <1>   0.0800 
 40 H      -10.2520     0.5370     0.6460 H     1 <1>   0.0800 
 41 H      -10.2790     1.0290    -1.0510 H     1 <1>   0.0800 
 42 H      -13.4130     3.5840     0.6580 H     1 <1>   0.1500 
 43 H      -12.1330    -0.3200    -0.4920 H     1 <1>   0.1500 
 44 H      -15.7540     2.8600     0.4830 H     1 <1>   0.1500 
 45 H      -14.4460    -1.0330    -0.6630 H     1 <1>   0.1500 
 46 H      -17.3380     1.2330    -0.4900 H     1 <1>   0.0800 
 47 H      -17.0340     0.0170     0.7310 H     1 <1>   0.0800 
 48 H      -16.8020    -0.3580    -0.9620 H     1 <1>   0.0800 
@<TRIPOS>BOND
  1   1   2  1   
  2   1   3  1   
  3   2   4  1   
  4   2  21  1   
  5   2  22  1   
  6   3   5  1   
  7   3  23  1   
  8   3  24  1   
  9   4   6  1   
 10   4  25  1   
 11   4  26  1   
 12   5   6  1   
 13   5  27  1   
 14   5  28  1   
 15   6   7  1   
 16   6  29  1   
 17   7   8  1   
 18   7  30  1   
 19   7  31  1   
 20   8   9  1   
 21   8  32  1   
 22   8  33  1   
 23   9  10  1   
 24   9  34  1   
 25   9  35  1   
 26  10  11  1   
 27  10  36  1   
 28  10  37  1   
 29  11  12  1   
 30  11  38  1   
 31  11  39  1   
 32  12  13  1   
 33  12  40  1   
 34  12  41  1   
 35  13  14  1   
 36  14  15  ar  
 37  14  16  ar  
 38  15  17  ar  
 39  15  42  1   
 40  16  18  ar  
 41  16  43  1   
 42  17  19  ar  
 43  17  44  1   
 44  18  19  ar  
 45  18  45  1   
 46  19  20  1   
 47  20  46  1   
 48  20  47  1   
 49  20  48  1   
@<TRIPOS>SUBSTRUCTURE
  1 ****  10 GROUP 4 **** **** 0

# MOE 2024.06 (io_trps.svl 2023.06)
