@<TRIPOS>MOLECULE
NONAME
48 50 1 0 0 
SMALL
USER_CHARGES


@<TRIPOS>ATOM
  1 O        0.9720     0.5090    -0.0780 O.2   1 <1>  -0.5700 
  2 C        0.0470     1.1220     0.3970 C.2   1 <1>   0.6300 
  3 N        0.0990     2.4570     0.6530 N.am  1 <1>  -0.7300 
  4 C       -1.2260     0.3470     0.7180 C.3   1 <1>  -0.1000 
  5 C        1.1780     3.4160     0.3700 C.3   1 <1>   0.2200 
  6 C       -2.6180     0.9260     0.7050 C.3   1 <1>   0.0640 
  7 C       -1.9530     0.5800     2.0070 C.3   1 <1>  -0.2000 
  8 C        1.3900     3.5230    -1.1380 C.3   1 <1>  -0.2400 
  9 C        2.4540     3.0160     1.1070 C.3   1 <1>  -0.2400 
 10 C       -3.7680     0.0420     0.2430 C.ar  1 <1>  -0.0320 
 11 C       -2.8460     2.3930     0.3600 C.ar  1 <1>  -0.0320 
 12 C       -3.6890    -0.6510    -0.9540 C.ar  1 <1>  -0.1500 
 13 C       -4.9120    -0.0720     1.0160 C.ar  1 <1>  -0.1500 
 14 C       -3.2780     3.2940     1.3210 C.ar  1 <1>  -0.1500 
 15 C       -2.6050     2.8450    -0.9270 C.ar  1 <1>  -0.1500 
 16 C       -4.7380    -1.4530    -1.3700 C.ar  1 <1>  -0.1500 
 17 C       -5.9620    -0.8740     0.6010 C.ar  1 <1>  -0.1500 
 18 C       -3.4480     4.6300     1.0030 C.ar  1 <1>  -0.1500 
 19 C       -2.7740     4.1800    -1.2460 C.ar  1 <1>  -0.1500 
 20 C       -5.8810    -1.5680    -0.5950 C.ar  1 <1>  -0.1440 
 21 C       -3.1920     5.0810    -0.2810 C.ar  1 <1>  -0.1440 
 22 C       -7.0310    -2.4480    -1.0510 C.3   1 <1>  -0.0970 
 23 C       -3.3800     6.5460    -0.6320 C.3   1 <1>  -0.0970 
 24 H       -0.7920     2.9030     0.8870 H     1 <1>   0.3700 
 25 H       -1.1280    -0.6780     0.4090 H     1 <1>   0.1000 
 26 H        0.8650     4.3800     0.7370 H     1 <1>   0.0800 
 27 H       -1.6020     1.3640     2.6540 H     1 <1>   0.1000 
 28 H       -2.2970    -0.2790     2.5540 H     1 <1>   0.1000 
 29 H        1.7320     2.5860    -1.5400 H     1 <1>   0.0800 
 30 H        2.1300     4.2720    -1.3510 H     1 <1>   0.0800 
 31 H        0.4710     3.8020    -1.6210 H     1 <1>   0.0800 
 32 H        2.8390     2.0860     0.7300 H     1 <1>   0.0800 
 33 H        2.2570     2.9170     2.1590 H     1 <1>   0.0800 
 34 H        3.2060     3.7710     0.9700 H     1 <1>   0.0800 
 35 H       -2.8090    -0.5680    -1.5660 H     1 <1>   0.1500 
 36 H       -4.9870     0.4670     1.9430 H     1 <1>   0.1500 
 37 H       -3.4870     2.9570     2.3210 H     1 <1>   0.1500 
 38 H       -2.2780     2.1530    -1.6830 H     1 <1>   0.1500 
 39 H       -4.6600    -1.9870    -2.3010 H     1 <1>   0.1500 
 40 H       -6.8430    -0.9520     1.2130 H     1 <1>   0.1500 
 41 H       -3.7850     5.3170     1.7600 H     1 <1>   0.1500 
 42 H       -2.5810     4.5130    -2.2510 H     1 <1>   0.1500 
 43 H       -7.0840    -2.4700    -2.1250 H     1 <1>   0.0800 
 44 H       -7.9650    -2.0710    -0.6750 H     1 <1>   0.0800 
 45 H       -6.8880    -3.4490    -0.6880 H     1 <1>   0.0800 
 46 H       -4.3840     6.7090    -0.9810 H     1 <1>   0.0800 
 47 H       -2.6920     6.8390    -1.4040 H     1 <1>   0.0800 
 48 H       -3.2060     7.1650     0.2300 H     1 <1>   0.0800 
@<TRIPOS>BOND
  1   1   2  2   
  2   2   3  am  
  3   2   4  1   
  4   3   5  1   
  5   3  24  1   
  6   4   6  1   
  7   4   7  1   
  8   4  25  1   
  9   5   8  1   
 10   5   9  1   
 11   5  26  1   
 12   6   7  1   
 13   6  10  1   
 14   6  11  1   
 15   7  27  1   
 16   7  28  1   
 17   8  29  1   
 18   8  30  1   
 19   8  31  1   
 20   9  32  1   
 21   9  33  1   
 22   9  34  1   
 23  10  12  ar  
 24  10  13  ar  
 25  11  14  ar  
 26  11  15  ar  
 27  12  16  ar  
 28  12  35  1   
 29  13  17  ar  
 30  13  36  1   
 31  14  18  ar  
 32  14  37  1   
 33  15  19  ar  
 34  15  38  1   
 35  16  20  ar  
 36  16  39  1   
 37  17  20  ar  
 38  17  40  1   
 39  18  21  ar  
 40  18  41  1   
 41  19  21  ar  
 42  19  42  1   
 43  20  22  1   
 44  21  23  1   
 45  22  43  1   
 46  22  44  1   
 47  22  45  1   
 48  23  46  1   
 49  23  47  1   
 50  23  48  1   
@<TRIPOS>SUBSTRUCTURE
  1 ****  11 GROUP 4 **** **** 0

# MOE 2024.06 (io_trps.svl 2023.06)
