@<TRIPOS>MOLECULE
NONAME
31 31 1 0 0 
SMALL
USER_CHARGES


@<TRIPOS>ATOM
  1 F        0.2390    -0.4470     0.1330 F     1 <1>  -0.3400 
  2 C       -0.8320    -0.8960    -0.5120 C.3   1 <1>   1.1640 
  3 F       -1.8490    -0.1550    -0.0900 F     1 <1>  -0.3400 
  4 F       -0.6490    -0.5920    -1.7900 F     1 <1>  -0.3400 
  5 C       -1.0590    -2.4030    -0.3030 C.ar  1 <1>  -0.1440 
  6 C       -2.3340    -2.9420    -0.4110 C.ar  1 <1>  -0.1500 
  7 C        0.0010    -3.2580    -0.0140 C.ar  1 <1>  -0.1500 
  8 C       -2.5670    -4.3010    -0.2370 C.ar  1 <1>   0.1170 
  9 C       -0.2000    -4.6220     0.1750 C.ar  1 <1>  -0.1440 
 10 N       -3.8450    -4.8670    -0.3340 N.am  1 <1>  -0.5470 
 11 C       -1.4900    -5.1250     0.0580 C.ar  1 <1>  -0.1500 
 12 C        0.9900    -5.5440     0.4930 C.3   1 <1>   1.1640 
 13 C       -4.9470    -4.4560    -1.0330 C.2   1 <1>   0.5690 
 14 F        1.6650    -5.8750    -0.5990 F     1 <1>  -0.3400 
 15 F        0.6220    -6.6850     1.0660 F     1 <1>  -0.3400 
 16 F        1.8630    -4.9800     1.3180 F     1 <1>  -0.3400 
 17 O       -4.9630    -3.4850    -1.7460 O.2   1 <1>  -0.5700 
 18 C       -6.2100    -5.2860    -0.9030 C.3   1 <1>  -0.0990 
 19 C       -6.9050    -5.0790     0.4520 C.3   1 <1>  -0.1600 
 20 C       -8.1770    -5.9250     0.5610 C.3   1 <1>  -0.2400 
 21 H       -3.1660    -2.2950    -0.6340 H     1 <1>   0.1500 
 22 H        1.0000    -2.8560     0.0660 H     1 <1>   0.1500 
 23 H       -3.9690    -5.7430     0.1710 H     1 <1>   0.3700 
 24 H       -1.6700    -6.1770     0.1900 H     1 <1>   0.1500 
 25 H       -5.9630    -6.3220    -1.0400 H     1 <1>   0.0800 
 26 H       -6.8830    -5.0040    -1.6950 H     1 <1>   0.0800 
 27 H       -7.1600    -4.0380     0.5640 H     1 <1>   0.0800 
 28 H       -6.2350    -5.3420     1.2540 H     1 <1>   0.0800 
 29 H       -8.8740    -5.6570    -0.2150 H     1 <1>   0.0800 
 30 H       -8.6490    -5.7590     1.5130 H     1 <1>   0.0800 
 31 H       -7.9460    -6.9720     0.4720 H     1 <1>   0.0800 
@<TRIPOS>BOND
  1   1   2  1   
  2   2   3  1   
  3   2   4  1   
  4   2   5  1   
  5   5   6  ar  
  6   5   7  ar  
  7   6   8  ar  
  8   6  21  1   
  9   7   9  ar  
 10   7  22  1   
 11   8  10  1   
 12   8  11  ar  
 13   9  11  ar  
 14   9  12  1   
 15  10  13  am  
 16  10  23  1   
 17  11  24  1   
 18  12  14  1   
 19  12  15  1   
 20  12  16  1   
 21  13  17  2   
 22  13  18  1   
 23  18  19  1   
 24  18  25  1   
 25  18  26  1   
 26  19  20  1   
 27  19  27  1   
 28  19  28  1   
 29  20  29  1   
 30  20  30  1   
 31  20  31  1   
@<TRIPOS>SUBSTRUCTURE
  1 ****   8 GROUP 4 **** **** 0

# MOE 2024.06 (io_trps.svl 2023.06)
