@<TRIPOS>MOLECULE
NONAME
43 44 1 0 0 
SMALL
USER_CHARGES


@<TRIPOS>ATOM
  1 CL       0.9430     0.1580    -1.0740 Cl    1 <1>  -0.1770 
  2 C        0.3710    -1.3200    -0.3260 C.ar  1 <1>   0.1770 
  3 C        1.2930    -2.3110     0.0180 C.ar  1 <1>   0.1170 
  4 C       -0.9850    -1.4590    -0.1020 C.ar  1 <1>  -0.1500 
  5 N        2.6600    -2.0990    -0.2430 N.am  1 <1>  -0.5470 
  6 C        0.7980    -3.4790     0.5970 C.ar  1 <1>  -0.1500 
  7 C       -1.4350    -2.6270     0.4800 C.ar  1 <1>   0.1770 
  8 C        3.7780    -2.6770     0.2750 C.2   1 <1>   0.6900 
  9 C       -0.5580    -3.6380     0.8300 C.ar  1 <1>  -0.1500 
 10 CL      -3.1440    -2.8320     0.7750 Cl    1 <1>  -0.1770 
 11 O        3.7340    -3.5040     1.1630 O.2   1 <1>  -0.5700 
 12 N        4.9790    -2.3020    -0.2320 N.am  1 <1>  -0.7300 
 13 C        6.2580    -2.8120     0.2800 C.3   1 <1>   0.2200 
 14 C        7.3500    -1.7630     0.0900 C.3   1 <1>  -0.1600 
 15 C        6.6160    -4.1050    -0.4480 C.3   1 <1>  -0.1600 
 16 C        8.6950    -2.3140     0.5590 C.3   1 <1>   0.3430 
 17 C        7.9650    -4.6240     0.0360 C.3   1 <1>   0.3430 
 18 N        9.0150    -3.5810    -0.1700 N.4   1 <1>  -0.9590 
 19 C       10.3510    -4.1220     0.2110 C.3   1 <1>   0.3430 
 20 C       11.4680    -3.2480    -0.3620 C.3   1 <1>  -0.1600 
 21 C       12.8430    -3.8640    -0.0760 C.3   1 <1>  -0.2400 
 22 H       -1.6730    -0.6810    -0.3740 H     1 <1>   0.1500 
 23 H        2.8440    -1.2710    -0.8060 H     1 <1>   0.3700 
 24 H        1.4680    -4.2750     0.8690 H     1 <1>   0.1500 
 25 H       -0.9350    -4.5390     1.2810 H     1 <1>   0.1500 
 26 H        5.0040    -1.7360    -1.0780 H     1 <1>   0.3700 
 27 H        6.1530    -3.0190     1.3350 H     1 <1>   0.0800 
 28 H        7.1100    -0.8910     0.6730 H     1 <1>   0.0800 
 29 H        7.4220    -1.4720    -0.9430 H     1 <1>   0.0800 
 30 H        6.6450    -3.9480    -1.5120 H     1 <1>   0.0800 
 31 H        5.8650    -4.8470    -0.2370 H     1 <1>   0.0800 
 32 H        8.6540    -2.5060     1.6200 H     1 <1>   0.0800 
 33 H        9.4610    -1.5770     0.3810 H     1 <1>   0.0800 
 34 H        8.2200    -5.5200    -0.5090 H     1 <1>   0.0800 
 35 H        7.8980    -4.8740     1.0830 H     1 <1>   0.0800 
 36 H        9.0460    -3.3690    -1.1770 H     1 <1>   0.4500 
 37 H       10.4610    -5.1200    -0.1840 H     1 <1>   0.0800 
 38 H       10.4390    -4.1760     1.2850 H     1 <1>   0.0800 
 39 H       11.4430    -2.2660     0.0750 H     1 <1>   0.0800 
 40 H       11.3510    -3.1570    -1.4290 H     1 <1>   0.0800 
 41 H       13.0110    -3.9520     0.9840 H     1 <1>   0.0800 
 42 H       13.6180    -3.2390    -0.4870 H     1 <1>   0.0800 
 43 H       12.9280    -4.8400    -0.5230 H     1 <1>   0.0800 
@<TRIPOS>BOND
  1   1   2  1   
  2   2   3  ar  
  3   2   4  ar  
  4   3   5  1   
  5   3   6  ar  
  6   4   7  ar  
  7   4  22  1   
  8   5   8  am  
  9   5  23  1   
 10   6   9  ar  
 11   6  24  1   
 12   7   9  ar  
 13   7  10  1   
 14   8  11  2   
 15   8  12  am  
 16   9  25  1   
 17  12  13  1   
 18  12  26  1   
 19  13  14  1   
 20  13  15  1   
 21  13  27  1   
 22  14  16  1   
 23  14  28  1   
 24  14  29  1   
 25  15  17  1   
 26  15  30  1   
 27  15  31  1   
 28  16  18  1   
 29  16  32  1   
 30  16  33  1   
 31  17  18  1   
 32  17  34  1   
 33  17  35  1   
 34  18  19  1   
 35  18  36  1   
 36  19  20  1   
 37  19  37  1   
 38  19  38  1   
 39  20  21  1   
 40  20  39  1   
 41  20  40  1   
 42  21  41  1   
 43  21  42  1   
 44  21  43  1   
@<TRIPOS>SUBSTRUCTURE
  1 ****   8 GROUP 4 **** **** 0

# MOE 2024.06 (io_trps.svl 2023.06)
