@<TRIPOS>MOLECULE
NONAME
47 49 1 0 0 
SMALL
USER_CHARGES


@<TRIPOS>ATOM
  1 F       -0.0350    -1.6650     0.2290 F     1 <1>  -0.1900 
  2 C        1.2580    -1.7560     0.0520 C.ar  1 <1>   0.1900 
  3 C        1.7590    -2.8260    -0.6630 C.ar  1 <1>  -0.1500 
  4 C        2.0760    -0.7790     0.5840 C.ar  1 <1>  -0.1500 
  5 C        3.1280    -2.9160    -0.8470 C.ar  1 <1>  -0.1500 
  6 C        3.4430    -0.8820     0.3900 C.ar  1 <1>  -0.1500 
  7 C        3.9870    -1.9510    -0.3230 C.ar  1 <1>   0.1170 
  8 N        5.3650    -2.0830    -0.5520 N.am  1 <1>  -0.5470 
  9 C        6.4280    -1.6230     0.1650 C.2   1 <1>   0.6900 
 10 O        6.3030    -1.0790     1.2430 O.2   1 <1>  -0.5700 
 11 N        7.6670    -1.7880    -0.3620 N.am  1 <1>  -0.7300 
 12 C        8.8900    -1.3650     0.3340 C.3   1 <1>   0.2200 
 13 C        9.2060     0.0830    -0.0310 C.3   1 <1>  -0.1600 
 14 C       10.0490    -2.2850    -0.0420 C.3   1 <1>  -0.1600 
 15 C       10.4960     0.5290     0.6490 C.3   1 <1>   0.3430 
 16 C       11.3330    -1.8150     0.6380 C.3   1 <1>   0.3430 
 17 N       11.6120    -0.3950     0.2770 N.4   1 <1>  -0.9590 
 18 C       12.9070     0.0670     0.8500 C.3   1 <1>   0.4860 
 19 C       13.2610     1.3970     0.2170 C.ar  1 <1>  -0.1430 
 20 C       13.1140     2.5750     0.9360 C.ar  1 <1>  -0.1500 
 21 C       13.7280     1.4480    -1.0900 C.ar  1 <1>  -0.1500 
 22 C       13.4170     3.7910     0.3490 C.ar  1 <1>  -0.1500 
 23 C       14.0300     2.6650    -1.6740 C.ar  1 <1>  -0.1500 
 24 C       13.8720     3.8370    -0.9560 C.ar  1 <1>  -0.1500 
 25 H        1.0900    -3.5670    -1.0620 H     1 <1>   0.1500 
 26 H        1.6520     0.0400     1.1360 H     1 <1>   0.1500 
 27 H        3.5300    -3.7460    -1.3990 H     1 <1>   0.1500 
 28 H        4.0860    -0.1240     0.7970 H     1 <1>   0.1500 
 29 H        5.6120    -2.7250    -1.2970 H     1 <1>   0.3700 
 30 H        7.7520    -2.0340    -1.3460 H     1 <1>   0.3700 
 31 H        8.7250    -1.4310     1.3990 H     1 <1>   0.0800 
 32 H        8.4030     0.7150     0.3060 H     1 <1>   0.0800 
 33 H        9.3000     0.1980    -1.0960 H     1 <1>   0.0800 
 34 H       10.1910    -2.3000    -1.1080 H     1 <1>   0.0800 
 35 H        9.8280    -3.2850     0.2860 H     1 <1>   0.0800 
 36 H       10.3560     0.5260     1.7190 H     1 <1>   0.0800 
 37 H       10.7280     1.5370     0.3420 H     1 <1>   0.0800 
 38 H       12.1530    -2.4450     0.3290 H     1 <1>   0.0800 
 39 H       11.2230    -1.9040     1.7080 H     1 <1>   0.0800 
 40 H       11.7190    -0.3260    -0.7430 H     1 <1>   0.4500 
 41 H       13.6870    -0.6450     0.6330 H     1 <1>   0.0800 
 42 H       12.8290     0.1740     1.9200 H     1 <1>   0.0800 
 43 H       12.7670     2.5660     1.9560 H     1 <1>   0.1500 
 44 H       13.8680     0.5510    -1.6680 H     1 <1>   0.1500 
 45 H       13.3030     4.7060     0.9070 H     1 <1>   0.1500 
 46 H       14.3920     2.7070    -2.6880 H     1 <1>   0.1500 
 47 H       14.1090     4.7840    -1.4110 H     1 <1>   0.1500 
@<TRIPOS>BOND
  1   1   2  1   
  2   2   3  ar  
  3   2   4  ar  
  4   3   5  ar  
  5   3  25  1   
  6   4   6  ar  
  7   4  26  1   
  8   5   7  ar  
  9   5  27  1   
 10   6   7  ar  
 11   6  28  1   
 12   7   8  1   
 13   8   9  am  
 14   8  29  1   
 15   9  10  2   
 16   9  11  am  
 17  11  12  1   
 18  11  30  1   
 19  12  13  1   
 20  12  14  1   
 21  12  31  1   
 22  13  15  1   
 23  13  32  1   
 24  13  33  1   
 25  14  16  1   
 26  14  34  1   
 27  14  35  1   
 28  15  17  1   
 29  15  36  1   
 30  15  37  1   
 31  16  17  1   
 32  16  38  1   
 33  16  39  1   
 34  17  18  1   
 35  17  40  1   
 36  18  19  1   
 37  18  41  1   
 38  18  42  1   
 39  19  20  ar  
 40  19  21  ar  
 41  20  22  ar  
 42  20  43  1   
 43  21  23  ar  
 44  21  44  1   
 45  22  24  ar  
 46  22  45  1   
 47  23  24  ar  
 48  23  46  1   
 49  24  47  1   
@<TRIPOS>SUBSTRUCTURE
  1 ****  13 GROUP 4 **** **** 0

# MOE 2024.06 (io_trps.svl 2023.06)
