@<TRIPOS>MOLECULE
NONAME
30 30 1 0 0 
SMALL
USER_CHARGES


@<TRIPOS>ATOM
  1 I        0.3860     0.6720    -0.5760 I     1 <1>  -0.0810 
  2 C       -1.6340     1.2050    -0.1110 C.ar  1 <1>   0.0810 
  3 C       -2.1370     2.4780    -0.3590 C.ar  1 <1>   0.1660 
  4 C       -2.4200     0.2210     0.4490 C.ar  1 <1>  -0.1500 
  5 N       -3.3870     2.8180    -0.0760 N.ar  1 <1>  -0.6200 
  6 C       -1.2890     3.5780    -0.9760 C.3   1 <1>  -0.0960 
  7 C       -3.7150     0.5850     0.7390 C.ar  1 <1>  -0.1500 
  8 C       -4.1560     1.8810     0.4640 C.ar  1 <1>   0.4270 
  9 N       -5.4310     2.3370     0.7170 N.am  1 <1>  -0.5470 
 10 C       -6.5510     1.7480     1.2190 C.2   1 <1>   0.5690 
 11 O       -6.6000     0.6000     1.5830 O.2   1 <1>  -0.5700 
 12 C       -7.8020     2.6010     1.3290 C.3   1 <1>  -0.0990 
 13 C       -8.3610     3.0580    -0.0330 C.3   1 <1>  -0.0800 
 14 C       -9.5760     3.9700     0.1760 C.3   1 <1>  -0.2400 
 15 C       -8.7590     1.8600    -0.9060 C.3   1 <1>  -0.2400 
 16 H       -2.0450    -0.7680     0.6470 H     1 <1>   0.1500 
 17 H       -0.4450     3.7920    -0.3480 H     1 <1>   0.0800 
 18 H       -1.8650     4.4800    -1.0840 H     1 <1>   0.0800 
 19 H       -0.9480     3.2800    -1.9500 H     1 <1>   0.0800 
 20 H       -4.3780    -0.1350     1.1780 H     1 <1>   0.1500 
 21 H       -5.5200     3.3090     0.4360 H     1 <1>   0.3700 
 22 H       -7.5680     3.4590     1.9320 H     1 <1>   0.0800 
 23 H       -8.5530     2.0360     1.8520 H     1 <1>   0.0800 
 24 H       -7.6060     3.6220    -0.5540 H     1 <1>   0.0800 
 25 H      -10.3640     3.4430     0.6850 H     1 <1>   0.0800 
 26 H       -9.9520     4.3130    -0.7720 H     1 <1>   0.0800 
 27 H       -9.3050     4.8310     0.7600 H     1 <1>   0.0800 
 28 H       -9.5010     1.2580    -0.4100 H     1 <1>   0.0800 
 29 H       -7.9050     1.2410    -1.1170 H     1 <1>   0.0800 
 30 H       -9.1640     2.1980    -1.8440 H     1 <1>   0.0800 
@<TRIPOS>BOND
  1   1   2  1   
  2   2   3  ar  
  3   2   4  ar  
  4   3   5  ar  
  5   3   6  1   
  6   4   7  ar  
  7   4  16  1   
  8   5   8  ar  
  9   6  17  1   
 10   6  18  1   
 11   6  19  1   
 12   7   8  ar  
 13   7  20  1   
 14   8   9  1   
 15   9  10  am  
 16   9  21  1   
 17  10  11  2   
 18  10  12  1   
 19  12  13  1   
 20  12  22  1   
 21  12  23  1   
 22  13  14  1   
 23  13  15  1   
 24  13  24  1   
 25  14  25  1   
 26  14  26  1   
 27  14  27  1   
 28  15  28  1   
 29  15  29  1   
 30  15  30  1   
@<TRIPOS>SUBSTRUCTURE
  1 ****   8 GROUP 4 **** **** 0

# MOE 2024.06 (io_trps.svl 2023.06)
