@<TRIPOS>MOLECULE
NONAME
46 47 1 0 0 
SMALL
USER_CHARGES


@<TRIPOS>ATOM
  1 O        0.2460     1.2680    -0.2270 O.2   1 <1>  -0.5700 
  2 C        1.2460     1.8560    -0.5470 C.2   1 <1>   0.5690 
  3 N        1.2010     2.7890    -1.5200 N.am  1 <1>  -0.8000 
  4 C        2.5620     1.5260     0.1480 C.3   1 <1>   0.1810 
  5 O        3.5240     2.5490    -0.0710 O.3   1 <1>  -0.3630 
  6 C        4.8210     2.4190     0.3220 C.ar  1 <1>   0.0830 
  7 C        5.7360     3.4010    -0.0680 C.ar  1 <1>   0.0830 
  8 C        5.2730     1.3400     1.0770 C.ar  1 <1>  -0.1500 
  9 O        5.3820     4.4860    -0.7970 O.3   1 <1>  -0.3630 
 10 C        7.0730     3.2820     0.2650 C.ar  1 <1>  -0.1500 
 11 C        6.6130     1.2310     1.4110 C.ar  1 <1>  -0.1500 
 12 C        4.5230     5.4230    -0.1840 C.3   1 <1>   0.1200 
 13 C        7.5220     2.1950     0.9990 C.ar  1 <1>  -0.1430 
 14 C        4.4900     6.6730    -1.0570 C.3   1 <1>  -0.2400 
 15 C        8.9900     2.0650     1.3290 C.3   1 <1>   0.4870 
 16 N        9.6390     1.5220     0.1190 N.4   1 <1>  -0.9060 
 17 C       11.0920     1.3130     0.2280 C.3   1 <1>   0.4230 
 18 C       11.8100     2.6580     0.1520 C.3   1 <1>  -0.1600 
 19 C       11.5580     0.6140    -1.0430 C.3   1 <1>  -0.1600 
 20 C       11.8450     3.0310    -1.3350 C.3   1 <1>  -0.1600 
 21 C       11.6870     1.7140    -2.1050 C.3   1 <1>  -0.1600 
 22 H        0.3210     3.0090    -1.9850 H     1 <1>   0.3700 
 23 H        2.0300     3.3170    -1.8010 H     1 <1>   0.3700 
 24 H        2.9430     0.6030    -0.2480 H     1 <1>   0.0800 
 25 H        2.3940     1.4360     1.2060 H     1 <1>   0.0800 
 26 H        4.5990     0.5740     1.4140 H     1 <1>   0.1500 
 27 H        7.7430     4.0580    -0.0630 H     1 <1>   0.1500 
 28 H        6.9310     0.3830     1.9960 H     1 <1>   0.1500 
 29 H        4.9050     5.6500     0.7960 H     1 <1>   0.0800 
 30 H        3.5400     4.9950    -0.1000 H     1 <1>   0.0800 
 31 H        5.4760     7.0940    -1.1400 H     1 <1>   0.0800 
 32 H        3.8400     7.4070    -0.6160 H     1 <1>   0.0800 
 33 H        4.1190     6.4310    -2.0370 H     1 <1>   0.0800 
 34 H        9.1270     1.3980     2.1650 H     1 <1>   0.0800 
 35 H        9.3970     3.0310     1.5800 H     1 <1>   0.0800 
 36 H        9.4650     2.1620    -0.6630 H     1 <1>   0.4500 
 37 H        9.1720     0.6450    -0.1290 H     1 <1>   0.4500 
 38 H       11.3450     0.7530     1.1150 H     1 <1>   0.0800 
 39 H       12.8240     2.5140     0.4880 H     1 <1>   0.0800 
 40 H       11.3700     3.4270     0.7610 H     1 <1>   0.0800 
 41 H       10.9120    -0.1890    -1.3520 H     1 <1>   0.0800 
 42 H       12.5370     0.2020    -0.8600 H     1 <1>   0.0800 
 43 H       12.7740     3.5190    -1.5850 H     1 <1>   0.0800 
 44 H       11.0360     3.7000    -1.5790 H     1 <1>   0.0800 
 45 H       10.8040     1.7510    -2.7220 H     1 <1>   0.0800 
 46 H       12.5370     1.5310    -2.7420 H     1 <1>   0.0800 
@<TRIPOS>BOND
  1   1   2  2   
  2   2   3  am  
  3   2   4  1   
  4   3  22  1   
  5   3  23  1   
  6   4   5  1   
  7   4  24  1   
  8   4  25  1   
  9   5   6  1   
 10   6   7  ar  
 11   6   8  ar  
 12   7   9  1   
 13   7  10  ar  
 14   8  11  ar  
 15   8  26  1   
 16   9  12  1   
 17  10  13  ar  
 18  10  27  1   
 19  11  13  ar  
 20  11  28  1   
 21  12  14  1   
 22  12  29  1   
 23  12  30  1   
 24  13  15  1   
 25  14  31  1   
 26  14  32  1   
 27  14  33  1   
 28  15  16  1   
 29  15  34  1   
 30  15  35  1   
 31  16  17  1   
 32  16  36  1   
 33  16  37  1   
 34  17  18  1   
 35  17  19  1   
 36  17  38  1   
 37  18  20  1   
 38  18  39  1   
 39  18  40  1   
 40  19  21  1   
 41  19  41  1   
 42  19  42  1   
 43  20  21  1   
 44  20  43  1   
 45  20  44  1   
 46  21  45  1   
 47  21  46  1   
@<TRIPOS>SUBSTRUCTURE
  1 ****  10 GROUP 4 **** **** 0

# MOE 2024.06 (io_trps.svl 2023.06)
