@<TRIPOS>MOLECULE
NONAME
41 42 1 0 0 
SMALL
USER_CHARGES


@<TRIPOS>ATOM
  1 O       -0.7100    -3.3370     2.1060 O.2   1 <1>  -0.5700 
  2 C        0.0440    -2.5300     1.6200 C.2   1 <1>   0.5690 
  3 N       -0.4110    -1.5260     0.8260 N.am  1 <1>  -0.7300 
  4 C        1.5350    -2.6430     1.8960 C.3   1 <1>   0.0440 
  5 C       -1.8160    -1.2890     0.4890 C.3   1 <1>   0.2200 
  6 C        2.3390    -1.5590     1.1830 C.ar  1 <1>  -0.1440 
  7 C       -2.0630    -1.7320    -0.9500 C.3   1 <1>  -0.1600 
  8 C       -2.1330     0.1920     0.6680 C.3   1 <1>  -0.1600 
  9 C        2.8050    -1.7700    -0.1060 C.ar  1 <1>  -0.1500 
 10 C        2.5850    -0.3460     1.8070 C.ar  1 <1>  -0.1500 
 11 C       -3.4980    -1.4170    -1.3620 C.3   1 <1>   0.3430 
 12 C       -3.5670     0.4830     0.2310 C.3   1 <1>   0.3430 
 13 C        3.5040    -0.7780    -0.7750 C.ar  1 <1>  -0.1440 
 14 C        3.2840     0.6470     1.1450 C.ar  1 <1>  -0.1500 
 15 N       -3.7660     0.0430    -1.1830 N.4   1 <1>  -0.9590 
 16 C        3.7410     0.4310    -0.1430 C.ar  1 <1>  -0.1500 
 17 C        4.0180    -1.0140    -2.1840 C.3   1 <1>  -0.0970 
 18 C       -5.1410     0.3890    -1.6570 C.3   1 <1>   0.2630 
 19 H        0.2940    -0.8930     0.4290 H     1 <1>   0.3700 
 20 H        1.8680    -3.6140     1.5800 H     1 <1>   0.0800 
 21 H        1.6900    -2.5770     2.9570 H     1 <1>   0.0800 
 22 H       -2.4410    -1.8690     1.1510 H     1 <1>   0.0800 
 23 H       -1.9060    -2.7950    -1.0210 H     1 <1>   0.0800 
 24 H       -1.3780    -1.2450    -1.6200 H     1 <1>   0.0800 
 25 H       -1.4530     0.7980     0.0960 H     1 <1>   0.0800 
 26 H       -2.0260     0.4530     1.7060 H     1 <1>   0.0800 
 27 H        2.6240    -2.7120    -0.5940 H     1 <1>   0.1500 
 28 H        2.2350    -0.1670     2.8090 H     1 <1>   0.1500 
 29 H       -4.1790    -1.9910    -0.7540 H     1 <1>   0.0800 
 30 H       -3.6450    -1.6980    -2.3930 H     1 <1>   0.0800 
 31 H       -3.7620     1.5400     0.3210 H     1 <1>   0.0800 
 32 H       -4.2520    -0.0440     0.8770 H     1 <1>   0.0800 
 33 H        3.4770     1.5870     1.6320 H     1 <1>   0.1500 
 34 H       -3.0850     0.5540    -1.7640 H     1 <1>   0.4500 
 35 H        4.2880     1.2080    -0.6490 H     1 <1>   0.1500 
 36 H        3.4280    -1.7610    -2.6840 H     1 <1>   0.0800 
 37 H        5.0390    -1.3490    -2.1450 H     1 <1>   0.0800 
 38 H        3.9730    -0.1060    -2.7570 H     1 <1>   0.0800 
 39 H       -5.8820    -0.1300    -1.0700 H     1 <1>   0.0800 
 40 H       -5.2620     0.1090    -2.6910 H     1 <1>   0.0800 
 41 H       -5.3110     1.4500    -1.5680 H     1 <1>   0.0800 
@<TRIPOS>BOND
  1   1   2  2   
  2   2   3  am  
  3   2   4  1   
  4   3   5  1   
  5   3  19  1   
  6   4   6  1   
  7   4  20  1   
  8   4  21  1   
  9   5   7  1   
 10   5   8  1   
 11   5  22  1   
 12   6   9  ar  
 13   6  10  ar  
 14   7  11  1   
 15   7  23  1   
 16   7  24  1   
 17   8  12  1   
 18   8  25  1   
 19   8  26  1   
 20   9  13  ar  
 21   9  27  1   
 22  10  14  ar  
 23  10  28  1   
 24  11  15  1   
 25  11  29  1   
 26  11  30  1   
 27  12  15  1   
 28  12  31  1   
 29  12  32  1   
 30  13  16  ar  
 31  13  17  1   
 32  14  16  ar  
 33  14  33  1   
 34  15  18  1   
 35  15  34  1   
 36  16  35  1   
 37  17  36  1   
 38  17  37  1   
 39  17  38  1   
 40  18  39  1   
 41  18  40  1   
 42  18  41  1   
@<TRIPOS>SUBSTRUCTURE
  1 ****   3 GROUP 4 **** **** 0

# MOE 2024.06 (io_trps.svl 2023.06)
