@<TRIPOS>MOLECULE
NONAME
39 41 1 0 0 
SMALL
USER_CHARGES


@<TRIPOS>ATOM
  1 S       -0.0620    -0.0070    -0.3660 S.3   1 <1>  -0.0800 
  2 C        1.4590    -0.5700     0.3210 C.2   1 <1>   0.1040 
  3 C       -0.9450    -1.3560     0.3300 C.2   1 <1>  -0.1100 
  4 N        2.6320     0.1570     0.1110 N.am  1 <1>  -0.4940 
  5 C        1.2560    -1.7150     1.0230 C.2   1 <1>   0.0190 
  6 C       -0.1110    -2.1510     1.0230 C.2   1 <1>  -0.1500 
  7 C        2.9880     1.1190    -0.7920 C.2   1 <1>   0.5690 
  8 C        2.2860    -2.4440     1.6940 C.1   1 <1>   0.5380 
  9 O        2.2690     1.5480    -1.6600 O.2   1 <1>  -0.5700 
 10 C        4.4190     1.6450    -0.6640 C.3   1 <1>   0.1710 
 11 N        3.1340    -3.0060     2.2110 N.1   1 <1>  -0.5570 
 12 N        5.2960     0.7650     0.1690 N.3   1 <1>  -0.8100 
 13 C        6.4780     1.5140     0.6630 C.3   1 <1>   0.1100 
 14 C        5.7520    -0.4270    -0.6000 C.3   1 <1>   0.1100 
 15 C        7.4180     0.6380     1.5160 C.3   1 <1>   0.2090 
 16 C        6.6570    -1.3460     0.2420 C.3   1 <1>   0.2090 
 17 N        7.8310    -0.5760     0.7510 N.pl3 1 <1>  -0.8380 
 18 C        9.1000    -0.7180     0.2320 C.ar  1 <1>   0.7200 
 19 N       10.0880    -0.0890     0.8690 N.ar  1 <1>  -0.6200 
 20 N        9.2320    -1.4630    -0.8660 N.ar  1 <1>  -0.6200 
 21 C       11.2910    -0.2380     0.3720 C.ar  1 <1>   0.1600 
 22 C       10.4460    -1.5930    -1.3410 C.ar  1 <1>   0.1600 
 23 C       11.5290    -0.9920    -0.7500 C.ar  1 <1>  -0.1500 
 24 H       -2.0030    -1.4030     0.1390 H     1 <1>   0.1500 
 25 H        3.4480    -0.0820     0.6920 H     1 <1>   0.3700 
 26 H       -0.4040    -3.0460     1.5450 H     1 <1>   0.1500 
 27 H        4.3530     2.6170    -0.2100 H     1 <1>   0.0800 
 28 H        4.8400     1.7680    -1.6470 H     1 <1>   0.0800 
 29 H        6.1500     2.3450     1.2620 H     1 <1>   0.0800 
 30 H        7.0390     1.9030    -0.1700 H     1 <1>   0.0800 
 31 H        6.3050    -0.1150    -1.4700 H     1 <1>   0.0800 
 32 H        4.9030    -0.9970    -0.9350 H     1 <1>   0.0800 
 33 H        6.9070     0.3320     2.4110 H     1 <1>   0.0800 
 34 H        8.2700     1.2230     1.8120 H     1 <1>   0.0800 
 35 H        6.9680    -2.1900    -0.3480 H     1 <1>   0.0800 
 36 H        6.0970    -1.7280     1.0780 H     1 <1>   0.0800 
 37 H       12.1070     0.2550     0.8730 H     1 <1>   0.1500 
 38 H       10.5800    -2.1950    -2.2240 H     1 <1>   0.1500 
 39 H       12.5190    -1.1060    -1.1470 H     1 <1>   0.1500 
@<TRIPOS>BOND
  1   1   2  1   
  2   1   3  1   
  3   2   4  1   
  4   2   5  2   
  5   3   6  2   
  6   3  24  1   
  7   4   7  am  
  8   4  25  1   
  9   5   6  1   
 10   5   8  1   
 11   6  26  1   
 12   7   9  2   
 13   7  10  1   
 14   8  11  3   
 15  10  12  1   
 16  10  27  1   
 17  10  28  1   
 18  12  13  1   
 19  12  14  1   
 20  13  15  1   
 21  13  29  1   
 22  13  30  1   
 23  14  16  1   
 24  14  31  1   
 25  14  32  1   
 26  15  17  1   
 27  15  33  1   
 28  15  34  1   
 29  16  17  1   
 30  16  35  1   
 31  16  36  1   
 32  17  18  1   
 33  18  19  ar  
 34  18  20  ar  
 35  19  21  ar  
 36  20  22  ar  
 37  21  23  ar  
 38  21  37  1   
 39  22  23  ar  
 40  22  38  1   
 41  23  39  1   
@<TRIPOS>SUBSTRUCTURE
  1 ****  14 GROUP 4 **** **** 0

# MOE 2024.06 (io_trps.svl 2023.06)
