@<TRIPOS>MOLECULE
NONAME
41 42 1 0 0 
SMALL
USER_CHARGES


@<TRIPOS>ATOM
  1 O        1.2360     0.0570     1.9650 O.2   1 <1>  -0.5700 
  2 C        2.0000     0.9020     1.5460 C.2   1 <1>   0.6900 
  3 N        1.6590     1.7920     0.5400 N.am  1 <1>  -0.4690 
  4 N        3.2290     0.9480     2.0790 N.am  1 <1>  -0.7300 
  5 C        2.5730     2.7450     0.0700 C.2   1 <1>  -0.0290 
  6 C        0.2800     1.6850    -0.0360 C.3   1 <1>   0.0600 
  7 C        4.3330     1.7420     1.5410 C.3   1 <1>   0.5020 
  8 C        3.8710     2.7520     0.4940 C.2   1 <1>  -0.1240 
  9 C        2.0240     3.7720    -0.9240 C.3   1 <1>  -0.1020 
 10 C        5.3620     0.7700     0.9660 C.ar  1 <1>  -0.1440 
 11 C        4.9430     3.6030     0.0670 C.2   1 <1>   0.7060 
 12 C        6.6220     0.6600     1.5350 C.ar  1 <1>  -0.1500 
 13 C        5.0570    -0.0110    -0.1390 C.ar  1 <1>  -0.1500 
 14 O        5.0130     4.1100    -1.0360 O.2   1 <1>  -0.5700 
 15 O        5.9420     3.8430     0.9290 O.3   1 <1>  -0.4300 
 16 C        7.5520    -0.2200     1.0120 C.ar  1 <1>  -0.1500 
 17 C        5.9930    -0.8870    -0.6590 C.ar  1 <1>  -0.1500 
 18 C        7.0650     4.6250     0.5670 C.3   1 <1>   0.0400 
 19 C        7.2580    -1.0230    -0.0890 C.ar  1 <1>   0.0860 
 20 C        8.2460    -1.9470    -0.6120 C.2   1 <1>   0.6340 
 21 O        9.3910    -1.6190    -0.8240 O.2   1 <1>  -0.5700 
 22 O        7.9270    -3.2230    -0.8510 O.3   1 <1>  -0.4300 
 23 C        6.9040    -3.9110    -0.1620 C.3   1 <1>   0.0400 
 24 H        3.4760     0.1810     2.7000 H     1 <1>   0.3700 
 25 H       -0.1730     0.7390     0.2060 H     1 <1>   0.0800 
 26 H        0.3180     1.7610    -1.1080 H     1 <1>   0.0800 
 27 H       -0.3370     2.4700     0.3610 H     1 <1>   0.0800 
 28 H        4.7660     2.2750     2.3710 H     1 <1>   0.0800 
 29 H        1.8910     3.3170    -1.8890 H     1 <1>   0.0800 
 30 H        2.6690     4.6200    -1.0410 H     1 <1>   0.0800 
 31 H        1.0820     4.1610    -0.5840 H     1 <1>   0.0800 
 32 H        6.8900     1.2630     2.3870 H     1 <1>   0.1500 
 33 H        4.0850     0.0650    -0.6000 H     1 <1>   0.1500 
 34 H        8.5300    -0.2900     1.4580 H     1 <1>   0.1500 
 35 H        5.7420    -1.4720    -1.5270 H     1 <1>   0.1500 
 36 H        7.7310     4.6790     1.4100 H     1 <1>   0.0800 
 37 H        6.7310     5.6110     0.2930 H     1 <1>   0.0800 
 38 H        7.5610     4.1560    -0.2660 H     1 <1>   0.0800 
 39 H        7.0370    -4.9650    -0.3330 H     1 <1>   0.0800 
 40 H        5.9470    -3.6030    -0.5420 H     1 <1>   0.0800 
 41 H        6.9810    -3.7000     0.8910 H     1 <1>   0.0800 
@<TRIPOS>BOND
  1   1   2  2   
  2   2   3  am  
  3   2   4  am  
  4   3   5  1   
  5   3   6  1   
  6   4   7  1   
  7   4  24  1   
  8   5   8  2   
  9   5   9  1   
 10   6  25  1   
 11   6  26  1   
 12   6  27  1   
 13   7   8  1   
 14   7  10  1   
 15   7  28  1   
 16   8  11  1   
 17   9  29  1   
 18   9  30  1   
 19   9  31  1   
 20  10  12  ar  
 21  10  13  ar  
 22  11  14  2   
 23  11  15  1   
 24  12  16  ar  
 25  12  32  1   
 26  13  17  ar  
 27  13  33  1   
 28  15  18  1   
 29  16  19  ar  
 30  16  34  1   
 31  17  19  ar  
 32  17  35  1   
 33  18  36  1   
 34  18  37  1   
 35  18  38  1   
 36  19  20  1   
 37  20  21  2   
 38  20  22  1   
 39  22  23  1   
 40  23  39  1   
 41  23  40  1   
 42  23  41  1   
@<TRIPOS>SUBSTRUCTURE
  1 ****  10 GROUP 4 **** **** 0

# MOE 2024.06 (io_trps.svl 2023.06)
