@<TRIPOS>MOLECULE
NONAME
31 31 1 0 0 
SMALL
USER_CHARGES


@<TRIPOS>ATOM
  1 S       -0.3390    -0.4090     1.1330 S.o2  1 <1>   1.4470 
  2 O        0.1500     0.3690     2.2530 O.2   1 <1>  -0.6500 
  3 O       -1.2160    -1.5240     1.4240 O.2   1 <1>  -0.6500 
  4 N       -1.1850     0.6910     0.1530 N.am  1 <1>  -0.8490 
  5 C        1.0280    -0.9360     0.0760 C.ar  1 <1>  -0.0090 
  6 C       -2.5590     0.8970     0.6110 C.3   1 <1>   0.1960 
  7 C       -0.4550     1.9480    -0.0170 C.3   1 <1>   0.1960 
  8 C        0.8090    -1.7520    -1.0210 C.ar  1 <1>   0.1900 
  9 C        2.3340    -0.5160     0.2930 C.ar  1 <1>  -0.1500 
 10 C       -3.4910     0.0740    -0.2730 C.3   1 <1>  -0.2400 
 11 C       -0.8980     2.6340    -1.3080 C.3   1 <1>  -0.2400 
 12 F       -0.3980    -2.1670    -1.2950 F     1 <1>  -0.1900 
 13 C        1.8230    -2.1550    -1.8690 C.ar  1 <1>  -0.1500 
 14 C        3.3960    -0.8810    -0.5410 C.ar  1 <1>  -0.1790 
 15 C        3.1090    -1.7170    -1.6230 C.ar  1 <1>  -0.1500 
 16 C        4.7500    -0.4000    -0.2980 C.2   1 <1>   0.9790 
 17 O        5.6990    -0.8030    -0.9930 O.co2 1 <1>  -0.9000 
 18 O        4.9700     0.4290     0.6010 O.co2 1 <1>  -0.9000 
 19 H       -2.8410     1.9330     0.5390 H     1 <1>   0.0800 
 20 H       -2.6680     0.6030     1.6440 H     1 <1>   0.0800 
 21 H        0.6020     1.7510    -0.0960 H     1 <1>   0.0800 
 22 H       -0.6050     2.5900     0.8360 H     1 <1>   0.0800 
 23 H        2.5520     0.1250     1.1350 H     1 <1>   0.1500 
 24 H       -3.3920     0.3800    -1.2990 H     1 <1>   0.0800 
 25 H       -4.5090     0.2220     0.0360 H     1 <1>   0.0800 
 26 H       -3.2580    -0.9720    -0.1910 H     1 <1>   0.0800 
 27 H       -0.7510     1.9710    -2.1420 H     1 <1>   0.0800 
 28 H       -0.3030     3.5150    -1.4670 H     1 <1>   0.0800 
 29 H       -1.9300     2.9270    -1.2620 H     1 <1>   0.0800 
 30 H        1.6080    -2.7940    -2.7050 H     1 <1>   0.1500 
 31 H        3.9170    -2.0150    -2.2720 H     1 <1>   0.1500 
@<TRIPOS>BOND
  1   1   2  2   
  2   1   3  2   
  3   1   4  am  
  4   1   5  1   
  5   4   6  1   
  6   4   7  1   
  7   5   8  ar  
  8   5   9  ar  
  9   6  10  1   
 10   6  19  1   
 11   6  20  1   
 12   7  11  1   
 13   7  21  1   
 14   7  22  1   
 15   8  12  1   
 16   8  13  ar  
 17   9  14  ar  
 18   9  23  1   
 19  10  24  1   
 20  10  25  1   
 21  10  26  1   
 22  11  27  1   
 23  11  28  1   
 24  11  29  1   
 25  13  15  ar  
 26  13  30  1   
 27  14  15  ar  
 28  14  16  1   
 29  15  31  1   
 30  16  17  ar  
 31  16  18  ar  
@<TRIPOS>SUBSTRUCTURE
  1 ****   5 GROUP 4 **** **** 0

# MOE 2024.06 (io_trps.svl 2023.06)
