@<TRIPOS>MOLECULE
NONAME
41 43 1 0 0 
SMALL
USER_CHARGES


@<TRIPOS>ATOM
  1 O       -1.3450     0.0490     1.4170 O.2   1 <1>  -0.5700 
  2 C       -1.7260    -0.6060     0.4780 C.2   1 <1>   0.5690 
  3 N       -1.0750    -1.7310     0.0790 N.am  1 <1>  -0.7300 
  4 C       -2.9480    -0.1270    -0.2670 C.3   1 <1>   0.1570 
  5 C        0.0540    -2.3670     0.7740 C.3   1 <1>   0.2200 
  6 N       -3.7720    -1.2760    -0.6410 N.pl3 1 <1>   0.5800 
  7 C        1.0880    -2.7820    -0.2630 C.3   1 <1>  -0.1600 
  8 C       -0.4230    -3.6970     1.3420 C.3   1 <1>  -0.1600 
  9 N       -3.5230    -2.0220    -1.7040 N.2   1 <1>  -0.4180 
 10 N       -4.8090    -1.6860     0.0530 N.2   1 <1>  -0.7070 
 11 C        0.5750    -4.0990    -0.8600 C.3   1 <1>  -0.1600 
 12 C       -0.4140    -4.6760     0.1620 C.3   1 <1>  -0.1600 
 13 N       -4.4040    -2.9370    -1.6980 N.2   1 <1>  -0.2270 
 14 C       -5.1800    -2.7230    -0.6260 C.2   1 <1>   0.4620 
 15 C       -6.3010    -3.5820    -0.2820 C.ar  1 <1>   0.0540 
 16 C       -6.7010    -4.6400    -1.1030 C.ar  1 <1>  -0.1500 
 17 C       -7.0270    -3.3850     0.8950 C.ar  1 <1>  -0.1500 
 18 C       -7.7640    -5.4600    -0.7710 C.ar  1 <1>  -0.1500 
 19 C       -8.0910    -4.1990     1.2350 C.ar  1 <1>  -0.1500 
 20 C       -8.4700    -5.2430     0.4080 C.ar  1 <1>   0.0830 
 21 O       -9.5210    -5.9960     0.8120 O.3   1 <1>  -0.3630 
 22 C       -9.9890    -7.0780     0.0380 C.3   1 <1>   0.0400 
 23 H       -1.4480    -2.2990    -0.6900 H     1 <1>   0.3700 
 24 H       -2.6520     0.3970    -1.1530 H     1 <1>   0.0800 
 25 H       -3.5250     0.5230     0.3620 H     1 <1>   0.0800 
 26 H        0.4600    -1.7130     1.5300 H     1 <1>   0.0800 
 27 H        2.0200    -2.9680     0.2420 H     1 <1>   0.0800 
 28 H        1.2490    -2.0210    -1.0070 H     1 <1>   0.0800 
 29 H       -1.3890    -3.6180     1.8100 H     1 <1>   0.0800 
 30 H        0.2880    -4.0280     2.0780 H     1 <1>   0.0800 
 31 H        1.3900    -4.7780    -1.0450 H     1 <1>   0.0800 
 32 H        0.0650    -3.9090    -1.7890 H     1 <1>   0.0800 
 33 H       -1.3970    -4.7290    -0.2750 H     1 <1>   0.0800 
 34 H       -0.1230    -5.6620     0.4810 H     1 <1>   0.0800 
 35 H       -6.1700    -4.8270    -2.0210 H     1 <1>   0.1500 
 36 H       -6.7510    -2.5800     1.5540 H     1 <1>   0.1500 
 37 H       -8.0290    -6.2580    -1.4380 H     1 <1>   0.1500 
 38 H       -8.6360    -4.0310     2.1460 H     1 <1>   0.1500 
 39 H      -10.8240    -7.5190     0.5520 H     1 <1>   0.0800 
 40 H       -9.2000    -7.8010    -0.0650 H     1 <1>   0.0800 
 41 H      -10.3040    -6.7100    -0.9220 H     1 <1>   0.0800 
@<TRIPOS>BOND
  1   1   2  2   
  2   2   3  am  
  3   2   4  1   
  4   3   5  1   
  5   3  23  1   
  6   4   6  1   
  7   4  24  1   
  8   4  25  1   
  9   5   7  1   
 10   5   8  1   
 11   5  26  1   
 12   6   9  1   
 13   6  10  1   
 14   7  11  1   
 15   7  27  1   
 16   7  28  1   
 17   8  12  1   
 18   8  29  1   
 19   8  30  1   
 20   9  13  2   
 21  10  14  2   
 22  11  12  1   
 23  11  31  1   
 24  11  32  1   
 25  12  33  1   
 26  12  34  1   
 27  13  14  1   
 28  14  15  1   
 29  15  16  ar  
 30  15  17  ar  
 31  16  18  ar  
 32  16  35  1   
 33  17  19  ar  
 34  17  36  1   
 35  18  20  ar  
 36  18  37  1   
 37  19  20  ar  
 38  19  38  1   
 39  20  21  1   
 40  21  22  1   
 41  22  39  1   
 42  22  40  1   
 43  22  41  1   
@<TRIPOS>SUBSTRUCTURE
  1 ****  14 GROUP 4 **** **** 0

# MOE 2024.06 (io_trps.svl 2023.06)
