@<TRIPOS>MOLECULE
NONAME
30 32 1 0 0 
SMALL
USER_CHARGES


@<TRIPOS>ATOM
  1 CL      -0.1350    -0.3490     1.3110 Cl    1 <1>  -0.1400 
  2 C        0.5010    -1.7030     0.4110 C.2   1 <1>   0.0020 
  3 C       -0.2310    -2.7880     0.1420 C.2   1 <1>  -0.2880 
  4 C        1.9410    -1.4730     0.0020 C.3   1 <1>  -0.1020 
  5 C       -1.6740    -3.0110     0.5450 C.3   1 <1>   0.2580 
  6 O       -2.4000    -3.3470    -0.6170 O.3   1 <1>  -0.3160 
  7 N       -3.7510    -3.5400    -0.3030 N.am  1 <1>  -0.0850 
  8 C       -4.7340    -2.5830    -0.4550 C.2   1 <1>   0.5690 
  9 C       -4.2870    -4.7500     0.0850 C.2   1 <1>   0.5690 
 10 O       -4.6590    -1.4760    -0.9280 O.2   1 <1>  -0.5700 
 11 C       -5.9630    -3.1550     0.1910 C.3   1 <1>  -0.0190 
 12 O       -3.7260    -5.7260     0.5210 O.2   1 <1>  -0.5700 
 13 C       -5.7590    -4.6310    -0.1650 C.3   1 <1>  -0.0190 
 14 C       -7.5010    -3.0670     0.1240 C.3   1 <1>   0.3380 
 15 C       -7.1290    -5.1990     0.1880 C.3   1 <1>   0.3380 
 16 O       -7.8380    -4.2440    -0.5460 O.3   1 <1>  -0.5600 
 17 C       -7.9490    -3.5220     1.4990 C.2   1 <1>  -0.2880 
 18 C       -7.6630    -4.8210     1.5590 C.2   1 <1>  -0.2880 
 19 H        0.1620    -3.6250    -0.4070 H     1 <1>   0.1500 
 20 H        2.5500    -1.3310     0.8760 H     1 <1>   0.0800 
 21 H        2.0070    -0.5960    -0.6160 H     1 <1>   0.0800 
 22 H        2.3150    -2.3160    -0.5510 H     1 <1>   0.0800 
 23 H       -2.1040    -2.1240     0.9760 H     1 <1>   0.0800 
 24 H       -1.7450    -3.8300     1.2410 H     1 <1>   0.0800 
 25 H       -5.7270    -2.9910     1.2310 H     1 <1>   0.0800 
 26 H       -5.7650    -4.7400    -1.2400 H     1 <1>   0.0800 
 27 H       -7.9710    -2.1980    -0.3050 H     1 <1>   0.0800 
 28 H       -7.3600    -6.1890    -0.1680 H     1 <1>   0.0800 
 29 H       -8.3650    -2.8320     2.2130 H     1 <1>   0.1500 
 30 H       -7.7610    -5.5530     2.3410 H     1 <1>   0.1500 
@<TRIPOS>BOND
  1   1   2  1   
  2   2   3  2   
  3   2   4  1   
  4   3   5  1   
  5   3  19  1   
  6   4  20  1   
  7   4  21  1   
  8   4  22  1   
  9   5   6  1   
 10   5  23  1   
 11   5  24  1   
 12   6   7  1   
 13   7   8  am  
 14   7   9  am  
 15   8  10  2   
 16   8  11  1   
 17   9  12  2   
 18   9  13  1   
 19  11  13  1   
 20  11  14  1   
 21  11  25  1   
 22  13  15  1   
 23  13  26  1   
 24  14  16  1   
 25  14  17  1   
 26  14  27  1   
 27  15  16  1   
 28  15  18  1   
 29  15  28  1   
 30  17  18  2   
 31  17  29  1   
 32  18  30  1   
@<TRIPOS>SUBSTRUCTURE
  1 ****   7 GROUP 4 **** **** 0

# MOE 2024.06 (io_trps.svl 2023.06)
