@<TRIPOS>MOLECULE
NONAME
33 35 1 0 0 
SMALL
USER_CHARGES


@<TRIPOS>ATOM
  1 S       -0.5280     0.4630    -0.6390 S.3   1 <1>  -0.2860 
  2 C        1.2260     0.5950    -0.9770 C.2   1 <1>   0.2420 
  3 C       -0.7460     1.5910     0.8270 C.3   1 <1>   0.1310 
  4 N        2.0410     1.3440    -0.3230 N.2   1 <1>  -0.3380 
  5 N        1.8070    -0.0920    -1.9500 N.pl3 1 <1>   0.0330 
  6 C       -2.1980     1.6670     1.2730 C.2   1 <1>   0.5690 
  7 N        3.2410     1.1520    -0.8880 N.2   1 <1>  -0.3380 
  8 C        3.0790     0.3000    -1.8460 C.2   1 <1>   0.0360 
  9 O       -2.4370     2.0860     2.3790 O.2   1 <1>  -0.5700 
 10 N       -3.1860     1.2780     0.4250 N.am  1 <1>  -0.7300 
 11 C       -4.6360     1.2880     0.7240 C.3   1 <1>   0.2200 
 12 C       -5.2670    -0.2230     0.6820 C.3   1 <1>  -0.0800 
 13 C       -5.4380     2.2000    -0.4200 C.3   1 <1>  -0.1600 
 14 C       -5.9800     0.5320    -0.1640 C.3   1 <1>  -0.1600 
 15 C       -6.5020    -1.1260     0.0990 C.3   1 <1>  -0.1600 
 16 C       -6.6650     1.2970    -1.0190 C.3   1 <1>  -0.0800 
 17 C       -7.3070    -0.2070    -1.0450 C.3   1 <1>  -0.1600 
 18 H       -0.3930     2.5630     0.5400 H     1 <1>   0.0800 
 19 H       -0.1330     1.2030     1.6200 H     1 <1>   0.0800 
 20 H        1.3690    -0.7480    -2.5980 H     1 <1>   0.2700 
 21 H        3.8630    -0.0580    -2.4890 H     1 <1>   0.1500 
 22 H       -2.9300     0.9030    -0.4900 H     1 <1>   0.3700 
 23 H       -4.7970     1.7150     1.7030 H     1 <1>   0.0800 
 24 H       -4.4210    -0.8090     0.3520 H     1 <1>   0.0800 
 25 H       -4.7680     2.4900    -1.2150 H     1 <1>   0.0800 
 26 H       -5.8160     3.1010     0.0350 H     1 <1>   0.0800 
 27 H       -5.2580     0.2090    -1.0380 H     1 <1>   0.0800 
 28 H       -6.6920     0.8690     0.7120 H     1 <1>   0.0800 
 29 H       -7.1740    -1.3950     0.9000 H     1 <1>   0.0800 
 30 H       -6.1390    -2.0420    -0.3400 H     1 <1>   0.0800 
 31 H       -7.5210     1.8770    -0.6990 H     1 <1>   0.0800 
 32 H       -8.3650    -0.1810    -0.8310 H     1 <1>   0.0800 
 33 H       -7.1870    -0.6440    -2.0260 H     1 <1>   0.0800 
@<TRIPOS>BOND
  1   1   2  1   
  2   1   3  1   
  3   2   4  2   
  4   2   5  1   
  5   3   6  1   
  6   3  18  1   
  7   3  19  1   
  8   4   7  1   
  9   5   8  1   
 10   5  20  1   
 11   6   9  2   
 12   6  10  am  
 13   7   8  2   
 14   8  21  1   
 15  10  11  1   
 16  10  22  1   
 17  11  12  1   
 18  11  13  1   
 19  11  23  1   
 20  12  14  1   
 21  12  15  1   
 22  12  24  1   
 23  13  16  1   
 24  13  25  1   
 25  13  26  1   
 26  14  16  1   
 27  14  27  1   
 28  14  28  1   
 29  15  17  1   
 30  15  29  1   
 31  15  30  1   
 32  16  17  1   
 33  16  31  1   
 34  17  32  1   
 35  17  33  1   
@<TRIPOS>SUBSTRUCTURE
  1 ****  10 GROUP 4 **** **** 0

# MOE 2024.06 (io_trps.svl 2023.06)
