@<TRIPOS>MOLECULE
NONAME
47 48 1 0 0 
SMALL
USER_CHARGES


@<TRIPOS>ATOM
  1 S       -0.3570     0.1030     0.4520 S.o2  1 <1>   1.4470 
  2 O       -0.5420    -0.7080    -0.7340 O.2   1 <1>  -0.6500 
  3 O        0.0510    -0.5460     1.6800 O.2   1 <1>  -0.6500 
  4 N       -1.9010     0.7440     0.7570 N.am  1 <1>  -0.8490 
  5 C        0.6760     1.5680     0.1650 C.ar  1 <1>  -0.0090 
  6 C       -2.7210    -0.2430     1.5110 C.3   1 <1>   0.2570 
  7 C       -2.5670     1.2280    -0.4610 C.3   1 <1>   0.1160 
  8 C        1.8610     1.4740    -0.5600 C.ar  1 <1>   0.0830 
  9 C        0.3270     2.8100     0.6910 C.ar  1 <1>  -0.1500 
 10 C       -4.2160     0.0740     1.6680 C.2   1 <1>   0.5690 
 11 O        2.2120     0.2510    -1.0300 O.3   1 <1>  -0.3630 
 12 C        2.6460     2.6040    -0.7760 C.ar  1 <1>  -0.1500 
 13 C        1.1050     3.9360     0.4830 C.ar  1 <1>  -0.1440 
 14 O       -4.5970     0.7150     2.6190 O.2   1 <1>  -0.5700 
 15 N       -5.0850    -0.3840     0.7240 N.am  1 <1>  -0.7300 
 16 C        3.3990     0.0290    -1.7580 C.3   1 <1>   0.0400 
 17 C        2.2660     3.8280    -0.2590 C.ar  1 <1>  -0.1500 
 18 C        0.6880     5.2750     1.0650 C.3   1 <1>  -0.0970 
 19 C       -6.5350    -0.1380     0.7070 C.3   1 <1>   0.2200 
 20 C       -7.2520    -1.4610     0.4710 C.3   1 <1>  -0.1600 
 21 C       -6.8760     0.6710    -0.5380 C.3   1 <1>  -0.1600 
 22 C       -7.1880    -1.7080    -1.0410 C.3   1 <1>  -0.1600 
 23 C       -6.9310    -0.3410    -1.6890 C.3   1 <1>  -0.1600 
 24 H       -2.3120    -0.3430     2.5010 H     1 <1>   0.0800 
 25 H       -2.6400    -1.2050     1.0350 H     1 <1>   0.0800 
 26 H       -1.9170     1.8980    -0.9970 H     1 <1>   0.0800 
 27 H       -3.4630     1.7690    -0.2070 H     1 <1>   0.0800 
 28 H       -2.8210     0.4050    -1.1090 H     1 <1>   0.0800 
 29 H       -0.5720     2.8970     1.2770 H     1 <1>   0.1500 
 30 H        3.5570     2.5530    -1.3410 H     1 <1>   0.1500 
 31 H       -4.7480    -0.9250    -0.0730 H     1 <1>   0.3700 
 32 H        3.4460    -1.0160    -2.0060 H     1 <1>   0.0800 
 33 H        4.2410     0.2970    -1.1440 H     1 <1>   0.0800 
 34 H        3.3730     0.6170    -2.6590 H     1 <1>   0.0800 
 35 H        2.8800     4.6950    -0.4330 H     1 <1>   0.1500 
 36 H        0.1070     5.1340     1.9590 H     1 <1>   0.0800 
 37 H        0.0950     5.8150     0.3480 H     1 <1>   0.0800 
 38 H        1.5530     5.8620     1.3130 H     1 <1>   0.0800 
 39 H       -6.8550     0.3490     1.6150 H     1 <1>   0.0800 
 40 H       -8.2810    -1.3440     0.7610 H     1 <1>   0.0800 
 41 H       -6.8250    -2.2650     1.0450 H     1 <1>   0.0800 
 42 H       -6.1730     1.4670    -0.7130 H     1 <1>   0.0800 
 43 H       -7.8530     1.1020    -0.4050 H     1 <1>   0.0800 
 44 H       -8.1080    -2.1430    -1.3950 H     1 <1>   0.0800 
 45 H       -6.3780    -2.3790    -1.2720 H     1 <1>   0.0800 
 46 H       -5.9890    -0.3570    -2.2090 H     1 <1>   0.0800 
 47 H       -7.7080    -0.0840    -2.3890 H     1 <1>   0.0800 
@<TRIPOS>BOND
  1   1   2  2   
  2   1   3  2   
  3   1   4  am  
  4   1   5  1   
  5   4   6  1   
  6   4   7  1   
  7   5   8  ar  
  8   5   9  ar  
  9   6  10  1   
 10   6  24  1   
 11   6  25  1   
 12   7  26  1   
 13   7  27  1   
 14   7  28  1   
 15   8  11  1   
 16   8  12  ar  
 17   9  13  ar  
 18   9  29  1   
 19  10  14  2   
 20  10  15  am  
 21  11  16  1   
 22  12  17  ar  
 23  12  30  1   
 24  13  17  ar  
 25  13  18  1   
 26  15  19  1   
 27  15  31  1   
 28  16  32  1   
 29  16  33  1   
 30  16  34  1   
 31  17  35  1   
 32  18  36  1   
 33  18  37  1   
 34  18  38  1   
 35  19  20  1   
 36  19  21  1   
 37  19  39  1   
 38  20  22  1   
 39  20  40  1   
 40  20  41  1   
 41  21  23  1   
 42  21  42  1   
 43  21  43  1   
 44  22  23  1   
 45  22  44  1   
 46  22  45  1   
 47  23  46  1   
 48  23  47  1   
@<TRIPOS>SUBSTRUCTURE
  1 ****   4 GROUP 4 **** **** 0

# MOE 2024.06 (io_trps.svl 2023.06)
