@<TRIPOS>MOLECULE
NONAME
47 49 1 0 0 
SMALL
USER_CHARGES


@<TRIPOS>ATOM
  1 O       -0.2210     0.8160     1.5640 O.2   1 <1>  -0.5700 
  2 C       -0.2360     1.5780     0.6200 C.2   1 <1>   0.5440 
  3 N        0.8680     1.7110    -0.1910 N.am  1 <1>  -0.5470 
  4 C       -1.4200     2.3750     0.3590 C.ar  1 <1>   0.0860 
  5 C        2.0720     0.9910    -0.2370 C.ar  1 <1>   0.1170 
  6 C       -2.1800     2.8830     1.4120 C.ar  1 <1>  -0.1500 
  7 C       -1.8570     2.6570    -0.9360 C.ar  1 <1>  -0.1500 
  8 C        2.1970    -0.3110     0.2360 C.ar  1 <1>  -0.1500 
  9 C        3.1910     1.5930    -0.7970 C.ar  1 <1>  -0.1500 
 10 C       -3.3190     3.6340     1.1910 C.ar  1 <1>  -0.1500 
 11 C       -2.9970     3.4060    -1.1670 C.ar  1 <1>  -0.1500 
 12 C        3.4020    -0.9860     0.1560 C.ar  1 <1>  -0.1500 
 13 C        4.3980     0.9210    -0.8820 C.ar  1 <1>  -0.1500 
 14 C       -3.7430     3.8940    -0.1040 C.ar  1 <1>  -0.1430 
 15 C        4.5130    -0.3760    -0.4060 C.ar  1 <1>  -0.1430 
 16 C       -5.0140     4.6880    -0.3520 C.3   1 <1>   0.4860 
 17 C        5.8410    -1.1180    -0.5020 C.3   1 <1>   0.1830 
 18 N       -6.1810     3.8330    -0.0030 N.4   1 <1>  -0.9590 
 19 C        6.8640    -0.5580     0.4260 C.1   1 <1>   0.3570 
 20 C       -6.2490     2.5960    -0.8610 C.3   1 <1>   0.3430 
 21 C       -7.4750     4.5960    -0.0630 C.3   1 <1>   0.3430 
 22 N        7.6710    -0.1470     1.1140 N.1   1 <1>  -0.5570 
 23 C       -7.5170     1.7730    -0.5660 C.3   1 <1>   0.1200 
 24 C       -8.6850     3.6770     0.1930 C.3   1 <1>   0.1200 
 25 O       -8.6520     2.5820    -0.6760 O.3   1 <1>  -0.5600 
 26 H        0.8490     2.5260    -0.8000 H     1 <1>   0.3700 
 27 H       -1.8600     2.6770     2.4220 H     1 <1>   0.1500 
 28 H       -1.3010     2.2730    -1.7750 H     1 <1>   0.1500 
 29 H        1.3490    -0.8080     0.6710 H     1 <1>   0.1500 
 30 H        3.1260     2.6000    -1.1670 H     1 <1>   0.1500 
 31 H       -3.8620     4.0090     2.0430 H     1 <1>   0.1500 
 32 H       -3.2940     3.5990    -2.1850 H     1 <1>   0.1500 
 33 H        3.4590    -1.9910     0.5380 H     1 <1>   0.1500 
 34 H        5.2480     1.4190    -1.3170 H     1 <1>   0.1500 
 35 H       -5.0660     4.9870    -1.3860 H     1 <1>   0.0800 
 36 H       -5.0040     5.5750     0.2610 H     1 <1>   0.0800 
 37 H        6.2160    -1.0490    -1.5060 H     1 <1>   0.0800 
 38 H        5.7050    -2.1580    -0.2710 H     1 <1>   0.0800 
 39 H       -6.0390     3.5120     0.9620 H     1 <1>   0.4500 
 40 H       -5.3800     1.9810    -0.6930 H     1 <1>   0.0800 
 41 H       -6.2620     2.8730    -1.9020 H     1 <1>   0.0800 
 42 H       -7.5930     5.0400    -1.0390 H     1 <1>   0.0800 
 43 H       -7.4730     5.3910     0.6650 H     1 <1>   0.0800 
 44 H       -7.4860     1.3480     0.4230 H     1 <1>   0.0800 
 45 H       -7.6150     0.9730    -1.2790 H     1 <1>   0.0800 
 46 H       -9.6020     4.2100     0.0110 H     1 <1>   0.0800 
 47 H       -8.6960     3.3150     1.2070 H     1 <1>   0.0800 
@<TRIPOS>BOND
  1   1   2  2   
  2   2   3  am  
  3   2   4  1   
  4   3   5  1   
  5   3  26  1   
  6   4   6  ar  
  7   4   7  ar  
  8   5   8  ar  
  9   5   9  ar  
 10   6  10  ar  
 11   6  27  1   
 12   7  11  ar  
 13   7  28  1   
 14   8  12  ar  
 15   8  29  1   
 16   9  13  ar  
 17   9  30  1   
 18  10  14  ar  
 19  10  31  1   
 20  11  14  ar  
 21  11  32  1   
 22  12  15  ar  
 23  12  33  1   
 24  13  15  ar  
 25  13  34  1   
 26  14  16  1   
 27  15  17  1   
 28  16  18  1   
 29  16  35  1   
 30  16  36  1   
 31  17  19  1   
 32  17  37  1   
 33  17  38  1   
 34  18  20  1   
 35  18  21  1   
 36  18  39  1   
 37  19  22  3   
 38  20  23  1   
 39  20  40  1   
 40  20  41  1   
 41  21  24  1   
 42  21  42  1   
 43  21  43  1   
 44  23  25  1   
 45  23  44  1   
 46  23  45  1   
 47  24  25  1   
 48  24  46  1   
 49  24  47  1   
@<TRIPOS>SUBSTRUCTURE
  1 ****   4 GROUP 4 **** **** 0

# MOE 2024.06 (io_trps.svl 2023.06)
