@<TRIPOS>MOLECULE
NONAME
35 37 1 0 0 
SMALL
USER_CHARGES


@<TRIPOS>ATOM
  1 O       -0.0450    -0.3830    -0.9730 O.2   1 <1>  -0.5700 
  2 C       -0.0450    -1.4090    -0.3190 C.2   1 <1>   0.8050 
  3 O       -1.1800    -1.8720     0.2230 O.3   1 <1>  -0.2320 
  4 C        1.1540    -2.1810    -0.1020 C.2   1 <1>   0.0550 
  5 C       -2.4070    -1.2850     0.2010 C.ar  1 <1>   0.0830 
  6 O        1.1390    -3.3110     0.6030 O.3   1 <1>  -0.2800 
  7 C        2.4320    -1.9580    -0.5210 C.2   1 <1>  -0.1500 
  8 C       -3.5360    -2.0750    -0.0130 C.ar  1 <1>  -0.1440 
  9 C       -2.5410     0.0780     0.4220 C.ar  1 <1>  -0.1500 
 10 C        2.3550    -3.8050     0.6430 C.2   1 <1>  -0.0100 
 11 C        3.2090    -3.0110    -0.0370 C.2   1 <1>  -0.1500 
 12 C       -4.8020    -1.4860    -0.0010 C.ar  1 <1>  -0.1440 
 13 C       -3.3810    -3.5790    -0.2600 C.3   1 <1>  -0.0960 
 14 C       -3.7920     0.6570     0.4190 C.ar  1 <1>  -0.1500 
 15 C       -4.9230    -0.1120     0.2080 C.ar  1 <1>  -0.1430 
 16 C       -6.0530    -2.3400    -0.2330 C.3   1 <1>  -0.0170 
 17 C       -6.2700     0.6020     0.2320 C.3   1 <1>  -0.0170 
 18 C       -7.3620    -1.6460     0.1580 C.3   1 <1>  -0.1600 
 19 C       -7.3940    -0.2230    -0.3980 C.3   1 <1>  -0.1600 
 20 H        2.7890    -1.1330    -1.1130 H     1 <1>   0.1500 
 21 H       -1.6780     0.6930     0.5990 H     1 <1>   0.1500 
 22 H        2.5300    -4.7230     1.1760 H     1 <1>   0.1500 
 23 H        4.2660    -3.1370    -0.1910 H     1 <1>   0.1500 
 24 H       -2.3720    -3.8520    -0.5040 H     1 <1>   0.0800 
 25 H       -3.9980    -3.8910    -1.0820 H     1 <1>   0.0800 
 26 H       -3.6710    -4.1200     0.6230 H     1 <1>   0.0800 
 27 H       -3.8820     1.7160     0.5870 H     1 <1>   0.1500 
 28 H       -5.9840    -3.2550     0.3260 H     1 <1>   0.0800 
 29 H       -6.0960    -2.5910    -1.2780 H     1 <1>   0.0800 
 30 H       -6.1930     1.5410    -0.2870 H     1 <1>   0.0800 
 31 H       -6.5200     0.8110     1.2580 H     1 <1>   0.0800 
 32 H       -7.4410    -1.6140     1.2320 H     1 <1>   0.0800 
 33 H       -8.1960    -2.2100    -0.2220 H     1 <1>   0.0800 
 34 H       -7.2630    -0.2500    -1.4660 H     1 <1>   0.0800 
 35 H       -8.3430     0.2370    -0.1860 H     1 <1>   0.0800 
@<TRIPOS>BOND
  1   1   2  2   
  2   2   3  1   
  3   2   4  1   
  4   3   5  1   
  5   4   6  1   
  6   4   7  2   
  7   5   8  ar  
  8   5   9  ar  
  9   6  10  1   
 10   7  11  1   
 11   7  20  1   
 12   8  12  ar  
 13   8  13  1   
 14   9  14  ar  
 15   9  21  1   
 16  10  11  2   
 17  10  22  1   
 18  11  23  1   
 19  12  15  ar  
 20  12  16  1   
 21  13  24  1   
 22  13  25  1   
 23  13  26  1   
 24  14  15  ar  
 25  14  27  1   
 26  15  17  1   
 27  16  18  1   
 28  16  28  1   
 29  16  29  1   
 30  17  19  1   
 31  17  30  1   
 32  17  31  1   
 33  18  19  1   
 34  18  32  1   
 35  18  33  1   
 36  19  34  1   
 37  19  35  1   
@<TRIPOS>SUBSTRUCTURE
  1 ****   5 GROUP 4 **** **** 0

# MOE 2024.06 (io_trps.svl 2023.06)
