@<TRIPOS>MOLECULE
NONAME
47 48 1 0 0 
SMALL
USER_CHARGES


@<TRIPOS>ATOM
  1 O        3.5570    -0.6550     0.6900 O.2   1 <1>  -0.5700 
  2 C        3.1050    -1.3520    -0.1940 C.2   1 <1>   0.5690 
  3 N        1.9740    -2.1110    -0.0060 N.am  1 <1>  -0.6600 
  4 C        3.8890    -1.3350    -1.5090 C.3   1 <1>  -0.0190 
  5 C        1.3610    -3.0300    -1.0090 C.3   1 <1>   0.1400 
  6 C        1.3050    -2.1210     1.3310 C.3   1 <1>   0.1400 
  7 C        5.3710    -1.5650    -1.1690 C.3   1 <1>   0.3430 
  8 C        3.6680    -0.0020    -2.2760 C.3   1 <1>  -0.1600 
  9 C        0.5580    -2.2460    -2.0460 C.3   1 <1>  -0.2400 
 10 C        0.1310    -1.1460     1.3430 C.3   1 <1>  -0.2400 
 11 N        5.9490    -0.2890    -0.6670 N.4   1 <1>  -0.9590 
 12 C        4.9830     0.5950    -2.8070 C.3   1 <1>  -0.1600 
 13 C        6.0410     0.7830    -1.7070 C.3   1 <1>   0.3430 
 14 C        7.1970    -0.4580     0.1160 C.3   1 <1>   0.4860 
 15 C        7.5310     0.8640     0.7800 C.ar  1 <1>  -0.1440 
 16 C        6.7120     1.3680     1.7820 C.ar  1 <1>  -0.1500 
 17 C        8.6500     1.5830     0.3850 C.ar  1 <1>  -0.1500 
 18 C        7.0080     2.5820     2.3760 C.ar  1 <1>  -0.1500 
 19 C        8.9430     2.7970     0.9810 C.ar  1 <1>  -0.1500 
 20 C        8.1220     3.2970     1.9750 C.ar  1 <1>  -0.1500 
 21 H        3.5860    -2.1500    -2.1340 H     1 <1>   0.0800 
 22 H        0.7030    -3.7230    -0.5120 H     1 <1>   0.0800 
 23 H        2.1240    -3.6150    -1.4920 H     1 <1>   0.0800 
 24 H        2.0060    -1.8350     2.0980 H     1 <1>   0.0800 
 25 H        0.9630    -3.1150     1.5680 H     1 <1>   0.0800 
 26 H        5.9060    -1.8850    -2.0490 H     1 <1>   0.0800 
 27 H        5.4480    -2.3340    -0.4180 H     1 <1>   0.0800 
 28 H        3.2090     0.7220    -1.6210 H     1 <1>   0.0800 
 29 H        2.9870    -0.1590    -3.0950 H     1 <1>   0.0800 
 30 H       -0.2190    -1.6760    -1.5730 H     1 <1>   0.0800 
 31 H        0.0960    -2.9320    -2.7340 H     1 <1>   0.0800 
 32 H        1.1870    -1.5840    -2.6080 H     1 <1>   0.0800 
 33 H        0.4620    -0.1640     1.0550 H     1 <1>   0.0800 
 34 H       -0.2770    -1.0890     2.3350 H     1 <1>   0.0800 
 35 H       -0.6460    -1.4770     0.6800 H     1 <1>   0.0800 
 36 H        5.2420     0.0410     0.0210 H     1 <1>   0.4500 
 37 H        4.7910     1.5470    -3.2710 H     1 <1>   0.0800 
 38 H        5.3860    -0.0480    -3.5710 H     1 <1>   0.0800 
 39 H        7.0200     0.7840    -2.1560 H     1 <1>   0.0800 
 40 H        5.8980     1.7410    -1.2300 H     1 <1>   0.0800 
 41 H        8.0050    -0.7630    -0.5290 H     1 <1>   0.0800 
 42 H        7.0580    -1.2100     0.8760 H     1 <1>   0.0800 
 43 H        5.8410     0.8270     2.1130 H     1 <1>   0.1500 
 44 H        9.3060     1.2110    -0.3840 H     1 <1>   0.1500 
 45 H        6.3720     2.9720     3.1530 H     1 <1>   0.1500 
 46 H        9.8130     3.3550     0.6760 H     1 <1>   0.1500 
 47 H        8.3510     4.2420     2.4390 H     1 <1>   0.1500 
@<TRIPOS>BOND
  1   1   2  2   
  2   2   3  am  
  3   2   4  1   
  4   3   5  1   
  5   3   6  1   
  6   4   7  1   
  7   4   8  1   
  8   4  21  1   
  9   5   9  1   
 10   5  22  1   
 11   5  23  1   
 12   6  10  1   
 13   6  24  1   
 14   6  25  1   
 15   7  11  1   
 16   7  26  1   
 17   7  27  1   
 18   8  12  1   
 19   8  28  1   
 20   8  29  1   
 21   9  30  1   
 22   9  31  1   
 23   9  32  1   
 24  10  33  1   
 25  10  34  1   
 26  10  35  1   
 27  11  13  1   
 28  11  14  1   
 29  11  36  1   
 30  12  13  1   
 31  12  37  1   
 32  12  38  1   
 33  13  39  1   
 34  13  40  1   
 35  14  15  1   
 36  14  41  1   
 37  14  42  1   
 38  15  16  ar  
 39  15  17  ar  
 40  16  18  ar  
 41  16  43  1   
 42  17  19  ar  
 43  17  44  1   
 44  18  20  ar  
 45  18  45  1   
 46  19  20  ar  
 47  19  46  1   
 48  20  47  1   
@<TRIPOS>SUBSTRUCTURE
  1 ****  11 GROUP 4 **** **** 0

# MOE 2024.06 (io_trps.svl 2023.06)
