@<TRIPOS>MOLECULE
NONAME
48 50 1 0 0 
SMALL
USER_CHARGES


@<TRIPOS>ATOM
  1 O       -1.0520     1.3720     0.6640 O.2   1 <1>  -0.5700 
  2 C       -0.9870     2.4490     0.0550 C.2   1 <1>   0.6160 
  3 N       -0.0430     3.4240     0.2210 N.am  1 <1>  -0.1570 
  4 C       -1.9110     2.8780    -0.9040 C.2   1 <1>  -0.1240 
  5 N       -0.4290     4.4900    -0.6560 N.pl3 1 <1>  -0.4890 
  6 C        1.3130     3.1210     0.4480 C.ar  1 <1>   0.1170 
  7 C       -1.5500     4.1190    -1.3190 C.2   1 <1>  -0.0380 
  8 C       -3.0560     1.9920    -1.3140 C.3   1 <1>   0.4810 
  9 C        0.2340     5.8180    -0.5680 C.3   1 <1>   0.1290 
 10 C        2.2340     3.0970    -0.5960 C.ar  1 <1>  -0.1500 
 11 C        1.7570     2.8330     1.7330 C.ar  1 <1>  -0.1500 
 12 C       -2.2280     5.0220    -2.3330 C.3   1 <1>  -0.1020 
 13 N       -4.2530     2.2690    -0.4690 N.4   1 <1>  -0.9590 
 14 C        3.5650     2.8030    -0.3590 C.ar  1 <1>  -0.1500 
 15 C        3.0870     2.5370     1.9740 C.ar  1 <1>  -0.1500 
 16 C       -4.0560     1.7760     0.9310 C.3   1 <1>   0.3430 
 17 C       -5.4820     1.6930    -1.0830 C.3   1 <1>   0.3430 
 18 C        3.9930     2.5240     0.9270 C.ar  1 <1>  -0.1500 
 19 C       -5.2570     2.1670     1.7920 C.3   1 <1>  -0.1600 
 20 C       -6.7070     2.0930    -0.2610 C.3   1 <1>  -0.1600 
 21 C       -6.5750     1.6470     1.2020 C.3   1 <1>  -0.0800 
 22 C       -7.7680     2.1390     2.0270 C.3   1 <1>  -0.2400 
 23 H       -2.7640     0.9580    -1.2220 H     1 <1>   0.0800 
 24 H       -3.2870     2.1880    -2.3480 H     1 <1>   0.0800 
 25 H        0.2940     6.1210     0.4620 H     1 <1>   0.0800 
 26 H       -0.3200     6.5550    -1.1190 H     1 <1>   0.0800 
 27 H        1.2290     5.7520    -0.9710 H     1 <1>   0.0800 
 28 H        1.9030     3.3090    -1.5970 H     1 <1>   0.1500 
 29 H        1.0530     2.8380     2.5460 H     1 <1>   0.1500 
 30 H       -3.0690     4.5340    -2.7880 H     1 <1>   0.0800 
 31 H       -2.5680     5.9230    -1.8550 H     1 <1>   0.0800 
 32 H       -1.5280     5.2860    -3.1070 H     1 <1>   0.0800 
 33 H       -4.3650     3.2890    -0.4150 H     1 <1>   0.4500 
 34 H        4.2680     2.7880    -1.1740 H     1 <1>   0.1500 
 35 H        3.4170     2.3160     2.9740 H     1 <1>   0.1500 
 36 H       -3.1650     2.2070     1.3600 H     1 <1>   0.0800 
 37 H       -3.9410     0.7040     0.9310 H     1 <1>   0.0800 
 38 H       -5.4070     0.6170    -1.1110 H     1 <1>   0.0800 
 39 H       -5.5970     2.0530    -2.0930 H     1 <1>   0.0800 
 40 H        5.0280     2.2940     1.1140 H     1 <1>   0.1500 
 41 H       -5.2880     3.2380     1.8910 H     1 <1>   0.0800 
 42 H       -5.1210     1.7570     2.7780 H     1 <1>   0.0800 
 43 H       -7.5800     1.6360    -0.6950 H     1 <1>   0.0800 
 44 H       -6.8420     3.1590    -0.3160 H     1 <1>   0.0800 
 45 H       -6.5660     0.5690     1.2350 H     1 <1>   0.0800 
 46 H       -7.8240     3.2140     2.0260 H     1 <1>   0.0800 
 47 H       -7.6820     1.8040     3.0470 H     1 <1>   0.0800 
 48 H       -8.6890     1.7500     1.6260 H     1 <1>   0.0800 
@<TRIPOS>BOND
  1   1   2  2   
  2   2   3  am  
  3   2   4  1   
  4   3   5  1   
  5   3   6  1   
  6   4   7  2   
  7   4   8  1   
  8   5   7  1   
  9   5   9  1   
 10   6  10  ar  
 11   6  11  ar  
 12   7  12  1   
 13   8  13  1   
 14   8  23  1   
 15   8  24  1   
 16   9  25  1   
 17   9  26  1   
 18   9  27  1   
 19  10  14  ar  
 20  10  28  1   
 21  11  15  ar  
 22  11  29  1   
 23  12  30  1   
 24  12  31  1   
 25  12  32  1   
 26  13  16  1   
 27  13  17  1   
 28  13  33  1   
 29  14  18  ar  
 30  14  34  1   
 31  15  18  ar  
 32  15  35  1   
 33  16  19  1   
 34  16  36  1   
 35  16  37  1   
 36  17  20  1   
 37  17  38  1   
 38  17  39  1   
 39  18  40  1   
 40  19  21  1   
 41  19  41  1   
 42  19  42  1   
 43  20  21  1   
 44  20  43  1   
 45  20  44  1   
 46  21  22  1   
 47  21  45  1   
 48  22  46  1   
 49  22  47  1   
 50  22  48  1   
@<TRIPOS>SUBSTRUCTURE
  1 ****   2 GROUP 4 **** **** 0

# MOE 2024.06 (io_trps.svl 2023.06)
