@<TRIPOS>MOLECULE
NONAME
40 41 1 0 0 
SMALL
USER_CHARGES


@<TRIPOS>ATOM
  1 N        0.1470     0.2290    -0.3020 N.ar  1 <1>  -0.6200 
  2 C        1.2290     0.9490    -0.4370 C.ar  1 <1>   0.7200 
  3 C       -0.9450     0.9230    -0.1230 C.ar  1 <1>   0.7200 
  4 N        1.2800     2.2540    -0.4120 N.ar  1 <1>  -0.6200 
  5 N        2.4200     0.2740    -0.6240 N.pl3 1 <1>  -0.8380 
  6 N       -1.0200     2.2270    -0.0780 N.ar  1 <1>  -0.6200 
  7 N       -2.1240     0.2160     0.0310 N.pl3 1 <1>  -0.8380 
  8 C        0.1250     2.8360    -0.2290 C.ar  1 <1>   0.7200 
  9 C        3.7380     0.8640    -0.2660 C.3   1 <1>   0.2090 
 10 C        2.4820    -1.1280    -1.1210 C.3   1 <1>   0.2090 
 11 C       -3.4580     0.8590    -0.1210 C.3   1 <1>   0.1290 
 12 C       -2.1370    -1.2350     0.3640 C.3   1 <1>   0.1290 
 13 N        0.1150     4.2190    -0.1920 N.pl3 1 <1>  -0.8380 
 14 C        4.4190    -0.0140     0.7900 C.3   1 <1>  -0.1600 
 15 C        3.1430    -2.0140    -0.0610 C.3   1 <1>  -0.1600 
 16 C        1.2500     5.0330    -0.7080 C.3   1 <1>   0.1290 
 17 C       -1.0330     4.9870     0.3640 C.3   1 <1>   0.1290 
 18 C        4.5250    -1.4790     0.3410 C.3   1 <1>  -0.1600 
 19 H        3.6270     1.8610     0.1250 H     1 <1>   0.0800 
 20 H        4.3480     0.9190    -1.1510 H     1 <1>   0.0800 
 21 H        3.0630    -1.1470    -2.0260 H     1 <1>   0.0800 
 22 H        1.5020    -1.5060    -1.3540 H     1 <1>   0.0800 
 23 H       -3.3930     1.7160    -0.7690 H     1 <1>   0.0800 
 24 H       -3.8150     1.1760     0.8430 H     1 <1>   0.0800 
 25 H       -4.1570     0.1630    -0.5500 H     1 <1>   0.0800 
 26 H       -2.2060    -1.8110    -0.5420 H     1 <1>   0.0800 
 27 H       -2.9780    -1.4610     0.9950 H     1 <1>   0.0800 
 28 H       -1.2380    -1.5120     0.8870 H     1 <1>   0.0800 
 29 H        3.8470     0.0450     1.6990 H     1 <1>   0.0800 
 30 H        5.4000     0.3750     0.9950 H     1 <1>   0.0800 
 31 H        3.2370    -3.0140    -0.4440 H     1 <1>   0.0800 
 32 H        2.5000    -2.0490     0.8010 H     1 <1>   0.0800 
 33 H        1.7940     4.4900    -1.4620 H     1 <1>   0.0800 
 34 H        1.9180     5.2710     0.1010 H     1 <1>   0.0800 
 35 H        0.8820     5.9430    -1.1470 H     1 <1>   0.0800 
 36 H       -1.5660     4.3970     1.0900 H     1 <1>   0.0800 
 37 H       -1.7060     5.2540    -0.4310 H     1 <1>   0.0800 
 38 H       -0.6800     5.8800     0.8490 H     1 <1>   0.0800 
 39 H        4.9280    -2.0760     1.1400 H     1 <1>   0.0800 
 40 H        5.1930    -1.5470    -0.5000 H     1 <1>   0.0800 
@<TRIPOS>BOND
  1   1   2  ar  
  2   1   3  ar  
  3   2   4  ar  
  4   2   5  1   
  5   3   6  ar  
  6   3   7  1   
  7   4   8  ar  
  8   5   9  1   
  9   5  10  1   
 10   6   8  ar  
 11   7  11  1   
 12   7  12  1   
 13   8  13  1   
 14   9  14  1   
 15   9  19  1   
 16   9  20  1   
 17  10  15  1   
 18  10  21  1   
 19  10  22  1   
 20  11  23  1   
 21  11  24  1   
 22  11  25  1   
 23  12  26  1   
 24  12  27  1   
 25  12  28  1   
 26  13  16  1   
 27  13  17  1   
 28  14  18  1   
 29  14  29  1   
 30  14  30  1   
 31  15  18  1   
 32  15  31  1   
 33  15  32  1   
 34  16  33  1   
 35  16  34  1   
 36  16  35  1   
 37  17  36  1   
 38  17  37  1   
 39  17  38  1   
 40  18  39  1   
 41  18  40  1   
@<TRIPOS>SUBSTRUCTURE
  1 ****   2 GROUP 4 **** **** 0

# MOE 2024.06 (io_trps.svl 2023.06)
