@<TRIPOS>MOLECULE
NONAME
40 41 1 0 0 
SMALL
USER_CHARGES


@<TRIPOS>ATOM
  1 O       -0.1610     0.4420     0.8350 O.2   1 <1>  -0.5700 
  2 C        0.0630     1.6080     0.6120 C.2   1 <1>   0.5770 
  3 N        1.1880     2.0020    -0.0340 N.am  1 <1>  -0.7300 
  4 C       -0.9250     2.6670     1.0820 C.3   1 <1>   0.0530 
  5 C        2.2720     1.1080    -0.4440 C.3   1 <1>   0.3640 
  6 C       -2.4250     2.2890     0.9370 C.3   1 <1>   0.0000 
  7 C       -1.2050     3.8130     0.0710 C.3   1 <1>   0.0000 
  8 C        3.5640     1.9170    -0.4670 C.ar  1 <1>  -0.1440 
  9 C        1.9410     0.5140    -1.8110 C.3   1 <1>  -0.2400 
 10 C       -2.6790     3.7680     0.5490 C.3   1 <1>   0.0000 
 11 C        4.5860     1.6010     0.4140 C.ar  1 <1>  -0.1500 
 12 C        3.7470     2.9740    -1.3470 C.ar  1 <1>  -0.1500 
 13 C        5.7760     2.3100     0.4290 C.ar  1 <1>   0.0830 
 14 C        4.9250     3.7010    -1.3410 C.ar  1 <1>  -0.1500 
 15 O        6.6890     1.8700     1.3420 O.3   1 <1>  -0.3630 
 16 C        5.9520     3.3890    -0.4530 C.ar  1 <1>   0.0830 
 17 C        8.0750     1.9710     1.1020 C.3   1 <1>   0.0400 
 18 O        7.1050     4.1210    -0.4180 O.3   1 <1>  -0.3630 
 19 C        7.2680     5.3060    -1.1670 C.3   1 <1>   0.0400 
 20 H        1.4110     2.9910    -0.1320 H     1 <1>   0.3700 
 21 H       -0.6990     3.0440     2.0660 H     1 <1>   0.0000 
 22 H        2.3570     0.3060     0.2730 H     1 <1>   0.0800 
 23 H       -2.8920     1.9940     1.8600 H     1 <1>   0.0000 
 24 H       -2.6170     1.6120     0.1210 H     1 <1>   0.0000 
 25 H       -1.0990     3.5100    -0.9580 H     1 <1>   0.0000 
 26 H       -0.6990     4.7330     0.3030 H     1 <1>   0.0000 
 27 H        1.7660     1.2840    -2.5380 H     1 <1>   0.0800 
 28 H        1.0660    -0.1060    -1.7330 H     1 <1>   0.0800 
 29 H        2.7600    -0.0980    -2.1440 H     1 <1>   0.0800 
 30 H       -2.8590     4.3980     1.4040 H     1 <1>   0.0000 
 31 H       -3.3980     3.8940    -0.2410 H     1 <1>   0.0000 
 32 H        4.4710     0.7890     1.1100 H     1 <1>   0.1500 
 33 H        2.9720     3.2400    -2.0440 H     1 <1>   0.1500 
 34 H        5.0180     4.5080    -2.0410 H     1 <1>   0.1500 
 35 H        8.5780     1.2700     1.7420 H     1 <1>   0.0800 
 36 H        8.3960     2.9700     1.3350 H     1 <1>   0.0800 
 37 H        8.2710     1.7360     0.0710 H     1 <1>   0.0800 
 38 H        8.2230     5.7290    -0.9160 H     1 <1>   0.0800 
 39 H        6.4840     5.9950    -0.9050 H     1 <1>   0.0800 
 40 H        7.2390     5.0650    -2.2140 H     1 <1>   0.0800 
@<TRIPOS>BOND
  1   1   2  2   
  2   2   3  am  
  3   2   4  1   
  4   3   5  1   
  5   3  20  1   
  6   4   6  1   
  7   4   7  1   
  8   4  21  1   
  9   5   8  1   
 10   5   9  1   
 11   5  22  1   
 12   6  10  1   
 13   6  23  1   
 14   6  24  1   
 15   7  10  1   
 16   7  25  1   
 17   7  26  1   
 18   8  11  ar  
 19   8  12  ar  
 20   9  27  1   
 21   9  28  1   
 22   9  29  1   
 23  10  30  1   
 24  10  31  1   
 25  11  13  ar  
 26  11  32  1   
 27  12  14  ar  
 28  12  33  1   
 29  13  15  1   
 30  13  16  ar  
 31  14  16  ar  
 32  14  34  1   
 33  15  17  1   
 34  16  18  1   
 35  17  35  1   
 36  17  36  1   
 37  17  37  1   
 38  18  19  1   
 39  19  38  1   
 40  19  39  1   
 41  19  40  1   
@<TRIPOS>SUBSTRUCTURE
  1 ****   8 GROUP 4 **** **** 0

# MOE 2024.06 (io_trps.svl 2023.06)
