@<TRIPOS>MOLECULE
NONAME
46 48 1 0 0 
SMALL
USER_CHARGES


@<TRIPOS>ATOM
  1 O        1.3140    -0.1710    -1.7080 O.3   1 <1>  -0.3630 
  2 C        2.1100    -0.5330    -0.6990 C.ar  1 <1>   0.0820 
  3 C        0.3160    -1.1860    -1.8240 C.3   1 <1>   0.4000 
  4 C        1.6970    -1.7200    -0.1730 C.ar  1 <1>   0.0820 
  5 C        3.2090     0.1370    -0.2020 C.ar  1 <1>  -0.1500 
  6 O        0.6180    -2.1600    -0.8260 O.3   1 <1>  -0.3630 
  7 C        2.3610    -2.3060     0.8850 C.ar  1 <1>  -0.1500 
  8 C        3.9030    -0.4390     0.8590 C.ar  1 <1>  -0.1440 
  9 C        3.4740    -1.6530     1.4000 C.ar  1 <1>  -0.1500 
 10 C        5.1290     0.2490     1.4070 C.3   1 <1>   0.4870 
 11 N        6.2530    -0.1850     0.5420 N.4   1 <1>  -0.9060 
 12 C        7.5700     0.4300     0.8270 C.3   1 <1>   0.4230 
 13 C        7.5730     1.9080     0.4190 C.3   1 <1>  -0.1600 
 14 C        8.6430    -0.3350     0.0510 C.3   1 <1>  -0.1600 
 15 C        8.9630     2.5270     0.5880 C.3   1 <1>   0.3430 
 16 C       10.0220     0.3050     0.2280 C.3   1 <1>   0.3430 
 17 N        9.9730     1.7420    -0.1780 N.4   1 <1>  -0.9590 
 18 C       11.3160     2.3900    -0.0440 C.3   1 <1>   0.3430 
 19 C       12.2700     1.8790    -1.1260 C.3   1 <1>  -0.1600 
 20 C       13.6050     2.6280    -1.0680 C.3   1 <1>  -0.2400 
 21 H        0.3700    -1.6380    -2.7990 H     1 <1>   0.0800 
 22 H       -0.6550    -0.7630    -1.6340 H     1 <1>   0.0800 
 23 H        3.4840     1.0770    -0.6480 H     1 <1>   0.1500 
 24 H        2.0100    -3.2410     1.2870 H     1 <1>   0.1500 
 25 H        3.9900    -2.1080     2.2290 H     1 <1>   0.1500 
 26 H        5.2940    -0.0430     2.4320 H     1 <1>   0.0800 
 27 H        4.9940     1.3180     1.3610 H     1 <1>   0.0800 
 28 H        5.9590    -0.0230    -0.4290 H     1 <1>   0.4500 
 29 H        6.2990    -1.2080     0.6310 H     1 <1>   0.4500 
 30 H        7.7830     0.3510     1.8830 H     1 <1>   0.0800 
 31 H        6.8900     2.4640     1.0360 H     1 <1>   0.0800 
 32 H        7.2670     2.0210    -0.6070 H     1 <1>   0.0800 
 33 H        8.4090    -0.3640    -0.9990 H     1 <1>   0.0800 
 34 H        8.6980    -1.3480     0.4100 H     1 <1>   0.0800 
 35 H        9.2320     2.5420     1.6330 H     1 <1>   0.0800 
 36 H        8.9480     3.5470     0.2350 H     1 <1>   0.0800 
 37 H       10.7410    -0.2260    -0.3770 H     1 <1>   0.0800 
 38 H       10.3340     0.2280     1.2580 H     1 <1>   0.0800 
 39 H        9.7410     1.7960    -1.1820 H     1 <1>   0.4500 
 40 H       11.7330     2.1970     0.9320 H     1 <1>   0.0800 
 41 H       11.2160     3.4580    -0.1580 H     1 <1>   0.0800 
 42 H       11.8380     2.0320    -2.1000 H     1 <1>   0.0800 
 43 H       12.4700     0.8310    -0.9940 H     1 <1>   0.0800 
 44 H       13.4630     3.6840    -1.2280 H     1 <1>   0.0800 
 45 H       14.2660     2.2610    -1.8360 H     1 <1>   0.0800 
 46 H       14.0880     2.4840    -0.1170 H     1 <1>   0.0800 
@<TRIPOS>BOND
  1   1   2  1   
  2   1   3  1   
  3   2   4  ar  
  4   2   5  ar  
  5   3   6  1   
  6   3  21  1   
  7   3  22  1   
  8   4   6  1   
  9   4   7  ar  
 10   5   8  ar  
 11   5  23  1   
 12   7   9  ar  
 13   7  24  1   
 14   8   9  ar  
 15   8  10  1   
 16   9  25  1   
 17  10  11  1   
 18  10  26  1   
 19  10  27  1   
 20  11  12  1   
 21  11  28  1   
 22  11  29  1   
 23  12  13  1   
 24  12  14  1   
 25  12  30  1   
 26  13  15  1   
 27  13  31  1   
 28  13  32  1   
 29  14  16  1   
 30  14  33  1   
 31  14  34  1   
 32  15  17  1   
 33  15  35  1   
 34  15  36  1   
 35  16  17  1   
 36  16  37  1   
 37  16  38  1   
 38  17  18  1   
 39  17  39  1   
 40  18  19  1   
 41  18  40  1   
 42  18  41  1   
 43  19  20  1   
 44  19  42  1   
 45  19  43  1   
 46  20  44  1   
 47  20  45  1   
 48  20  46  1   
@<TRIPOS>SUBSTRUCTURE
  1 ****  11 GROUP 4 **** **** 0

# MOE 2024.06 (io_trps.svl 2023.06)
