@<TRIPOS>MOLECULE
NONAME
53 55 1 0 0 
SMALL
USER_CHARGES


@<TRIPOS>ATOM
  1 S        1.0980    -0.1580     0.3670 S.o2  1 <1>   1.3330 
  2 O       -0.3140     0.0810     0.5450 O.2   1 <1>  -0.6500 
  3 O        1.7580    -1.2180     1.0920 O.2   1 <1>  -0.6500 
  4 N        1.9460     1.3120     0.7410 N.am  1 <1>  -0.6930 
  5 C        1.4330    -0.3730    -1.3660 C.3   1 <1>  -0.1350 
  6 C        1.4820     2.5540     0.3080 C.ar  1 <1>   0.1990 
  7 C        3.3230     1.1670     1.2750 C.3   1 <1>   0.1160 
  8 C        2.1490     3.3300    -0.6590 C.ar  1 <1>   0.0860 
  9 C        0.3060     3.0460     0.8660 C.ar  1 <1>  -0.1500 
 10 C        3.3770     2.8920    -1.2780 C.2   1 <1>   0.5440 
 11 C        1.5950     4.5560    -1.0330 C.ar  1 <1>  -0.1500 
 12 C       -0.2210     4.2640     0.4890 C.ar  1 <1>  -0.1500 
 13 O        3.3480     1.9520    -2.0530 O.2   1 <1>  -0.5700 
 14 N        4.5860     3.5150    -1.0230 N.am  1 <1>  -0.6600 
 15 C        0.4270     5.0240    -0.4680 C.ar  1 <1>  -0.1500 
 16 C        4.7540     4.6470    -0.0680 C.3   1 <1>   0.1400 
 17 C        5.8280     3.1480    -1.7620 C.3   1 <1>   0.1400 
 18 C        5.8800     4.3390     0.9250 C.3   1 <1>  -0.1600 
 19 C        6.9490     2.8210    -0.7730 C.3   1 <1>  -0.1600 
 20 C        7.1940     3.9780     0.2130 C.3   1 <1>  -0.0800 
 21 C        8.2900     3.6360     1.2400 C.3   1 <1>  -0.0170 
 22 C        9.6380     3.3840     0.5780 C.ar  1 <1>  -0.1430 
 23 C       10.1250     2.0940     0.4370 C.ar  1 <1>  -0.1500 
 24 C       10.3930     4.4490     0.1100 C.ar  1 <1>  -0.1500 
 25 C       11.3500     1.8700    -0.1690 C.ar  1 <1>  -0.1500 
 26 C       11.6180     4.2270    -0.4950 C.ar  1 <1>  -0.1500 
 27 C       12.0970     2.9370    -0.6350 C.ar  1 <1>  -0.1500 
 28 H        0.9540    -1.2610    -1.7270 H     1 <1>   0.0800 
 29 H        2.4890    -0.4600    -1.5320 H     1 <1>   0.0800 
 30 H        1.0670     0.4670    -1.9220 H     1 <1>   0.0800 
 31 H        3.3090     0.5430     2.1520 H     1 <1>   0.0800 
 32 H        3.7190     2.1290     1.5430 H     1 <1>   0.0800 
 33 H        3.9580     0.7160     0.5320 H     1 <1>   0.0800 
 34 H       -0.2030     2.4550     1.6070 H     1 <1>   0.1500 
 35 H        2.0950     5.1430    -1.7840 H     1 <1>   0.1500 
 36 H       -1.1350     4.6190     0.9350 H     1 <1>   0.1500 
 37 H        0.0150     5.9730    -0.7700 H     1 <1>   0.1500 
 38 H        3.8470     4.8310     0.4800 H     1 <1>   0.0800 
 39 H        4.9960     5.5360    -0.6240 H     1 <1>   0.0800 
 40 H        6.1210     3.9760    -2.3840 H     1 <1>   0.0800 
 41 H        5.6600     2.2990    -2.4020 H     1 <1>   0.0800 
 42 H        5.5730     3.5260     1.5590 H     1 <1>   0.0800 
 43 H        6.0330     5.2000     1.5520 H     1 <1>   0.0800 
 44 H        7.8460     2.6200    -1.3320 H     1 <1>   0.0800 
 45 H        6.6890     1.9240    -0.2380 H     1 <1>   0.0800 
 46 H        7.5190     4.8370    -0.3510 H     1 <1>   0.0800 
 47 H        7.9970     2.7710     1.8080 H     1 <1>   0.0800 
 48 H        8.3990     4.4520     1.9330 H     1 <1>   0.0800 
 49 H        9.5540     1.2560     0.7950 H     1 <1>   0.1500 
 50 H       10.0300     5.4560     0.2150 H     1 <1>   0.1500 
 51 H       11.7220     0.8660    -0.2760 H     1 <1>   0.1500 
 52 H       12.1980     5.0580    -0.8560 H     1 <1>   0.1500 
 53 H       13.0480     2.7630    -1.1060 H     1 <1>   0.1500 
@<TRIPOS>BOND
  1   1   2  2   
  2   1   3  2   
  3   1   4  am  
  4   1   5  1   
  5   4   6  1   
  6   4   7  1   
  7   5  28  1   
  8   5  29  1   
  9   5  30  1   
 10   6   8  ar  
 11   6   9  ar  
 12   7  31  1   
 13   7  32  1   
 14   7  33  1   
 15   8  10  1   
 16   8  11  ar  
 17   9  12  ar  
 18   9  34  1   
 19  10  13  2   
 20  10  14  am  
 21  11  15  ar  
 22  11  35  1   
 23  12  15  ar  
 24  12  36  1   
 25  14  16  1   
 26  14  17  1   
 27  15  37  1   
 28  16  18  1   
 29  16  38  1   
 30  16  39  1   
 31  17  19  1   
 32  17  40  1   
 33  17  41  1   
 34  18  20  1   
 35  18  42  1   
 36  18  43  1   
 37  19  20  1   
 38  19  44  1   
 39  19  45  1   
 40  20  21  1   
 41  20  46  1   
 42  21  22  1   
 43  21  47  1   
 44  21  48  1   
 45  22  23  ar  
 46  22  24  ar  
 47  23  25  ar  
 48  23  49  1   
 49  24  26  ar  
 50  24  50  1   
 51  25  27  ar  
 52  25  51  1   
 53  26  27  ar  
 54  26  52  1   
 55  27  53  1   
@<TRIPOS>SUBSTRUCTURE
  1 ****  14 GROUP 4 **** **** 0

# MOE 2024.06 (io_trps.svl 2023.06)
