@<TRIPOS>MOLECULE
NONAME
56 58 1 0 0 
SMALL
USER_CHARGES


@<TRIPOS>ATOM
  1 S       -0.1840     0.1930     0.0340 S.o2  1 <1>   1.4470 
  2 O       -0.0260     0.8150     1.3330 O.2   1 <1>  -0.6500 
  3 O       -0.4140     1.0310    -1.1220 O.2   1 <1>  -0.6500 
  4 N        1.2420    -0.6800    -0.2530 N.am  1 <1>  -0.8490 
  5 C       -1.4600    -1.0970     0.1050 C.ar  1 <1>  -0.0090 
  6 C        1.6370    -1.4800     0.9110 C.3   1 <1>   0.1960 
  7 C        2.3230     0.2020    -0.6960 C.3   1 <1>   0.1960 
  8 C       -2.4020    -1.1240     1.1260 C.ar  1 <1>  -0.1500 
  9 C       -1.5280    -2.0890    -0.8650 C.ar  1 <1>  -0.1500 
 10 C        2.8390    -2.3610     0.5640 C.3   1 <1>  -0.1600 
 11 C        3.5560    -0.6180    -1.0830 C.3   1 <1>  -0.1600 
 12 C       -3.3730    -2.1100     1.1820 C.ar  1 <1>  -0.1500 
 13 C       -2.4950    -3.0780    -0.8160 C.ar  1 <1>  -0.1500 
 14 C        4.0250    -1.5090     0.0800 C.3   1 <1>  -0.0190 
 15 C       -3.4230    -3.0940     0.2110 C.ar  1 <1>  -0.1430 
 16 C        5.2260    -2.3760    -0.3210 C.2   1 <1>   0.5690 
 17 C       -4.4860    -4.1760     0.2670 C.3   1 <1>  -0.0970 
 18 O        5.0130    -3.2670    -1.1100 O.2   1 <1>  -0.5700 
 19 N        6.4790    -2.1230     0.1940 N.am  1 <1>  -0.6600 
 20 C        7.6300    -3.0670     0.0630 C.3   1 <1>   0.2200 
 21 C        6.9310    -0.7230     0.4660 C.3   1 <1>   0.2200 
 22 C        8.3750    -2.7490    -1.2430 C.3   1 <1>  -0.1600 
 23 C        7.2680    -4.5480     0.2120 C.3   1 <1>  -0.2400 
 24 C        8.2810    -0.4190    -0.2260 C.3   1 <1>  -0.1600 
 25 C        7.0150    -0.4960     1.9760 C.3   1 <1>  -0.2400 
 26 C        8.4610    -1.2330    -1.5200 C.3   1 <1>  -0.1600 
 27 H        0.8200    -2.1140     1.2130 H     1 <1>   0.0800 
 28 H        1.8840    -0.8340     1.7380 H     1 <1>   0.0800 
 29 H        2.5680     0.9010     0.0870 H     1 <1>   0.0800 
 30 H        2.0030     0.7640    -1.5590 H     1 <1>   0.0800 
 31 H       -2.3770    -0.3630     1.8890 H     1 <1>   0.1500 
 32 H       -0.8110    -2.0860    -1.6700 H     1 <1>   0.1500 
 33 H        2.5480    -3.0590    -0.2020 H     1 <1>   0.0800 
 34 H        3.1320    -2.9270     1.4290 H     1 <1>   0.0800 
 35 H        4.3470     0.0470    -1.3800 H     1 <1>   0.0800 
 36 H        3.3110    -1.2320    -1.9330 H     1 <1>   0.0800 
 37 H       -4.0900    -2.1040     1.9850 H     1 <1>   0.1500 
 38 H       -2.5220    -3.8330    -1.5830 H     1 <1>   0.1500 
 39 H        4.3050    -0.8770     0.9000 H     1 <1>   0.0800 
 40 H       -4.1140    -5.0910    -0.1570 H     1 <1>   0.0800 
 41 H       -5.3520    -3.8630    -0.2870 H     1 <1>   0.0800 
 42 H       -4.7760    -4.3680     1.2850 H     1 <1>   0.0800 
 43 H        8.3010    -2.8550     0.8780 H     1 <1>   0.0800 
 44 H        6.2100    -0.0390     0.0540 H     1 <1>   0.0800 
 45 H        7.8770    -3.2310    -2.0670 H     1 <1>   0.0800 
 46 H        9.3640    -3.1640    -1.1770 H     1 <1>   0.0800 
 47 H        6.7630    -4.9200    -0.6600 H     1 <1>   0.0800 
 48 H        6.6460    -4.6920     1.0760 H     1 <1>   0.0800 
 49 H        8.1660    -5.1240     0.3370 H     1 <1>   0.0800 
 50 H        9.0950    -0.6430     0.4400 H     1 <1>   0.0800 
 51 H        8.3350     0.6330    -0.4450 H     1 <1>   0.0800 
 52 H        7.2930     0.5220     2.1770 H     1 <1>   0.0800 
 53 H        7.7520    -1.1430     2.4170 H     1 <1>   0.0800 
 54 H        6.0650    -0.6860     2.4390 H     1 <1>   0.0800 
 55 H        7.6760    -0.9620    -2.2060 H     1 <1>   0.0800 
 56 H        9.4020    -0.9960    -1.9870 H     1 <1>   0.0800 
@<TRIPOS>BOND
  1   1   2  2   
  2   1   3  2   
  3   1   4  am  
  4   1   5  1   
  5   4   6  1   
  6   4   7  1   
  7   5   8  ar  
  8   5   9  ar  
  9   6  10  1   
 10   6  27  1   
 11   6  28  1   
 12   7  11  1   
 13   7  29  1   
 14   7  30  1   
 15   8  12  ar  
 16   8  31  1   
 17   9  13  ar  
 18   9  32  1   
 19  10  14  1   
 20  10  33  1   
 21  10  34  1   
 22  11  14  1   
 23  11  35  1   
 24  11  36  1   
 25  12  15  ar  
 26  12  37  1   
 27  13  15  ar  
 28  13  38  1   
 29  14  16  1   
 30  14  39  1   
 31  15  17  1   
 32  16  18  2   
 33  16  19  am  
 34  17  40  1   
 35  17  41  1   
 36  17  42  1   
 37  19  20  1   
 38  19  21  1   
 39  20  22  1   
 40  20  23  1   
 41  20  43  1   
 42  21  24  1   
 43  21  25  1   
 44  21  44  1   
 45  22  26  1   
 46  22  45  1   
 47  22  46  1   
 48  23  47  1   
 49  23  48  1   
 50  23  49  1   
 51  24  26  1   
 52  24  50  1   
 53  24  51  1   
 54  25  52  1   
 55  25  53  1   
 56  25  54  1   
 57  26  55  1   
 58  26  56  1   
@<TRIPOS>SUBSTRUCTURE
  1 ****  10 GROUP 4 **** **** 0

# MOE 2024.06 (io_trps.svl 2023.06)
