@<TRIPOS>MOLECULE
NONAME
38 39 1 0 0 
SMALL
USER_CHARGES


@<TRIPOS>ATOM
  1 I       -0.2380    -0.3900    -2.1010 I     1 <1>  -0.0810 
  2 C        0.6780    -1.8280    -0.8090 C.ar  1 <1>   0.0810 
  3 C       -0.0660    -2.8910    -0.3070 C.ar  1 <1>   0.0820 
  4 C        2.0150    -1.6450    -0.5090 C.ar  1 <1>  -0.1500 
  5 O       -1.3780    -2.9980    -0.6510 O.3   1 <1>  -0.3630 
  6 C        0.5830    -3.7960     0.5290 C.ar  1 <1>  -0.1500 
  7 C        2.6450    -2.5530     0.3260 C.ar  1 <1>  -0.1430 
  8 C       -2.1930    -4.0330    -0.1670 C.3   1 <1>   0.1200 
  9 C        1.9240    -3.6230     0.8380 C.ar  1 <1>  -0.1500 
 10 C        4.1130    -2.3840     0.6760 C.3   1 <1>  -0.0960 
 11 C       -3.5860    -3.8070    -0.7590 C.3   1 <1>   0.3430 
 12 N       -4.5590    -4.8480    -0.3080 N.4   1 <1>  -0.9060 
 13 C       -5.9170    -4.6480    -0.8490 C.3   1 <1>   0.4230 
 14 C       -6.6140    -3.5340    -0.0750 C.3   1 <1>  -0.1600 
 15 C       -6.7470    -5.8740    -0.4900 C.3   1 <1>  -0.1600 
 16 C       -7.0940    -4.1700     1.2360 C.3   1 <1>  -0.1600 
 17 C       -7.1780    -5.6780     0.9690 C.3   1 <1>  -0.1600 
 18 H        2.5530    -0.8090    -0.9200 H     1 <1>   0.1500 
 19 H        0.0750    -4.6410     0.9530 H     1 <1>   0.1500 
 20 H       -2.2110    -3.9690     0.9070 H     1 <1>   0.0800 
 21 H       -1.7750    -4.9680    -0.4960 H     1 <1>   0.0800 
 22 H        2.4140    -4.3310     1.4840 H     1 <1>   0.1500 
 23 H        4.4090    -1.3550     0.5800 H     1 <1>   0.0800 
 24 H        4.7160    -2.9800     0.0150 H     1 <1>   0.0800 
 25 H        4.2950    -2.6950     1.6890 H     1 <1>   0.0800 
 26 H       -3.5100    -3.8240    -1.8340 H     1 <1>   0.0800 
 27 H       -3.9300    -2.8310    -0.4570 H     1 <1>   0.0800 
 28 H       -4.6500    -4.8460     0.7150 H     1 <1>   0.4500 
 29 H       -4.2370    -5.7810    -0.5860 H     1 <1>   0.4500 
 30 H       -5.8950    -4.4690    -1.9130 H     1 <1>   0.0800 
 31 H       -7.4800    -3.2280    -0.6380 H     1 <1>   0.0800 
 32 H       -6.0040    -2.6630     0.0870 H     1 <1>   0.0800 
 33 H       -6.2310    -6.8050    -0.6510 H     1 <1>   0.0800 
 34 H       -7.6300    -5.8740    -1.1080 H     1 <1>   0.0800 
 35 H       -8.0550    -3.7730     1.5230 H     1 <1>   0.0800 
 36 H       -6.3970    -3.9730     2.0330 H     1 <1>   0.0800 
 37 H       -6.5180    -6.2090     1.6350 H     1 <1>   0.0800 
 38 H       -8.1800    -6.0450     1.1230 H     1 <1>   0.0800 
@<TRIPOS>BOND
  1   1   2  1   
  2   2   3  ar  
  3   2   4  ar  
  4   3   5  1   
  5   3   6  ar  
  6   4   7  ar  
  7   4  18  1   
  8   5   8  1   
  9   6   9  ar  
 10   6  19  1   
 11   7   9  ar  
 12   7  10  1   
 13   8  11  1   
 14   8  20  1   
 15   8  21  1   
 16   9  22  1   
 17  10  23  1   
 18  10  24  1   
 19  10  25  1   
 20  11  12  1   
 21  11  26  1   
 22  11  27  1   
 23  12  13  1   
 24  12  28  1   
 25  12  29  1   
 26  13  14  1   
 27  13  15  1   
 28  13  30  1   
 29  14  16  1   
 30  14  31  1   
 31  14  32  1   
 32  15  17  1   
 33  15  33  1   
 34  15  34  1   
 35  16  17  1   
 36  16  35  1   
 37  16  36  1   
 38  17  37  1   
 39  17  38  1   
@<TRIPOS>SUBSTRUCTURE
  1 ****   8 GROUP 4 **** **** 0

# MOE 2024.06 (io_trps.svl 2023.06)
