@<TRIPOS>MOLECULE
NONAME
41 43 1 0 0 
SMALL
USER_CHARGES


@<TRIPOS>ATOM
  1 O       -0.9340     2.5910    -1.9340 O.2   1 <1>  -0.5700 
  2 C       -0.6410     2.3710    -0.7720 C.2   1 <1>   0.4690 
  3 C        0.5960     2.8490    -0.2090 C.ar  1 <1>   0.0860 
  4 C       -1.4990     1.6220     0.0950 C.2   1 <1>  -0.1240 
  5 C        0.9020     2.5340     1.1200 C.ar  1 <1>   0.0830 
  6 C        1.5170     3.6200    -0.9240 C.ar  1 <1>  -0.1500 
  7 C       -1.1060     1.3550     1.3610 C.2   1 <1>  -0.0730 
  8 C       -2.8390     1.1090    -0.4330 C.3   1 <1>   0.2480 
  9 O        0.0510     1.7920     1.8600 O.3   1 <1>  -0.1590 
 10 C        2.0810     2.9750     1.7060 C.ar  1 <1>  -0.1500 
 11 C        2.6890     4.0590    -0.3400 C.ar  1 <1>  -0.1500 
 12 N       -3.9470     2.1000    -0.3440 N.3   1 <1>  -0.8100 
 13 C        2.9730     3.7360     0.9790 C.ar  1 <1>  -0.1500 
 14 C       -4.0240     2.7360     1.0010 C.3   1 <1>   0.1100 
 15 C       -3.8720     3.0910    -1.4390 C.3   1 <1>   0.1100 
 16 C       -5.3440     3.4890     1.2640 C.3   1 <1>   0.3430 
 17 C       -5.2690     3.4410    -1.9640 C.3   1 <1>  -0.1600 
 18 N       -6.3450     3.1480     0.2160 N.4   1 <1>  -0.9590 
 19 C       -6.2220     4.0600    -0.9440 C.3   1 <1>   0.3430 
 20 C       -7.7370     3.0300     0.7330 C.3   1 <1>   0.2630 
 21 H        1.3030     3.8720    -1.9500 H     1 <1>   0.1500 
 22 H       -1.6810     0.7790     2.0650 H     1 <1>   0.1500 
 23 H       -3.1210     0.2460     0.1460 H     1 <1>   0.0800 
 24 H       -2.7260     0.7680    -1.4500 H     1 <1>   0.0800 
 25 H        2.2930     2.7180     2.7290 H     1 <1>   0.1500 
 26 H        3.3860     4.6520    -0.9070 H     1 <1>   0.1500 
 27 H        3.8880     4.0800     1.4300 H     1 <1>   0.1500 
 28 H       -3.1980     3.4120     1.1450 H     1 <1>   0.0800 
 29 H       -3.9400     1.9670     1.7510 H     1 <1>   0.0800 
 30 H       -3.3320     2.6750    -2.2730 H     1 <1>   0.0800 
 31 H       -3.3400     3.9730    -1.1210 H     1 <1>   0.0800 
 32 H       -5.1630     4.5510     1.2740 H     1 <1>   0.0800 
 33 H       -5.7110     3.2080     2.2370 H     1 <1>   0.0800 
 34 H       -5.7160     2.5560    -2.3820 H     1 <1>   0.0800 
 35 H       -5.1520     4.1380    -2.7740 H     1 <1>   0.0800 
 36 H       -5.9890     2.2360    -0.1400 H     1 <1>   0.4500 
 37 H       -7.1850     4.1990    -1.4090 H     1 <1>   0.0800 
 38 H       -5.8550     5.0230    -0.6270 H     1 <1>   0.0800 
 39 H       -8.0790     3.9810     1.1080 H     1 <1>   0.0800 
 40 H       -7.7790     2.3070     1.5310 H     1 <1>   0.0800 
 41 H       -8.4000     2.7100    -0.0540 H     1 <1>   0.0800 
@<TRIPOS>BOND
  1   1   2  2   
  2   2   3  1   
  3   2   4  1   
  4   3   5  ar  
  5   3   6  ar  
  6   4   7  2   
  7   4   8  1   
  8   5   9  1   
  9   5  10  ar  
 10   6  11  ar  
 11   6  21  1   
 12   7   9  1   
 13   7  22  1   
 14   8  12  1   
 15   8  23  1   
 16   8  24  1   
 17  10  13  ar  
 18  10  25  1   
 19  11  13  ar  
 20  11  26  1   
 21  12  14  1   
 22  12  15  1   
 23  13  27  1   
 24  14  16  1   
 25  14  28  1   
 26  14  29  1   
 27  15  17  1   
 28  15  30  1   
 29  15  31  1   
 30  16  18  1   
 31  16  32  1   
 32  16  33  1   
 33  17  19  1   
 34  17  34  1   
 35  17  35  1   
 36  18  19  1   
 37  18  20  1   
 38  18  36  1   
 39  19  37  1   
 40  19  38  1   
 41  20  39  1   
 42  20  40  1   
 43  20  41  1   
@<TRIPOS>SUBSTRUCTURE
  1 ****   4 GROUP 4 **** **** 0

# MOE 2024.06 (io_trps.svl 2023.06)
