@<TRIPOS>MOLECULE
NONAME
50 52 1 0 0 
SMALL
USER_CHARGES


@<TRIPOS>ATOM
  1 O        0.4060     2.3990    -2.7000 O.2   1 <1>  -0.5700 
  2 C       -0.1840     2.2420    -1.6570 C.2   1 <1>   0.5690 
  3 N        0.4280     1.8010    -0.5300 N.am  1 <1>  -0.7300 
  4 C       -1.6840     2.5470    -1.5840 C.3   1 <1>   0.1710 
  5 C        1.8390     1.4190    -0.3850 C.3   1 <1>   0.2200 
  6 N       -2.4120     1.8150    -0.5030 N.3   1 <1>  -0.8100 
  7 C        1.8890    -0.0790    -0.0540 C.3   1 <1>  -0.1600 
  8 C        2.4620     2.3360     0.6730 C.3   1 <1>  -0.1600 
  9 C       -3.7590     2.3900    -0.2960 C.3   1 <1>   0.1100 
 10 C       -2.5470     0.3760    -0.8400 C.3   1 <1>   0.1100 
 11 C        3.3020    -0.6640    -0.2000 C.3   1 <1>  -0.1600 
 12 C        3.9270     2.0260     1.0240 C.3   1 <1>  -0.1600 
 13 C       -4.5380     1.6690     0.8210 C.3   1 <1>   0.2090 
 14 C       -3.2860    -0.4170     0.2540 C.3   1 <1>   0.2090 
 15 C        4.1830    -0.5510     1.0540 C.3   1 <1>  -0.1600 
 16 C        4.0710     0.7500     1.8650 C.3   1 <1>  -0.1600 
 17 N       -4.6160     0.1960     0.5680 N.pl3 1 <1>  -0.8380 
 18 C       -5.7410    -0.5550     0.8460 C.ar  1 <1>   0.7200 
 19 N       -5.6300    -1.8800     0.7460 N.ar  1 <1>  -0.6200 
 20 N       -6.8460     0.1060     1.1920 N.ar  1 <1>  -0.6200 
 21 C       -6.7050    -2.5800     1.0140 C.ar  1 <1>   0.1600 
 22 C       -7.9050    -0.6190     1.4540 C.ar  1 <1>   0.1600 
 23 C       -7.8880    -1.9890     1.3780 C.ar  1 <1>  -0.1500 
 24 H       -0.1780     1.6600     0.2830 H     1 <1>   0.3700 
 25 H       -2.1280     2.3260    -2.5390 H     1 <1>   0.0800 
 26 H       -1.7770     3.6050    -1.4160 H     1 <1>   0.0800 
 27 H        2.3400     1.5850    -1.3260 H     1 <1>   0.0800 
 28 H        1.2580    -0.5870    -0.7620 H     1 <1>   0.0800 
 29 H        1.5010    -0.2660     0.9310 H     1 <1>   0.0800 
 30 H        1.8700     2.3020     1.5710 H     1 <1>   0.0800 
 31 H        2.4190     3.3420     0.2940 H     1 <1>   0.0800 
 32 H       -4.3300     2.3270    -1.2070 H     1 <1>   0.0800 
 33 H       -3.6660     3.4290    -0.0310 H     1 <1>   0.0800 
 34 H       -1.5730    -0.0590    -0.9750 H     1 <1>   0.0800 
 35 H       -3.0890     0.2660    -1.7640 H     1 <1>   0.0800 
 36 H        3.7990    -0.1910    -1.0300 H     1 <1>   0.0800 
 37 H        3.2180    -1.7080    -0.4480 H     1 <1>   0.0800 
 38 H        4.3000     2.8500     1.6090 H     1 <1>   0.0800 
 39 H        4.5300     1.9690     0.1340 H     1 <1>   0.0800 
 40 H       -5.5190     2.1050     0.8830 H     1 <1>   0.0800 
 41 H       -4.0440     1.8370     1.7610 H     1 <1>   0.0800 
 42 H       -2.6880    -0.4310     1.1470 H     1 <1>   0.0800 
 43 H       -3.3980    -1.4320    -0.0840 H     1 <1>   0.0800 
 44 H        5.2080    -0.6790     0.7480 H     1 <1>   0.0800 
 45 H        3.9520    -1.3700     1.7130 H     1 <1>   0.0800 
 46 H        3.2430     0.6750     2.5480 H     1 <1>   0.0800 
 47 H        4.9590     0.8350     2.4680 H     1 <1>   0.0800 
 48 H       -6.6390    -3.6520     0.9400 H     1 <1>   0.1500 
 49 H       -8.8090    -0.1060     1.7350 H     1 <1>   0.1500 
 50 H       -8.7620    -2.5720     1.5950 H     1 <1>   0.1500 
@<TRIPOS>BOND
  1   1   2  2   
  2   2   3  am  
  3   2   4  1   
  4   3   5  1   
  5   3  24  1   
  6   4   6  1   
  7   4  25  1   
  8   4  26  1   
  9   5   7  1   
 10   5   8  1   
 11   5  27  1   
 12   6   9  1   
 13   6  10  1   
 14   7  11  1   
 15   7  28  1   
 16   7  29  1   
 17   8  12  1   
 18   8  30  1   
 19   8  31  1   
 20   9  13  1   
 21   9  32  1   
 22   9  33  1   
 23  10  14  1   
 24  10  34  1   
 25  10  35  1   
 26  11  15  1   
 27  11  36  1   
 28  11  37  1   
 29  12  16  1   
 30  12  38  1   
 31  12  39  1   
 32  13  17  1   
 33  13  40  1   
 34  13  41  1   
 35  14  17  1   
 36  14  42  1   
 37  14  43  1   
 38  15  16  1   
 39  15  44  1   
 40  15  45  1   
 41  16  46  1   
 42  16  47  1   
 43  17  18  1   
 44  18  19  ar  
 45  18  20  ar  
 46  19  21  ar  
 47  20  22  ar  
 48  21  23  ar  
 49  21  48  1   
 50  22  23  ar  
 51  22  49  1   
 52  23  50  1   
@<TRIPOS>SUBSTRUCTURE
  1 ****  10 GROUP 4 **** **** 0

# MOE 2024.06 (io_trps.svl 2023.06)
