@<TRIPOS>MOLECULE
NONAME
47 49 1 0 0 
SMALL
USER_CHARGES


@<TRIPOS>ATOM
  1 CL       0.1590     0.1850     0.5390 Cl    1 <1>  -0.1770 
  2 C        1.6590    -0.6380     0.2120 C.ar  1 <1>   0.1770 
  3 C        2.2810    -1.3450     1.2240 C.ar  1 <1>  -0.1500 
  4 C        2.2080    -0.5750    -1.0550 C.ar  1 <1>  -0.1500 
  5 C        3.4740    -1.9950     0.9590 C.ar  1 <1>  -0.1500 
  6 C        3.4020    -1.2290    -1.3070 C.ar  1 <1>  -0.1500 
  7 C        4.0630    -1.9440    -0.3070 C.ar  1 <1>   0.0860 
  8 C        5.3180    -2.6160    -0.5850 C.2   1 <1>   0.5440 
  9 O        5.3420    -3.4690    -1.4520 O.2   1 <1>  -0.5700 
 10 N        6.4800    -2.3150     0.1000 N.am  1 <1>  -0.6600 
 11 C        7.7270    -3.1060    -0.0990 C.3   1 <1>   0.1400 
 12 C        6.6480    -1.1000     0.9470 C.3   1 <1>   0.1400 
 13 C        8.8110    -2.2160    -0.7140 C.3   1 <1>  -0.1600 
 14 C        7.7280    -0.1990     0.3420 C.3   1 <1>  -0.1600 
 15 C        9.0560    -0.9540     0.1340 C.3   1 <1>  -0.0190 
 16 C       10.1450    -0.0800    -0.4910 C.2   1 <1>   0.5690 
 17 O        9.8320     0.8160    -1.2370 O.2   1 <1>  -0.5700 
 18 N       11.4380    -0.3780    -0.1640 N.am  1 <1>  -0.5470 
 19 C       12.6830     0.1710    -0.5240 C.ar  1 <1>   0.1170 
 20 C       13.8350    -0.4160     0.0140 C.ar  1 <1>   0.0830 
 21 C       12.8230     1.2590    -1.3790 C.ar  1 <1>  -0.1500 
 22 O       13.6570    -1.4830     0.8520 O.3   1 <1>  -0.3620 
 23 C       15.0910     0.0890    -0.3080 C.ar  1 <1>  -0.1500 
 24 C       14.0750     1.7560    -1.6970 C.ar  1 <1>  -0.1500 
 25 C       14.7580    -2.1350     1.4480 C.3   1 <1>   0.0400 
 26 C       15.2080     1.1720    -1.1620 C.ar  1 <1>  -0.1500 
 27 H        1.8310    -1.3860     2.2000 H     1 <1>   0.1500 
 28 H        1.7050    -0.0240    -1.8290 H     1 <1>   0.1500 
 29 H        3.9630    -2.5560     1.7370 H     1 <1>   0.1500 
 30 H        3.8380    -1.1950    -2.2910 H     1 <1>   0.1500 
 31 H        7.5480    -3.9510    -0.7420 H     1 <1>   0.0800 
 32 H        8.0560    -3.4830     0.8540 H     1 <1>   0.0800 
 33 H        6.9340    -1.4020     1.9400 H     1 <1>   0.0800 
 34 H        5.7300    -0.5440     1.0170 H     1 <1>   0.0800 
 35 H        8.5030    -1.9330    -1.7060 H     1 <1>   0.0800 
 36 H        9.7210    -2.7820    -0.8040 H     1 <1>   0.0800 
 37 H        7.8910     0.6460     0.9880 H     1 <1>   0.0800 
 38 H        7.3710     0.1790    -0.6010 H     1 <1>   0.0800 
 39 H        9.4060    -1.2640     1.1020 H     1 <1>   0.0800 
 40 H       11.5640    -1.1700     0.4660 H     1 <1>   0.3700 
 41 H       11.9580     1.7290    -1.8070 H     1 <1>   0.1500 
 42 H       15.9900    -0.3410     0.0890 H     1 <1>   0.1500 
 43 H       14.1630     2.5980    -2.3610 H     1 <1>   0.1500 
 44 H       14.3830    -2.9340     2.0630 H     1 <1>   0.0800 
 45 H       15.2950    -1.4290     2.0570 H     1 <1>   0.0800 
 46 H       15.3890    -2.5360     0.6740 H     1 <1>   0.0800 
 47 H       16.1810     1.5610    -1.4110 H     1 <1>   0.1500 
@<TRIPOS>BOND
  1   1   2  1   
  2   2   3  ar  
  3   2   4  ar  
  4   3   5  ar  
  5   3  27  1   
  6   4   6  ar  
  7   4  28  1   
  8   5   7  ar  
  9   5  29  1   
 10   6   7  ar  
 11   6  30  1   
 12   7   8  1   
 13   8   9  2   
 14   8  10  am  
 15  10  11  1   
 16  10  12  1   
 17  11  13  1   
 18  11  31  1   
 19  11  32  1   
 20  12  14  1   
 21  12  33  1   
 22  12  34  1   
 23  13  15  1   
 24  13  35  1   
 25  13  36  1   
 26  14  15  1   
 27  14  37  1   
 28  14  38  1   
 29  15  16  1   
 30  15  39  1   
 31  16  17  2   
 32  16  18  am  
 33  18  19  1   
 34  18  40  1   
 35  19  20  ar  
 36  19  21  ar  
 37  20  22  1   
 38  20  23  ar  
 39  21  24  ar  
 40  21  41  1   
 41  22  25  1   
 42  23  26  ar  
 43  23  42  1   
 44  24  26  ar  
 45  24  43  1   
 46  25  44  1   
 47  25  45  1   
 48  25  46  1   
 49  26  47  1   
@<TRIPOS>SUBSTRUCTURE
  1 ****  15 GROUP 4 **** **** 0

# MOE 2024.06 (io_trps.svl 2023.06)
