@<TRIPOS>MOLECULE
NONAME
46 48 1 0 0 
SMALL
USER_CHARGES


@<TRIPOS>ATOM
  1 O        0.0080    -2.2980    -2.0850 O.2   1 <1>  -0.5700 
  2 C       -0.0080    -2.2660    -0.8830 C.2   1 <1>   0.6590 
  3 O       -1.0330    -1.7950    -0.1910 O.3   1 <1>  -0.4300 
  4 C        1.1770    -2.7690    -0.0630 C.3   1 <1>  -0.0190 
  5 C       -2.1850    -1.2970    -0.8320 C.3   1 <1>   0.1200 
  6 C        2.3980    -1.8490    -0.2470 C.3   1 <1>  -0.1600 
  7 C        1.5410    -4.2190    -0.4400 C.3   1 <1>  -0.1600 
  8 C       -3.1640    -0.8360     0.2430 C.3   1 <1>  -0.2400 
  9 C        3.6350    -2.3820     0.4730 C.3   1 <1>   0.3430 
 10 C        2.7920    -4.7050     0.2870 C.3   1 <1>   0.3430 
 11 N        3.9200    -3.7730     0.0120 N.4   1 <1>  -0.9590 
 12 C        5.2010    -4.2870     0.5720 C.3   1 <1>   0.4860 
 13 C        6.3340    -3.4120     0.0720 C.ar  1 <1>  -0.1440 
 14 C        6.9760    -2.5420     0.9140 C.ar  1 <1>  -0.1500 
 15 C        6.7260    -3.4860    -1.2740 C.ar  1 <1>  -0.1500 
 16 C        8.0120    -1.7030     0.4580 C.ar  1 <1>   0.0000 
 17 C        7.7280    -2.6830    -1.7420 C.ar  1 <1>  -0.1500 
 18 C        8.3920    -1.7710    -0.8990 C.ar  1 <1>   0.0000 
 19 C        8.6810    -0.7960     1.3040 C.ar  1 <1>  -0.1500 
 20 C        9.4220    -0.9260    -1.3580 C.ar  1 <1>  -0.1500 
 21 C        9.6770     0.0130     0.8310 C.ar  1 <1>  -0.1500 
 22 C       10.0510    -0.0520    -0.5150 C.ar  1 <1>  -0.1500 
 23 H        0.8880    -2.7490     0.9740 H     1 <1>   0.0800 
 24 H       -2.6120    -2.0850    -1.4310 H     1 <1>   0.0800 
 25 H       -1.8960    -0.4770    -1.4690 H     1 <1>   0.0800 
 26 H        2.1670    -0.8680     0.1340 H     1 <1>   0.0800 
 27 H        2.6220    -1.7380    -1.2950 H     1 <1>   0.0800 
 28 H        1.6980    -4.2950    -1.5030 H     1 <1>   0.0800 
 29 H        0.7170    -4.8660    -0.1940 H     1 <1>   0.0800 
 30 H       -3.4380    -1.6610     0.8750 H     1 <1>   0.0800 
 31 H       -4.0540    -0.4510    -0.2200 H     1 <1>   0.0800 
 32 H       -2.7240    -0.0560     0.8370 H     1 <1>   0.0800 
 33 H        3.4670    -2.3750     1.5380 H     1 <1>   0.0800 
 34 H        4.4740    -1.7390     0.2580 H     1 <1>   0.0800 
 35 H        3.0390    -5.6980    -0.0530 H     1 <1>   0.0800 
 36 H        2.6010    -4.7460     1.3480 H     1 <1>   0.0800 
 37 H        4.0520    -3.7170    -1.0060 H     1 <1>   0.4500 
 38 H        5.3700    -5.3020     0.2510 H     1 <1>   0.0800 
 39 H        5.1710    -4.2690     1.6490 H     1 <1>   0.0800 
 40 H        6.7110    -2.4700     1.9540 H     1 <1>   0.1500 
 41 H        6.2450    -4.1780    -1.9440 H     1 <1>   0.1500 
 42 H        8.0350    -2.7350    -2.7720 H     1 <1>   0.1500 
 43 H        8.3970    -0.7460     2.3400 H     1 <1>   0.1500 
 44 H        9.7090    -0.9790    -2.3930 H     1 <1>   0.1500 
 45 H       10.1860     0.7050     1.4810 H     1 <1>   0.1500 
 46 H       10.8380     0.5910    -0.8710 H     1 <1>   0.1500 
@<TRIPOS>BOND
  1   1   2  2   
  2   2   3  1   
  3   2   4  1   
  4   3   5  1   
  5   4   6  1   
  6   4   7  1   
  7   4  23  1   
  8   5   8  1   
  9   5  24  1   
 10   5  25  1   
 11   6   9  1   
 12   6  26  1   
 13   6  27  1   
 14   7  10  1   
 15   7  28  1   
 16   7  29  1   
 17   8  30  1   
 18   8  31  1   
 19   8  32  1   
 20   9  11  1   
 21   9  33  1   
 22   9  34  1   
 23  10  11  1   
 24  10  35  1   
 25  10  36  1   
 26  11  12  1   
 27  11  37  1   
 28  12  13  1   
 29  12  38  1   
 30  12  39  1   
 31  13  14  ar  
 32  13  15  ar  
 33  14  16  ar  
 34  14  40  1   
 35  15  17  ar  
 36  15  41  1   
 37  16  18  ar  
 38  16  19  ar  
 39  17  18  ar  
 40  17  42  1   
 41  18  20  ar  
 42  19  21  ar  
 43  19  43  1   
 44  20  22  ar  
 45  20  44  1   
 46  21  22  ar  
 47  21  45  1   
 48  22  46  1   
@<TRIPOS>SUBSTRUCTURE
  1 ****   9 GROUP 4 **** **** 0

# MOE 2024.06 (io_trps.svl 2023.06)
