@<TRIPOS>MOLECULE
NONAME
27 28 1 0 0 
SMALL
USER_CHARGES


@<TRIPOS>ATOM
  1 S        0.0420     0.0260     0.4500 S.3   1 <1>  -0.2860 
  2 C       -1.4520    -0.9630     0.3190 C.2   1 <1>   0.2420 
  3 C        1.3930    -1.2300     0.3600 C.3   1 <1>  -0.0100 
  4 N       -1.4510    -2.2440     0.1930 N.2   1 <1>  -0.3380 
  5 N       -2.6690    -0.4320     0.3340 N.pl3 1 <1>   0.0480 
  6 N       -2.7310    -2.6000     0.1130 N.2   1 <1>  -0.3380 
  7 C       -3.4560    -1.5180     0.2010 C.2   1 <1>   0.1330 
  8 C       -3.0490     0.9990     0.4020 C.3   1 <1>   0.0960 
  9 C       -4.8940    -1.4860     0.1390 C.ar  1 <1>   0.0530 
 10 C       -3.3360     1.5490    -0.9980 C.3   1 <1>  -0.2400 
 11 C       -5.5850    -1.9420    -0.9710 C.ar  1 <1>  -0.1500 
 12 C       -5.6890    -1.0070     1.1700 C.ar  1 <1>  -0.1500 
 13 C       -6.9640    -1.8780    -1.0100 C.ar  1 <1>   0.1600 
 14 C       -7.0640    -0.9850     1.0350 C.ar  1 <1>   0.1600 
 15 N       -7.7210    -1.4000    -0.0350 N.ar  1 <1>  -0.6200 
 16 H        2.3320    -0.7120     0.4330 H     1 <1>   0.0800 
 17 H        1.3040    -1.7420    -0.5810 H     1 <1>   0.0800 
 18 H        1.2620    -1.9130     1.1800 H     1 <1>   0.0800 
 19 H       -2.2490     1.5550     0.8560 H     1 <1>   0.0800 
 20 H       -3.9200     1.1030     1.0230 H     1 <1>   0.0800 
 21 H       -2.4630     1.4560    -1.6220 H     1 <1>   0.0800 
 22 H       -3.5960     2.5900    -0.9330 H     1 <1>   0.0800 
 23 H       -4.1570     1.0220    -1.4520 H     1 <1>   0.0800 
 24 H       -5.0380    -2.3500    -1.8030 H     1 <1>   0.1500 
 25 H       -5.2360    -0.6620     2.0800 H     1 <1>   0.1500 
 26 H       -7.4740    -2.2370    -1.8870 H     1 <1>   0.1500 
 27 H       -7.6590    -0.6080     1.8500 H     1 <1>   0.1500 
@<TRIPOS>BOND
  1   1   2  1   
  2   1   3  1   
  3   2   4  2   
  4   2   5  1   
  5   3  16  1   
  6   3  17  1   
  7   3  18  1   
  8   4   6  1   
  9   5   7  1   
 10   5   8  1   
 11   6   7  2   
 12   7   9  1   
 13   8  10  1   
 14   8  19  1   
 15   8  20  1   
 16   9  11  ar  
 17   9  12  ar  
 18  10  21  1   
 19  10  22  1   
 20  10  23  1   
 21  11  13  ar  
 22  11  24  1   
 23  12  14  ar  
 24  12  25  1   
 25  13  15  ar  
 26  13  26  1   
 27  14  15  ar  
 28  14  27  1   
@<TRIPOS>SUBSTRUCTURE
  1 ****   7 GROUP 4 **** **** 0

# MOE 2024.06 (io_trps.svl 2023.06)
