@<TRIPOS>MOLECULE
NONAME
29 30 1 0 0 
SMALL
USER_CHARGES


@<TRIPOS>ATOM
  1 N       -2.8700     4.6650    -0.9030 N.pl3 1 <1>  -0.8420 
  2 C       -4.1250     4.7680    -0.5040 C.cat 1 <1>   1.0680 
  3 N       -4.8860     3.7070    -0.1920 N.pl3 1 <1>  -0.5200 
  4 N       -4.7880     5.9170    -0.3520 N.pl3 1 <1>  -0.7700 
  5 N       -4.5260     2.2750    -0.2230 N.pl3 1 <1>  -0.4690 
  6 C       -6.1230     4.2060     0.2000 C.ar  1 <1>   0.2980 
  7 C       -6.0580     5.5880     0.1020 C.ar  1 <1>   0.2980 
  8 C       -4.3110     7.2920    -0.5990 C.3   1 <1>   0.3430 
  9 C       -7.2870     3.5760     0.6310 C.ar  1 <1>  -0.1230 
 10 C       -7.1570     6.3720     0.4390 C.ar  1 <1>  -0.1230 
 11 C       -3.7090     7.8580     0.6880 C.3   1 <1>  -0.1730 
 12 C       -8.3770     4.3560     0.9620 C.ar  1 <1>  -0.1630 
 13 C       -8.3120     5.7480     0.8670 C.ar  1 <1>  -0.1630 
 14 C       -3.1690     9.2770     0.4790 C.3   1 <1>  -0.2520 
 15 H       -2.2760     5.4640    -1.0970 H     1 <1>   0.4400 
 16 H       -2.4510     3.7400    -0.9770 H     1 <1>   0.4400 
 17 H       -5.1810     1.7790    -0.8480 H     1 <1>   0.3490 
 18 H       -4.6630     1.8750     0.7190 H     1 <1>   0.3490 
 19 H       -5.1330     7.9090    -0.9230 H     1 <1>   0.0660 
 20 H       -3.5720     7.2900    -1.3820 H     1 <1>   0.0660 
 21 H       -7.3330     2.5050     0.7040 H     1 <1>   0.1370 
 22 H       -7.1050     7.4430     0.3680 H     1 <1>   0.1370 
 23 H       -2.9030     7.2280     1.0220 H     1 <1>   0.0660 
 24 H       -4.4630     7.8840     1.4560 H     1 <1>   0.0660 
 25 H       -9.2920     3.8950     1.3000 H     1 <1>   0.1370 
 26 H       -9.1760     6.3340     1.1340 H     1 <1>   0.1370 
 27 H       -2.3940     9.2860    -0.2680 H     1 <1>   0.0660 
 28 H       -2.7560     9.6510     1.4000 H     1 <1>   0.0660 
 29 H       -3.9570     9.9420     0.1690 H     1 <1>   0.0660 
@<TRIPOS>BOND
  1   1   2  ar  
  2   1  15  1   
  3   1  16  1   
  4   2   3  ar  
  5   2   4  ar  
  6   3   5  1   
  7   3   6  1   
  8   4   7  1   
  9   4   8  1   
 10   5  17  1   
 11   5  18  1   
 12   6   7  ar  
 13   6   9  ar  
 14   7  10  ar  
 15   8  11  1   
 16   8  19  1   
 17   8  20  1   
 18   9  12  ar  
 19   9  21  1   
 20  10  13  ar  
 21  10  22  1   
 22  11  14  1   
 23  11  23  1   
 24  11  24  1   
 25  12  13  ar  
 26  12  25  1   
 27  13  26  1   
 28  14  27  1   
 29  14  28  1   
 30  14  29  1   
@<TRIPOS>SUBSTRUCTURE
  1 ****   7 GROUP 4 **** **** 0

# MOE 2024.06 (io_trps.svl 2023.06)
