@<TRIPOS>MOLECULE
NONAME
26 26 1 0 0 
SMALL
USER_CHARGES


@<TRIPOS>ATOM
  1 S       -0.5250     0.1200    -1.6080 S.3   1 <1>  -0.0800 
  2 C       -0.3540     1.5270    -0.5580 C.2   1 <1>   0.1040 
  3 C       -2.0220    -0.3620    -0.8290 C.2   1 <1>  -0.1100 
  4 N        0.7380     2.3940    -0.7000 N.am  1 <1>  -0.4940 
  5 C       -1.3990     1.5790     0.3110 C.2   1 <1>   0.0190 
  6 C       -2.3360     0.5040     0.1490 C.2   1 <1>  -0.1500 
  7 C        1.8470     2.3470    -1.5030 C.2   1 <1>   0.5690 
  8 C       -1.5780     2.5900     1.3030 C.1   1 <1>   0.5380 
  9 O        2.0920     1.4580    -2.2770 O.2   1 <1>  -0.5700 
 10 C        2.8280     3.5000    -1.3970 C.3   1 <1>  -0.0990 
 11 N       -1.6800     3.4210     2.0780 N.1   1 <1>  -0.5570 
 12 C        3.6060     3.4870    -0.0710 C.3   1 <1>  -0.1600 
 13 C        4.5990     4.6530     0.0020 C.3   1 <1>  -0.1600 
 14 C        5.3710     4.6350     1.3250 C.3   1 <1>  -0.2400 
 15 H       -2.5040    -1.2520    -1.1950 H     1 <1>   0.1500 
 16 H        0.7270     3.2060    -0.0840 H     1 <1>   0.3700 
 17 H       -3.2080     0.4320     0.7790 H     1 <1>   0.1500 
 18 H        2.2910     4.4250    -1.5040 H     1 <1>   0.0800 
 19 H        3.5220     3.4290    -2.2170 H     1 <1>   0.0800 
 20 H        4.1410     2.5560     0.0120 H     1 <1>   0.0800 
 21 H        2.9210     3.5510     0.7570 H     1 <1>   0.0800 
 22 H        4.0730     5.5890    -0.0870 H     1 <1>   0.0800 
 23 H        5.2990     4.5850    -0.8140 H     1 <1>   0.0800 
 24 H        4.6960     4.7260     2.1570 H     1 <1>   0.0800 
 25 H        6.0650     5.4570     1.3570 H     1 <1>   0.0800 
 26 H        5.9240     3.7180     1.4250 H     1 <1>   0.0800 
@<TRIPOS>BOND
  1   1   2  1   
  2   1   3  1   
  3   2   4  1   
  4   2   5  2   
  5   3   6  2   
  6   3  15  1   
  7   4   7  am  
  8   4  16  1   
  9   5   6  1   
 10   5   8  1   
 11   6  17  1   
 12   7   9  2   
 13   7  10  1   
 14   8  11  3   
 15  10  12  1   
 16  10  18  1   
 17  10  19  1   
 18  12  13  1   
 19  12  20  1   
 20  12  21  1   
 21  13  14  1   
 22  13  22  1   
 23  13  23  1   
 24  14  24  1   
 25  14  25  1   
 26  14  26  1   
@<TRIPOS>SUBSTRUCTURE
  1 ****   4 GROUP 4 **** **** 0

# MOE 2024.06 (io_trps.svl 2023.06)
