@<TRIPOS>MOLECULE
NONAME
50 52 1 0 0 
SMALL
USER_CHARGES


@<TRIPOS>ATOM
  1 S       -0.1670    -0.1180     1.4970 S.3   1 <1>  -0.0800 
  2 C       -0.7540    -1.4870     0.5680 C.2   1 <1>   0.1040 
  3 C        1.5050    -0.5380     1.1730 C.2   1 <1>  -0.1400 
  4 N       -2.1210    -1.6760     0.3960 N.am  1 <1>  -0.4940 
  5 C        0.2920    -2.2090     0.0660 C.2   1 <1>  -0.0860 
  6 C        1.5790    -1.6490     0.4220 C.2   1 <1>  -0.1810 
  7 C        2.5700     0.3690     1.7550 C.3   1 <1>   0.0200 
  8 C       -3.2070    -1.1510     1.0500 C.2   1 <1>   0.5690 
  9 C        0.1070    -3.3980    -0.7170 C.2   1 <1>   0.7160 
 10 C        2.9110    -2.2610     0.0040 C.3   1 <1>   0.0210 
 11 C        3.5310     0.8740     0.6710 C.3   1 <1>  -0.1600 
 12 O       -3.1270    -0.5100     2.0670 O.2   1 <1>  -0.5700 
 13 C       -4.5840    -1.4380     0.4420 C.3   1 <1>  -0.0190 
 14 O        0.6140    -3.5680    -1.8060 O.2   1 <1>  -0.5700 
 15 N       -0.6790    -4.3970    -0.2620 N.am  1 <1>  -0.8000 
 16 C        3.7840    -1.2660    -0.7720 C.3   1 <1>  -0.1600 
 17 C        4.4710    -0.2040     0.1050 C.3   1 <1>  -0.1600 
 18 C       -4.8390    -0.5440    -0.7870 C.3   1 <1>  -0.1600 
 19 C       -5.7370    -1.2700     1.4540 C.3   1 <1>  -0.1600 
 20 C       -6.2120    -0.8120    -1.4100 C.3   1 <1>   0.1400 
 21 C       -7.1010    -1.5360     0.8120 C.3   1 <1>   0.1400 
 22 N       -7.2700    -0.6540    -0.3750 N.am  1 <1>  -0.6600 
 23 C       -8.2840     0.2570    -0.5420 C.2   1 <1>   0.5690 
 24 O       -8.3920     0.9250    -1.5420 O.2   1 <1>  -0.5700 
 25 C       -9.3220     0.4640     0.5360 C.3   1 <1>  -0.1790 
 26 H       -2.3590    -2.3060    -0.3680 H     1 <1>   0.3700 
 27 H        3.1120    -0.1580     2.5190 H     1 <1>   0.0800 
 28 H        2.0940     1.2160     2.2160 H     1 <1>   0.0800 
 29 H        2.7550    -3.1230    -0.6170 H     1 <1>   0.0800 
 30 H        3.4350    -2.5990     0.8800 H     1 <1>   0.0800 
 31 H        4.1360     1.6520     1.1010 H     1 <1>   0.0800 
 32 H        2.9620     1.3160    -0.1300 H     1 <1>   0.0800 
 33 H       -4.5860    -2.4630     0.1190 H     1 <1>   0.0800 
 34 H       -0.6690    -5.2760    -0.7800 H     1 <1>   0.3700 
 35 H       -0.9120    -4.4590     0.7290 H     1 <1>   0.3700 
 36 H        3.1930    -0.7900    -1.5360 H     1 <1>   0.0800 
 37 H        4.5550    -1.8280    -1.2710 H     1 <1>   0.0800 
 38 H        5.0030    -0.6830     0.9090 H     1 <1>   0.0800 
 39 H        5.2060     0.2940    -0.5040 H     1 <1>   0.0800 
 40 H       -4.0800    -0.7100    -1.5310 H     1 <1>   0.0800 
 41 H       -4.7880     0.4920    -0.4980 H     1 <1>   0.0800 
 42 H       -5.7330    -0.2690     1.8500 H     1 <1>   0.0800 
 43 H       -5.5940    -1.9450     2.2800 H     1 <1>   0.0800 
 44 H       -6.2540    -1.8130    -1.8040 H     1 <1>   0.0800 
 45 H       -6.3720    -0.1290    -2.2280 H     1 <1>   0.0800 
 46 H       -7.8750    -1.3700     1.5390 H     1 <1>   0.0800 
 47 H       -7.1620    -2.5630     0.4940 H     1 <1>   0.0800 
 48 H       -9.8710    -0.4450     0.6940 H     1 <1>   0.0800 
 49 H      -10.0100     1.2320     0.2330 H     1 <1>   0.0800 
 50 H       -8.8450     0.7700     1.4470 H     1 <1>   0.0800 
@<TRIPOS>BOND
  1   1   2  1   
  2   1   3  1   
  3   2   4  1   
  4   2   5  2   
  5   3   6  2   
  6   3   7  1   
  7   4   8  am  
  8   4  26  1   
  9   5   6  1   
 10   5   9  1   
 11   6  10  1   
 12   7  11  1   
 13   7  27  1   
 14   7  28  1   
 15   8  12  2   
 16   8  13  1   
 17   9  14  2   
 18   9  15  am  
 19  10  16  1   
 20  10  29  1   
 21  10  30  1   
 22  11  17  1   
 23  11  31  1   
 24  11  32  1   
 25  13  18  1   
 26  13  19  1   
 27  13  33  1   
 28  15  34  1   
 29  15  35  1   
 30  16  17  1   
 31  16  36  1   
 32  16  37  1   
 33  17  38  1   
 34  17  39  1   
 35  18  20  1   
 36  18  40  1   
 37  18  41  1   
 38  19  21  1   
 39  19  42  1   
 40  19  43  1   
 41  20  22  1   
 42  20  44  1   
 43  20  45  1   
 44  21  22  1   
 45  21  46  1   
 46  21  47  1   
 47  22  23  am  
 48  23  24  2   
 49  23  25  1   
 50  25  48  1   
 51  25  49  1   
 52  25  50  1   
@<TRIPOS>SUBSTRUCTURE
  1 ****   4 GROUP 4 **** **** 0

# MOE 2024.06 (io_trps.svl 2023.06)
