@<TRIPOS>MOLECULE
NONAME
45 46 1 0 0 
SMALL
USER_CHARGES


@<TRIPOS>ATOM
  1 O        0.4440    -0.7380    -0.5680 O.2   1 <1>  -0.5700 
  2 C        0.4480    -1.9430    -0.5590 C.2   1 <1>   0.5690 
  3 N        1.6150    -2.6520    -0.6860 N.am  1 <1>  -0.6600 
  4 C       -0.8770    -2.6470    -0.3840 C.3   1 <1>  -0.1790 
  5 C        2.8970    -1.9500    -1.0120 C.3   1 <1>   0.1400 
  6 C        1.7780    -4.1050    -0.3830 C.3   1 <1>   0.1400 
  7 C        3.9200    -2.1470     0.1180 C.3   1 <1>   0.3430 
  8 C        2.8250    -4.3090     0.7340 C.3   1 <1>   0.3430 
  9 N        4.1240    -3.6070     0.4410 N.4   1 <1>  -0.9590 
 10 C        5.1160    -3.7840     1.5360 C.3   1 <1>   0.4860 
 11 C        6.4570    -3.2800     1.0350 C.ar  1 <1>  -0.1440 
 12 C        7.2240    -3.9750     0.0980 C.ar  1 <1>  -0.1440 
 13 C        6.9050    -2.0670     1.5340 C.ar  1 <1>  -0.1500 
 14 C        8.4170    -3.4160    -0.3630 C.ar  1 <1>  -0.1440 
 15 C        6.7900    -5.3490    -0.4250 C.3   1 <1>  -0.0970 
 16 C        8.0960    -1.5270     1.0980 C.ar  1 <1>  -0.1500 
 17 C        8.8570    -2.1930     0.1470 C.ar  1 <1>   0.0820 
 18 C        9.2690    -4.1300    -1.4190 C.3   1 <1>  -0.0970 
 19 O       10.0390    -1.6930    -0.3040 O.3   1 <1>  -0.3620 
 20 C       10.6360    -0.5410     0.2510 C.3   1 <1>   0.0400 
 21 H       -0.9940    -3.4090    -1.1300 H     1 <1>   0.0800 
 22 H       -1.6770    -1.9370    -0.4960 H     1 <1>   0.0800 
 23 H       -0.9390    -3.0770     0.5970 H     1 <1>   0.0800 
 24 H        2.7310    -0.8950    -1.1550 H     1 <1>   0.0800 
 25 H        3.2910    -2.3380    -1.9350 H     1 <1>   0.0800 
 26 H        2.0920    -4.6190    -1.2750 H     1 <1>   0.0800 
 27 H        0.8460    -4.5390    -0.0690 H     1 <1>   0.0800 
 28 H        3.5650    -1.6240     0.9900 H     1 <1>   0.0800 
 29 H        4.8560    -1.7010    -0.1780 H     1 <1>   0.0800 
 30 H        3.0000    -5.3650     0.8630 H     1 <1>   0.0800 
 31 H        2.4120    -3.9280     1.6540 H     1 <1>   0.0800 
 32 H        4.5580    -4.0260    -0.3910 H     1 <1>   0.4500 
 33 H        5.2010    -4.8230     1.8080 H     1 <1>   0.0800 
 34 H        4.8130    -3.2280     2.4080 H     1 <1>   0.0800 
 35 H        6.3370    -1.5250     2.2710 H     1 <1>   0.1500 
 36 H        6.0410    -5.8160     0.1830 H     1 <1>   0.0800 
 37 H        7.6320    -6.0190    -0.4330 H     1 <1>   0.0800 
 38 H        6.4190    -5.2610    -1.4310 H     1 <1>   0.0800 
 39 H        8.4150    -0.5870     1.5080 H     1 <1>   0.1500 
 40 H        8.6590    -4.6210    -2.1530 H     1 <1>   0.0800 
 41 H        9.9000    -4.8580    -0.9420 H     1 <1>   0.0800 
 42 H        9.8980    -3.4430    -1.9550 H     1 <1>   0.0800 
 43 H       11.5820    -0.3890    -0.2370 H     1 <1>   0.0800 
 44 H       10.7910    -0.7000     1.3040 H     1 <1>   0.0800 
 45 H        9.9970     0.3050     0.0760 H     1 <1>   0.0800 
@<TRIPOS>BOND
  1   1   2  2   
  2   2   3  am  
  3   2   4  1   
  4   3   5  1   
  5   3   6  1   
  6   4  21  1   
  7   4  22  1   
  8   4  23  1   
  9   5   7  1   
 10   5  24  1   
 11   5  25  1   
 12   6   8  1   
 13   6  26  1   
 14   6  27  1   
 15   7   9  1   
 16   7  28  1   
 17   7  29  1   
 18   8   9  1   
 19   8  30  1   
 20   8  31  1   
 21   9  10  1   
 22   9  32  1   
 23  10  11  1   
 24  10  33  1   
 25  10  34  1   
 26  11  12  ar  
 27  11  13  ar  
 28  12  14  ar  
 29  12  15  1   
 30  13  16  ar  
 31  13  35  1   
 32  14  17  ar  
 33  14  18  1   
 34  15  36  1   
 35  15  37  1   
 36  15  38  1   
 37  16  17  ar  
 38  16  39  1   
 39  17  19  1   
 40  18  40  1   
 41  18  41  1   
 42  18  42  1   
 43  19  20  1   
 44  20  43  1   
 45  20  44  1   
 46  20  45  1   
@<TRIPOS>SUBSTRUCTURE
  1 ****   9 GROUP 4 **** **** 0

# MOE 2024.06 (io_trps.svl 2023.06)
