@<TRIPOS>MOLECULE
NONAME
41 43 1 0 0 
SMALL
USER_CHARGES


@<TRIPOS>ATOM
  1 O       -0.7090    -0.3390    -1.4040 O.2   1 <1>  -0.5700 
  2 C       -1.7440    -0.8440    -1.0360 C.2   1 <1>   0.6900 
  3 N       -2.9740    -0.2350    -1.2310 N.am  1 <1>  -0.4360 
  4 N       -1.6890    -2.0530    -0.4050 N.am  1 <1>  -0.4900 
  5 C       -4.1000    -0.8910    -0.7530 C.2   1 <1>   0.4260 
  6 C       -3.0860     1.0800    -1.9270 C.3   1 <1>   0.0600 
  7 C       -2.7850    -2.7160     0.0680 C.2   1 <1>   0.7030 
  8 N       -5.3900    -0.4850    -0.8120 N.pl3 1 <1>  -0.7000 
  9 C       -4.0660    -2.0920    -0.1200 C.2   1 <1>   0.2770 
 10 O       -2.6300    -3.7840     0.6230 O.2   1 <1>  -0.5700 
 11 C       -6.1470    -1.4100    -0.2320 C.cat 1 <1>   0.6560 
 12 N       -5.3890    -2.4120     0.2060 N.pl3 1 <1>  -0.7640 
 13 C       -7.6750    -1.2580    -0.1300 C.3   1 <1>   0.2540 
 14 C       -5.7820    -3.6630     0.9040 C.3   1 <1>   0.3540 
 15 N       -8.1030     0.1610    -0.2530 N.3   1 <1>  -0.8100 
 16 C       -5.9220    -4.7780    -0.1250 C.3   1 <1>  -0.2400 
 17 C       -9.5330     0.2560    -0.6300 C.3   1 <1>   0.1100 
 18 C       -7.8870     0.9110     1.0110 C.3   1 <1>   0.1100 
 19 C      -10.0030     1.7210    -0.6870 C.3   1 <1>   0.1200 
 20 C       -8.4000     2.3570     0.8950 C.3   1 <1>   0.1200 
 21 O       -9.7470     2.3570     0.5300 O.3   1 <1>  -0.5600 
 22 H       -0.7720    -2.4740    -0.2800 H     1 <1>   0.3700 
 23 H       -2.1390     1.3760    -2.3440 H     1 <1>   0.0800 
 24 H       -3.4020     1.8360    -1.2290 H     1 <1>   0.0800 
 25 H       -3.8010     1.0120    -2.7280 H     1 <1>   0.0800 
 26 H       -5.7910     0.3730    -1.2020 H     1 <1>   0.4500 
 27 H       -8.0270    -1.6690     0.7990 H     1 <1>   0.0800 
 28 H       -8.1070    -1.8290    -0.9340 H     1 <1>   0.0800 
 29 H       -6.7170    -3.5240     1.4210 H     1 <1>   0.0800 
 30 H       -5.0350    -3.9280     1.6350 H     1 <1>   0.0800 
 31 H       -6.6670    -4.5320    -0.8600 H     1 <1>   0.0800 
 32 H       -6.2210    -5.6860     0.3680 H     1 <1>   0.0800 
 33 H       -4.9820    -4.9610    -0.6130 H     1 <1>   0.0800 
 34 H      -10.1430    -0.2710     0.0850 H     1 <1>   0.0800 
 35 H       -9.6840    -0.1930    -1.5970 H     1 <1>   0.0800 
 36 H       -6.8400     0.9340     1.2540 H     1 <1>   0.0800 
 37 H       -8.4100     0.4320     1.8220 H     1 <1>   0.0800 
 38 H      -11.0620     1.7670    -0.8650 H     1 <1>   0.0800 
 39 H       -9.4960     2.2570    -1.4710 H     1 <1>   0.0800 
 40 H       -7.8420     2.9080     0.1580 H     1 <1>   0.0800 
 41 H       -8.3180     2.8610     1.8420 H     1 <1>   0.0800 
@<TRIPOS>BOND
  1   1   2  2   
  2   2   3  am  
  3   2   4  am  
  4   3   5  1   
  5   3   6  1   
  6   4   7  am  
  7   4  22  1   
  8   5   8  1   
  9   5   9  2   
 10   6  23  1   
 11   6  24  1   
 12   6  25  1   
 13   7   9  1   
 14   7  10  2   
 15   8  11  ar  
 16   8  26  1   
 17   9  12  1   
 18  11  12  ar  
 19  11  13  1   
 20  12  14  1   
 21  13  15  1   
 22  13  27  1   
 23  13  28  1   
 24  14  16  1   
 25  14  29  1   
 26  14  30  1   
 27  15  17  1   
 28  15  18  1   
 29  16  31  1   
 30  16  32  1   
 31  16  33  1   
 32  17  19  1   
 33  17  34  1   
 34  17  35  1   
 35  18  20  1   
 36  18  36  1   
 37  18  37  1   
 38  19  21  1   
 39  19  38  1   
 40  19  39  1   
 41  20  21  1   
 42  20  40  1   
 43  20  41  1   
@<TRIPOS>SUBSTRUCTURE
  1 ****   8 GROUP 4 **** **** 0

# MOE 2024.06 (io_trps.svl 2023.06)
