@<TRIPOS>MOLECULE
NONAME
51 53 1 0 0 
SMALL
USER_CHARGES


@<TRIPOS>ATOM
  1 S        0.7100     2.3230     2.7910 S.o2  1 <1>   1.4470 
  2 O        1.9830     2.9770     3.0020 O.2   1 <1>  -0.6500 
  3 O        0.0180     1.6950     3.8930 O.2   1 <1>  -0.6500 
  4 N       -0.3520     3.5310     2.1290 N.am  1 <1>  -0.6930 
  5 C        0.8450     1.1690     1.3990 C.ar  1 <1>  -0.0090 
  6 C       -1.6760     3.2440     1.8330 C.ar  1 <1>   0.1990 
  7 C        0.2750     4.7630     1.5910 C.3   1 <1>   0.1160 
  8 C       -0.1810     0.2750     1.1140 C.ar  1 <1>  -0.1500 
  9 C        1.9570     1.1670     0.5620 C.ar  1 <1>  -0.1500 
 10 C       -2.5850     2.9330     2.8360 C.ar  1 <1>  -0.1500 
 11 C       -2.1360     3.2510     0.5190 C.ar  1 <1>  -0.1500 
 12 C       -0.1030    -0.5870     0.0340 C.ar  1 <1>  -0.1500 
 13 C        2.0450     0.3080    -0.5200 C.ar  1 <1>  -0.1500 
 14 C       -3.9000     2.6360     2.5380 C.ar  1 <1>  -0.1500 
 15 C       -3.4530     2.9550     0.2230 C.ar  1 <1>  -0.1500 
 16 C        1.0070    -0.5770    -0.7910 C.ar  1 <1>   0.0830 
 17 C       -4.3740     2.6330     1.2240 C.ar  1 <1>   0.0860 
 18 O        1.0080    -1.4490    -1.8280 O.3   1 <1>  -0.3630 
 19 C       -5.7600     2.3130     0.9320 C.2   1 <1>   0.5440 
 20 C        2.1230    -1.5770    -2.6820 C.3   1 <1>   0.0400 
 21 O       -6.6200     2.4500     1.7810 O.2   1 <1>  -0.5700 
 22 N       -6.1280     1.8390    -0.2960 N.am  1 <1>  -0.7300 
 23 C       -7.5000     1.4940    -0.7100 C.3   1 <1>   0.2200 
 24 C       -7.5460     0.0180    -1.0800 C.3   1 <1>  -0.1600 
 25 C       -7.8050     2.1960    -2.0270 C.3   1 <1>  -0.1600 
 26 C       -7.0060    -0.0720    -2.5120 C.3   1 <1>  -0.1600 
 27 C       -7.1750     1.3260    -3.1210 C.3   1 <1>  -0.1600 
 28 H        0.9430     4.5130     0.7850 H     1 <1>   0.0800 
 29 H        0.8350     5.2510     2.3710 H     1 <1>   0.0800 
 30 H       -0.4790     5.4420     1.2330 H     1 <1>   0.0800 
 31 H       -1.0530     0.2530     1.7470 H     1 <1>   0.1500 
 32 H        2.7680     1.8480     0.7610 H     1 <1>   0.1500 
 33 H       -2.2520     2.9280     3.8600 H     1 <1>   0.1500 
 34 H       -1.4500     3.4860    -0.2740 H     1 <1>   0.1500 
 35 H       -0.9040    -1.2750    -0.1740 H     1 <1>   0.1500 
 36 H        2.9240     0.3420    -1.1370 H     1 <1>   0.1500 
 37 H       -4.5840     2.4000     3.3370 H     1 <1>   0.1500 
 38 H       -3.7740     2.9820    -0.8020 H     1 <1>   0.1500 
 39 H        1.9050    -2.3440    -3.4030 H     1 <1>   0.0800 
 40 H        2.9800    -1.8580    -2.0970 H     1 <1>   0.0800 
 41 H        2.2880    -0.6400    -3.1840 H     1 <1>   0.0800 
 42 H       -5.4180     1.6000    -0.9850 H     1 <1>   0.3700 
 43 H       -8.2110     1.7460     0.0610 H     1 <1>   0.0800 
 44 H       -8.5740    -0.3010    -1.0740 H     1 <1>   0.0800 
 45 H       -6.9950    -0.5920    -0.3850 H     1 <1>   0.0800 
 46 H       -7.4460     3.2100    -2.0400 H     1 <1>   0.0800 
 47 H       -8.8720     2.2090    -2.1640 H     1 <1>   0.0800 
 48 H       -7.5420    -0.8150    -3.0780 H     1 <1>   0.0800 
 49 H       -5.9620    -0.3370    -2.4940 H     1 <1>   0.0800 
 50 H       -6.2120     1.7220    -3.3950 H     1 <1>   0.0800 
 51 H       -7.8010     1.3000    -3.9970 H     1 <1>   0.0800 
@<TRIPOS>BOND
  1   1   2  2   
  2   1   3  2   
  3   1   4  am  
  4   1   5  1   
  5   4   6  1   
  6   4   7  1   
  7   5   8  ar  
  8   5   9  ar  
  9   6  10  ar  
 10   6  11  ar  
 11   7  28  1   
 12   7  29  1   
 13   7  30  1   
 14   8  12  ar  
 15   8  31  1   
 16   9  13  ar  
 17   9  32  1   
 18  10  14  ar  
 19  10  33  1   
 20  11  15  ar  
 21  11  34  1   
 22  12  16  ar  
 23  12  35  1   
 24  13  16  ar  
 25  13  36  1   
 26  14  17  ar  
 27  14  37  1   
 28  15  17  ar  
 29  15  38  1   
 30  16  18  1   
 31  17  19  1   
 32  18  20  1   
 33  19  21  2   
 34  19  22  am  
 35  20  39  1   
 36  20  40  1   
 37  20  41  1   
 38  22  23  1   
 39  22  42  1   
 40  23  24  1   
 41  23  25  1   
 42  23  43  1   
 43  24  26  1   
 44  24  44  1   
 45  24  45  1   
 46  25  27  1   
 47  25  46  1   
 48  25  47  1   
 49  26  27  1   
 50  26  48  1   
 51  26  49  1   
 52  27  50  1   
 53  27  51  1   
@<TRIPOS>SUBSTRUCTURE
  1 ****  11 GROUP 4 **** **** 0

# MOE 2024.06 (io_trps.svl 2023.06)
