@<TRIPOS>MOLECULE
NONAME
40 41 1 0 0 
SMALL
USER_CHARGES


@<TRIPOS>ATOM
  1 O        2.3890    -1.3520    -1.9100 O.2   1 <1>  -0.5700 
  2 C        2.2340    -0.8140    -0.8310 C.2   1 <1>   0.5440 
  3 N        1.4080    -1.3910     0.1020 N.am  1 <1>  -0.5390 
  4 C        2.8830     0.4490    -0.5310 C.ar  1 <1>   0.0860 
  5 C        0.7240    -2.6320     0.0700 C.2   1 <1>   0.1230 
  6 C        3.2900     0.7800     0.7640 C.ar  1 <1>  -0.1500 
  7 C        3.1210     1.3870    -1.5370 C.ar  1 <1>  -0.1500 
  8 C       -0.6310    -2.6280     0.1670 C.2   1 <1>  -0.2760 
  9 C        1.5400    -3.8490    -0.0220 C.2   1 <1>   0.6160 
 10 C        3.8900     1.9950     1.0420 C.ar  1 <1>  -0.1500 
 11 C        3.7210     2.6020    -1.2650 C.ar  1 <1>  -0.1500 
 12 C       -1.4600    -3.9190     0.1250 C.3   1 <1>  -0.0220 
 13 C       -1.4810    -1.3560     0.3060 C.3   1 <1>  -0.0220 
 14 O        1.3920    -4.7620     0.7700 O.2   1 <1>  -0.5700 
 15 N        2.4910    -3.9770    -0.9930 N.am  1 <1>  -0.7300 
 16 C        4.1050     2.9100     0.0280 C.ar  1 <1>  -0.1500 
 17 C       -2.8600    -3.6780    -0.4510 C.3   1 <1>  -0.1600 
 18 C       -2.7690    -1.6280     1.0930 C.3   1 <1>  -0.1600 
 19 C        3.3950    -5.1300    -1.2150 C.3   1 <1>   0.0600 
 20 C       -3.6600    -2.6690     0.3920 C.3   1 <1>  -0.1600 
 21 H        1.1170    -0.7770     0.8590 H     1 <1>   0.3700 
 22 H        3.1480     0.0760     1.5650 H     1 <1>   0.1500 
 23 H        2.8280     1.1530    -2.5470 H     1 <1>   0.1500 
 24 H        4.1960     2.2300     2.0480 H     1 <1>   0.1500 
 25 H        3.8910     3.3090    -2.0590 H     1 <1>   0.1500 
 26 H       -0.9650    -4.6670    -0.4700 H     1 <1>   0.0800 
 27 H       -1.5510    -4.3090     1.1240 H     1 <1>   0.0800 
 28 H       -0.9360    -0.5740     0.8010 H     1 <1>   0.0800 
 29 H       -1.7410    -1.0020    -0.6770 H     1 <1>   0.0800 
 30 H        2.6020    -3.1650    -1.6220 H     1 <1>   0.3700 
 31 H        4.5720     3.8560     0.2410 H     1 <1>   0.1500 
 32 H       -2.7520    -3.2980    -1.4530 H     1 <1>   0.0800 
 33 H       -3.3980    -4.6080    -0.5110 H     1 <1>   0.0800 
 34 H       -2.4970    -1.9950     2.0680 H     1 <1>   0.0800 
 35 H       -3.3190    -0.7140     1.2290 H     1 <1>   0.0800 
 36 H        3.2480    -5.5180    -2.2070 H     1 <1>   0.0800 
 37 H        3.1910    -5.9100    -0.5010 H     1 <1>   0.0800 
 38 H        4.4170    -4.8130    -1.1040 H     1 <1>   0.0800 
 39 H       -4.2260    -3.1950     1.1410 H     1 <1>   0.0800 
 40 H       -4.3630    -2.1680    -0.2510 H     1 <1>   0.0800 
@<TRIPOS>BOND
  1   1   2  2   
  2   2   3  am  
  3   2   4  1   
  4   3   5  1   
  5   3  21  1   
  6   4   6  ar  
  7   4   7  ar  
  8   5   8  2   
  9   5   9  1   
 10   6  10  ar  
 11   6  22  1   
 12   7  11  ar  
 13   7  23  1   
 14   8  12  1   
 15   8  13  1   
 16   9  14  2   
 17   9  15  am  
 18  10  16  ar  
 19  10  24  1   
 20  11  16  ar  
 21  11  25  1   
 22  12  17  1   
 23  12  26  1   
 24  12  27  1   
 25  13  18  1   
 26  13  28  1   
 27  13  29  1   
 28  15  19  1   
 29  15  30  1   
 30  16  31  1   
 31  17  20  1   
 32  17  32  1   
 33  17  33  1   
 34  18  20  1   
 35  18  34  1   
 36  18  35  1   
 37  19  36  1   
 38  19  37  1   
 39  19  38  1   
 40  20  39  1   
 41  20  40  1   
@<TRIPOS>SUBSTRUCTURE
  1 ****   3 GROUP 4 **** **** 0

# MOE 2024.06 (io_trps.svl 2023.06)
