@<TRIPOS>MOLECULE
NONAME
40 41 1 0 0 
SMALL
USER_CHARGES


@<TRIPOS>ATOM
  1 O        0.9780     1.3420    -0.9450 O.2   1 <1>  -0.5700 
  2 C        0.5290     1.6740     0.1360 C.2   1 <1>   0.6900 
  3 N       -0.7790     2.0470     0.2720 N.am  1 <1>  -0.6600 
  4 N        1.3290     1.6640     1.2300 N.am  1 <1>  -0.7300 
  5 C       -1.7680     1.8170    -0.8230 C.3   1 <1>   0.1400 
  6 C       -1.2760     2.9830     1.3230 C.3   1 <1>   0.1400 
  7 C        2.7230     1.1500     1.2440 C.3   1 <1>   0.1400 
  8 C       -2.3210     3.1540    -1.3410 C.3   1 <1>   0.1200 
  9 C       -1.8650     4.2520     0.6810 C.3   1 <1>   0.1200 
 10 C        3.6600     2.0960     0.4920 C.3   1 <1>   0.1200 
 11 O       -2.8240     3.9220    -0.2830 O.3   1 <1>  -0.5600 
 12 O        4.9920     1.6960     0.7400 O.3   1 <1>  -0.3630 
 13 C        6.0360     2.3790     0.2020 C.ar  1 <1>   0.0820 
 14 C        5.8940     3.4460    -0.6800 C.ar  1 <1>  -0.1500 
 15 C        7.3070     1.9660     0.5730 C.ar  1 <1>  -0.1500 
 16 C        7.0170     4.0860    -1.1750 C.ar  1 <1>  -0.1500 
 17 C        8.4300     2.6060     0.0770 C.ar  1 <1>  -0.1500 
 18 C        8.2880     3.6750    -0.8030 C.ar  1 <1>   0.0820 
 19 O        9.3330     4.3610    -1.3370 O.3   1 <1>  -0.3620 
 20 C       10.6640     4.0190    -1.0210 C.3   1 <1>   0.0400 
 21 H        0.8480     1.6610     2.1260 H     1 <1>   0.3700 
 22 H       -2.5810     1.2220    -0.4450 H     1 <1>   0.0800 
 23 H       -1.3190     1.2770    -1.6380 H     1 <1>   0.0800 
 24 H       -0.4810     3.2700     1.9880 H     1 <1>   0.0800 
 25 H       -2.0390     2.4930     1.9010 H     1 <1>   0.0800 
 26 H        2.7490     0.1790     0.7800 H     1 <1>   0.0800 
 27 H        3.0520     1.0610     2.2650 H     1 <1>   0.0800 
 28 H       -3.1250     2.9800    -2.0330 H     1 <1>   0.0800 
 29 H       -1.5480     3.7130    -1.8400 H     1 <1>   0.0800 
 30 H       -1.0890     4.8310     0.2100 H     1 <1>   0.0800 
 31 H       -2.3450     4.8580     1.4280 H     1 <1>   0.0800 
 32 H        3.5410     3.1040     0.8470 H     1 <1>   0.0800 
 33 H        3.4760     2.0390    -0.5670 H     1 <1>   0.0800 
 34 H        4.9270     3.7900    -0.9940 H     1 <1>   0.1500 
 35 H        7.4070     1.1400     1.2520 H     1 <1>   0.1500 
 36 H        6.9160     4.9100    -1.8570 H     1 <1>   0.1500 
 37 H        9.3970     2.2600     0.3860 H     1 <1>   0.1500 
 38 H       11.3150     4.6890    -1.5530 H     1 <1>   0.0800 
 39 H       10.8480     3.0060    -1.3330 H     1 <1>   0.0800 
 40 H       10.8110     4.1300     0.0380 H     1 <1>   0.0800 
@<TRIPOS>BOND
  1   1   2  2   
  2   2   3  am  
  3   2   4  am  
  4   3   5  1   
  5   3   6  1   
  6   4   7  1   
  7   4  21  1   
  8   5   8  1   
  9   5  22  1   
 10   5  23  1   
 11   6   9  1   
 12   6  24  1   
 13   6  25  1   
 14   7  10  1   
 15   7  26  1   
 16   7  27  1   
 17   8  11  1   
 18   8  28  1   
 19   8  29  1   
 20   9  11  1   
 21   9  30  1   
 22   9  31  1   
 23  10  12  1   
 24  10  32  1   
 25  10  33  1   
 26  12  13  1   
 27  13  14  ar  
 28  13  15  ar  
 29  14  16  ar  
 30  14  34  1   
 31  15  17  ar  
 32  15  35  1   
 33  16  18  ar  
 34  16  36  1   
 35  17  18  ar  
 36  17  37  1   
 37  18  19  1   
 38  19  20  1   
 39  20  38  1   
 40  20  39  1   
 41  20  40  1   
@<TRIPOS>SUBSTRUCTURE
  1 ****  10 GROUP 4 **** **** 0

# MOE 2024.06 (io_trps.svl 2023.06)
