@<TRIPOS>MOLECULE
NONAME
46 47 1 0 0 
SMALL
USER_CHARGES


@<TRIPOS>ATOM
  1 S        0.2730    -0.0970    -0.4150 S.o2  1 <1>   1.3330 
  2 O        1.5790     0.4810    -0.2080 O.2   1 <1>  -0.6500 
  3 O       -0.8960     0.6950    -0.1270 O.2   1 <1>  -0.6500 
  4 N        0.2380    -1.5770     0.4950 N.am  1 <1>  -0.6930 
  5 C        0.1990    -0.6500    -2.1070 C.3   1 <1>  -0.1350 
  6 C        1.3390    -2.4230     0.4610 C.ar  1 <1>   0.1990 
  7 C       -1.0400    -2.1550     1.0200 C.3   1 <1>   0.3370 
  8 C        1.3460    -3.5520    -0.3490 C.ar  1 <1>  -0.1500 
  9 C        2.4510    -2.1640     1.2470 C.ar  1 <1>  -0.1500 
 10 C       -1.9720    -2.7360    -0.0730 C.2   1 <1>   0.5690 
 11 C       -1.7540    -1.2100     1.9960 C.3   1 <1>  -0.2400 
 12 C        2.4230    -4.4230    -0.3640 C.ar  1 <1>  -0.1440 
 13 C        3.5330    -3.0220     1.2370 C.ar  1 <1>  -0.1500 
 14 O       -2.4790    -1.9840    -0.8750 O.2   1 <1>  -0.5700 
 15 N       -2.2080    -4.0880    -0.1540 N.am  1 <1>  -0.6600 
 16 C        3.5280    -4.1560     0.4380 C.ar  1 <1>  -0.1430 
 17 C        2.3710    -5.6490    -1.2650 C.3   1 <1>  -0.0970 
 18 C       -3.0380    -4.6740    -1.2300 C.3   1 <1>   0.1400 
 19 C       -1.6970    -5.1470     0.7510 C.3   1 <1>   0.1400 
 20 C        4.7400    -5.0770     0.4570 C.3   1 <1>  -0.0970 
 21 C       -2.7480    -6.1680    -1.1720 C.3   1 <1>  -0.1600 
 22 C       -2.3800    -6.4290     0.2850 C.3   1 <1>  -0.1600 
 23 H        0.2820     0.1920    -2.7650 H     1 <1>   0.0800 
 24 H       -0.7280    -1.1440    -2.3100 H     1 <1>   0.0800 
 25 H        1.0070    -1.3240    -2.3120 H     1 <1>   0.0800 
 26 H       -0.7390    -2.9820     1.6330 H     1 <1>   0.0800 
 27 H        0.4960    -3.7440    -0.9760 H     1 <1>   0.1500 
 28 H        2.4600    -1.2810     1.8610 H     1 <1>   0.1500 
 29 H       -2.3190    -0.4640     1.4700 H     1 <1>   0.0800 
 30 H       -1.0420    -0.7350     2.6470 H     1 <1>   0.0800 
 31 H       -2.4470    -1.7720     2.5930 H     1 <1>   0.0800 
 32 H        4.3840    -2.7960     1.8570 H     1 <1>   0.1500 
 33 H        1.4380    -5.7000    -1.7960 H     1 <1>   0.0800 
 34 H        2.4750    -6.5430    -0.6780 H     1 <1>   0.0800 
 35 H        3.1680    -5.6080    -1.9860 H     1 <1>   0.0800 
 36 H       -2.7830    -4.2530    -2.1890 H     1 <1>   0.0800 
 37 H       -4.0750    -4.4790    -1.0170 H     1 <1>   0.0800 
 38 H       -1.9420    -4.9320     1.7770 H     1 <1>   0.0800 
 39 H       -0.6300    -5.2340     0.6380 H     1 <1>   0.0800 
 40 H        5.1680    -5.1430    -0.5270 H     1 <1>   0.0800 
 41 H        4.4520    -6.0600     0.7820 H     1 <1>   0.0800 
 42 H        5.4950    -4.7080     1.1280 H     1 <1>   0.0800 
 43 H       -1.9090    -6.3860    -1.8090 H     1 <1>   0.0800 
 44 H       -3.5930    -6.7510    -1.4940 H     1 <1>   0.0800 
 45 H       -3.2740    -6.5790     0.8650 H     1 <1>   0.0800 
 46 H       -1.7420    -7.2870     0.4000 H     1 <1>   0.0800 
@<TRIPOS>BOND
  1   1   2  2   
  2   1   3  2   
  3   1   4  am  
  4   1   5  1   
  5   4   6  1   
  6   4   7  1   
  7   5  23  1   
  8   5  24  1   
  9   5  25  1   
 10   6   8  ar  
 11   6   9  ar  
 12   7  10  1   
 13   7  11  1   
 14   7  26  1   
 15   8  12  ar  
 16   8  27  1   
 17   9  13  ar  
 18   9  28  1   
 19  10  14  2   
 20  10  15  am  
 21  11  29  1   
 22  11  30  1   
 23  11  31  1   
 24  12  16  ar  
 25  12  17  1   
 26  13  16  ar  
 27  13  32  1   
 28  15  18  1   
 29  15  19  1   
 30  16  20  1   
 31  17  33  1   
 32  17  34  1   
 33  17  35  1   
 34  18  21  1   
 35  18  36  1   
 36  18  37  1   
 37  19  22  1   
 38  19  38  1   
 39  19  39  1   
 40  20  40  1   
 41  20  41  1   
 42  20  42  1   
 43  21  22  1   
 44  21  43  1   
 45  21  44  1   
 46  22  45  1   
 47  22  46  1   
@<TRIPOS>SUBSTRUCTURE
  1 ****   8 GROUP 4 **** **** 0

# MOE 2024.06 (io_trps.svl 2023.06)
