@<TRIPOS>MOLECULE
NONAME
44 45 1 0 0 
SMALL
USER_CHARGES


@<TRIPOS>ATOM
  1 O       -0.9100    -1.6890     2.2160 O.2   1 <1>  -0.5700 
  2 C       -0.6280    -1.6510     1.0370 C.2   1 <1>   0.5690 
  3 N       -1.5980    -1.6590     0.0640 N.am  1 <1>  -0.6600 
  4 C        0.8550    -1.5880     0.6350 C.3   1 <1>   0.1250 
  5 C       -2.8630    -2.4440     0.1710 C.3   1 <1>   0.2200 
  6 C       -1.7040    -0.5420    -0.9110 C.3   1 <1>   0.1400 
  7 C        1.4610    -2.9940     0.5710 C.ar  1 <1>  -0.1440 
  8 C        1.6740    -0.6600     1.5600 C.3   1 <1>  -0.1600 
  9 C       -3.9700    -1.5170     0.6950 C.3   1 <1>  -0.1600 
 10 C       -2.6980    -3.7390     0.9900 C.3   1 <1>  -0.1600 
 11 C       -2.8030     0.4220    -0.4450 C.3   1 <1>  -0.1600 
 12 C        2.0740    -3.4410    -0.5920 C.ar  1 <1>  -0.1500 
 13 C        1.4050    -3.8410     1.6690 C.ar  1 <1>  -0.1500 
 14 C        3.1240    -0.4660     1.0920 C.3   1 <1>  -0.2400 
 15 C       -4.1440    -0.2940    -0.2210 C.3   1 <1>  -0.1600 
 16 C       -3.8430    -4.7390     0.7720 C.3   1 <1>  -0.2400 
 17 C        2.6210    -4.7110    -0.6560 C.ar  1 <1>  -0.1500 
 18 C        1.9510    -5.1110     1.6070 C.ar  1 <1>  -0.1500 
 19 C        2.5600    -5.5480     0.4440 C.ar  1 <1>  -0.1500 
 20 H        0.9080    -1.1710    -0.3500 H     1 <1>   0.0800 
 21 H       -3.1290    -2.7450    -0.8290 H     1 <1>   0.0800 
 22 H       -1.9450    -0.9400    -1.8820 H     1 <1>   0.0800 
 23 H       -0.7760    -0.0050    -0.9850 H     1 <1>   0.0800 
 24 H        1.6760    -1.0650     2.5580 H     1 <1>   0.0800 
 25 H        1.1890     0.3000     1.6050 H     1 <1>   0.0800 
 26 H       -3.7140    -1.1980     1.6910 H     1 <1>   0.0800 
 27 H       -4.9020    -2.0480     0.7490 H     1 <1>   0.0800 
 28 H       -2.6410    -3.5050     2.0390 H     1 <1>   0.0800 
 29 H       -1.7770    -4.2160     0.7020 H     1 <1>   0.0800 
 30 H       -2.9280     1.2020    -1.1750 H     1 <1>   0.0800 
 31 H       -2.4880     0.8820     0.4760 H     1 <1>   0.0800 
 32 H        2.1310    -2.8040    -1.4560 H     1 <1>   0.1500 
 33 H        0.9320    -3.5150     2.5800 H     1 <1>   0.1500 
 34 H        3.6520    -1.4040     1.1000 H     1 <1>   0.0800 
 35 H        3.6340     0.2120     1.7530 H     1 <1>   0.0800 
 36 H        3.1510    -0.0610     0.0970 H     1 <1>   0.0800 
 37 H       -4.8530     0.3880     0.2160 H     1 <1>   0.0800 
 38 H       -4.5360    -0.6170    -1.1700 H     1 <1>   0.0800 
 39 H       -4.7770    -4.3370     1.1180 H     1 <1>   0.0800 
 40 H       -3.6420    -5.6430     1.3200 H     1 <1>   0.0800 
 41 H       -3.9330    -4.9870    -0.2710 H     1 <1>   0.0800 
 42 H        3.0940    -5.0480    -1.5610 H     1 <1>   0.1500 
 43 H        1.8990    -5.7580     2.4650 H     1 <1>   0.1500 
 44 H        2.9840    -6.5350     0.3960 H     1 <1>   0.1500 
@<TRIPOS>BOND
  1   1   2  2   
  2   2   3  am  
  3   2   4  1   
  4   3   5  1   
  5   3   6  1   
  6   4   7  1   
  7   4   8  1   
  8   4  20  1   
  9   5   9  1   
 10   5  10  1   
 11   5  21  1   
 12   6  11  1   
 13   6  22  1   
 14   6  23  1   
 15   7  12  ar  
 16   7  13  ar  
 17   8  14  1   
 18   8  24  1   
 19   8  25  1   
 20   9  15  1   
 21   9  26  1   
 22   9  27  1   
 23  10  16  1   
 24  10  28  1   
 25  10  29  1   
 26  11  15  1   
 27  11  30  1   
 28  11  31  1   
 29  12  17  ar  
 30  12  32  1   
 31  13  18  ar  
 32  13  33  1   
 33  14  34  1   
 34  14  35  1   
 35  14  36  1   
 36  15  37  1   
 37  15  38  1   
 38  16  39  1   
 39  16  40  1   
 40  16  41  1   
 41  17  19  ar  
 42  17  42  1   
 43  18  19  ar  
 44  18  43  1   
 45  19  44  1   
@<TRIPOS>SUBSTRUCTURE
  1 ****   2 GROUP 4 **** **** 0

# MOE 2024.06 (io_trps.svl 2023.06)
