@<TRIPOS>MOLECULE
NONAME
43 43 1 0 0 
SMALL
USER_CHARGES


@<TRIPOS>ATOM
  1 CL       0.3870     0.3480     1.1450 Cl    1 <1>  -0.1770 
  2 C        0.2750     1.9890     0.5440 C.ar  1 <1>   0.1770 
  3 C        1.4260     2.6850     0.2020 C.ar  1 <1>   0.0820 
  4 C       -0.9770     2.5590     0.4230 C.ar  1 <1>  -0.1500 
  5 O        2.6260     2.0610     0.3460 O.3   1 <1>  -0.3630 
  6 C        1.2870     3.9850    -0.2700 C.ar  1 <1>  -0.1500 
  7 C       -1.1310     3.8610    -0.0480 C.ar  1 <1>  -0.1430 
  8 C        3.8380     2.6900     0.0230 C.3   1 <1>   0.1200 
  9 C        0.0300     4.5550    -0.3910 C.ar  1 <1>  -0.1500 
 10 C       -2.5560     4.4630    -0.1690 C.3   1 <1>   0.1440 
 11 C        4.9470     1.6790     0.3160 C.3   1 <1>  -0.1600 
 12 C       -2.5300     5.9200    -0.7110 C.3   1 <1>  -0.1600 
 13 C       -3.2120     4.4520     1.2240 C.3   1 <1>  -0.2400 
 14 C       -3.3820     3.5810    -1.1220 C.3   1 <1>  -0.2400 
 15 C        6.3210     2.2570    -0.0010 C.3   1 <1>   0.3430 
 16 C       -3.8810     6.6410    -0.8810 C.3   1 <1>  -0.2400 
 17 N        7.3500     1.2330     0.3040 N.4   1 <1>  -0.9060 
 18 C        8.7380     1.7070     0.0240 C.3   1 <1>   0.2630 
 19 H       -1.8250     1.9650     0.7060 H     1 <1>   0.1500 
 20 H        2.1390     4.5730    -0.5510 H     1 <1>   0.1500 
 21 H        3.9340     3.5700     0.6360 H     1 <1>   0.0800 
 22 H        3.8110     2.9550    -1.0210 H     1 <1>   0.0800 
 23 H       -0.0100     5.5620    -0.7610 H     1 <1>   0.1500 
 24 H        4.7730     0.8040    -0.2850 H     1 <1>   0.0800 
 25 H        4.8950     1.4140     1.3580 H     1 <1>   0.0800 
 26 H       -2.0480     5.9170    -1.6740 H     1 <1>   0.0800 
 27 H       -1.9300     6.5200    -0.0490 H     1 <1>   0.0800 
 28 H       -2.6580     5.0830     1.8970 H     1 <1>   0.0800 
 29 H       -3.2350     3.4620     1.6380 H     1 <1>   0.0800 
 30 H       -4.2260     4.8020     1.1800 H     1 <1>   0.0800 
 31 H       -2.9490     3.5970    -2.1060 H     1 <1>   0.0800 
 32 H       -4.3980     3.9230    -1.1870 H     1 <1>   0.0800 
 33 H       -3.4110     2.5620    -0.7860 H     1 <1>   0.0800 
 34 H        6.4910     3.1400     0.5960 H     1 <1>   0.0800 
 35 H        6.3690     2.5320    -1.0430 H     1 <1>   0.0800 
 36 H       -4.5140     6.1280    -1.5810 H     1 <1>   0.0800 
 37 H       -3.7090     7.6330    -1.2620 H     1 <1>   0.0800 
 38 H       -4.3960     6.7370     0.0570 H     1 <1>   0.0800 
 39 H        7.1530     0.3850    -0.2470 H     1 <1>   0.4500 
 40 H        7.2670     0.9560     1.2920 H     1 <1>   0.4500 
 41 H        8.8450     1.9670    -1.0170 H     1 <1>   0.0800 
 42 H        9.4520     0.9330     0.2590 H     1 <1>   0.0800 
 43 H        8.9670     2.5750     0.6220 H     1 <1>   0.0800 
@<TRIPOS>BOND
  1   1   2  1   
  2   2   3  ar  
  3   2   4  ar  
  4   3   5  1   
  5   3   6  ar  
  6   4   7  ar  
  7   4  19  1   
  8   5   8  1   
  9   6   9  ar  
 10   6  20  1   
 11   7   9  ar  
 12   7  10  1   
 13   8  11  1   
 14   8  21  1   
 15   8  22  1   
 16   9  23  1   
 17  10  12  1   
 18  10  13  1   
 19  10  14  1   
 20  11  15  1   
 21  11  24  1   
 22  11  25  1   
 23  12  16  1   
 24  12  26  1   
 25  12  27  1   
 26  13  28  1   
 27  13  29  1   
 28  13  30  1   
 29  14  31  1   
 30  14  32  1   
 31  14  33  1   
 32  15  17  1   
 33  15  34  1   
 34  15  35  1   
 35  16  36  1   
 36  16  37  1   
 37  16  38  1   
 38  17  18  1   
 39  17  39  1   
 40  17  40  1   
 41  18  41  1   
 42  18  42  1   
 43  18  43  1   
@<TRIPOS>SUBSTRUCTURE
  1 ****   3 GROUP 4 **** **** 0

# MOE 2024.06 (io_trps.svl 2023.06)
