@<TRIPOS>MOLECULE
NONAME
52 54 1 0 0 
SMALL
USER_CHARGES


@<TRIPOS>ATOM
  1 N       -0.4470     0.8690     0.8030 N.pl3 1 <1>  -0.8380 
  2 C       -1.2450    -0.1240     0.2370 C.ar  1 <1>   0.1000 
  3 C        0.6760     0.4310     1.6780 C.3   1 <1>   0.2090 
  4 C       -0.2410     2.1180     0.0180 C.3   1 <1>   0.2090 
  5 C       -2.5280    -0.3730     0.7260 C.ar  1 <1>  -0.1440 
  6 C       -0.7710    -0.8850    -0.8280 C.ar  1 <1>  -0.1500 
  7 C        2.0320     0.5030     0.9460 C.3   1 <1>   0.3430 
  8 C        1.1440     2.1510    -0.6620 C.3   1 <1>   0.3430 
  9 C       -3.3020    -1.3650     0.1500 C.ar  1 <1>  -0.1500 
 10 C       -3.0880     0.4350     1.8890 C.3   1 <1>  -0.0970 
 11 C       -1.5450    -1.8760    -1.4030 C.ar  1 <1>  -0.1440 
 12 N        2.2840     1.8440     0.2870 N.4   1 <1>  -0.9590 
 13 C       -2.8160    -2.1120    -0.9080 C.ar  1 <1>  -0.1500 
 14 C       -1.0290    -2.7060    -2.5650 C.3   1 <1>  -0.0970 
 15 C        3.6290     1.9070    -0.3660 C.3   1 <1>   0.4230 
 16 C        4.7320     1.5610     0.6590 C.3   1 <1>  -0.1600 
 17 C        3.8880     3.2910    -0.9860 C.3   1 <1>  -0.1600 
 18 C        6.1020     2.2060     0.3600 C.3   1 <1>  -0.0800 
 19 C        5.2320     3.3300    -1.7400 C.3   1 <1>  -0.1600 
 20 C        6.2960     2.3900    -1.1490 C.3   1 <1>  -0.1600 
 21 C        7.2400     1.3740     0.9620 C.3   1 <1>  -0.2400 
 22 H        0.5000    -0.5820     2.0020 H     1 <1>   0.0800 
 23 H        0.7000     1.0520     2.5560 H     1 <1>   0.0800 
 24 H       -0.3450     2.9640     0.6740 H     1 <1>   0.0800 
 25 H       -1.0090     2.1960    -0.7330 H     1 <1>   0.0800 
 26 H        0.2120    -0.7000    -1.2080 H     1 <1>   0.1500 
 27 H        2.0490    -0.2720     0.1990 H     1 <1>   0.0800 
 28 H        2.8100     0.2870     1.6580 H     1 <1>   0.0800 
 29 H        1.2740     3.1250    -1.0980 H     1 <1>   0.0800 
 30 H        1.1400     1.4300    -1.4630 H     1 <1>   0.0800 
 31 H       -4.2920    -1.5640     0.5190 H     1 <1>   0.1500 
 32 H       -2.4660     0.3060     2.7550 H     1 <1>   0.0800 
 33 H       -4.0870     0.1220     2.1340 H     1 <1>   0.0800 
 34 H       -3.1100     1.4780     1.6300 H     1 <1>   0.0800 
 35 H        2.2680     2.5580     1.0250 H     1 <1>   0.4500 
 36 H       -3.4330    -2.8790    -1.3440 H     1 <1>   0.1500 
 37 H       -0.0170    -2.4420    -2.8120 H     1 <1>   0.0800 
 38 H       -1.6470    -2.5460    -3.4300 H     1 <1>   0.0800 
 39 H       -1.0570    -3.7500    -2.3080 H     1 <1>   0.0800 
 40 H        3.6710     1.1810    -1.1630 H     1 <1>   0.0800 
 41 H        4.8490     0.4920     0.6630 H     1 <1>   0.0800 
 42 H        4.4440     1.8720     1.6470 H     1 <1>   0.0800 
 43 H        3.9100     4.0280    -0.2020 H     1 <1>   0.0800 
 44 H        3.1240     3.5670    -1.6890 H     1 <1>   0.0800 
 45 H        6.1330     3.1820     0.8170 H     1 <1>   0.0800 
 46 H        5.6040     4.3420    -1.7240 H     1 <1>   0.0800 
 47 H        5.0810     3.0670    -2.7740 H     1 <1>   0.0800 
 48 H        6.2420     1.4300    -1.6350 H     1 <1>   0.0800 
 49 H        7.2740     2.7950    -1.3510 H     1 <1>   0.0800 
 50 H        7.2840     0.3970     0.5140 H     1 <1>   0.0800 
 51 H        7.1040     1.2620     2.0230 H     1 <1>   0.0800 
 52 H        8.1840     1.8640     0.7970 H     1 <1>   0.0800 
@<TRIPOS>BOND
  1   1   2  1   
  2   1   3  1   
  3   1   4  1   
  4   2   5  ar  
  5   2   6  ar  
  6   3   7  1   
  7   3  22  1   
  8   3  23  1   
  9   4   8  1   
 10   4  24  1   
 11   4  25  1   
 12   5   9  ar  
 13   5  10  1   
 14   6  11  ar  
 15   6  26  1   
 16   7  12  1   
 17   7  27  1   
 18   7  28  1   
 19   8  12  1   
 20   8  29  1   
 21   8  30  1   
 22   9  13  ar  
 23   9  31  1   
 24  10  32  1   
 25  10  33  1   
 26  10  34  1   
 27  11  13  ar  
 28  11  14  1   
 29  12  15  1   
 30  12  35  1   
 31  13  36  1   
 32  14  37  1   
 33  14  38  1   
 34  14  39  1   
 35  15  16  1   
 36  15  17  1   
 37  15  40  1   
 38  16  18  1   
 39  16  41  1   
 40  16  42  1   
 41  17  19  1   
 42  17  43  1   
 43  17  44  1   
 44  18  20  1   
 45  18  21  1   
 46  18  45  1   
 47  19  20  1   
 48  19  46  1   
 49  19  47  1   
 50  20  48  1   
 51  20  49  1   
 52  21  50  1   
 53  21  51  1   
 54  21  52  1   
@<TRIPOS>SUBSTRUCTURE
  1 ****   7 GROUP 4 **** **** 0

# MOE 2024.06 (io_trps.svl 2023.06)
