@<TRIPOS>MOLECULE
NONAME
53 55 1 0 0 
SMALL
USER_CHARGES


@<TRIPOS>ATOM
  1 O       -0.5790    -2.7350     2.2080 O.2   1 <1>  -0.5700 
  2 C        0.0710    -2.3770     1.2550 C.2   1 <1>   0.5690 
  3 N       -0.4230    -1.5450     0.3050 N.am  1 <1>  -0.7300 
  4 C        1.5140    -2.8680     1.0980 C.3   1 <1>   0.1710 
  5 C       -1.7590    -0.9390     0.2790 C.3   1 <1>   0.2200 
  6 N        2.4020    -1.9420     0.3340 N.3   1 <1>  -0.8100 
  7 C       -2.4510    -1.3180    -1.0340 C.3   1 <1>  -0.1600 
  8 C       -1.6140     0.5800     0.4150 C.3   1 <1>  -0.1600 
  9 C        3.6790    -2.6090    -0.0120 C.3   1 <1>   0.1100 
 10 C        2.6920    -0.7190     1.1260 C.3   1 <1>   0.1100 
 11 C       -3.8130    -0.6200    -1.1660 C.3   1 <1>  -0.1600 
 12 C       -2.9740     1.2820     0.2850 C.3   1 <1>  -0.1600 
 13 C        4.6300    -1.6780    -0.7880 C.3   1 <1>   0.2090 
 14 C        3.6230     0.2540     0.3780 C.3   1 <1>   0.2090 
 15 C       -3.6710     0.9020    -1.0290 C.3   1 <1>  -0.1600 
 16 N        4.8890    -0.4210    -0.0290 N.pl3 1 <1>  -0.8380 
 17 C        5.8870     0.4060    -0.5340 C.ar  1 <1>   0.1000 
 18 C        7.0580     0.5870     0.1850 C.ar  1 <1>  -0.1500 
 19 C        5.7420     1.0610    -1.7520 C.ar  1 <1>  -0.1500 
 20 C        8.0700     1.4030    -0.2880 C.ar  1 <1>   0.0820 
 21 C        6.7460     1.8800    -2.2370 C.ar  1 <1>  -0.1500 
 22 O        9.1800     1.5190     0.4880 O.3   1 <1>  -0.3620 
 23 C        7.9110     2.0540    -1.5090 C.ar  1 <1>  -0.1500 
 24 C       10.2670     2.3260     0.0940 C.3   1 <1>   0.0400 
 25 H        0.2310    -1.2610    -0.4290 H     1 <1>   0.3700 
 26 H        1.4670    -3.8130     0.5870 H     1 <1>   0.0800 
 27 H        1.9250    -3.0440     2.0770 H     1 <1>   0.0800 
 28 H       -2.3410    -1.3150     1.1060 H     1 <1>   0.0800 
 29 H       -2.5940    -2.3840    -1.0630 H     1 <1>   0.0800 
 30 H       -1.8290    -1.0330    -1.8640 H     1 <1>   0.0800 
 31 H       -0.9560     0.9480    -0.3510 H     1 <1>   0.0800 
 32 H       -1.1860     0.8090     1.3750 H     1 <1>   0.0800 
 33 H        3.4760    -3.4750    -0.6170 H     1 <1>   0.0800 
 34 H        4.1770    -2.9350     0.8860 H     1 <1>   0.0800 
 35 H        3.1610    -0.9890     2.0570 H     1 <1>   0.0800 
 36 H        1.7740    -0.2070     1.3540 H     1 <1>   0.0800 
 37 H       -4.4760    -0.9860    -0.4010 H     1 <1>   0.0800 
 38 H       -4.2500    -0.8580    -2.1210 H     1 <1>   0.0800 
 39 H       -2.8360     2.3480     0.3270 H     1 <1>   0.0800 
 40 H       -3.6010     0.9980     1.1150 H     1 <1>   0.0800 
 41 H        4.1940    -1.4420    -1.7420 H     1 <1>   0.0800 
 42 H        5.5650    -2.1830    -0.9610 H     1 <1>   0.0800 
 43 H        3.8580     1.0870     1.0170 H     1 <1>   0.0800 
 44 H        3.1170     0.6300    -0.4930 H     1 <1>   0.0800 
 45 H       -4.6450     1.3590    -1.0650 H     1 <1>   0.0800 
 46 H       -3.0990     1.2830    -1.8580 H     1 <1>   0.0800 
 47 H        7.1740     0.0840     1.1250 H     1 <1>   0.1500 
 48 H        4.8380     0.9260    -2.3150 H     1 <1>   0.1500 
 49 H        6.6200     2.3810    -3.1800 H     1 <1>   0.1500 
 50 H        8.6750     2.6940    -1.9060 H     1 <1>   0.1500 
 51 H       11.0220     2.2630     0.8560 H     1 <1>   0.0800 
 52 H        9.9290     3.3420    -0.0040 H     1 <1>   0.0800 
 53 H       10.6560     1.9550    -0.8380 H     1 <1>   0.0800 
@<TRIPOS>BOND
  1   1   2  2   
  2   2   3  am  
  3   2   4  1   
  4   3   5  1   
  5   3  25  1   
  6   4   6  1   
  7   4  26  1   
  8   4  27  1   
  9   5   7  1   
 10   5   8  1   
 11   5  28  1   
 12   6   9  1   
 13   6  10  1   
 14   7  11  1   
 15   7  29  1   
 16   7  30  1   
 17   8  12  1   
 18   8  31  1   
 19   8  32  1   
 20   9  13  1   
 21   9  33  1   
 22   9  34  1   
 23  10  14  1   
 24  10  35  1   
 25  10  36  1   
 26  11  15  1   
 27  11  37  1   
 28  11  38  1   
 29  12  15  1   
 30  12  39  1   
 31  12  40  1   
 32  13  16  1   
 33  13  41  1   
 34  13  42  1   
 35  14  16  1   
 36  14  43  1   
 37  14  44  1   
 38  15  45  1   
 39  15  46  1   
 40  16  17  1   
 41  17  18  ar  
 42  17  19  ar  
 43  18  20  ar  
 44  18  47  1   
 45  19  21  ar  
 46  19  48  1   
 47  20  22  1   
 48  20  23  ar  
 49  21  23  ar  
 50  21  49  1   
 51  22  24  1   
 52  23  50  1   
 53  24  51  1   
 54  24  52  1   
 55  24  53  1   
@<TRIPOS>SUBSTRUCTURE
  1 ****  14 GROUP 4 **** **** 0

# MOE 2024.06 (io_trps.svl 2023.06)
