@<TRIPOS>MOLECULE
NONAME
37 38 1 0 0 
SMALL
USER_CHARGES


@<TRIPOS>ATOM
  1 CL       2.5640    -1.1790    -2.2920 Cl    1 <1>  -0.1770 
  2 C        1.4140    -2.2220    -1.4910 C.ar  1 <1>   0.1770 
  3 C        1.5210    -2.4410    -0.1220 C.ar  1 <1>  -0.1440 
  4 C        0.4220    -2.8160    -2.2470 C.ar  1 <1>  -0.1500 
  5 C        0.6030    -3.2780     0.5040 C.ar  1 <1>  -0.1500 
  6 C        2.6240    -1.7680     0.6750 C.3   1 <1>   0.4870 
  7 C       -0.4690    -3.6440    -1.5970 C.ar  1 <1>   0.1900 
  8 C       -0.3990    -3.8860    -0.2370 C.ar  1 <1>  -0.1500 
  9 N        3.9340    -2.3670     0.3140 N.4   1 <1>  -0.9590 
 10 F       -1.4120    -4.2200    -2.2890 F     1 <1>  -0.1900 
 11 C        4.0370    -3.8480     0.5410 C.3   1 <1>   0.3430 
 12 C        5.1120    -1.6480     0.8960 C.3   1 <1>   0.3430 
 13 C        5.4080    -4.3980     0.0750 C.3   1 <1>   0.1100 
 14 C        6.4380    -2.2000     0.3170 C.3   1 <1>   0.1100 
 15 N        6.2350    -3.3640    -0.5890 N.3   1 <1>  -0.8100 
 16 C        7.5480    -3.9230    -1.0350 C.3   1 <1>   0.1710 
 17 C        8.4540    -2.9210    -1.7610 C.2   1 <1>   0.5690 
 18 O        9.3320    -2.3670    -1.1500 O.2   1 <1>  -0.5700 
 19 N        8.2570    -2.6410    -3.0650 N.am  1 <1>  -0.8000 
 20 H        0.3420    -2.6430    -3.3050 H     1 <1>   0.1500 
 21 H        0.6490    -3.4640     1.5660 H     1 <1>   0.1500 
 22 H        2.4400    -1.8880     1.7300 H     1 <1>   0.0800 
 23 H        2.6290    -0.7140     0.4480 H     1 <1>   0.0800 
 24 H       -1.1210    -4.5370     0.2260 H     1 <1>   0.1500 
 25 H        4.0640    -2.2650    -0.7060 H     1 <1>   0.4500 
 26 H        3.2590    -4.3540    -0.0060 H     1 <1>   0.0800 
 27 H        3.9010    -4.0750     1.5860 H     1 <1>   0.0800 
 28 H        5.1220    -1.7600     1.9670 H     1 <1>   0.0800 
 29 H        5.0510    -0.5950     0.6750 H     1 <1>   0.0800 
 30 H        5.2390    -5.2150    -0.6060 H     1 <1>   0.0800 
 31 H        5.9350    -4.7940     0.9280 H     1 <1>   0.0800 
 32 H        7.0900    -2.4740     1.1300 H     1 <1>   0.0800 
 33 H        6.9250    -1.4050    -0.2240 H     1 <1>   0.0800 
 34 H        7.3720    -4.7500    -1.6990 H     1 <1>   0.0800 
 35 H        8.0890    -4.2980    -0.1830 H     1 <1>   0.0800 
 36 H        8.8680    -1.9680    -3.5310 H     1 <1>   0.3700 
 37 H        7.4940    -3.0250    -3.6200 H     1 <1>   0.3700 
@<TRIPOS>BOND
  1   1   2  1   
  2   2   3  ar  
  3   2   4  ar  
  4   3   5  ar  
  5   3   6  1   
  6   4   7  ar  
  7   4  20  1   
  8   5   8  ar  
  9   5  21  1   
 10   6   9  1   
 11   6  22  1   
 12   6  23  1   
 13   7   8  ar  
 14   7  10  1   
 15   8  24  1   
 16   9  11  1   
 17   9  12  1   
 18   9  25  1   
 19  11  13  1   
 20  11  26  1   
 21  11  27  1   
 22  12  14  1   
 23  12  28  1   
 24  12  29  1   
 25  13  15  1   
 26  13  30  1   
 27  13  31  1   
 28  14  15  1   
 29  14  32  1   
 30  14  33  1   
 31  15  16  1   
 32  16  17  1   
 33  16  34  1   
 34  16  35  1   
 35  17  18  2   
 36  17  19  am  
 37  19  36  1   
 38  19  37  1   
@<TRIPOS>SUBSTRUCTURE
  1 ****   9 GROUP 4 **** **** 0

# MOE 2024.06 (io_trps.svl 2023.06)
