@<TRIPOS>MOLECULE
NONAME
53 56 1 0 0 
SMALL
USER_CHARGES


@<TRIPOS>ATOM
  1 F       -1.4540    -1.1970     1.5480 F     1 <1>  -0.1900 
  2 C       -0.9150    -2.1060     0.7790 C.ar  1 <1>   0.1900 
  3 C       -1.4750    -2.3680    -0.4670 C.ar  1 <1>  -0.1440 
  4 C        0.2050    -2.7680     1.2570 C.ar  1 <1>  -0.1500 
  5 C       -0.8690    -3.3340    -1.2610 C.ar  1 <1>  -0.1500 
  6 C       -2.7090    -1.6220    -0.9570 C.3   1 <1>   0.2540 
  7 C        0.7990    -3.7350     0.4620 C.ar  1 <1>  -0.1500 
  8 C        0.2480    -3.9960    -0.7800 C.ar  1 <1>   0.1900 
  9 N       -3.9420    -2.0750    -0.2630 N.3   1 <1>  -0.8100 
 10 F        0.8020    -4.9080    -1.5320 F     1 <1>  -0.1900 
 11 C       -5.1950    -1.3660    -0.6850 C.3   1 <1>   0.1900 
 12 C       -4.0990    -3.5510    -0.3530 C.3   1 <1>   0.1100 
 13 C       -5.0650     0.1830    -0.6050 C.3   1 <1>  -0.0800 
 14 C       -6.4160    -1.8460     0.1680 C.3   1 <1>   0.4230 
 15 C       -5.4040    -4.0890     0.2710 C.3   1 <1>   0.3430 
 16 C       -4.6710     0.6950     0.7990 C.3   1 <1>  -0.1600 
 17 C       -6.3380     0.9120    -1.0880 C.3   1 <1>  -0.1600 
 18 N       -6.1510    -3.0340     1.0270 N.4   1 <1>  -0.9590 
 19 C       -7.6640    -2.2540    -0.6120 C.3   1 <1>  -0.1600 
 20 C       -4.4730     2.2170     0.7990 C.3   1 <1>  -0.1600 
 21 C       -6.1330     2.4320    -1.1000 C.3   1 <1>  -0.1600 
 22 C       -7.4760    -3.5030     1.4920 C.3   1 <1>   0.3430 
 23 C       -8.4330    -3.1770     0.3430 C.3   1 <1>  -0.1600 
 24 C       -5.7220     2.9440     0.2860 C.3   1 <1>  -0.1600 
 25 H        0.5990    -2.5280     2.2280 H     1 <1>   0.1500 
 26 H       -1.2460    -3.5780    -2.2380 H     1 <1>   0.1500 
 27 H       -2.8200    -1.7520    -2.0200 H     1 <1>   0.0800 
 28 H       -2.5400    -0.5770    -0.7680 H     1 <1>   0.0800 
 29 H        1.6690    -4.2740     0.7930 H     1 <1>   0.1500 
 30 H       -5.3840    -1.6150    -1.7160 H     1 <1>   0.0800 
 31 H       -3.2810    -4.0270     0.1600 H     1 <1>   0.0800 
 32 H       -4.0540    -3.8620    -1.3830 H     1 <1>   0.0800 
 33 H       -4.2960     0.4820    -1.2940 H     1 <1>   0.0800 
 34 H       -6.7000    -1.0350     0.8170 H     1 <1>   0.0800 
 35 H       -5.1670    -4.9130     0.9240 H     1 <1>   0.0800 
 36 H       -6.0270    -4.4740    -0.5190 H     1 <1>   0.0800 
 37 H       -3.7550     0.2320     1.1220 H     1 <1>   0.0800 
 38 H       -5.4290     0.4490     1.5200 H     1 <1>   0.0800 
 39 H       -7.1710     0.7000    -0.4420 H     1 <1>   0.0800 
 40 H       -6.5920     0.5890    -2.0840 H     1 <1>   0.0800 
 41 H       -5.5310    -2.7150     1.7850 H     1 <1>   0.4500 
 42 H       -7.3880    -2.7900    -1.5040 H     1 <1>   0.0800 
 43 H       -8.2490    -1.3970    -0.8950 H     1 <1>   0.0800 
 44 H       -3.6330     2.4680     0.1730 H     1 <1>   0.0800 
 45 H       -4.2460     2.5510     1.7970 H     1 <1>   0.0800 
 46 H       -7.0430     2.9200    -1.4050 H     1 <1>   0.0800 
 47 H       -5.3690     2.6890    -1.8140 H     1 <1>   0.0800 
 48 H       -7.7690    -2.9490     2.3700 H     1 <1>   0.0800 
 49 H       -7.4690    -4.5560     1.7230 H     1 <1>   0.0800 
 50 H       -8.7410    -4.0780    -0.1590 H     1 <1>   0.0800 
 51 H       -9.3100    -2.6910     0.7340 H     1 <1>   0.0800 
 52 H       -5.5260     4.0020     0.2360 H     1 <1>   0.0800 
 53 H       -6.5320     2.7940     0.9790 H     1 <1>   0.0800 
@<TRIPOS>BOND
  1   1   2  1   
  2   2   3  ar  
  3   2   4  ar  
  4   3   5  ar  
  5   3   6  1   
  6   4   7  ar  
  7   4  25  1   
  8   5   8  ar  
  9   5  26  1   
 10   6   9  1   
 11   6  27  1   
 12   6  28  1   
 13   7   8  ar  
 14   7  29  1   
 15   8  10  1   
 16   9  11  1   
 17   9  12  1   
 18  11  13  1   
 19  11  14  1   
 20  11  30  1   
 21  12  15  1   
 22  12  31  1   
 23  12  32  1   
 24  13  16  1   
 25  13  17  1   
 26  13  33  1   
 27  14  18  1   
 28  14  19  1   
 29  14  34  1   
 30  15  18  1   
 31  15  35  1   
 32  15  36  1   
 33  16  20  1   
 34  16  37  1   
 35  16  38  1   
 36  17  21  1   
 37  17  39  1   
 38  17  40  1   
 39  18  22  1   
 40  18  41  1   
 41  19  23  1   
 42  19  42  1   
 43  19  43  1   
 44  20  24  1   
 45  20  44  1   
 46  20  45  1   
 47  21  24  1   
 48  21  46  1   
 49  21  47  1   
 50  22  23  1   
 51  22  48  1   
 52  22  49  1   
 53  23  50  1   
 54  23  51  1   
 55  24  52  1   
 56  24  53  1   
@<TRIPOS>SUBSTRUCTURE
  1 ****   9 GROUP 4 **** **** 0

# MOE 2024.06 (io_trps.svl 2023.06)
