@<TRIPOS>MOLECULE
NONAME
30 30 1 0 0 
SMALL
USER_CHARGES


@<TRIPOS>ATOM
  1 CL      -0.2660     0.5780     1.4000 Cl    1 <1>  -0.1770 
  2 C        1.2840     1.1810     0.8780 C.ar  1 <1>   0.1770 
  3 C        2.2410     1.5040     1.8190 C.ar  1 <1>  -0.1500 
  4 C        1.5370     1.3290    -0.4720 C.ar  1 <1>  -0.1500 
  5 C        3.4710     1.9820     1.3960 C.ar  1 <1>  -0.1500 
  6 C        2.7710     1.8070    -0.8810 C.ar  1 <1>  -0.1500 
  7 C        3.7590     2.1390     0.0430 C.ar  1 <1>  -0.0090 
  8 S        5.3830     2.7520    -0.4950 S.o2  1 <1>   1.4470 
  9 O        5.4970     2.6880    -1.9350 O.2   1 <1>  -0.6500 
 10 O        5.6610     3.9930     0.1930 O.2   1 <1>  -0.6500 
 11 N        6.4760     1.6090     0.1150 N.am  1 <1>  -0.8490 
 12 C        7.8750     2.1010    -0.0720 C.3   1 <1>   0.2570 
 13 C        6.2880     0.2940    -0.5150 C.3   1 <1>   0.1960 
 14 C        8.8630     1.6560     1.0130 C.2   1 <1>   0.5690 
 15 C        6.9780    -0.8110     0.2810 C.3   1 <1>  -0.2400 
 16 O        9.9820     1.3280     0.7090 O.2   1 <1>  -0.5700 
 17 N        8.4790     1.6300     2.3050 N.am  1 <1>  -0.8000 
 18 H        2.0230     1.3840     2.8660 H     1 <1>   0.1500 
 19 H        0.7760     1.0730    -1.1890 H     1 <1>   0.1500 
 20 H        4.2210     2.2380     2.1260 H     1 <1>   0.1500 
 21 H        2.9680     1.9250    -1.9350 H     1 <1>   0.1500 
 22 H        7.9000     3.1760    -0.0570 H     1 <1>   0.0800 
 23 H        8.2510     1.7980    -1.0340 H     1 <1>   0.0800 
 24 H        6.6470     0.3050    -1.5320 H     1 <1>   0.0800 
 25 H        5.2370     0.0580    -0.5460 H     1 <1>   0.0800 
 26 H        8.0460    -0.7540     0.1820 H     1 <1>   0.0800 
 27 H        6.6680    -1.7680    -0.0970 H     1 <1>   0.0800 
 28 H        6.7050    -0.7520     1.3190 H     1 <1>   0.0800 
 29 H        9.1280     1.3280     3.0310 H     1 <1>   0.3700 
 30 H        7.5190     1.8390     2.5830 H     1 <1>   0.3700 
@<TRIPOS>BOND
  1   1   2  1   
  2   2   3  ar  
  3   2   4  ar  
  4   3   5  ar  
  5   3  18  1   
  6   4   6  ar  
  7   4  19  1   
  8   5   7  ar  
  9   5  20  1   
 10   6   7  ar  
 11   6  21  1   
 12   7   8  1   
 13   8   9  2   
 14   8  10  2   
 15   8  11  am  
 16  11  12  1   
 17  11  13  1   
 18  12  14  1   
 19  12  22  1   
 20  12  23  1   
 21  13  15  1   
 22  13  24  1   
 23  13  25  1   
 24  14  16  2   
 25  14  17  am  
 26  15  26  1   
 27  15  27  1   
 28  15  28  1   
 29  17  29  1   
 30  17  30  1   
@<TRIPOS>SUBSTRUCTURE
  1 ****  11 GROUP 4 **** **** 0

# MOE 2024.06 (io_trps.svl 2023.06)
