@<TRIPOS>MOLECULE
NONAME
48 50 1 0 0 
SMALL
USER_CHARGES


@<TRIPOS>ATOM
  1 S        0.2460    -0.0050     0.9970 S.o2  1 <1>   1.4470 
  2 O        0.5860    -0.0040     2.4030 O.2   1 <1>  -0.6500 
  3 O       -0.9660     0.6510     0.5580 O.2   1 <1>  -0.6500 
  4 N        1.5350     0.7430     0.1850 N.am  1 <1>  -0.8490 
  5 C        0.2710    -1.6990     0.3420 C.ar  1 <1>  -0.0090 
  6 C        2.8390     0.2150     0.6200 C.3   1 <1>   0.1960 
  7 C        1.4860     2.1980     0.3600 C.3   1 <1>   0.1960 
  8 C       -0.1400    -1.9590    -0.9640 C.ar  1 <1>  -0.1500 
  9 C        0.7220    -2.7660     1.1180 C.ar  1 <1>  -0.1500 
 10 C        3.9680     0.7910    -0.2490 C.3   1 <1>  -0.0190 
 11 C        2.5690     2.8740    -0.4890 C.3   1 <1>  -0.1600 
 12 C       -0.1080    -3.2410    -1.4880 C.ar  1 <1>  -0.1500 
 13 C        0.7630    -4.0560     0.6130 C.ar  1 <1>  -0.1500 
 14 C        5.3160     0.2100     0.1560 C.2   1 <1>   0.5690 
 15 C        3.9680     2.3290    -0.1660 C.3   1 <1>  -0.1600 
 16 C        0.3460    -4.2690    -0.6850 C.ar  1 <1>   0.1900 
 17 O        5.4750    -0.1640     1.2920 O.2   1 <1>  -0.5700 
 18 N        6.2930     0.1590    -0.8010 N.am  1 <1>  -0.5470 
 19 F        0.3810    -5.4800    -1.1700 F     1 <1>  -0.1900 
 20 C        7.6040    -0.3410    -0.7500 C.ar  1 <1>   0.1170 
 21 C        8.0140    -1.3120     0.1580 C.ar  1 <1>  -0.1500 
 22 C        8.5350     0.1410    -1.6640 C.ar  1 <1>  -0.1500 
 23 C        9.3130    -1.7900     0.1610 C.ar  1 <1>   0.0820 
 24 C        9.8360    -0.3280    -1.6700 C.ar  1 <1>  -0.1500 
 25 O        9.6150    -2.7380     1.0840 O.3   1 <1>  -0.3630 
 26 C       10.2310    -1.2930    -0.7600 C.ar  1 <1>  -0.1500 
 27 C       10.9210    -3.2560     1.2060 C.3   1 <1>   0.0400 
 28 H        2.8500    -0.8580     0.5300 H     1 <1>   0.0800 
 29 H        3.0110     0.4640     1.6560 H     1 <1>   0.0800 
 30 H        1.6200     2.4460     1.4010 H     1 <1>   0.0800 
 31 H        0.5230     2.5710     0.0500 H     1 <1>   0.0800 
 32 H       -0.4900    -1.1430    -1.5750 H     1 <1>   0.1500 
 33 H        1.0450    -2.5850     2.1310 H     1 <1>   0.1500 
 34 H        3.7720     0.4930    -1.2630 H     1 <1>   0.0800 
 35 H        2.5450     3.9350    -0.3130 H     1 <1>   0.0800 
 36 H        2.3420     2.7100    -1.5280 H     1 <1>   0.0800 
 37 H       -0.4270    -3.4430    -2.4950 H     1 <1>   0.1500 
 38 H        1.1110    -4.8800     1.2110 H     1 <1>   0.1500 
 39 H        4.6880     2.7420    -0.8500 H     1 <1>   0.0800 
 40 H        4.2460     2.6290     0.8310 H     1 <1>   0.0800 
 41 H        6.0460     0.5880    -1.6900 H     1 <1>   0.3700 
 42 H        7.3230    -1.7120     0.8750 H     1 <1>   0.1500 
 43 H        8.2460     0.8910    -2.3760 H     1 <1>   0.1500 
 44 H       10.5450     0.0570    -2.3830 H     1 <1>   0.1500 
 45 H       11.2450    -1.6420    -0.7830 H     1 <1>   0.1500 
 46 H       10.9220    -3.9710     2.0090 H     1 <1>   0.0800 
 47 H       11.5960    -2.4500     1.4320 H     1 <1>   0.0800 
 48 H       11.1910    -3.7410     0.2850 H     1 <1>   0.0800 
@<TRIPOS>BOND
  1   1   2  2   
  2   1   3  2   
  3   1   4  am  
  4   1   5  1   
  5   4   6  1   
  6   4   7  1   
  7   5   8  ar  
  8   5   9  ar  
  9   6  10  1   
 10   6  28  1   
 11   6  29  1   
 12   7  11  1   
 13   7  30  1   
 14   7  31  1   
 15   8  12  ar  
 16   8  32  1   
 17   9  13  ar  
 18   9  33  1   
 19  10  14  1   
 20  10  15  1   
 21  10  34  1   
 22  11  15  1   
 23  11  35  1   
 24  11  36  1   
 25  12  16  ar  
 26  12  37  1   
 27  13  16  ar  
 28  13  38  1   
 29  14  17  2   
 30  14  18  am  
 31  15  39  1   
 32  15  40  1   
 33  16  19  1   
 34  18  20  1   
 35  18  41  1   
 36  20  21  ar  
 37  20  22  ar  
 38  21  23  ar  
 39  21  42  1   
 40  22  24  ar  
 41  22  43  1   
 42  23  25  1   
 43  23  26  ar  
 44  24  26  ar  
 45  24  44  1   
 46  25  27  1   
 47  26  45  1   
 48  27  46  1   
 49  27  47  1   
 50  27  48  1   
@<TRIPOS>SUBSTRUCTURE
  1 ****  14 GROUP 4 **** **** 0

# MOE 2024.06 (io_trps.svl 2023.06)
