@<TRIPOS>MOLECULE
NONAME
32 33 1 0 0 
SMALL
USER_CHARGES


@<TRIPOS>ATOM
  1 O        0.3660    -1.6300    -0.7870 O.3   1 <1>  -0.3630 
  2 C       -0.9330    -1.4100    -0.4510 C.ar  1 <1>   0.0820 
  3 C        1.4130    -0.8730    -0.2260 C.3   1 <1>   0.1200 
  4 C       -1.8980    -2.2120    -1.0540 C.ar  1 <1>  -0.1440 
  5 C       -1.3240    -0.4280     0.4580 C.ar  1 <1>  -0.1500 
  6 C        2.7250    -1.3770    -0.8160 C.3   1 <1>   0.0960 
  7 C       -3.2340    -2.0230    -0.7410 C.ar  1 <1>  -0.1500 
  8 C       -1.5020    -3.2920    -2.0500 C.3   1 <1>  -0.0960 
  9 C       -2.6610    -0.2440     0.7650 C.ar  1 <1>  -0.1430 
 10 N        3.8480    -0.5980    -0.2650 N.pl3 1 <1>   0.0480 
 11 C       -3.6140    -1.0470     0.1630 C.ar  1 <1>  -0.1500 
 12 C       -3.0850     0.8250     1.7570 C.3   1 <1>  -0.0970 
 13 C        4.4320     0.5010    -0.7920 C.2   1 <1>   0.0360 
 14 C        4.5050    -0.8130     0.8890 C.2   1 <1>  -0.3020 
 15 N        5.3880     0.9870    -0.0690 N.2   1 <1>  -0.5650 
 16 C        5.4370     0.1590     0.9910 C.2   1 <1>   0.0770 
 17 H        1.3970    -1.0130     0.8410 H     1 <1>   0.0800 
 18 H        1.2540     0.1610    -0.4790 H     1 <1>   0.0800 
 19 H       -0.6010     0.2020     0.9380 H     1 <1>   0.1500 
 20 H        2.7150    -1.2640    -1.8850 H     1 <1>   0.0800 
 21 H        2.8670    -2.4130    -0.5670 H     1 <1>   0.0800 
 22 H       -3.9910    -2.6370    -1.1980 H     1 <1>   0.1500 
 23 H       -0.8450    -3.9990    -1.5770 H     1 <1>   0.0800 
 24 H       -0.9900    -2.8460    -2.8840 H     1 <1>   0.0800 
 25 H       -2.3650    -3.8170    -2.4180 H     1 <1>   0.0800 
 26 H       -4.6570    -0.9170     0.3940 H     1 <1>   0.1500 
 27 H       -2.3790     1.6360     1.7650 H     1 <1>   0.0800 
 28 H       -3.1410     0.4020     2.7440 H     1 <1>   0.0800 
 29 H       -4.0490     1.2200     1.4930 H     1 <1>   0.0800 
 30 H        4.1150     0.9230    -1.7300 H     1 <1>   0.1500 
 31 H        4.2830    -1.6230     1.5600 H     1 <1>   0.1500 
 32 H        6.1520     0.3090     1.7830 H     1 <1>   0.1500 
@<TRIPOS>BOND
  1   1   2  1   
  2   1   3  1   
  3   2   4  ar  
  4   2   5  ar  
  5   3   6  1   
  6   3  17  1   
  7   3  18  1   
  8   4   7  ar  
  9   4   8  1   
 10   5   9  ar  
 11   5  19  1   
 12   6  10  1   
 13   6  20  1   
 14   6  21  1   
 15   7  11  ar  
 16   7  22  1   
 17   8  23  1   
 18   8  24  1   
 19   8  25  1   
 20   9  11  ar  
 21   9  12  1   
 22  10  13  1   
 23  10  14  1   
 24  11  26  1   
 25  12  27  1   
 26  12  28  1   
 27  12  29  1   
 28  13  15  2   
 29  13  30  1   
 30  14  16  2   
 31  14  31  1   
 32  15  16  1   
 33  16  32  1   
@<TRIPOS>SUBSTRUCTURE
  1 ****   3 GROUP 4 **** **** 0

# MOE 2024.06 (io_trps.svl 2023.06)
