@<TRIPOS>MOLECULE
NONAME
51 53 1 0 0 
SMALL
USER_CHARGES


@<TRIPOS>ATOM
  1 S        0.0560     0.6160     1.5670 S.o2  1 <1>   1.4470 
  2 O       -1.0570     1.3040     2.1830 O.2   1 <1>  -0.6500 
  3 O        0.5080    -0.6480     2.1060 O.2   1 <1>  -0.6500 
  4 N       -0.3630     0.3330    -0.0490 N.am  1 <1>  -0.8490 
  5 C        1.4850     1.7250     1.4240 C.ar  1 <1>  -0.0090 
  6 C       -1.2900    -0.8020    -0.1720 C.3   1 <1>   0.1960 
  7 C       -0.9590     1.5140    -0.6970 C.3   1 <1>   0.1960 
  8 C        2.5440     1.4050     0.5900 C.ar  1 <1>  -0.1500 
  9 C        1.5600     2.9120     2.1390 C.ar  1 <1>  -0.1500 
 10 C       -1.6700    -1.0520    -1.6430 C.3   1 <1>   0.1200 
 11 C       -1.3350     1.2090    -2.1590 C.3   1 <1>   0.1200 
 12 C        3.6650     2.2210     0.4450 C.ar  1 <1>   0.0860 
 13 C        2.6560     3.7470     2.0160 C.ar  1 <1>  -0.1500 
 14 O       -2.1980     0.1090    -2.2220 O.3   1 <1>  -0.5600 
 15 C        3.7050     3.4120     1.1770 C.ar  1 <1>  -0.1440 
 16 C        4.7320     1.8000    -0.4410 C.2   1 <1>   0.5440 
 17 C        4.8970     4.3550     1.0660 C.3   1 <1>  -0.0960 
 18 O        5.0340     2.4710    -1.4070 O.2   1 <1>  -0.5700 
 19 N        5.3680     0.6120    -0.1710 N.am  1 <1>  -0.5470 
 20 C        6.3690    -0.0940    -0.8600 C.ar  1 <1>   0.1170 
 21 C        6.4230    -1.4910    -0.7710 C.ar  1 <1>  -0.1440 
 22 C        7.3310     0.5740    -1.6110 C.ar  1 <1>  -0.1500 
 23 C        7.4380    -2.1710    -1.4350 C.ar  1 <1>  -0.1500 
 24 C        5.3600    -2.2350     0.0510 C.3   1 <1>  -0.0170 
 25 C        8.3310    -0.1140    -2.2690 C.ar  1 <1>  -0.1500 
 26 C        8.3850    -1.4910    -2.1790 C.ar  1 <1>  -0.1500 
 27 C        5.3870    -3.7660    -0.0400 C.3   1 <1>  -0.2400 
 28 H       -2.1850    -0.6140     0.3980 H     1 <1>   0.0800 
 29 H       -0.8270    -1.6920     0.2220 H     1 <1>   0.0800 
 30 H       -0.2590     2.3320    -0.6810 H     1 <1>   0.0800 
 31 H       -1.8470     1.8240    -0.1700 H     1 <1>   0.0800 
 32 H        2.4930     0.4900     0.0230 H     1 <1>   0.1500 
 33 H        0.7530     3.1880     2.7990 H     1 <1>   0.1500 
 34 H       -2.4180    -1.8210    -1.7090 H     1 <1>   0.0800 
 35 H       -0.8070    -1.3570    -2.2090 H     1 <1>   0.0800 
 36 H       -0.4540     0.9910    -2.7380 H     1 <1>   0.0800 
 37 H       -1.8420     2.0490    -2.5980 H     1 <1>   0.0800 
 38 H        2.6830     4.6630     2.5820 H     1 <1>   0.1500 
 39 H        5.8130     3.8230     1.2540 H     1 <1>   0.0800 
 40 H        4.8250     5.1620     1.7730 H     1 <1>   0.0800 
 41 H        4.9410     4.7740     0.0760 H     1 <1>   0.0800 
 42 H        5.0140     0.1250     0.6490 H     1 <1>   0.3700 
 43 H        7.3050     1.6460    -1.6830 H     1 <1>   0.1500 
 44 H        7.5160    -3.2410    -1.3910 H     1 <1>   0.1500 
 45 H        4.3870    -1.9090    -0.2760 H     1 <1>   0.0800 
 46 H        5.4700    -1.9580     1.0850 H     1 <1>   0.0800 
 47 H        9.0630     0.4210    -2.8470 H     1 <1>   0.1500 
 48 H        9.1630    -2.0330    -2.6880 H     1 <1>   0.1500 
 49 H        5.2770    -4.0830    -1.0620 H     1 <1>   0.0800 
 50 H        4.5770    -4.1800     0.5330 H     1 <1>   0.0800 
 51 H        6.3100    -4.1510     0.3560 H     1 <1>   0.0800 
@<TRIPOS>BOND
  1   1   2  2   
  2   1   3  2   
  3   1   4  am  
  4   1   5  1   
  5   4   6  1   
  6   4   7  1   
  7   5   8  ar  
  8   5   9  ar  
  9   6  10  1   
 10   6  28  1   
 11   6  29  1   
 12   7  11  1   
 13   7  30  1   
 14   7  31  1   
 15   8  12  ar  
 16   8  32  1   
 17   9  13  ar  
 18   9  33  1   
 19  10  14  1   
 20  10  34  1   
 21  10  35  1   
 22  11  14  1   
 23  11  36  1   
 24  11  37  1   
 25  12  15  ar  
 26  12  16  1   
 27  13  15  ar  
 28  13  38  1   
 29  15  17  1   
 30  16  18  2   
 31  16  19  am  
 32  17  39  1   
 33  17  40  1   
 34  17  41  1   
 35  19  20  1   
 36  19  42  1   
 37  20  21  ar  
 38  20  22  ar  
 39  21  23  ar  
 40  21  24  1   
 41  22  25  ar  
 42  22  43  1   
 43  23  26  ar  
 44  23  44  1   
 45  24  27  1   
 46  24  45  1   
 47  24  46  1   
 48  25  26  ar  
 49  25  47  1   
 50  26  48  1   
 51  27  49  1   
 52  27  50  1   
 53  27  51  1   
@<TRIPOS>SUBSTRUCTURE
  1 ****   8 GROUP 4 **** **** 0

# MOE 2024.06 (io_trps.svl 2023.06)
