@<TRIPOS>MOLECULE
NONAME
40 42 1 0 0 
SMALL
USER_CHARGES


@<TRIPOS>ATOM
  1 S        0.1390     0.4860    -0.0700 S.o2  1 <1>   1.4470 
  2 O        0.4150     1.6240     0.7780 O.2   1 <1>  -0.6500 
  3 O        0.1790     0.6330    -1.5070 O.2   1 <1>  -0.6500 
  4 N        1.2790    -0.6910     0.2750 N.am  1 <1>  -0.9140 
  5 C       -1.4150    -0.2990     0.4360 C.ar  1 <1>  -0.0090 
  6 C        2.6450    -0.2180     0.1760 C.3   1 <1>   0.2760 
  7 C       -2.2990    -0.8240    -0.4750 C.ar  1 <1>  -0.1500 
  8 C       -1.7370    -0.4050     1.8000 C.ar  1 <1>  -0.1500 
  9 C        3.5020    -1.3050    -0.5220 C.3   1 <1>   0.2000 
 10 C        3.1550     0.1290     1.5770 C.3   1 <1>  -0.2400 
 11 C       -3.5010    -1.4490    -0.0890 C.ar  1 <1>   0.0000 
 12 C       -2.8950    -1.0060     2.2110 C.ar  1 <1>  -0.1500 
 13 O        2.8290    -1.7810    -1.6480 O.3   1 <1>  -0.5600 
 14 C        3.7770    -2.5710     0.2870 C.3   1 <1>  -0.1600 
 15 C       -3.8070    -1.5430     1.2830 C.ar  1 <1>   0.0000 
 16 C       -4.4100    -1.9860    -1.0240 C.ar  1 <1>  -0.1500 
 17 C        3.3550    -3.0080    -2.0400 C.3   1 <1>   0.1200 
 18 C        3.9550    -3.6350    -0.7840 C.3   1 <1>  -0.1600 
 19 C       -5.0100    -2.1680     1.6700 C.ar  1 <1>  -0.1500 
 20 C       -5.5700    -2.5880    -0.6220 C.ar  1 <1>  -0.1500 
 21 C       -5.8730    -2.6800     0.7420 C.ar  1 <1>  -0.1500 
 22 H        1.2250    -1.3050    -0.5460 H     1 <1>   0.4200 
 23 H        2.6900     0.6650    -0.4430 H     1 <1>   0.0800 
 24 H       -2.0790    -0.7620    -1.5270 H     1 <1>   0.1500 
 25 H       -1.0460     0.0020     2.5200 H     1 <1>   0.1500 
 26 H        4.4330    -0.8780    -0.8540 H     1 <1>   0.0800 
 27 H        3.0450    -0.7060     2.2440 H     1 <1>   0.0800 
 28 H        2.6080     0.9640     1.9760 H     1 <1>   0.0800 
 29 H        4.1930     0.4040     1.5320 H     1 <1>   0.0800 
 30 H       -3.1280    -1.0780     3.2590 H     1 <1>   0.1500 
 31 H        2.9240    -2.8080     0.9000 H     1 <1>   0.0800 
 32 H        4.6450    -2.4660     0.9130 H     1 <1>   0.0800 
 33 H       -4.1720    -1.9120    -2.0700 H     1 <1>   0.1500 
 34 H        4.1090    -2.8280    -2.7870 H     1 <1>   0.0800 
 35 H        2.5600    -3.6050    -2.4540 H     1 <1>   0.0800 
 36 H        3.4450    -4.5460    -0.5240 H     1 <1>   0.0800 
 37 H        4.9960    -3.8510    -0.9490 H     1 <1>   0.0800 
 38 H       -5.2380    -2.2360     2.7190 H     1 <1>   0.1500 
 39 H       -6.2600    -2.9960    -1.3400 H     1 <1>   0.1500 
 40 H       -6.7900    -3.1560     1.0420 H     1 <1>   0.1500 
@<TRIPOS>BOND
  1   1   2  2   
  2   1   3  2   
  3   1   4  am  
  4   1   5  1   
  5   4   6  1   
  6   4  22  1   
  7   5   7  ar  
  8   5   8  ar  
  9   6   9  1   
 10   6  10  1   
 11   6  23  1   
 12   7  11  ar  
 13   7  24  1   
 14   8  12  ar  
 15   8  25  1   
 16   9  13  1   
 17   9  14  1   
 18   9  26  1   
 19  10  27  1   
 20  10  28  1   
 21  10  29  1   
 22  11  15  ar  
 23  11  16  ar  
 24  12  15  ar  
 25  12  30  1   
 26  13  17  1   
 27  14  18  1   
 28  14  31  1   
 29  14  32  1   
 30  15  19  ar  
 31  16  20  ar  
 32  16  33  1   
 33  17  18  1   
 34  17  34  1   
 35  17  35  1   
 36  18  36  1   
 37  18  37  1   
 38  19  21  ar  
 39  19  38  1   
 40  20  21  ar  
 41  20  39  1   
 42  21  40  1   
@<TRIPOS>SUBSTRUCTURE
  1 ****   5 GROUP 4 **** **** 0

# MOE 2024.06 (io_trps.svl 2023.06)
