@<TRIPOS>MOLECULE
NONAME
25 25 1 0 0 
SMALL
USER_CHARGES


@<TRIPOS>ATOM
  1 S       -0.1640    -0.0640    -0.3680 S.3   1 <1>  -0.3310 
  2 C        1.3960    -1.0120    -0.4510 C.2   1 <1>   0.1150 
  3 C        0.2500     1.5820     0.3640 C.3   1 <1>  -0.0100 
  4 C        1.4430    -2.1490    -1.3140 C.2   1 <1>   0.5560 
  5 C        2.4540    -0.6230     0.3160 C.2   1 <1>  -0.0500 
  6 O        0.4630    -2.4810    -1.9830 O.2   1 <1>  -0.5700 
  7 C        2.7050    -2.8850    -1.3660 C.2   1 <1>   0.6300 
  8 N        3.6330    -1.3020     0.2760 N.pl3 1 <1>  -0.5200 
  9 O        2.8640    -3.8800    -2.0730 O.2   1 <1>  -0.5700 
 10 N        3.7720    -2.4450    -0.5970 N.am  1 <1>  -0.3400 
 11 C        5.1320    -3.0360    -0.7000 C.3   1 <1>   0.1400 
 12 C        5.3880    -3.9720     0.4850 C.3   1 <1>  -0.1600 
 13 C        6.7930    -4.5820     0.4220 C.3   1 <1>  -0.2400 
 14 H       -0.6200     2.2070     0.2630 H     1 <1>   0.0800 
 15 H        1.0790     1.9930    -0.1840 H     1 <1>   0.0800 
 16 H        0.4930     1.4360     1.4010 H     1 <1>   0.0800 
 17 H        2.3960     0.2170     0.9850 H     1 <1>   0.1500 
 18 H        4.4040    -1.1090     0.9360 H     1 <1>   0.4000 
 19 H        5.8600    -2.2440    -0.7140 H     1 <1>   0.0800 
 20 H        5.2260    -3.5850    -1.6220 H     1 <1>   0.0800 
 21 H        4.6600    -4.7660     0.4690 H     1 <1>   0.0800 
 22 H        5.2800    -3.4300     1.4080 H     1 <1>   0.0800 
 23 H        6.9150    -5.1510    -0.4830 H     1 <1>   0.0800 
 24 H        6.9450    -5.2390     1.2600 H     1 <1>   0.0800 
 25 H        7.5430    -3.8110     0.4520 H     1 <1>   0.0800 
@<TRIPOS>BOND
  1   1   2  1   
  2   1   3  1   
  3   2   4  1   
  4   2   5  2   
  5   3  14  1   
  6   3  15  1   
  7   3  16  1   
  8   4   6  2   
  9   4   7  1   
 10   5   8  1   
 11   5  17  1   
 12   7   9  2   
 13   7  10  am  
 14   8  10  1   
 15   8  18  1   
 16  10  11  1   
 17  11  12  1   
 18  11  19  1   
 19  11  20  1   
 20  12  13  1   
 21  12  21  1   
 22  12  22  1   
 23  13  23  1   
 24  13  24  1   
 25  13  25  1   
@<TRIPOS>SUBSTRUCTURE
  1 ****  10 GROUP 4 **** **** 0

# MOE 2024.06 (io_trps.svl 2023.06)
