@<TRIPOS>MOLECULE
NONAME
52 55 1 0 0 
SMALL
USER_CHARGES


@<TRIPOS>ATOM
  1 O        0.6520    -1.0830    -1.7030 O.2   1 <1>  -0.5740 
  2 C        1.1950    -1.9470    -1.0450 C.2   1 <1>   0.6860 
  3 N        0.4340    -2.8580    -0.3170 N.am  1 <1>  -0.4250 
  4 N        2.5820    -2.0240    -1.0260 N.am  1 <1>  -0.4410 
  5 C        1.0350    -3.8650     0.4260 C.2   1 <1>   0.7000 
  6 C       -1.0550    -2.7710    -0.3640 C.3   1 <1>   0.1330 
  7 C        3.1670    -3.0420    -0.2990 C.2   1 <1>   0.4210 
  8 C        3.4180    -1.0530    -1.7920 C.3   1 <1>   0.0530 
  9 O        0.3690    -4.6600     1.0700 O.2   1 <1>  -0.5740 
 10 C        2.4620    -3.9480     0.4130 C.2   1 <1>   0.2710 
 11 C       -1.5900    -3.6330    -1.5060 C.3   1 <1>  -0.2460 
 12 N        4.4910    -3.3290    -0.1740 N.pl3 1 <1>  -0.7030 
 13 N        3.4070    -4.8120     0.9870 N.pl3 1 <1>  -0.7670 
 14 C        4.6110    -4.4080     0.5950 C.cat 1 <1>   1.0690 
 15 C        3.1420    -5.9950     1.8280 C.3   1 <1>   0.3480 
 16 N        5.7510    -5.0300     0.9560 N.pl3 1 <1>  -0.5800 
 17 C        4.4250    -6.3590     2.5830 C.3   1 <1>  -0.1670 
 18 C        7.0360    -4.5880     0.5690 C.ar  1 <1>   0.3050 
 19 C        5.6600    -6.3330     1.6720 C.3   1 <1>   0.1610 
 20 C        7.4020    -4.4510    -0.7790 C.ar  1 <1>   0.0750 
 21 C        7.9650    -4.2720     1.5520 C.ar  1 <1>  -0.1570 
 22 O        6.4720    -4.7530    -1.7330 O.3   1 <1>  -0.3680 
 23 C        8.6780    -4.0100    -1.1070 C.ar  1 <1>  -0.1570 
 24 C        9.2340    -3.8340     1.2200 C.ar  1 <1>  -0.1570 
 25 C        6.8640    -4.9940    -3.0710 C.3   1 <1>   0.0320 
 26 C        9.5950    -3.7020    -0.1160 C.ar  1 <1>   0.0750 
 27 O       10.8150    -3.2790    -0.5320 O.3   1 <1>  -0.3680 
 28 C       11.8380    -2.9760     0.3910 C.3   1 <1>   0.0320 
 29 H       -1.3610    -1.7480    -0.5060 H     1 <1>   0.0730 
 30 H       -1.4740    -3.1040     0.5710 H     1 <1>   0.0730 
 31 H        2.8720    -0.1420    -1.9710 H     1 <1>   0.0730 
 32 H        3.6920    -1.4810    -2.7410 H     1 <1>   0.0730 
 33 H        4.3070    -0.8050    -1.2390 H     1 <1>   0.0730 
 34 H       -1.2040    -3.2890    -2.4500 H     1 <1>   0.0730 
 35 H       -2.6630    -3.5610    -1.5360 H     1 <1>   0.0730 
 36 H       -1.3260    -4.6650    -1.3590 H     1 <1>   0.0730 
 37 H        5.2800    -2.9280    -0.6770 H     1 <1>   0.4450 
 38 H        2.8360    -6.8140     1.1980 H     1 <1>   0.0730 
 39 H        2.3480    -5.7860     2.5270 H     1 <1>   0.0730 
 40 H        4.3160    -7.3390     3.0130 H     1 <1>   0.0730 
 41 H        4.5670    -5.6700     3.3970 H     1 <1>   0.0730 
 42 H        6.5460    -6.4960     2.2630 H     1 <1>   0.0730 
 43 H        5.5970    -7.1250     0.9430 H     1 <1>   0.0730 
 44 H        7.6980    -4.3650     2.5890 H     1 <1>   0.1430 
 45 H        8.9970    -3.8910    -2.1250 H     1 <1>   0.1430 
 46 H        9.9270    -3.6000     2.0080 H     1 <1>   0.1430 
 47 H        6.0090    -5.3560    -3.6140 H     1 <1>   0.0730 
 48 H        7.6420    -5.7380    -3.0820 H     1 <1>   0.0730 
 49 H        7.2100    -4.0750    -3.5100 H     1 <1>   0.0730 
 50 H       12.7110    -2.6800    -0.1630 H     1 <1>   0.0730 
 51 H       12.0560    -3.8540     0.9730 H     1 <1>   0.0730 
 52 H       11.5150    -2.1660     1.0200 H     1 <1>   0.0730 
@<TRIPOS>BOND
  1   1   2  2   
  2   2   3  am  
  3   2   4  am  
  4   3   5  am  
  5   3   6  1   
  6   4   7  1   
  7   4   8  1   
  8   5   9  2   
  9   5  10  1   
 10   6  11  1   
 11   6  29  1   
 12   6  30  1   
 13   7  10  2   
 14   7  12  1   
 15   8  31  1   
 16   8  32  1   
 17   8  33  1   
 18  10  13  1   
 19  11  34  1   
 20  11  35  1   
 21  11  36  1   
 22  12  14  ar  
 23  12  37  1   
 24  13  14  ar  
 25  13  15  1   
 26  14  16  ar  
 27  15  17  1   
 28  15  38  1   
 29  15  39  1   
 30  16  18  1   
 31  16  19  1   
 32  17  19  1   
 33  17  40  1   
 34  17  41  1   
 35  18  20  ar  
 36  18  21  ar  
 37  19  42  1   
 38  19  43  1   
 39  20  22  1   
 40  20  23  ar  
 41  21  24  ar  
 42  21  44  1   
 43  22  25  1   
 44  23  26  ar  
 45  23  45  1   
 46  24  26  ar  
 47  24  46  1   
 48  25  47  1   
 49  25  48  1   
 50  25  49  1   
 51  26  27  1   
 52  27  28  1   
 53  28  50  1   
 54  28  51  1   
 55  28  52  1   
@<TRIPOS>SUBSTRUCTURE
  1 ****  12 GROUP 4 **** **** 0

# MOE 2024.06 (io_trps.svl 2023.06)
