@<TRIPOS>MOLECULE
NONAME
50 52 1 0 0 
SMALL
USER_CHARGES


@<TRIPOS>ATOM
  1 O       -6.0330     2.4470     1.3420 O.2   1 <1>  -0.5700 
  2 C       -4.8780     2.2260     1.6390 C.2   1 <1>   0.5440 
  3 N       -4.6240     2.0890     2.9610 N.am  1 <1>  -0.8000 
  4 C       -3.8290     2.1070     0.6470 C.ar  1 <1>   0.0860 
  5 C       -4.0200     1.4170    -0.5660 C.ar  1 <1>   0.1170 
  6 C       -2.5820     2.6880     0.8950 C.ar  1 <1>  -0.1500 
  7 N       -5.2630     0.8220    -0.8480 N.am  1 <1>  -0.5470 
  8 C       -2.9540     1.3230    -1.4600 C.ar  1 <1>  -0.1500 
  9 C       -1.5420     2.5890    -0.0050 C.ar  1 <1>  -0.1500 
 10 C       -5.8190     0.2590    -1.9650 C.2   1 <1>   0.5690 
 11 C       -1.7300     1.9000    -1.1890 C.ar  1 <1>  -0.1500 
 12 O       -5.2650     0.1830    -3.0350 O.2   1 <1>  -0.5700 
 13 C       -7.2340    -0.3110    -1.8390 C.3   1 <1>   0.1710 
 14 N       -7.9620     0.0770    -0.5960 N.3   1 <1>  -0.8100 
 15 C       -9.1170    -0.8210    -0.3680 C.3   1 <1>   0.1100 
 16 C       -8.4370     1.4850    -0.6580 C.3   1 <1>   0.1100 
 17 C       -9.9100    -0.4650     0.9060 C.3   1 <1>   0.2090 
 18 C       -9.2020     1.9120     0.6110 C.3   1 <1>   0.2090 
 19 N      -10.3120     0.9690     0.9410 N.pl3 1 <1>  -0.8380 
 20 C      -11.6130     1.3140     0.5760 C.ar  1 <1>   0.1000 
 21 C      -12.5350     1.7340     1.5360 C.ar  1 <1>  -0.1430 
 22 C      -12.0130     1.2480    -0.7540 C.ar  1 <1>  -0.1500 
 23 C      -13.8240     2.0720     1.1560 C.ar  1 <1>  -0.1500 
 24 C      -12.1310     1.8220     3.0010 C.3   1 <1>  -0.0970 
 25 C      -13.2990     1.5870    -1.1290 C.ar  1 <1>  -0.1500 
 26 C      -14.2080     1.9990    -0.1720 C.ar  1 <1>  -0.1500 
 27 H       -5.4040     2.1420     3.6180 H     1 <1>   0.3700 
 28 H       -3.7300     1.7740     3.3350 H     1 <1>   0.3700 
 29 H       -2.4290     3.2340     1.8100 H     1 <1>   0.1500 
 30 H       -5.9660     0.9030    -0.0940 H     1 <1>   0.3700 
 31 H       -3.0690     0.7920    -2.3850 H     1 <1>   0.1500 
 32 H       -0.5890     3.0440     0.2060 H     1 <1>   0.1500 
 33 H       -0.9240     1.8150    -1.8980 H     1 <1>   0.1500 
 34 H       -7.1330    -1.3810    -1.8660 H     1 <1>   0.0800 
 35 H       -7.8020    -0.0160    -2.7030 H     1 <1>   0.0800 
 36 H       -8.7660    -1.8330    -0.2740 H     1 <1>   0.0800 
 37 H       -9.7840    -0.7800    -1.2110 H     1 <1>   0.0800 
 38 H       -9.0840     1.6160    -1.5070 H     1 <1>   0.0800 
 39 H       -7.6010     2.1510    -0.7820 H     1 <1>   0.0800 
 40 H       -9.3010    -0.6730     1.7680 H     1 <1>   0.0800 
 41 H      -10.7900    -1.0820     0.9660 H     1 <1>   0.0800 
 42 H       -9.6020     2.9010     0.4730 H     1 <1>   0.0800 
 43 H       -8.5200     1.9470     1.4410 H     1 <1>   0.0800 
 44 H      -11.3090     0.9310    -1.4960 H     1 <1>   0.1500 
 45 H      -14.5370     2.3950     1.8930 H     1 <1>   0.1500 
 46 H      -11.8260     0.8520     3.3490 H     1 <1>   0.0800 
 47 H      -12.9440     2.1700     3.6110 H     1 <1>   0.0800 
 48 H      -11.3040     2.5000     3.1060 H     1 <1>   0.0800 
 49 H      -13.5930     1.5300    -2.1620 H     1 <1>   0.1500 
 50 H      -15.2110     2.2640    -0.4570 H     1 <1>   0.1500 
@<TRIPOS>BOND
  1   1   2  2   
  2   2   3  am  
  3   2   4  1   
  4   3  27  1   
  5   3  28  1   
  6   4   5  ar  
  7   4   6  ar  
  8   5   7  1   
  9   5   8  ar  
 10   6   9  ar  
 11   6  29  1   
 12   7  10  am  
 13   7  30  1   
 14   8  11  ar  
 15   8  31  1   
 16   9  11  ar  
 17   9  32  1   
 18  10  12  2   
 19  10  13  1   
 20  11  33  1   
 21  13  14  1   
 22  13  34  1   
 23  13  35  1   
 24  14  15  1   
 25  14  16  1   
 26  15  17  1   
 27  15  36  1   
 28  15  37  1   
 29  16  18  1   
 30  16  38  1   
 31  16  39  1   
 32  17  19  1   
 33  17  40  1   
 34  17  41  1   
 35  18  19  1   
 36  18  42  1   
 37  18  43  1   
 38  19  20  1   
 39  20  21  ar  
 40  20  22  ar  
 41  21  23  ar  
 42  21  24  1   
 43  22  25  ar  
 44  22  44  1   
 45  23  26  ar  
 46  23  45  1   
 47  24  46  1   
 48  24  47  1   
 49  24  48  1   
 50  25  26  ar  
 51  25  49  1   
 52  26  50  1   
@<TRIPOS>SUBSTRUCTURE
  1 ****  16 GROUP 4 **** **** 0

# MOE 2024.06 (io_trps.svl 2023.06)
