@<TRIPOS>MOLECULE
NONAME
41 42 1 0 0 
SMALL
USER_CHARGES


@<TRIPOS>ATOM
  1 O       -1.1240     0.4080     1.6290 O.2   1 <1>  -0.5700 
  2 C       -2.0180     0.8960     0.9640 C.2   1 <1>   0.6160 
  3 N       -1.9000     2.2280     0.7400 N.am  1 <1>  -0.8000 
  4 C       -3.1220     0.1340     0.4290 C.2   1 <1>   0.0140 
  5 C       -2.9950    -1.2320     0.1170 C.2   1 <1>   0.1770 
  6 C       -4.3600     0.7350     0.1940 C.2   1 <1>  -0.1500 
  7 O       -4.0120    -1.8750    -0.4100 O.3   1 <1>  -0.1530 
  8 N       -1.8930    -1.9650     0.3160 N.pl3 1 <1>  -0.9000 
  9 C       -5.4160     0.0250    -0.3490 C.2   1 <1>   0.0000 
 10 C       -5.2190    -1.3430    -0.6680 C.2   1 <1>   0.0770 
 11 C       -6.7000     0.5660    -0.6160 C.2   1 <1>  -0.1500 
 12 C       -6.2140    -2.1050    -1.2150 C.2   1 <1>  -0.1360 
 13 C       -7.7030    -0.1860    -1.1610 C.2   1 <1>  -0.1240 
 14 C       -7.4810    -1.5600    -1.4840 C.2   1 <1>   0.5410 
 15 C       -9.0720     0.4310    -1.4300 C.3   1 <1>  -0.0220 
 16 O       -8.3630    -2.2650    -1.9900 O.2   1 <1>  -0.5700 
 17 C      -10.0670     0.0610    -0.3230 C.3   1 <1>  -0.1600 
 18 C      -11.4410     0.6990    -0.5670 C.3   1 <1>  -0.1600 
 19 C      -12.4290     0.3210     0.5440 C.3   1 <1>  -0.1600 
 20 C      -13.8030     0.9550     0.3000 C.3   1 <1>  -0.1600 
 21 C      -14.7880     0.5760     1.4090 C.3   1 <1>  -0.2400 
 22 H       -1.0630     2.6940     1.0910 H     1 <1>   0.3700 
 23 H       -2.4250     2.7170     0.0180 H     1 <1>   0.3700 
 24 H       -4.5060     1.7700     0.4470 H     1 <1>   0.1500 
 25 H       -1.0690    -1.5620     0.7880 H     1 <1>   0.4000 
 26 H       -1.8170    -2.9590     0.0880 H     1 <1>   0.4000 
 27 H       -6.8620     1.6000    -0.3680 H     1 <1>   0.1500 
 28 H       -6.0570    -3.1380    -1.4550 H     1 <1>   0.1500 
 29 H       -9.4410     0.0890    -2.3820 H     1 <1>   0.0800 
 30 H       -8.9840     1.5020    -1.4840 H     1 <1>   0.0800 
 31 H       -9.6810     0.3880     0.6270 H     1 <1>   0.0800 
 32 H      -10.1740    -1.0110    -0.2880 H     1 <1>   0.0800 
 33 H      -11.8260     0.3640    -1.5150 H     1 <1>   0.0800 
 34 H      -11.3400     1.7700    -0.6050 H     1 <1>   0.0800 
 35 H      -12.0450     0.6530     1.4940 H     1 <1>   0.0800 
 36 H      -12.5320    -0.7500     0.5800 H     1 <1>   0.0800 
 37 H      -14.1920     0.6220    -0.6470 H     1 <1>   0.0800 
 38 H      -13.7060     2.0270     0.2640 H     1 <1>   0.0800 
 39 H      -14.9160    -0.4910     1.4500 H     1 <1>   0.0800 
 40 H      -15.7460     1.0290     1.2210 H     1 <1>   0.0800 
 41 H      -14.4300     0.9190     2.3640 H     1 <1>   0.0800 
@<TRIPOS>BOND
  1   1   2  2   
  2   2   3  am  
  3   2   4  1   
  4   3  22  1   
  5   3  23  1   
  6   4   5  2   
  7   4   6  1   
  8   5   7  1   
  9   5   8  1   
 10   6   9  2   
 11   6  24  1   
 12   7  10  1   
 13   8  25  1   
 14   8  26  1   
 15   9  10  1   
 16   9  11  1   
 17  10  12  2   
 18  11  13  2   
 19  11  27  1   
 20  12  14  1   
 21  12  28  1   
 22  13  14  1   
 23  13  15  1   
 24  14  16  2   
 25  15  17  1   
 26  15  29  1   
 27  15  30  1   
 28  17  18  1   
 29  17  31  1   
 30  17  32  1   
 31  18  19  1   
 32  18  33  1   
 33  18  34  1   
 34  19  20  1   
 35  19  35  1   
 36  19  36  1   
 37  20  21  1   
 38  20  37  1   
 39  20  38  1   
 40  21  39  1   
 41  21  40  1   
 42  21  41  1   
@<TRIPOS>SUBSTRUCTURE
  1 ****  11 GROUP 4 **** **** 0

# MOE 2024.06 (io_trps.svl 2023.06)
