@<TRIPOS>MOLECULE
NONAME
50 52 1 0 0 
SMALL
USER_CHARGES


@<TRIPOS>ATOM
  1 O       -0.3510    -0.2110     0.9380 O.2   1 <1>  -0.5700 
  2 C       -0.8310    -1.1370     0.3160 C.2   1 <1>   0.6900 
  3 N       -2.1610    -1.0950    -0.0330 N.am  1 <1>  -0.6600 
  4 N       -0.0810    -2.2260    -0.0250 N.am  1 <1>  -0.5470 
  5 C       -2.7000    -1.7750    -1.2510 C.3   1 <1>   0.1400 
  6 C       -3.0130     0.0100     0.5120 C.3   1 <1>   0.1400 
  7 C        1.3070    -2.4270     0.0060 C.ar  1 <1>   0.1170 
  8 C       -4.1860    -2.1540    -1.0850 C.3   1 <1>   0.3430 
  9 C       -4.4850    -0.4130     0.6480 C.3   1 <1>   0.3430 
 10 C        1.8210    -3.7170     0.1580 C.ar  1 <1>  -0.1440 
 11 C        2.1970    -1.3660    -0.1410 C.ar  1 <1>  -0.1500 
 12 N       -5.0280    -0.9910    -0.6350 N.4   1 <1>  -0.9590 
 13 C        3.1930    -3.9180     0.1610 C.ar  1 <1>  -0.1500 
 14 C        0.9050    -4.9230     0.3310 C.3   1 <1>  -0.0970 
 15 C        3.5630    -1.5730    -0.1350 C.ar  1 <1>  -0.1500 
 16 C       -6.4770    -1.3480    -0.5870 C.3   1 <1>   0.4230 
 17 C        4.0630    -2.8530     0.0160 C.ar  1 <1>  -0.1500 
 18 C       -7.3290    -0.0750    -0.5070 C.3   1 <1>  -0.1600 
 19 C       -6.8150    -2.3120     0.5640 C.3   1 <1>  -0.1600 
 20 C       -8.8250    -0.4210    -0.5220 C.3   1 <1>  -0.1600 
 21 C       -8.3100    -2.6650     0.5490 C.3   1 <1>  -0.1600 
 22 C       -9.1800    -1.4020     0.6040 C.3   1 <1>  -0.1600 
 23 H       -0.6170    -3.0740    -0.1510 H     1 <1>   0.3700 
 24 H       -2.1370    -2.6660    -1.4670 H     1 <1>   0.0800 
 25 H       -2.5910    -1.1140    -2.0940 H     1 <1>   0.0800 
 26 H       -2.9340     0.8680    -0.1320 H     1 <1>   0.0800 
 27 H       -2.6530     0.3030     1.4850 H     1 <1>   0.0800 
 28 H       -4.2530    -2.9490    -0.3610 H     1 <1>   0.0800 
 29 H       -4.5570    -2.5320    -2.0240 H     1 <1>   0.0800 
 30 H       -5.0660     0.4440     0.9450 H     1 <1>   0.0800 
 31 H       -4.5530    -1.1450     1.4360 H     1 <1>   0.0800 
 32 H        1.8220    -0.3660    -0.2610 H     1 <1>   0.1500 
 33 H       -4.9340    -0.2580    -1.3490 H     1 <1>   0.4500 
 34 H        3.5990    -4.9080     0.2790 H     1 <1>   0.1500 
 35 H        0.3260    -5.0790    -0.5600 H     1 <1>   0.0800 
 36 H        0.2460    -4.7690     1.1670 H     1 <1>   0.0800 
 37 H        1.4770    -5.8140     0.5200 H     1 <1>   0.0800 
 38 H        4.2350    -0.7400    -0.2460 H     1 <1>   0.1500 
 39 H       -6.7360    -1.8430    -1.5100 H     1 <1>   0.0800 
 40 H        5.1260    -3.0190     0.0210 H     1 <1>   0.1500 
 41 H       -7.1160     0.5650    -1.3450 H     1 <1>   0.0800 
 42 H       -7.1200     0.4630     0.4010 H     1 <1>   0.0800 
 43 H       -6.5930    -1.8610     1.5150 H     1 <1>   0.0800 
 44 H       -6.2520    -3.2230     0.4730 H     1 <1>   0.0800 
 45 H       -9.0890    -0.8580    -1.4710 H     1 <1>   0.0800 
 46 H       -9.4080     0.4790    -0.4070 H     1 <1>   0.0800 
 47 H       -8.5430    -3.2950     1.3920 H     1 <1>   0.0800 
 48 H       -8.5450    -3.2200    -0.3440 H     1 <1>   0.0800 
 49 H      -10.2180    -1.6790     0.5240 H     1 <1>   0.0800 
 50 H       -9.0490    -0.9170     1.5570 H     1 <1>   0.0800 
@<TRIPOS>BOND
  1   1   2  2   
  2   2   3  am  
  3   2   4  am  
  4   3   5  1   
  5   3   6  1   
  6   4   7  1   
  7   4  23  1   
  8   5   8  1   
  9   5  24  1   
 10   5  25  1   
 11   6   9  1   
 12   6  26  1   
 13   6  27  1   
 14   7  10  ar  
 15   7  11  ar  
 16   8  12  1   
 17   8  28  1   
 18   8  29  1   
 19   9  12  1   
 20   9  30  1   
 21   9  31  1   
 22  10  13  ar  
 23  10  14  1   
 24  11  15  ar  
 25  11  32  1   
 26  12  16  1   
 27  12  33  1   
 28  13  17  ar  
 29  13  34  1   
 30  14  35  1   
 31  14  36  1   
 32  14  37  1   
 33  15  17  ar  
 34  15  38  1   
 35  16  18  1   
 36  16  19  1   
 37  16  39  1   
 38  17  40  1   
 39  18  20  1   
 40  18  41  1   
 41  18  42  1   
 42  19  21  1   
 43  19  43  1   
 44  19  44  1   
 45  20  22  1   
 46  20  45  1   
 47  20  46  1   
 48  21  22  1   
 49  21  47  1   
 50  21  48  1   
 51  22  49  1   
 52  22  50  1   
@<TRIPOS>SUBSTRUCTURE
  1 ****   3 GROUP 4 **** **** 0

# MOE 2024.06 (io_trps.svl 2023.06)
