@<TRIPOS>MOLECULE
NONAME
40 43 1 0 0 
SMALL
USER_CHARGES


@<TRIPOS>ATOM
  1 O        0.2440    -0.0920     1.6560 O.2   1 <1>  -0.5700 
  2 C        0.1830     0.9050     0.9760 C.2   1 <1>   0.5690 
  3 N       -0.9940     1.3670     0.4450 N.am  1 <1>  -0.5470 
  4 C        1.4640     1.7200     0.6870 C.3   1 <1>   0.0610 
  5 C       -2.3050     0.8700     0.4960 C.ar  1 <1>   0.1170 
  6 C        2.7190     1.0700     1.3300 C.3   1 <1>  -0.1600 
  7 C        1.3310     3.1570     1.2560 C.3   1 <1>  -0.1600 
  8 C        1.7120     1.8180    -0.8420 C.3   1 <1>  -0.1600 
  9 C       -2.6110    -0.4520     0.8040 C.ar  1 <1>  -0.1500 
 10 C       -3.3540     1.7380     0.2080 C.ar  1 <1>  -0.1500 
 11 C        3.9880     1.8910     1.0360 C.3   1 <1>  -0.0800 
 12 C        2.5920     3.9900     0.9570 C.3   1 <1>  -0.0800 
 13 C        2.9740     2.6470    -1.1460 C.3   1 <1>  -0.0800 
 14 C       -3.9230    -0.8910     0.8280 C.ar  1 <1>  -0.1500 
 15 C       -4.6670     1.3030     0.2310 C.ar  1 <1>  -0.1500 
 16 C        3.8120     3.3100     1.6040 C.3   1 <1>  -0.1600 
 17 C        4.1920     1.9750    -0.4870 C.3   1 <1>  -0.1600 
 18 C        2.8020     4.0630    -0.5670 C.3   1 <1>  -0.1600 
 19 C       -4.9540    -0.0140     0.5420 C.ar  1 <1>  -0.1500 
 20 H       -0.9000     2.2480    -0.0530 H     1 <1>   0.3700 
 21 H        2.8430     0.0700     0.9510 H     1 <1>   0.0800 
 22 H        2.5810     0.9920     2.3940 H     1 <1>   0.0800 
 23 H        1.1770     3.1070     2.3200 H     1 <1>   0.0800 
 24 H        0.4770     3.6530     0.8290 H     1 <1>   0.0800 
 25 H        1.8250     0.8280    -1.2500 H     1 <1>   0.0800 
 26 H        0.8710     2.2730    -1.3320 H     1 <1>   0.0800 
 27 H       -1.8250    -1.1500     1.0240 H     1 <1>   0.1500 
 28 H       -3.1460     2.7640    -0.0320 H     1 <1>   0.1500 
 29 H        4.8410     1.4180     1.4930 H     1 <1>   0.0800 
 30 H        2.4760     4.9830     1.3570 H     1 <1>   0.0800 
 31 H        3.1250     2.7040    -2.2110 H     1 <1>   0.0800 
 32 H       -4.1390    -1.9170     1.0710 H     1 <1>   0.1500 
 33 H       -5.4670     1.9870     0.0080 H     1 <1>   0.1500 
 34 H        4.6980     3.8910     1.4120 H     1 <1>   0.0800 
 35 H        3.6800     3.2610     2.6710 H     1 <1>   0.0800 
 36 H        4.3270     0.9860    -0.8910 H     1 <1>   0.0800 
 37 H        5.0820     2.5400    -0.7040 H     1 <1>   0.0800 
 38 H        1.9600     4.5480    -1.0300 H     1 <1>   0.0800 
 39 H        3.6760     4.6520    -0.7840 H     1 <1>   0.0800 
 40 H       -5.9740    -0.3560     0.5620 H     1 <1>   0.1500 
@<TRIPOS>BOND
  1   1   2  2   
  2   2   3  am  
  3   2   4  1   
  4   3   5  1   
  5   3  20  1   
  6   4   6  1   
  7   4   7  1   
  8   4   8  1   
  9   5   9  ar  
 10   5  10  ar  
 11   6  11  1   
 12   6  21  1   
 13   6  22  1   
 14   7  12  1   
 15   7  23  1   
 16   7  24  1   
 17   8  13  1   
 18   8  25  1   
 19   8  26  1   
 20   9  14  ar  
 21   9  27  1   
 22  10  15  ar  
 23  10  28  1   
 24  11  16  1   
 25  11  17  1   
 26  11  29  1   
 27  12  16  1   
 28  12  18  1   
 29  12  30  1   
 30  13  17  1   
 31  13  18  1   
 32  13  31  1   
 33  14  19  ar  
 34  14  32  1   
 35  15  19  ar  
 36  15  33  1   
 37  16  34  1   
 38  16  35  1   
 39  17  36  1   
 40  17  37  1   
 41  18  38  1   
 42  18  39  1   
 43  19  40  1   
@<TRIPOS>SUBSTRUCTURE
  1 ****   2 GROUP 4 **** **** 0

# MOE 2024.06 (io_trps.svl 2023.06)
