@<TRIPOS>MOLECULE
NONAME
41 44 1 0 0 
SMALL
USER_CHARGES


@<TRIPOS>ATOM
  1 N        0.3650    -0.4890     0.6100 N.ar  1 <1>  -0.6200 
  2 C        1.4730    -0.9690     0.0740 C.ar  1 <1>   0.4100 
  3 C        0.3850     0.7860     1.0150 C.ar  1 <1>   0.4700 
  4 N        1.4430    -2.3000    -0.3260 N.pl3 1 <1>  -0.8380 
  5 C        2.6070    -0.1330    -0.0660 C.ar  1 <1>   0.2270 
  6 N        1.3660     1.6530     0.9490 N.ar  1 <1>  -0.5670 
  7 C        2.6520    -3.1640    -0.3210 C.3   1 <1>   0.2090 
  8 C        0.2060    -2.9490    -0.8380 C.3   1 <1>   0.2090 
  9 N        3.8730    -0.2970    -0.5880 N.2   1 <1>  -0.5650 
 10 C        2.4710     1.1530     0.3930 C.ar  1 <1>   0.1050 
 11 C        2.3670    -4.4380     0.4800 C.3   1 <1>  -0.1600 
 12 C       -0.0870    -4.2100    -0.0240 C.3   1 <1>  -0.1600 
 13 C        4.4370     0.8500    -0.4280 C.2   1 <1>   0.0360 
 14 N        3.6410     1.7760     0.1630 N.pl3 1 <1>   0.0330 
 15 C        1.1120    -5.1760    -0.0200 C.3   1 <1>  -0.0800 
 16 C        0.8420    -6.4200     0.8460 C.3   1 <1>  -0.0170 
 17 C       -0.3280    -7.2430     0.3230 C.ar  1 <1>  -0.1430 
 18 C       -1.5710    -7.1660     0.9330 C.ar  1 <1>  -0.1500 
 19 C       -0.1590    -8.0780    -0.7710 C.ar  1 <1>  -0.1500 
 20 C       -2.6330    -7.9140     0.4550 C.ar  1 <1>  -0.1500 
 21 C       -1.2200    -8.8270    -1.2500 C.ar  1 <1>  -0.1500 
 22 C       -2.4580    -8.7450    -0.6370 C.ar  1 <1>  -0.1500 
 23 H       -0.5350     1.1370     1.4530 H     1 <1>   0.1500 
 24 H        3.4820    -2.6550     0.1330 H     1 <1>   0.0800 
 25 H        2.9150    -3.4080    -1.3360 H     1 <1>   0.0800 
 26 H        0.3530    -3.2090    -1.8720 H     1 <1>   0.0800 
 27 H       -0.6330    -2.2770    -0.7830 H     1 <1>   0.0800 
 28 H        2.2410    -4.1620     1.5120 H     1 <1>   0.0800 
 29 H        3.2230    -5.0850     0.4150 H     1 <1>   0.0800 
 30 H       -0.9490    -4.6930    -0.4470 H     1 <1>   0.0800 
 31 H       -0.3310    -3.9160     0.9810 H     1 <1>   0.0800 
 32 H        5.4450     1.0810    -0.7290 H     1 <1>   0.1500 
 33 H        3.8480     2.7490     0.3950 H     1 <1>   0.2700 
 34 H        1.2910    -5.4990    -1.0310 H     1 <1>   0.0800 
 35 H        0.6490    -6.1180     1.8600 H     1 <1>   0.0800 
 36 H        1.7190    -7.0430     0.8600 H     1 <1>   0.0800 
 37 H       -1.7170    -6.5210     1.7820 H     1 <1>   0.1500 
 38 H        0.8000    -8.1470    -1.2530 H     1 <1>   0.1500 
 39 H       -3.5940    -7.8480     0.9330 H     1 <1>   0.1500 
 40 H       -1.0820    -9.4730    -2.0990 H     1 <1>   0.1500 
 41 H       -3.2830    -9.3270    -1.0090 H     1 <1>   0.1500 
@<TRIPOS>BOND
  1   1   2  ar  
  2   1   3  ar  
  3   2   4  1   
  4   2   5  ar  
  5   3   6  ar  
  6   3  23  1   
  7   4   7  1   
  8   4   8  1   
  9   5   9  1   
 10   5  10  ar  
 11   6  10  ar  
 12   7  11  1   
 13   7  24  1   
 14   7  25  1   
 15   8  12  1   
 16   8  26  1   
 17   8  27  1   
 18   9  13  2   
 19  10  14  1   
 20  11  15  1   
 21  11  28  1   
 22  11  29  1   
 23  12  15  1   
 24  12  30  1   
 25  12  31  1   
 26  13  14  1   
 27  13  32  1   
 28  14  33  1   
 29  15  16  1   
 30  15  34  1   
 31  16  17  1   
 32  16  35  1   
 33  16  36  1   
 34  17  18  ar  
 35  17  19  ar  
 36  18  20  ar  
 37  18  37  1   
 38  19  21  ar  
 39  19  38  1   
 40  20  22  ar  
 41  20  39  1   
 42  21  22  ar  
 43  21  40  1   
 44  22  41  1   
@<TRIPOS>SUBSTRUCTURE
  1 ****   4 GROUP 4 **** **** 0

# MOE 2024.06 (io_trps.svl 2023.06)
