@<TRIPOS>MOLECULE
NONAME
38 38 1 0 0 
SMALL
USER_CHARGES


@<TRIPOS>ATOM
  1 O       -0.0520     0.4660     1.4900 O.2   1 <1>  -0.5700 
  2 C        0.0880     1.5510     0.9790 C.2   1 <1>   0.5690 
  3 N        1.2790     2.1960     1.0070 N.am  1 <1>  -0.7300 
  4 C       -1.1040     2.2140     0.2860 C.3   1 <1>  -0.0190 
  5 C        2.5130     1.6450     1.5820 C.3   1 <1>   0.2840 
  6 C       -0.7680     2.5340    -1.1930 C.3   1 <1>  -0.1600 
  7 C       -1.5480     3.4500     1.1060 C.3   1 <1>  -0.1600 
  8 C        3.6850     2.3550     0.9310 C.ar  1 <1>  -0.1440 
  9 C       -1.9540     2.3380    -2.1490 C.3   1 <1>  -0.2400 
 10 C       -2.8250     4.1340     0.6030 C.3   1 <1>  -0.2400 
 11 C        4.1800     1.9120    -0.2860 C.ar  1 <1>  -0.1500 
 12 C        4.2660     3.4570     1.5410 C.ar  1 <1>  -0.1500 
 13 C        5.2450     2.5580    -0.8900 C.ar  1 <1>  -0.1500 
 14 C        5.3300     4.1060     0.9390 C.ar  1 <1>  -0.1500 
 15 C        5.8280     3.6640    -0.2760 C.ar  1 <1>   0.0820 
 16 O        6.8720     4.3550    -0.7960 O.3   1 <1>  -0.3620 
 17 C        7.4650     3.9770    -2.0180 C.3   1 <1>   0.0400 
 18 H        1.3930     3.0950     0.5390 H     1 <1>   0.3700 
 19 H       -1.9030     1.4930     0.3070 H     1 <1>   0.0800 
 20 H        2.5620     0.5850     1.3970 H     1 <1>   0.0800 
 21 H        2.5150     1.8060     2.6470 H     1 <1>   0.0800 
 22 H        0.0130     1.8700    -1.5230 H     1 <1>   0.0800 
 23 H       -0.3900     3.5380    -1.2780 H     1 <1>   0.0800 
 24 H       -0.7530     4.1750     1.1320 H     1 <1>   0.0800 
 25 H       -1.7200     3.1300     2.1210 H     1 <1>   0.0800 
 26 H       -2.3000     1.3200    -2.1090 H     1 <1>   0.0800 
 27 H       -1.6470     2.5490    -3.1580 H     1 <1>   0.0800 
 28 H       -2.7740     2.9860    -1.9060 H     1 <1>   0.0800 
 29 H       -2.6490     4.6250    -0.3370 H     1 <1>   0.0800 
 30 H       -3.1420     4.8780     1.3110 H     1 <1>   0.0800 
 31 H       -3.6180     3.4160     0.4860 H     1 <1>   0.0800 
 32 H        3.7330     1.0600    -0.7690 H     1 <1>   0.1500 
 33 H        3.8930     3.8170     2.4840 H     1 <1>   0.1500 
 34 H        5.6050     2.1900    -1.8310 H     1 <1>   0.1500 
 35 H        5.7830     4.9600     1.4080 H     1 <1>   0.1500 
 36 H        8.2690     4.6610    -2.2240 H     1 <1>   0.0800 
 37 H        6.7270     4.0360    -2.7980 H     1 <1>   0.0800 
 38 H        7.8510     2.9780    -1.9250 H     1 <1>   0.0800 
@<TRIPOS>BOND
  1   1   2  2   
  2   2   3  am  
  3   2   4  1   
  4   3   5  1   
  5   3  18  1   
  6   4   6  1   
  7   4   7  1   
  8   4  19  1   
  9   5   8  1   
 10   5  20  1   
 11   5  21  1   
 12   6   9  1   
 13   6  22  1   
 14   6  23  1   
 15   7  10  1   
 16   7  24  1   
 17   7  25  1   
 18   8  11  ar  
 19   8  12  ar  
 20   9  26  1   
 21   9  27  1   
 22   9  28  1   
 23  10  29  1   
 24  10  30  1   
 25  10  31  1   
 26  11  13  ar  
 27  11  32  1   
 28  12  14  ar  
 29  12  33  1   
 30  13  15  ar  
 31  13  34  1   
 32  14  15  ar  
 33  14  35  1   
 34  15  16  1   
 35  16  17  1   
 36  17  36  1   
 37  17  37  1   
 38  17  38  1   
@<TRIPOS>SUBSTRUCTURE
  1 ****   3 GROUP 4 **** **** 0

# MOE 2024.06 (io_trps.svl 2023.06)
