@<TRIPOS>MOLECULE
NONAME
38 40 1 0 0 
SMALL
USER_CHARGES


@<TRIPOS>ATOM
  1 CL       1.4930     3.6370    -1.5600 Cl    1 <1>  -0.1770 
  2 C        2.0230     2.3540    -0.4900 C.ar  1 <1>   0.1770 
  3 C        1.2290     1.8440     0.5420 C.ar  1 <1>   0.0830 
  4 C        3.3020     1.8740    -0.7000 C.ar  1 <1>  -0.1500 
  5 O       -0.0410     2.2230     0.8380 O.3   1 <1>  -0.3630 
  6 C        1.7690     0.8640     1.3590 C.ar  1 <1>  -0.1500 
  7 C        3.8430     0.8830     0.1110 C.ar  1 <1>  -0.0090 
  8 C       -0.9720     2.5320    -0.1750 C.3   1 <1>   0.0400 
  9 C        3.0530     0.3900     1.1440 C.ar  1 <1>  -0.1500 
 10 S        5.5210     0.2620    -0.1790 S.o2  1 <1>   1.4470 
 11 O        5.6120    -0.2730    -1.5180 O.2   1 <1>  -0.6500 
 12 O        5.9650    -0.5150     0.9550 O.2   1 <1>  -0.6500 
 13 N        6.4470     1.6580    -0.1210 N.am  1 <1>  -0.9140 
 14 C        7.6520     1.6010    -0.9220 C.3   1 <1>   0.2760 
 15 C        8.7280     0.6330    -0.3760 C.3   1 <1>  -0.0800 
 16 C        8.3730     2.9580    -0.8920 C.3   1 <1>  -0.1600 
 17 C        9.9840     1.2270    -0.9960 C.3   1 <1>  -0.1600 
 18 C        9.0130     0.8890     1.1190 C.3   1 <1>  -0.1600 
 19 C        9.7820     2.6050    -0.3870 C.3   1 <1>  -0.0800 
 20 C        9.6910     2.2690     1.1110 C.3   1 <1>  -0.1600 
 21 H        3.8910     2.2820    -1.5040 H     1 <1>   0.1500 
 22 H        1.1740     0.4700     2.1640 H     1 <1>   0.1500 
 23 H       -1.9570     2.3410     0.2090 H     1 <1>   0.0800 
 24 H       -0.7870     1.9100    -1.0340 H     1 <1>   0.0800 
 25 H       -0.8810     3.5740    -0.4260 H     1 <1>   0.0800 
 26 H        3.4470    -0.3760     1.7920 H     1 <1>   0.1500 
 27 H        6.7640     1.7040     0.8430 H     1 <1>   0.4200 
 28 H        7.4140     1.3550    -1.9460 H     1 <1>   0.0800 
 29 H        8.5550    -0.3980    -0.6300 H     1 <1>   0.0800 
 30 H        7.8870     3.6800    -0.2600 H     1 <1>   0.0800 
 31 H        8.4340     3.3520    -1.8910 H     1 <1>   0.0800 
 32 H        9.9570     1.2370    -2.0740 H     1 <1>   0.0800 
 33 H       10.8870     0.7480    -0.6560 H     1 <1>   0.0800 
 34 H        9.7020     0.1460     1.4850 H     1 <1>   0.0800 
 35 H        8.1360     0.8630     1.7400 H     1 <1>   0.0800 
 36 H       10.5360     3.3350    -0.6310 H     1 <1>   0.0800 
 37 H       10.6770     2.2010     1.5400 H     1 <1>   0.0800 
 38 H        9.1220     3.0050     1.6530 H     1 <1>   0.0800 
@<TRIPOS>BOND
  1   1   2  1   
  2   2   3  ar  
  3   2   4  ar  
  4   3   5  1   
  5   3   6  ar  
  6   4   7  ar  
  7   4  21  1   
  8   5   8  1   
  9   6   9  ar  
 10   6  22  1   
 11   7   9  ar  
 12   7  10  1   
 13   8  23  1   
 14   8  24  1   
 15   8  25  1   
 16   9  26  1   
 17  10  11  2   
 18  10  12  2   
 19  10  13  am  
 20  13  14  1   
 21  13  27  1   
 22  14  15  1   
 23  14  16  1   
 24  14  28  1   
 25  15  17  1   
 26  15  18  1   
 27  15  29  1   
 28  16  19  1   
 29  16  30  1   
 30  16  31  1   
 31  17  19  1   
 32  17  32  1   
 33  17  33  1   
 34  18  20  1   
 35  18  34  1   
 36  18  35  1   
 37  19  20  1   
 38  19  36  1   
 39  20  37  1   
 40  20  38  1   
@<TRIPOS>SUBSTRUCTURE
  1 ****  10 GROUP 4 **** **** 0

# MOE 2024.06 (io_trps.svl 2023.06)
