@<TRIPOS>MOLECULE
NONAME
29 30 1 0 0 
SMALL
USER_CHARGES


@<TRIPOS>ATOM
  1 CL      -1.5020     0.7190     1.7250 Cl    1 <1>  -0.1770 
  2 C       -0.7370     2.0290     0.8600 C.ar  1 <1>   0.1770 
  3 C       -1.2960     2.4770    -0.3250 C.ar  1 <1>  -0.1440 
  4 C        0.4070     2.6020     1.3870 C.ar  1 <1>  -0.1500 
  5 C       -0.6770     3.5340    -0.9710 C.ar  1 <1>   0.1770 
  6 C       -2.5370     1.8230    -0.8950 C.3   1 <1>   0.4870 
  7 C        1.0140     3.6540     0.7200 C.ar  1 <1>  -0.1500 
  8 CL      -1.3600     4.1560    -2.4520 Cl    1 <1>  -0.1770 
  9 C        0.4680     4.1240    -0.4650 C.ar  1 <1>  -0.1500 
 10 N       -3.7250     2.2340    -0.0980 N.4   1 <1>  -0.9590 
 11 C       -4.9370     1.4230    -0.4600 C.3   1 <1>   0.3430 
 12 C       -4.0120     3.7070    -0.2290 C.3   1 <1>   0.3430 
 13 C       -6.1890     1.9190     0.2890 C.3   1 <1>   0.1200 
 14 C       -5.3100     4.0970     0.5030 C.3   1 <1>   0.1200 
 15 O       -6.3680     3.2880     0.0760 O.3   1 <1>  -0.5600 
 16 H        0.8210     2.2290     2.3090 H     1 <1>   0.1500 
 17 H       -2.4180     0.7520    -0.8490 H     1 <1>   0.0800 
 18 H       -2.6690     2.1000    -1.9280 H     1 <1>   0.0800 
 19 H        1.9070     4.1060     1.1210 H     1 <1>   0.1500 
 20 H        0.9300     4.9420    -0.9920 H     1 <1>   0.1500 
 21 H       -3.5040     2.0420     0.8900 H     1 <1>   0.4500 
 22 H       -4.7720     0.3840    -0.2270 H     1 <1>   0.0800 
 23 H       -5.1270     1.5010    -1.5180 H     1 <1>   0.0800 
 24 H       -4.1190     3.9670    -1.2690 H     1 <1>   0.0800 
 25 H       -3.1930     4.2820     0.1710 H     1 <1>   0.0800 
 26 H       -6.1090     1.7380     1.3480 H     1 <1>   0.0800 
 27 H       -7.0660     1.4140    -0.0780 H     1 <1>   0.0800 
 28 H       -5.5690     5.1180     0.2810 H     1 <1>   0.0800 
 29 H       -5.2040     3.9950     1.5700 H     1 <1>   0.0800 
@<TRIPOS>BOND
  1   1   2  1   
  2   2   3  ar  
  3   2   4  ar  
  4   3   5  ar  
  5   3   6  1   
  6   4   7  ar  
  7   4  16  1   
  8   5   8  1   
  9   5   9  ar  
 10   6  10  1   
 11   6  17  1   
 12   6  18  1   
 13   7   9  ar  
 14   7  19  1   
 15   9  20  1   
 16  10  11  1   
 17  10  12  1   
 18  10  21  1   
 19  11  13  1   
 20  11  22  1   
 21  11  23  1   
 22  12  14  1   
 23  12  24  1   
 24  12  25  1   
 25  13  15  1   
 26  13  26  1   
 27  13  27  1   
 28  14  15  1   
 29  14  28  1   
 30  14  29  1   
@<TRIPOS>SUBSTRUCTURE
  1 ****   3 GROUP 4 **** **** 0

# MOE 2024.06 (io_trps.svl 2023.06)
