@<TRIPOS>MOLECULE
Structure2385
30 31 1 0 0 
SMALL
USER_CHARGES


@<TRIPOS>ATOM
  1 O        0.9850     0.1780    -0.6440 O.co2 1 <1>  -0.9000 
  2 C        1.8770    -0.2040     0.1100 C.2   1 <1>   0.9060 
  3 O        1.9980     0.1550     1.2920 O.co2 1 <1>  -0.9000 
  4 C        2.9730    -1.1350    -0.4120 C.3   1 <1>   0.2370 
  5 N        4.1900    -1.0840     0.4900 N.4   1 <1>  -0.9590 
  6 C        4.9890     0.1640     0.2360 C.3   1 <1>   0.3430 
  7 C        5.0120    -2.3380     0.5200 C.3   1 <1>   0.3430 
  8 C        6.2170     0.2730     1.1650 C.3   1 <1>   0.2090 
  9 C        6.2210    -2.2020     1.4690 C.3   1 <1>   0.2090 
 10 N        7.0220    -0.9890     1.1150 N.pl3 1 <1>  -0.8380 
 11 C        8.0940    -1.0760     0.2560 C.ar  1 <1>   0.7200 
 12 N        8.8870    -0.0110     0.1830 N.ar  1 <1>  -0.6200 
 13 N        8.2210    -2.2040    -0.4410 N.ar  1 <1>  -0.6200 
 14 C        9.9130    -0.1070    -0.6270 C.ar  1 <1>   0.1600 
 15 C        9.2560    -2.2710    -1.2440 C.ar  1 <1>   0.1600 
 16 C       10.1480    -1.2350    -1.3740 C.ar  1 <1>  -0.1500 
 17 H        3.2230    -0.8450    -1.4160 H     1 <1>   0.0800 
 18 H        2.5620    -2.1270    -0.4280 H     1 <1>   0.0800 
 19 H        3.7340    -0.9100     1.4130 H     1 <1>   0.4500 
 20 H        4.3600     1.0290     0.3780 H     1 <1>   0.0800 
 21 H        5.3350     0.1680    -0.7840 H     1 <1>   0.0800 
 22 H        5.3850    -2.5480    -0.4690 H     1 <1>   0.0800 
 23 H        4.4020    -3.1680     0.8330 H     1 <1>   0.0800 
 24 H        5.8880     0.4460     2.1750 H     1 <1>   0.0800 
 25 H        6.8080     1.1220     0.8710 H     1 <1>   0.0800 
 26 H        6.8290    -3.0890     1.4150 H     1 <1>   0.0800 
 27 H        5.8740    -2.1140     2.4840 H     1 <1>   0.0800 
 28 H       10.5840     0.7330    -0.6960 H     1 <1>   0.1500 
 29 H        9.4000    -3.1740    -1.8140 H     1 <1>   0.1500 
 30 H       10.9940    -1.3030    -2.0330 H     1 <1>   0.1500 
@<TRIPOS>BOND
  1   1   2  ar  
  2   2   3  ar  
  3   2   4  1   
  4   4   5  1   
  5   4  17  1   
  6   4  18  1   
  7   5   6  1   
  8   5   7  1   
  9   5  19  1   
 10   6   8  1   
 11   6  20  1   
 12   6  21  1   
 13   7   9  1   
 14   7  22  1   
 15   7  23  1   
 16   8  10  1   
 17   8  24  1   
 18   8  25  1   
 19   9  10  1   
 20   9  26  1   
 21   9  27  1   
 22  10  11  1   
 23  11  12  ar  
 24  11  13  ar  
 25  12  14  ar  
 26  13  15  ar  
 27  14  16  ar  
 28  14  28  1   
 29  15  16  ar  
 30  15  29  1   
 31  16  30  1   
@<TRIPOS>SUBSTRUCTURE
  1 ****  10 GROUP 4 **** **** 0

# MOE 2024.06 (io_trps.svl 2023.06)
