@<TRIPOS>MOLECULE
NONAME
40 41 1 0 0 
SMALL
USER_CHARGES


@<TRIPOS>ATOM
  1 O       -0.5050     0.5970    -0.2550 O.3   1 <1>  -0.3630 
  2 C       -0.1740     1.9070    -0.3720 C.ar  1 <1>   0.0830 
  3 C        0.0370    -0.2100     0.7660 C.3   1 <1>   0.2580 
  4 C       -1.0620     2.7400    -1.0500 C.ar  1 <1>  -0.1440 
  5 C        0.9970     2.4330     0.1650 C.ar  1 <1>  -0.1500 
  6 C       -0.9250    -1.3660     0.9580 C.2   1 <1>  -0.2880 
  7 C       -0.7770     4.0920    -1.1700 C.ar  1 <1>  -0.1500 
  8 C       -2.3370     2.1800    -1.6580 C.3   1 <1>   0.4870 
  9 C        1.2700     3.7830     0.0400 C.ar  1 <1>  -0.1500 
 10 C       -1.6290    -1.6150     2.0670 C.2   1 <1>  -0.3000 
 11 C        0.3830     4.6110    -0.6240 C.ar  1 <1>  -0.1500 
 12 N       -3.1110     1.4690    -0.6070 N.4   1 <1>  -0.9590 
 13 C       -4.1980     0.6240    -1.1700 C.3   1 <1>   0.3430 
 14 C       -3.5640     2.3810     0.4810 C.3   1 <1>   0.3430 
 15 C       -4.8040    -0.2270    -0.0580 C.3   1 <1>  -0.1600 
 16 C       -4.1620     1.5550     1.6170 C.3   1 <1>  -0.1600 
 17 C       -5.2810     0.6610     1.0890 C.3   1 <1>   0.2000 
 18 O       -5.7170    -0.1430     2.1120 O.3   1 <1>  -0.6800 
 19 H        0.1150     0.3690     1.6700 H     1 <1>   0.0800 
 20 H        1.0100    -0.5530     0.4580 H     1 <1>   0.0800 
 21 H        1.7100     1.8110     0.6750 H     1 <1>   0.1500 
 22 H       -0.9820    -1.9930     0.0830 H     1 <1>   0.1500 
 23 H       -1.4460     4.7570    -1.6910 H     1 <1>   0.1500 
 24 H       -2.0690     1.4920    -2.4440 H     1 <1>   0.0800 
 25 H       -2.9270     2.9750    -2.0840 H     1 <1>   0.0800 
 26 H        2.1760     4.1910     0.4560 H     1 <1>   0.1500 
 27 H       -2.2970    -2.4530     2.1770 H     1 <1>   0.1500 
 28 H       -1.5900    -1.0180     2.9630 H     1 <1>   0.1500 
 29 H        0.6040     5.6620    -0.7200 H     1 <1>   0.1500 
 30 H       -2.4030     0.8370    -0.1890 H     1 <1>   0.4500 
 31 H       -3.8050    -0.0200    -1.9410 H     1 <1>   0.0800 
 32 H       -4.9610     1.2510    -1.6040 H     1 <1>   0.0800 
 33 H       -4.3050     3.0660     0.1000 H     1 <1>   0.0800 
 34 H       -2.7310     2.9550     0.8560 H     1 <1>   0.0800 
 35 H       -4.0680    -0.9310     0.2880 H     1 <1>   0.0800 
 36 H       -5.6400    -0.7760    -0.4540 H     1 <1>   0.0800 
 37 H       -4.5590     2.2220     2.3620 H     1 <1>   0.0800 
 38 H       -3.3840     0.9650     2.0670 H     1 <1>   0.0800 
 39 H       -6.1200     1.2610     0.7730 H     1 <1>   0.0800 
 40 H       -5.0050    -0.7200     2.4470 H     1 <1>   0.4000 
@<TRIPOS>BOND
  1   1   2  1   
  2   1   3  1   
  3   2   4  ar  
  4   2   5  ar  
  5   3   6  1   
  6   3  19  1   
  7   3  20  1   
  8   4   7  ar  
  9   4   8  1   
 10   5   9  ar  
 11   5  21  1   
 12   6  10  2   
 13   6  22  1   
 14   7  11  ar  
 15   7  23  1   
 16   8  12  1   
 17   8  24  1   
 18   8  25  1   
 19   9  11  ar  
 20   9  26  1   
 21  10  27  1   
 22  10  28  1   
 23  11  29  1   
 24  12  13  1   
 25  12  14  1   
 26  12  30  1   
 27  13  15  1   
 28  13  31  1   
 29  13  32  1   
 30  14  16  1   
 31  14  33  1   
 32  14  34  1   
 33  15  17  1   
 34  15  35  1   
 35  15  36  1   
 36  16  17  1   
 37  16  37  1   
 38  16  38  1   
 39  17  18  1   
 40  17  39  1   
 41  18  40  1   
@<TRIPOS>SUBSTRUCTURE
  1 ****  12 GROUP 4 **** **** 0

# MOE 2024.06 (io_trps.svl 2023.06)
