@<TRIPOS>MOLECULE
NONAME
55 56 1 0 0 
SMALL
USER_CHARGES


@<TRIPOS>ATOM
  1 CL       1.8760    -3.1170     3.4790 Cl    1 <1>  -0.1770 
  2 C        2.8630    -2.8920     2.0580 C.ar  1 <1>   0.1770 
  3 C        3.9090    -3.7610     1.8140 C.ar  1 <1>  -0.1500 
  4 C        2.5840    -1.8480     1.1970 C.ar  1 <1>  -0.1500 
  5 C        4.6930    -3.5780     0.6880 C.ar  1 <1>  -0.1500 
  6 C        3.3720    -1.6700     0.0710 C.ar  1 <1>  -0.1500 
  7 C        4.4330    -2.5290    -0.1860 C.ar  1 <1>  -0.1430 
  8 C        5.3040    -2.3290    -1.4190 C.3   1 <1>   0.3390 
  9 N        6.5170    -1.5670    -1.0650 N.am  1 <1>  -0.6930 
 10 S        6.3810     0.1530    -0.9450 S.o2  1 <1>   1.3330 
 11 C        7.7340    -2.2140    -0.9720 C.ar  1 <1>   0.1990 
 12 O        7.6150     0.7210    -1.4290 O.2   1 <1>  -0.6500 
 13 O        5.1180     0.5320    -1.5310 O.2   1 <1>  -0.6500 
 14 C        6.2920     0.3870     0.8170 C.3   1 <1>  -0.1350 
 15 C        8.1140    -2.8510     0.2030 C.ar  1 <1>  -0.1500 
 16 C        8.6050    -2.2480    -2.0530 C.ar  1 <1>  -0.1500 
 17 C        9.3260    -3.5060     0.2900 C.ar  1 <1>  -0.1500 
 18 C        9.8160    -2.9060    -1.9630 C.ar  1 <1>  -0.1500 
 19 C       10.2130    -3.5460    -0.7880 C.ar  1 <1>   0.0860 
 20 C       11.4860    -4.2320    -0.7020 C.2   1 <1>   0.5440 
 21 O       11.8360    -4.9490    -1.6210 O.2   1 <1>  -0.5700 
 22 N       12.3090    -4.0940     0.4000 N.am  1 <1>  -0.6600 
 23 C       12.9770    -5.2640     1.0380 C.3   1 <1>   0.2200 
 24 C       12.8500    -2.7740     0.8360 C.3   1 <1>   0.2200 
 25 C       14.2370    -5.6560     0.2640 C.3   1 <1>  -0.2400 
 26 C       12.0120    -6.4430     1.1780 C.3   1 <1>  -0.2400 
 27 C       11.9900    -2.1930     1.9560 C.3   1 <1>  -0.2400 
 28 C       12.9890    -1.7920    -0.3290 C.3   1 <1>  -0.2400 
 29 H        4.1020    -4.5690     2.4980 H     1 <1>   0.1500 
 30 H        1.7620    -1.1870     1.4050 H     1 <1>   0.1500 
 31 H        5.5060    -4.2570     0.4920 H     1 <1>   0.1500 
 32 H        3.1520    -0.8580    -0.6020 H     1 <1>   0.1500 
 33 H        4.7560    -1.8140    -2.1900 H     1 <1>   0.0800 
 34 H        5.5900    -3.2890    -1.8150 H     1 <1>   0.0800 
 35 H        6.1930     1.4300     1.0420 H     1 <1>   0.0800 
 36 H        5.4480    -0.1350     1.2210 H     1 <1>   0.0800 
 37 H        7.1840     0.0180     1.2820 H     1 <1>   0.0800 
 38 H        7.4510    -2.8260     1.0490 H     1 <1>   0.1500 
 39 H        8.3260    -1.7490    -2.9640 H     1 <1>   0.1500 
 40 H        9.6060    -4.0000     1.2040 H     1 <1>   0.1500 
 41 H       10.4790    -2.9320    -2.8120 H     1 <1>   0.1500 
 42 H       13.2720    -4.9780     2.0340 H     1 <1>   0.0800 
 43 H       13.8410    -2.9330     1.2300 H     1 <1>   0.0800 
 44 H       13.9830    -6.0050    -0.7210 H     1 <1>   0.0800 
 45 H       14.7510    -6.4470     0.7780 H     1 <1>   0.0800 
 46 H       14.9020    -4.8170     0.1770 H     1 <1>   0.0800 
 47 H       11.7390    -6.8330     0.2130 H     1 <1>   0.0800 
 48 H       11.1280    -6.1380     1.7050 H     1 <1>   0.0800 
 49 H       12.4830    -7.2320     1.7340 H     1 <1>   0.0800 
 50 H       11.0310    -1.8850     1.5830 H     1 <1>   0.0800 
 51 H       12.4760    -1.3290     2.3710 H     1 <1>   0.0800 
 52 H       11.8570    -2.9160     2.7400 H     1 <1>   0.0800 
 53 H       12.0300    -1.4750    -0.6940 H     1 <1>   0.0800 
 54 H       13.5470    -2.2450    -1.1290 H     1 <1>   0.0800 
 55 H       13.5230    -0.9180    -0.0010 H     1 <1>   0.0800 
@<TRIPOS>BOND
  1   1   2  1   
  2   2   3  ar  
  3   2   4  ar  
  4   3   5  ar  
  5   3  29  1   
  6   4   6  ar  
  7   4  30  1   
  8   5   7  ar  
  9   5  31  1   
 10   6   7  ar  
 11   6  32  1   
 12   7   8  1   
 13   8   9  1   
 14   8  33  1   
 15   8  34  1   
 16   9  10  am  
 17   9  11  1   
 18  10  12  2   
 19  10  13  2   
 20  10  14  1   
 21  11  15  ar  
 22  11  16  ar  
 23  14  35  1   
 24  14  36  1   
 25  14  37  1   
 26  15  17  ar  
 27  15  38  1   
 28  16  18  ar  
 29  16  39  1   
 30  17  19  ar  
 31  17  40  1   
 32  18  19  ar  
 33  18  41  1   
 34  19  20  1   
 35  20  21  2   
 36  20  22  am  
 37  22  23  1   
 38  22  24  1   
 39  23  25  1   
 40  23  26  1   
 41  23  42  1   
 42  24  27  1   
 43  24  28  1   
 44  24  43  1   
 45  25  44  1   
 46  25  45  1   
 47  25  46  1   
 48  26  47  1   
 49  26  48  1   
 50  26  49  1   
 51  27  50  1   
 52  27  51  1   
 53  27  52  1   
 54  28  53  1   
 55  28  54  1   
 56  28  55  1   
@<TRIPOS>SUBSTRUCTURE
  1 ****  15 GROUP 4 **** **** 0

# MOE 2024.06 (io_trps.svl 2023.06)
