@<TRIPOS>MOLECULE
NONAME
49 50 1 0 0 
SMALL
USER_CHARGES


@<TRIPOS>ATOM
  1 O       -2.2580     1.5980    -2.2610 O.2   1 <1>  -0.5700 
  2 C       -1.8590     1.7650    -1.1350 C.2   1 <1>   0.6590 
  3 O       -1.5380     0.7380    -0.3520 O.3   1 <1>  -0.4300 
  4 C       -1.6810     3.1830    -0.5500 C.3   1 <1>   0.2510 
  5 C       -1.6260    -0.5920    -0.8020 C.3   1 <1>   0.1200 
  6 N       -0.2750     3.5370    -0.1740 N.3   1 <1>  -0.8100 
  7 C       -2.6010     3.3620     0.6720 C.3   1 <1>  -0.1600 
  8 C       -1.1510    -1.5030     0.3250 C.3   1 <1>  -0.2400 
  9 C       -0.1630     4.9160     0.3320 C.3   1 <1>   0.1100 
 10 C        0.6660     3.3070    -1.2930 C.3   1 <1>   0.2530 
 11 C       -2.5120     4.7750     1.2590 C.3   1 <1>  -0.1600 
 12 C       -1.0490     5.1090     1.5640 C.3   1 <1>  -0.1600 
 13 C        2.1220     3.4610    -0.8590 C.ar  1 <1>  -0.1430 
 14 C        2.7380     2.5530    -0.0020 C.ar  1 <1>  -0.1430 
 15 C        2.8490     4.5400    -1.3430 C.ar  1 <1>  -0.1500 
 16 C        4.0640     2.7420     0.3540 C.ar  1 <1>  -0.1500 
 17 C        1.9830     1.3560     0.5600 C.3   1 <1>  -0.0970 
 18 C        4.1740     4.7300    -0.9900 C.ar  1 <1>  -0.1430 
 19 C        4.7900     3.8250    -0.1340 C.ar  1 <1>   0.0830 
 20 C        4.9420     5.9240    -1.5390 C.3   1 <1>  -0.0970 
 21 O        6.0930     4.0490     0.1900 O.3   1 <1>  -0.3630 
 22 C        6.7930     3.2000     1.0710 C.3   1 <1>   0.0400 
 23 H       -2.0040     3.8710    -1.3120 H     1 <1>   0.0800 
 24 H       -1.0030    -0.6990    -1.6740 H     1 <1>   0.0800 
 25 H       -2.6510    -0.7970    -1.0610 H     1 <1>   0.0800 
 26 H       -2.3220     2.6440     1.4240 H     1 <1>   0.0800 
 27 H       -3.6180     3.1590     0.3850 H     1 <1>   0.0800 
 28 H       -0.1310    -1.2750     0.5800 H     1 <1>   0.0800 
 29 H       -1.2050    -2.5290     0.0110 H     1 <1>   0.0800 
 30 H       -1.7750    -1.3760     1.1920 H     1 <1>   0.0800 
 31 H       -0.4470     5.6140    -0.4390 H     1 <1>   0.0800 
 32 H        0.8560     5.1200     0.6150 H     1 <1>   0.0800 
 33 H        0.4440     3.9890    -2.0960 H     1 <1>   0.0800 
 34 H        0.5490     2.3100    -1.6790 H     1 <1>   0.0800 
 35 H       -3.0980     4.8370     2.1600 H     1 <1>   0.0800 
 36 H       -2.9040     5.4860     0.5520 H     1 <1>   0.0800 
 37 H       -0.9720     6.1270     1.9010 H     1 <1>   0.0800 
 38 H       -0.6850     4.4730     2.3520 H     1 <1>   0.0800 
 39 H        2.3750     5.2420    -2.0050 H     1 <1>   0.1500 
 40 H        4.5220     2.0340     1.0160 H     1 <1>   0.1500 
 41 H        1.5780     0.7620    -0.2380 H     1 <1>   0.0800 
 42 H        1.1740     1.6940     1.1830 H     1 <1>   0.0800 
 43 H        2.6260     0.7320     1.1520 H     1 <1>   0.0800 
 44 H        4.3260     6.5220    -2.1840 H     1 <1>   0.0800 
 45 H        5.7950     5.5800    -2.0970 H     1 <1>   0.0800 
 46 H        5.2870     6.5370    -0.7260 H     1 <1>   0.0800 
 47 H        7.7910     3.5830     1.1800 H     1 <1>   0.0800 
 48 H        6.8240     2.2110     0.6510 H     1 <1>   0.0800 
 49 H        6.2940     3.2010     2.0240 H     1 <1>   0.0800 
@<TRIPOS>BOND
  1   1   2  2   
  2   2   3  1   
  3   2   4  1   
  4   3   5  1   
  5   4   6  1   
  6   4   7  1   
  7   4  23  1   
  8   5   8  1   
  9   5  24  1   
 10   5  25  1   
 11   6   9  1   
 12   6  10  1   
 13   7  11  1   
 14   7  26  1   
 15   7  27  1   
 16   8  28  1   
 17   8  29  1   
 18   8  30  1   
 19   9  12  1   
 20   9  31  1   
 21   9  32  1   
 22  10  13  1   
 23  10  33  1   
 24  10  34  1   
 25  11  12  1   
 26  11  35  1   
 27  11  36  1   
 28  12  37  1   
 29  12  38  1   
 30  13  14  ar  
 31  13  15  ar  
 32  14  16  ar  
 33  14  17  1   
 34  15  18  ar  
 35  15  39  1   
 36  16  19  ar  
 37  16  40  1   
 38  17  41  1   
 39  17  42  1   
 40  17  43  1   
 41  18  19  ar  
 42  18  20  1   
 43  19  21  1   
 44  20  44  1   
 45  20  45  1   
 46  20  46  1   
 47  21  22  1   
 48  22  47  1   
 49  22  48  1   
 50  22  49  1   
@<TRIPOS>SUBSTRUCTURE
  1 ****  10 GROUP 4 **** **** 0

# MOE 2024.06 (io_trps.svl 2023.06)
