@<TRIPOS>MOLECULE
NONAME
50 52 1 0 0 
SMALL
USER_CHARGES


@<TRIPOS>ATOM
  1 BR       0.6430     0.5100     0.9320 Br    1 <1>  -0.1110 
  2 C        0.0140    -1.2020     0.3040 C.ar  1 <1>   0.1110 
  3 C        0.6730    -1.8540    -0.7280 C.ar  1 <1>   0.0820 
  4 C       -1.1080    -1.7370     0.9090 C.ar  1 <1>  -0.1500 
  5 O        1.7550    -1.3210    -1.3330 O.3   1 <1>  -0.3630 
  6 C        0.1840    -3.0750    -1.1630 C.ar  1 <1>  -0.1500 
  7 C       -1.5980    -2.9590     0.4630 C.ar  1 <1>  -0.1430 
  8 C        3.0020    -1.5840    -0.7320 C.3   1 <1>   0.0400 
  9 C       -0.9420    -3.6250    -0.5680 C.ar  1 <1>  -0.1500 
 10 C       -2.8460    -3.5520     1.0900 C.3   1 <1>   0.4870 
 11 N       -3.9860    -3.3600     0.1550 N.4   1 <1>  -0.9590 
 12 C       -4.2730    -1.8970    -0.0970 C.3   1 <1>   0.3430 
 13 C       -5.2250    -4.0780     0.6300 C.3   1 <1>   0.3430 
 14 C       -5.4570    -1.6710    -1.0610 C.3   1 <1>   0.2090 
 15 C       -6.4110    -3.9210    -0.3450 C.3   1 <1>   0.2090 
 16 N       -6.6470    -2.4890    -0.6830 N.pl3 1 <1>  -0.8380 
 17 C       -7.7380    -1.8640    -0.0780 C.ar  1 <1>   0.1000 
 18 C       -9.0120    -1.8970    -0.6560 C.ar  1 <1>  -0.1430 
 19 C       -7.5620    -1.2130     1.1390 C.ar  1 <1>  -0.1500 
 20 C      -10.0860    -1.3020     0.0020 C.ar  1 <1>  -0.1430 
 21 C       -9.2240    -2.5870    -2.0060 C.3   1 <1>  -0.0970 
 22 C       -8.6240    -0.6120     1.7810 C.ar  1 <1>  -0.1500 
 23 C       -9.8830    -0.6600     1.2140 C.ar  1 <1>  -0.1500 
 24 C      -11.5000    -1.3260    -0.5640 C.3   1 <1>  -0.0970 
 25 H       -1.5750    -1.1920     1.7100 H     1 <1>   0.1500 
 26 H        0.6890    -3.5840    -1.9660 H     1 <1>   0.1500 
 27 H        3.7650    -1.1020    -1.3160 H     1 <1>   0.0800 
 28 H        3.1670    -2.6460    -0.7160 H     1 <1>   0.0800 
 29 H        3.0020    -1.1870     0.2680 H     1 <1>   0.0800 
 30 H       -1.2930    -4.5790    -0.9240 H     1 <1>   0.1500 
 31 H       -3.0500    -3.0700     2.0320 H     1 <1>   0.0800 
 32 H       -2.6860    -4.6030     1.2720 H     1 <1>   0.0800 
 33 H       -3.7100    -3.7610    -0.7500 H     1 <1>   0.4500 
 34 H       -3.4000    -1.4150    -0.5060 H     1 <1>   0.0800 
 35 H       -4.5060    -1.4120     0.8360 H     1 <1>   0.0800 
 36 H       -5.5290    -3.6810     1.5840 H     1 <1>   0.0800 
 37 H       -5.0190    -5.1270     0.7580 H     1 <1>   0.0800 
 38 H       -5.1620    -1.9260    -2.0640 H     1 <1>   0.0800 
 39 H       -5.7260    -0.6270    -1.0610 H     1 <1>   0.0800 
 40 H       -7.2990    -4.3330     0.1050 H     1 <1>   0.0800 
 41 H       -6.2200    -4.4700    -1.2500 H     1 <1>   0.0800 
 42 H       -6.5940    -1.1760     1.5930 H     1 <1>   0.1500 
 43 H       -8.3180    -2.6080    -2.5820 H     1 <1>   0.0800 
 44 H       -9.9550    -2.0670    -2.5960 H     1 <1>   0.0800 
 45 H       -9.5560    -3.5960    -1.8480 H     1 <1>   0.0800 
 46 H       -8.4810    -0.1080     2.7210 H     1 <1>   0.1500 
 47 H      -10.7050    -0.1910     1.7250 H     1 <1>   0.1500 
 48 H      -11.7700    -2.3270    -0.8500 H     1 <1>   0.0800 
 49 H      -11.5620    -0.6840    -1.4230 H     1 <1>   0.0800 
 50 H      -12.2140    -0.9870     0.1650 H     1 <1>   0.0800 
@<TRIPOS>BOND
  1   1   2  1   
  2   2   3  ar  
  3   2   4  ar  
  4   3   5  1   
  5   3   6  ar  
  6   4   7  ar  
  7   4  25  1   
  8   5   8  1   
  9   6   9  ar  
 10   6  26  1   
 11   7   9  ar  
 12   7  10  1   
 13   8  27  1   
 14   8  28  1   
 15   8  29  1   
 16   9  30  1   
 17  10  11  1   
 18  10  31  1   
 19  10  32  1   
 20  11  12  1   
 21  11  13  1   
 22  11  33  1   
 23  12  14  1   
 24  12  34  1   
 25  12  35  1   
 26  13  15  1   
 27  13  36  1   
 28  13  37  1   
 29  14  16  1   
 30  14  38  1   
 31  14  39  1   
 32  15  16  1   
 33  15  40  1   
 34  15  41  1   
 35  16  17  1   
 36  17  18  ar  
 37  17  19  ar  
 38  18  20  ar  
 39  18  21  1   
 40  19  22  ar  
 41  19  42  1   
 42  20  23  ar  
 43  20  24  1   
 44  21  43  1   
 45  21  44  1   
 46  21  45  1   
 47  22  23  ar  
 48  22  46  1   
 49  23  47  1   
 50  24  48  1   
 51  24  49  1   
 52  24  50  1   
@<TRIPOS>SUBSTRUCTURE
  1 ****  12 GROUP 4 **** **** 0

# MOE 2024.06 (io_trps.svl 2023.06)
