@<TRIPOS>MOLECULE
NONAME
49 51 1 0 0 
SMALL
USER_CHARGES


@<TRIPOS>ATOM
  1 O        0.0780     1.8620    -1.4230 O.2   1 <1>  -0.5700 
  2 C        1.2280     1.9700    -1.0620 C.2   1 <1>   0.6900 
  3 N        1.7750     1.0510    -0.2310 N.am  1 <1>  -0.5390 
  4 N        1.9750     3.0110    -1.4580 N.am  1 <1>  -0.7300 
  5 C        3.0170     1.1760     0.3590 C.2   1 <1>  -0.0290 
  6 C        3.2720     3.3510    -0.8440 C.3   1 <1>   0.5020 
  7 C        3.7920     2.2720     0.1190 C.2   1 <1>  -0.1240 
  8 C        3.3710     0.0020     1.2600 C.3   1 <1>  -0.1020 
  9 C        3.1330     4.7400    -0.2180 C.ar  1 <1>  -0.1440 
 10 C        5.0800     2.5820     0.6660 C.2   1 <1>   0.7060 
 11 C        2.4160     4.9600     0.9560 C.ar  1 <1>   0.0830 
 12 C        3.7340     5.8250    -0.8440 C.ar  1 <1>  -0.1500 
 13 O        5.5440     2.0570     1.6600 O.2   1 <1>  -0.5700 
 14 O        5.8230     3.5000     0.0350 O.3   1 <1>  -0.4300 
 15 O        1.8210     3.9270     1.5890 O.3   1 <1>  -0.3630 
 16 C        2.3190     6.2350     1.4950 C.ar  1 <1>  -0.1500 
 17 C        3.6300     7.0990    -0.3110 C.ar  1 <1>  -0.1500 
 18 C        7.0730     3.9410     0.5170 C.3   1 <1>   0.2000 
 19 C        0.4150     3.9520     1.6910 C.3   1 <1>   0.0400 
 20 C        2.9240     7.3050     0.8610 C.ar  1 <1>  -0.1500 
 21 C        7.2740     5.3790     0.0250 C.3   1 <1>  -0.1600 
 22 C        8.1670     3.0050    -0.0140 C.3   1 <1>  -0.1600 
 23 C        8.6710     5.9000     0.3910 C.3   1 <1>  -0.1600 
 24 C        9.5640     3.5270     0.3510 C.3   1 <1>  -0.1600 
 25 C        9.7670     4.9670    -0.1410 C.3   1 <1>  -0.1600 
 26 H        1.1530     0.2760    -0.0080 H     1 <1>   0.3700 
 27 H        1.4800     3.7800    -1.9000 H     1 <1>   0.3700 
 28 H        3.9800     3.4160    -1.6520 H     1 <1>   0.0800 
 29 H        2.8760     0.1120     2.2080 H     1 <1>   0.0800 
 30 H        4.4270    -0.0740     1.4310 H     1 <1>   0.0800 
 31 H        3.0550    -0.9210     0.8080 H     1 <1>   0.0800 
 32 H        4.2930     5.6880    -1.7530 H     1 <1>   0.1500 
 33 H        1.7800     6.3890     2.4110 H     1 <1>   0.1500 
 34 H        4.1020     7.9300    -0.8060 H     1 <1>   0.1500 
 35 H        7.0600     3.9350     1.5950 H     1 <1>   0.0800 
 36 H        0.0920     3.0050     2.0840 H     1 <1>   0.0800 
 37 H       -0.0020     4.1020     0.7110 H     1 <1>   0.0800 
 38 H        0.1220     4.7460     2.3540 H     1 <1>   0.0800 
 39 H        2.8470     8.2940     1.2790 H     1 <1>   0.1500 
 40 H        6.5280     6.0130     0.4700 H     1 <1>   0.0800 
 41 H        7.1570     5.4080    -1.0440 H     1 <1>   0.0800 
 42 H        8.0860     2.9340    -1.0840 H     1 <1>   0.0800 
 43 H        8.0350     2.0240     0.4080 H     1 <1>   0.0800 
 44 H        8.7540     5.9710     1.4630 H     1 <1>   0.0800 
 45 H        8.8070     6.8870    -0.0160 H     1 <1>   0.0800 
 46 H       10.3120     2.8870    -0.0850 H     1 <1>   0.0800 
 47 H        9.6860     3.4950     1.4200 H     1 <1>   0.0800 
 48 H       10.7310     5.3240     0.1790 H     1 <1>   0.0800 
 49 H        9.7540     4.9800    -1.2180 H     1 <1>   0.0800 
@<TRIPOS>BOND
  1   1   2  2   
  2   2   3  am  
  3   2   4  am  
  4   3   5  1   
  5   3  26  1   
  6   4   6  1   
  7   4  27  1   
  8   5   7  2   
  9   5   8  1   
 10   6   7  1   
 11   6   9  1   
 12   6  28  1   
 13   7  10  1   
 14   8  29  1   
 15   8  30  1   
 16   8  31  1   
 17   9  11  ar  
 18   9  12  ar  
 19  10  13  2   
 20  10  14  1   
 21  11  15  1   
 22  11  16  ar  
 23  12  17  ar  
 24  12  32  1   
 25  14  18  1   
 26  15  19  1   
 27  16  20  ar  
 28  16  33  1   
 29  17  20  ar  
 30  17  34  1   
 31  18  21  1   
 32  18  22  1   
 33  18  35  1   
 34  19  36  1   
 35  19  37  1   
 36  19  38  1   
 37  20  39  1   
 38  21  23  1   
 39  21  40  1   
 40  21  41  1   
 41  22  24  1   
 42  22  42  1   
 43  22  43  1   
 44  23  25  1   
 45  23  44  1   
 46  23  45  1   
 47  24  25  1   
 48  24  46  1   
 49  24  47  1   
 50  25  48  1   
 51  25  49  1   
@<TRIPOS>SUBSTRUCTURE
  1 ****   6 GROUP 4 **** **** 0

# MOE 2024.06 (io_trps.svl 2023.06)
