@<TRIPOS>MOLECULE
Structure1642
26 26 1 0 0 
SMALL
USER_CHARGES


@<TRIPOS>ATOM
  1 O       -0.5260     0.4530     1.6450 O.co2 1 <1>  -0.9000 
  2 C       -0.4990     1.3890     0.8600 C.2   1 <1>   0.9060 
  3 O        0.2580     1.4540    -0.1130 O.co2 1 <1>  -0.9000 
  4 C       -1.6590     2.3090     0.8380 C.3   1 <1>  -0.2660 
  5 C       -2.6150     1.6000    -0.0900 C.3   1 <1>   0.5660 
  6 N       -2.0320     1.5390    -1.4320 N.4   1 <1>  -0.8530 
  7 C       -3.9670     2.2880    -0.2150 C.ar  1 <1>  -0.1440 
  8 C       -5.1450     1.5860     0.0340 C.ar  1 <1>  -0.1440 
  9 C       -4.0380     3.6260    -0.5920 C.ar  1 <1>  -0.1500 
 10 C       -6.3660     2.2270    -0.1120 C.ar  1 <1>  -0.1500 
 11 C       -5.1380     0.1270     0.4760 C.3   1 <1>  -0.0970 
 12 C       -5.2610     4.2550    -0.7340 C.ar  1 <1>  -0.1500 
 13 C       -6.4270     3.5530    -0.4970 C.ar  1 <1>  -0.1500 
 14 H       -1.3660     3.2800     0.4910 H     1 <1>   0.0800 
 15 H       -2.0720     2.3790     1.8260 H     1 <1>   0.0800 
 16 H       -2.7430     0.5970     0.2840 H     1 <1>   0.0800 
 17 H       -1.0080     1.3720    -1.2730 H     1 <1>   0.4500 
 18 H       -2.1410     2.4340    -1.9000 H     1 <1>   0.4500 
 19 H       -2.4250     0.7740    -1.9740 H     1 <1>   0.4500 
 20 H       -3.1480     4.2030    -0.7730 H     1 <1>   0.1500 
 21 H       -7.2850     1.6980     0.0750 H     1 <1>   0.1500 
 22 H       -4.7050    -0.4960    -0.2840 H     1 <1>   0.0800 
 23 H       -6.1380    -0.2220     0.6640 H     1 <1>   0.0800 
 24 H       -4.5760     0.0160     1.3880 H     1 <1>   0.0800 
 25 H       -5.3100     5.2910    -1.0250 H     1 <1>   0.1500 
 26 H       -7.3820     4.0390    -0.6060 H     1 <1>   0.1500 
@<TRIPOS>BOND
  1   1   2  ar  
  2   2   3  ar  
  3   2   4  1   
  4   4   5  1   
  5   4  14  1   
  6   4  15  1   
  7   5   6  1   
  8   5   7  1   
  9   5  16  1   
 10   6  17  1   
 11   6  18  1   
 12   6  19  1   
 13   7   8  ar  
 14   7   9  ar  
 15   8  10  ar  
 16   8  11  1   
 17   9  12  ar  
 18   9  20  1   
 19  10  13  ar  
 20  10  21  1   
 21  11  22  1   
 22  11  23  1   
 23  11  24  1   
 24  12  13  ar  
 25  12  25  1   
 26  13  26  1   
@<TRIPOS>SUBSTRUCTURE
  1 ****   7 GROUP 4 **** **** 0

# MOE 2024.06 (io_trps.svl 2023.06)
