@<TRIPOS>MOLECULE
NONAME
31 32 1 0 0 
SMALL
USER_CHARGES


@<TRIPOS>ATOM
  1 BR      -1.3620     0.0160     2.6550 Br    1 <1>  -0.1110 
  2 C       -1.5320     1.4870     1.4250 C.ar  1 <1>   0.1110 
  3 C       -0.8160     2.6410     1.6640 C.ar  1 <1>  -0.1500 
  4 C       -2.3640     1.3450     0.3320 C.ar  1 <1>  -0.1500 
  5 C       -0.9120     3.7190     0.7850 C.ar  1 <1>   0.0860 
  6 C       -2.4830     2.4120    -0.5380 C.ar  1 <1>  -0.1500 
  7 C       -1.7840     3.5920    -0.3130 C.ar  1 <1>   0.0830 
  8 C       -0.1020     4.8910     1.0360 C.2   1 <1>   0.5440 
  9 O       -1.9950     4.5790    -1.2140 O.3   1 <1>  -0.3630 
 10 O       -0.3220     5.5540     2.0320 O.2   1 <1>  -0.5700 
 11 N        0.9210     5.2720     0.1930 N.am  1 <1>  -0.6600 
 12 C       -2.3240     5.8800    -0.7670 C.3   1 <1>   0.0400 
 13 C        1.7470     6.4940     0.4390 C.3   1 <1>   0.1400 
 14 C        1.3050     4.5400    -1.0510 C.3   1 <1>   0.1400 
 15 C        3.2430     6.1820     0.2780 C.3   1 <1>   0.1200 
 16 C        2.8300     4.3500    -1.1270 C.3   1 <1>   0.1200 
 17 O        3.4920     5.5710    -0.9570 O.3   1 <1>  -0.5600 
 18 H       -0.1790     2.7110     2.5280 H     1 <1>   0.1500 
 19 H       -2.9030     0.4280     0.1730 H     1 <1>   0.1500 
 20 H       -3.1270     2.3400    -1.3970 H     1 <1>   0.1500 
 21 H       -2.9290     6.3490    -1.5220 H     1 <1>   0.0800 
 22 H       -1.4200     6.4450    -0.6290 H     1 <1>   0.0800 
 23 H       -2.8740     5.8140     0.1560 H     1 <1>   0.0800 
 24 H        1.5730     6.8790     1.4280 H     1 <1>   0.0800 
 25 H        1.4670     7.2560    -0.2670 H     1 <1>   0.0800 
 26 H        0.9760     5.1030    -1.9070 H     1 <1>   0.0800 
 27 H        0.8340     3.5740    -1.0910 H     1 <1>   0.0800 
 28 H        3.5780     5.5260     1.0630 H     1 <1>   0.0800 
 29 H        3.8170     7.0900     0.3180 H     1 <1>   0.0800 
 30 H        3.1070     3.9580    -2.0890 H     1 <1>   0.0800 
 31 H        3.1640     3.6680    -0.3650 H     1 <1>   0.0800 
@<TRIPOS>BOND
  1   1   2  1   
  2   2   3  ar  
  3   2   4  ar  
  4   3   5  ar  
  5   3  18  1   
  6   4   6  ar  
  7   4  19  1   
  8   5   7  ar  
  9   5   8  1   
 10   6   7  ar  
 11   6  20  1   
 12   7   9  1   
 13   8  10  2   
 14   8  11  am  
 15   9  12  1   
 16  11  13  1   
 17  11  14  1   
 18  12  21  1   
 19  12  22  1   
 20  12  23  1   
 21  13  15  1   
 22  13  24  1   
 23  13  25  1   
 24  14  16  1   
 25  14  26  1   
 26  14  27  1   
 27  15  17  1   
 28  15  28  1   
 29  15  29  1   
 30  16  17  1   
 31  16  30  1   
 32  16  31  1   
@<TRIPOS>SUBSTRUCTURE
  1 ****   5 GROUP 4 **** **** 0

# MOE 2024.06 (io_trps.svl 2023.06)
