@<TRIPOS>MOLECULE
NONAME
46 47 1 0 0 
SMALL
USER_CHARGES


@<TRIPOS>ATOM
  1 S        0.0860    -0.1640     0.6950 S.3   1 <1>  -0.3320 
  2 C       -1.4090     0.8250     0.5100 C.ar  1 <1>   0.1020 
  3 C        1.4560     0.7990    -0.0790 C.3   1 <1>   0.0700 
  4 C       -2.5810     0.2910     1.0140 C.ar  1 <1>  -0.1500 
  5 C       -1.4050     2.0670    -0.1050 C.ar  1 <1>  -0.1500 
  6 C        2.7360    -0.0260     0.0610 C.3   1 <1>  -0.1600 
  7 C       -3.7630     1.0030     0.9000 C.ar  1 <1>  -0.1500 
  8 C       -2.5910     2.7730    -0.2150 C.ar  1 <1>  -0.1500 
  9 C        3.9220     0.6860    -0.5950 C.3   1 <1>   0.1100 
 10 C       -3.7730     2.2450     0.2850 C.ar  1 <1>  -0.1430 
 11 N        5.1810    -0.0120    -0.2870 N.3   1 <1>  -0.8100 
 12 C       -5.0690     3.0260     0.1630 C.3   1 <1>  -0.0970 
 13 C        5.3130    -1.3090    -1.0010 C.3   1 <1>   0.1100 
 14 C        6.3540     0.8490    -0.5670 C.3   1 <1>   0.1100 
 15 C        6.6780    -1.9970    -0.7450 C.3   1 <1>   0.3430 
 16 C        7.6900     0.1710    -0.1720 C.3   1 <1>   0.3430 
 17 N        7.4730    -1.2460     0.2800 N.4   1 <1>  -0.9590 
 18 C        8.6990    -1.9620     0.7050 C.3   1 <1>   0.3430 
 19 C        9.2360    -1.3440     1.9900 C.3   1 <1>  -0.2400 
 20 H        1.5270     1.7350     0.4460 H     1 <1>   0.0800 
 21 H        1.1930     0.9560    -1.1100 H     1 <1>   0.0800 
 22 H       -2.5650    -0.6730     1.4890 H     1 <1>   0.1500 
 23 H       -0.5050     2.4940    -0.4980 H     1 <1>   0.1500 
 24 H        2.5730    -0.9820    -0.4010 H     1 <1>   0.0800 
 25 H        2.9410    -0.1720     1.1070 H     1 <1>   0.0800 
 26 H       -4.6730     0.5850     1.2940 H     1 <1>   0.1500 
 27 H       -2.5910     3.7380    -0.6910 H     1 <1>   0.1500 
 28 H        3.9710     1.6870    -0.2000 H     1 <1>   0.0800 
 29 H        3.7790     0.7520    -1.6610 H     1 <1>   0.0800 
 30 H       -5.9070     2.3550     0.0940 H     1 <1>   0.0800 
 31 H       -5.0560     3.6420    -0.7180 H     1 <1>   0.0800 
 32 H       -5.1970     3.6540     1.0260 H     1 <1>   0.0800 
 33 H        5.1870    -1.1620    -2.0610 H     1 <1>   0.0800 
 34 H        4.5370    -1.9790    -0.6750 H     1 <1>   0.0800 
 35 H        6.2630     1.7710    -0.0170 H     1 <1>   0.0800 
 36 H        6.3810     1.1000    -1.6150 H     1 <1>   0.0800 
 37 H        7.2280    -2.0480    -1.6700 H     1 <1>   0.0800 
 38 H        6.5020    -3.0060    -0.4110 H     1 <1>   0.0800 
 39 H        8.1410     0.7410     0.6230 H     1 <1>   0.0800 
 40 H        8.3620     0.1930    -1.0130 H     1 <1>   0.0800 
 41 H        6.8210    -1.1540     1.0760 H     1 <1>   0.4500 
 42 H        9.4470    -1.9160    -0.0710 H     1 <1>   0.0800 
 43 H        8.4660    -2.9990     0.8890 H     1 <1>   0.0800 
 44 H        9.5800    -0.3390     1.8300 H     1 <1>   0.0800 
 45 H       10.0750    -1.9230     2.3350 H     1 <1>   0.0800 
 46 H        8.4870    -1.3550     2.7620 H     1 <1>   0.0800 
@<TRIPOS>BOND
  1   1   2  1   
  2   1   3  1   
  3   2   4  ar  
  4   2   5  ar  
  5   3   6  1   
  6   3  20  1   
  7   3  21  1   
  8   4   7  ar  
  9   4  22  1   
 10   5   8  ar  
 11   5  23  1   
 12   6   9  1   
 13   6  24  1   
 14   6  25  1   
 15   7  10  ar  
 16   7  26  1   
 17   8  10  ar  
 18   8  27  1   
 19   9  11  1   
 20   9  28  1   
 21   9  29  1   
 22  10  12  1   
 23  11  13  1   
 24  11  14  1   
 25  12  30  1   
 26  12  31  1   
 27  12  32  1   
 28  13  15  1   
 29  13  33  1   
 30  13  34  1   
 31  14  16  1   
 32  14  35  1   
 33  14  36  1   
 34  15  17  1   
 35  15  37  1   
 36  15  38  1   
 37  16  17  1   
 38  16  39  1   
 39  16  40  1   
 40  17  18  1   
 41  17  41  1   
 42  18  19  1   
 43  18  42  1   
 44  18  43  1   
 45  19  44  1   
 46  19  45  1   
 47  19  46  1   
@<TRIPOS>SUBSTRUCTURE
  1 ****   6 GROUP 4 **** **** 0

# MOE 2024.06 (io_trps.svl 2023.06)
