@<TRIPOS>MOLECULE
NONAME
50 51 1 0 0 
SMALL
USER_CHARGES


@<TRIPOS>ATOM
  1 S        0.5110     0.2760    -1.0620 S.o2  1 <1>   1.3330 
  2 O        0.8390    -0.3680     0.1830 O.2   1 <1>  -0.6500 
  3 O        1.4350     0.1920    -2.1700 O.2   1 <1>  -0.6500 
  4 N        0.2940     1.9640    -0.7610 N.am  1 <1>  -0.6930 
  5 C       -1.1050    -0.2240    -1.6130 C.3   1 <1>  -0.1350 
  6 C       -0.5120     2.4090     0.2780 C.ar  1 <1>   0.1990 
  7 C        1.3600     2.8950    -1.2490 C.3   1 <1>   0.2570 
  8 C       -1.7070     3.0560    -0.0010 C.ar  1 <1>  -0.1500 
  9 C       -0.1470     2.2240     1.6030 C.ar  1 <1>  -0.1500 
 10 C        2.7210     2.7370    -0.5590 C.2   1 <1>   0.5690 
 11 C       -2.5360     3.5080     1.0130 C.ar  1 <1>  -0.1440 
 12 C       -0.9650     2.6700     2.6230 C.ar  1 <1>  -0.1500 
 13 O        3.0770     3.6030     0.2040 O.2   1 <1>  -0.5700 
 14 N        3.4830     1.6380    -0.8570 N.am  1 <1>  -0.5470 
 15 C       -2.1620     3.3120     2.3390 C.ar  1 <1>  -0.1430 
 16 C       -3.8370     4.2110     0.6520 C.3   1 <1>  -0.0970 
 17 C        4.7290     1.2130    -0.3740 C.ar  1 <1>   0.1170 
 18 C       -3.0340     3.7880     3.4920 C.3   1 <1>  -0.0970 
 19 C        5.0310    -0.1410    -0.4280 C.ar  1 <1>  -0.1500 
 20 C        5.6830     2.0850     0.1420 C.ar  1 <1>  -0.1500 
 21 C        6.2510    -0.6140     0.0200 C.ar  1 <1>  -0.1500 
 22 C        6.9050     1.6180     0.5940 C.ar  1 <1>  -0.1500 
 23 C        7.1960     0.2580     0.5340 C.ar  1 <1>   0.0820 
 24 O        8.3690    -0.2870     0.9530 O.3   1 <1>  -0.3620 
 25 C        9.3710     0.5140     1.5320 C.3   1 <1>   0.1200 
 26 C       10.5370    -0.3930     1.9150 C.3   1 <1>  -0.2400 
 27 H       -1.1020    -1.2670    -1.8650 H     1 <1>   0.0800 
 28 H       -1.3940     0.3390    -2.4780 H     1 <1>   0.0800 
 29 H       -1.8260    -0.0610    -0.8360 H     1 <1>   0.0800 
 30 H        1.0310     3.9070    -1.0940 H     1 <1>   0.0800 
 31 H        1.4930     2.7590    -2.3060 H     1 <1>   0.0800 
 32 H       -1.9810     3.2040    -1.0290 H     1 <1>   0.1500 
 33 H        0.7810     1.7300     1.8330 H     1 <1>   0.1500 
 34 H       -0.6590     2.5140     3.6420 H     1 <1>   0.1500 
 35 H        3.0150     0.9490    -1.4610 H     1 <1>   0.3700 
 36 H       -3.9590     4.2760    -0.4140 H     1 <1>   0.0800 
 37 H       -3.8380     5.2090     1.0520 H     1 <1>   0.0800 
 38 H       -4.6730     3.6700     1.0560 H     1 <1>   0.0800 
 39 H       -3.1590     4.8540     3.4430 H     1 <1>   0.0800 
 40 H       -2.5880     3.5450     4.4400 H     1 <1>   0.0800 
 41 H       -3.9990     3.3170     3.4440 H     1 <1>   0.0800 
 42 H        4.3050    -0.8320    -0.8180 H     1 <1>   0.1500 
 43 H        5.4730     3.1380     0.1910 H     1 <1>   0.1500 
 44 H        6.4780    -1.6640    -0.0230 H     1 <1>   0.1500 
 45 H        7.6090     2.3260     0.9850 H     1 <1>   0.1500 
 46 H        8.9610     0.9950     2.4030 H     1 <1>   0.0800 
 47 H        9.6810     1.2480     0.8090 H     1 <1>   0.0800 
 48 H       10.2110    -1.1320     2.6240 H     1 <1>   0.0800 
 49 H       11.3210     0.1910     2.3610 H     1 <1>   0.0800 
 50 H       10.9270    -0.8810     1.0400 H     1 <1>   0.0800 
@<TRIPOS>BOND
  1   1   2  2   
  2   1   3  2   
  3   1   4  am  
  4   1   5  1   
  5   4   6  1   
  6   4   7  1   
  7   5  27  1   
  8   5  28  1   
  9   5  29  1   
 10   6   8  ar  
 11   6   9  ar  
 12   7  10  1   
 13   7  30  1   
 14   7  31  1   
 15   8  11  ar  
 16   8  32  1   
 17   9  12  ar  
 18   9  33  1   
 19  10  13  2   
 20  10  14  am  
 21  11  15  ar  
 22  11  16  1   
 23  12  15  ar  
 24  12  34  1   
 25  14  17  1   
 26  14  35  1   
 27  15  18  1   
 28  16  36  1   
 29  16  37  1   
 30  16  38  1   
 31  17  19  ar  
 32  17  20  ar  
 33  18  39  1   
 34  18  40  1   
 35  18  41  1   
 36  19  21  ar  
 37  19  42  1   
 38  20  22  ar  
 39  20  43  1   
 40  21  23  ar  
 41  21  44  1   
 42  22  23  ar  
 43  22  45  1   
 44  23  24  1   
 45  24  25  1   
 46  25  26  1   
 47  25  46  1   
 48  25  47  1   
 49  26  48  1   
 50  26  49  1   
 51  26  50  1   
@<TRIPOS>SUBSTRUCTURE
  1 ****  10 GROUP 4 **** **** 0

# MOE 2024.06 (io_trps.svl 2023.06)
