@<TRIPOS>MOLECULE
NONAME
31 32 1 0 0 
SMALL
USER_CHARGES


@<TRIPOS>ATOM
  1 BR      -1.7160    -1.4830     1.0240 Br    1 <1>  -0.0570 
  2 C        0.1470    -1.9570     0.7580 C.2   1 <1>   0.0570 
  3 C        1.0420    -1.2420    -0.0160 C.2   1 <1>   0.1080 
  4 C        0.7990    -3.0110     1.2770 C.2   1 <1>  -0.3320 
  5 N        2.2080    -1.8040     0.0060 N.2   1 <1>  -0.7070 
  6 C        0.7390     0.0220    -0.7900 C.3   1 <1>  -0.0590 
  7 N        2.0870    -2.9260     0.8100 N.pl3 1 <1>   0.5840 
  8 C        0.2830    -4.1080     2.2000 C.3   1 <1>  -0.0600 
  9 S        3.4150    -4.0710     1.1980 S.o2  1 <1>   1.3490 
 10 O        3.8090    -3.8980     2.5860 O.2   1 <1>  -0.6500 
 11 O        3.0400    -5.4070     0.7690 O.2   1 <1>  -0.6500 
 12 C        4.7650    -3.5130     0.1510 C.2   1 <1>  -0.0630 
 13 C        5.2880    -4.2490    -0.9050 C.2   1 <1>   0.1390 
 14 C        5.4950    -2.3700     0.1390 C.2   1 <1>  -0.3020 
 15 N        6.2480    -3.6300    -1.5210 N.2   1 <1>  -0.7070 
 16 N        6.3750    -2.4600    -0.8740 N.pl3 1 <1>   0.3140 
 17 C        7.3660    -1.4420    -1.2790 C.3   1 <1>   0.0960 
 18 C        6.6980    -0.3000    -2.0550 C.3   1 <1>  -0.2400 
 19 H        0.6130     0.8430    -0.1090 H     1 <1>   0.0800 
 20 H       -0.1600    -0.1040    -1.3640 H     1 <1>   0.0800 
 21 H        1.5510     0.2450    -1.4590 H     1 <1>   0.0800 
 22 H       -0.7540    -3.9460     2.4340 H     1 <1>   0.0800 
 23 H        0.8390    -4.1180     3.1220 H     1 <1>   0.0800 
 24 H        0.3750    -5.0710     1.7290 H     1 <1>   0.0800 
 25 H        4.9400    -5.2300    -1.1880 H     1 <1>   0.1500 
 26 H        5.4250    -1.5120     0.7830 H     1 <1>   0.1500 
 27 H        8.1060    -1.9210    -1.8950 H     1 <1>   0.0800 
 28 H        7.8470    -1.0640    -0.3960 H     1 <1>   0.0800 
 29 H        6.2220    -0.6860    -2.9400 H     1 <1>   0.0800 
 30 H        7.4380     0.4210    -2.3520 H     1 <1>   0.0800 
 31 H        5.9640     0.1940    -1.4430 H     1 <1>   0.0800 
@<TRIPOS>BOND
  1   1   2  1   
  2   2   3  1   
  3   2   4  2   
  4   3   5  2   
  5   3   6  1   
  6   4   7  1   
  7   4   8  1   
  8   5   7  1   
  9   6  19  1   
 10   6  20  1   
 11   6  21  1   
 12   7   9  1   
 13   8  22  1   
 14   8  23  1   
 15   8  24  1   
 16   9  10  2   
 17   9  11  2   
 18   9  12  1   
 19  12  13  1   
 20  12  14  2   
 21  13  15  2   
 22  13  25  1   
 23  14  16  1   
 24  14  26  1   
 25  15  16  1   
 26  16  17  1   
 27  17  18  1   
 28  17  27  1   
 29  17  28  1   
 30  18  29  1   
 31  18  30  1   
 32  18  31  1   
@<TRIPOS>SUBSTRUCTURE
  1 ****   7 GROUP 4 **** **** 0

# MOE 2024.06 (io_trps.svl 2023.06)
