@<TRIPOS>MOLECULE
NONAME
44 46 1 0 0 
SMALL
USER_CHARGES


@<TRIPOS>ATOM
  1 BR       0.5880     0.8370    -2.1980 Br    1 <1>  -0.1110 
  2 C        0.0520     2.1150    -0.8530 C.ar  1 <1>   0.1110 
  3 C        1.0210     2.8550    -0.1860 C.ar  1 <1>   0.0830 
  4 C       -1.2980     2.2520    -0.5940 C.ar  1 <1>  -0.1500 
  5 O        2.3250     2.6500    -0.5090 O.3   1 <1>  -0.3630 
  6 C        0.5970     3.7670     0.7790 C.ar  1 <1>  -0.1500 
  7 C       -1.7010     3.1630     0.3680 C.ar  1 <1>  -0.1500 
  8 C        3.3640     3.3610     0.1310 C.3   1 <1>   0.3000 
  9 C       -0.7560     3.9150     1.0490 C.ar  1 <1>  -0.1500 
 10 C        4.6990     2.9210    -0.4380 C.2   1 <1>  -0.0400 
 11 O        5.7990     3.4400     0.0610 O.3   1 <1>  -0.2800 
 12 C        5.0030     2.0480    -1.4230 C.2   1 <1>  -0.1500 
 13 C        6.8520     2.9280    -0.5720 C.2   1 <1>   0.0550 
 14 C        6.3950     2.0540    -1.5140 C.2   1 <1>  -0.1500 
 15 C        8.1980     3.3260    -0.2140 C.2   1 <1>   0.7150 
 16 O        8.4390     4.4810     0.0970 O.2   1 <1>  -0.5700 
 17 N        9.2430     2.4240    -0.2150 N.am  1 <1>  -0.6600 
 18 C        9.0490     0.9440    -0.1560 C.3   1 <1>   0.1400 
 19 C       10.6480     2.8820     0.0110 C.3   1 <1>   0.1400 
 20 C       10.1940     0.2620     0.6190 C.3   1 <1>   0.2000 
 21 C       11.6710     1.8290    -0.4690 C.3   1 <1>   0.2000 
 22 O       11.4420     0.5440     0.0510 O.3   1 <1>  -0.5600 
 23 C       10.0510    -1.2580     0.6380 C.3   1 <1>  -0.2400 
 24 C       13.1010     2.2080    -0.0930 C.3   1 <1>  -0.2400 
 25 H       -2.0150     1.6590    -1.1330 H     1 <1>   0.1500 
 26 H        1.2950     4.3700     1.3290 H     1 <1>   0.1500 
 27 H       -2.7490     3.2860     0.5870 H     1 <1>   0.1500 
 28 H        3.3250     3.1470     1.1840 H     1 <1>   0.0800 
 29 H        3.2190     4.4120    -0.0440 H     1 <1>   0.0800 
 30 H       -1.0770     4.6210     1.7950 H     1 <1>   0.1500 
 31 H        4.3270     1.4650    -2.0240 H     1 <1>   0.1500 
 32 H        6.9700     1.4740    -2.2120 H     1 <1>   0.1500 
 33 H        9.0170     0.5480    -1.1560 H     1 <1>   0.0800 
 34 H        8.1160     0.7180     0.3300 H     1 <1>   0.0800 
 35 H       10.7930     3.0750     1.0600 H     1 <1>   0.0800 
 36 H       10.8140     3.8040    -0.5180 H     1 <1>   0.0800 
 37 H       10.2060     0.6300     1.6310 H     1 <1>   0.0800 
 38 H       11.6000     1.7490    -1.5400 H     1 <1>   0.0800 
 39 H       10.0720    -1.6470    -0.3640 H     1 <1>   0.0800 
 40 H        9.1220    -1.5370     1.1010 H     1 <1>   0.0800 
 41 H       10.8570    -1.6900     1.2030 H     1 <1>   0.0800 
 42 H       13.2030     2.2610     0.9760 H     1 <1>   0.0800 
 43 H       13.3540     3.1640    -0.5140 H     1 <1>   0.0800 
 44 H       13.7860     1.4740    -0.4790 H     1 <1>   0.0800 
@<TRIPOS>BOND
  1   1   2  1   
  2   2   3  ar  
  3   2   4  ar  
  4   3   5  1   
  5   3   6  ar  
  6   4   7  ar  
  7   4  25  1   
  8   5   8  1   
  9   6   9  ar  
 10   6  26  1   
 11   7   9  ar  
 12   7  27  1   
 13   8  10  1   
 14   8  28  1   
 15   8  29  1   
 16   9  30  1   
 17  10  11  1   
 18  10  12  2   
 19  11  13  1   
 20  12  14  1   
 21  12  31  1   
 22  13  14  2   
 23  13  15  1   
 24  14  32  1   
 25  15  16  2   
 26  15  17  am  
 27  17  18  1   
 28  17  19  1   
 29  18  20  1   
 30  18  33  1   
 31  18  34  1   
 32  19  21  1   
 33  19  35  1   
 34  19  36  1   
 35  20  22  1   
 36  20  23  1   
 37  20  37  1   
 38  21  22  1   
 39  21  24  1   
 40  21  38  1   
 41  23  39  1   
 42  23  40  1   
 43  23  41  1   
 44  24  42  1   
 45  24  43  1   
 46  24  44  1   
@<TRIPOS>SUBSTRUCTURE
  1 ****  10 GROUP 4 **** **** 0

# MOE 2024.06 (io_trps.svl 2023.06)
