@<TRIPOS>MOLECULE
NONAME
54 57 1 0 0 
SMALL
USER_CHARGES


@<TRIPOS>ATOM
  1 O       -0.0780    -0.8400     1.3420 O.2   1 <1>  -0.5700 
  2 C       -0.4410    -1.5350     0.4200 C.2   1 <1>   0.5690 
  3 N       -1.6660    -1.3620    -0.1360 N.am  1 <1>  -0.7300 
  4 C        0.4770    -2.6410    -0.1440 C.3   1 <1>   0.0610 
  5 C       -2.6980    -0.4580     0.3710 C.3   1 <1>   0.3640 
  6 C        1.8340    -2.7030     0.6080 C.3   1 <1>  -0.1600 
  7 C        0.7760    -2.3820    -1.6430 C.3   1 <1>  -0.1600 
  8 C       -0.2050    -4.0270    -0.0110 C.3   1 <1>  -0.1600 
  9 C       -4.0550    -1.0710     0.0450 C.ar  1 <1>  -0.1430 
 10 C       -2.5140     0.9160    -0.2680 C.3   1 <1>  -0.2400 
 11 C        2.7380    -3.8100     0.0360 C.3   1 <1>  -0.0800 
 12 C        1.6720    -3.4900    -2.2270 C.3   1 <1>  -0.0800 
 13 C        0.6890    -5.1400    -0.5890 C.3   1 <1>  -0.0800 
 14 C       -4.8810    -1.4920     1.0750 C.ar  1 <1>  -0.1500 
 15 C       -4.4880    -1.2340    -1.2630 C.ar  1 <1>  -0.1500 
 16 C        3.0030    -3.5260    -1.4530 C.3   1 <1>  -0.1600 
 17 C        2.0240    -5.1670     0.1760 C.3   1 <1>  -0.1600 
 18 C        0.9620    -4.8480    -2.0760 C.3   1 <1>  -0.1600 
 19 C       -6.1180    -2.0650     0.8280 C.ar  1 <1>   0.0830 
 20 C       -5.7240    -1.7950    -1.5310 C.ar  1 <1>  -0.1500 
 21 O       -6.8030    -2.4370     1.9480 O.3   1 <1>  -0.3630 
 22 C       -6.5610    -2.2100    -0.4980 C.ar  1 <1>   0.0830 
 23 C       -7.7280    -3.5010     1.9330 C.3   1 <1>   0.0400 
 24 O       -7.7950    -2.7340    -0.7570 O.3   1 <1>  -0.3630 
 25 C       -8.3940    -2.6440    -2.0310 C.3   1 <1>   0.0400 
 26 H       -1.9940    -2.0050    -0.8530 H     1 <1>   0.3700 
 27 H       -2.5890    -0.3620     1.4390 H     1 <1>   0.0800 
 28 H        1.6590    -2.8860     1.6540 H     1 <1>   0.0800 
 29 H        2.3340    -1.7530     0.5300 H     1 <1>   0.0800 
 30 H       -0.1410    -2.3410    -2.2030 H     1 <1>   0.0800 
 31 H        1.2630    -1.4290    -1.7510 H     1 <1>   0.0800 
 32 H       -1.1480    -4.0300    -0.5280 H     1 <1>   0.0800 
 33 H       -0.4060    -4.2280     1.0270 H     1 <1>   0.0800 
 34 H       -2.5310     0.8540    -1.3400 H     1 <1>   0.0800 
 35 H       -1.5750     1.3360     0.0460 H     1 <1>   0.0800 
 36 H       -3.3030     1.5710     0.0550 H     1 <1>   0.0800 
 37 H        3.6700    -3.8320     0.5740 H     1 <1>   0.0800 
 38 H        1.8640    -3.2930    -3.2680 H     1 <1>   0.0800 
 39 H        0.1950    -6.0920    -0.4890 H     1 <1>   0.0800 
 40 H       -4.5680    -1.3840     2.0980 H     1 <1>   0.1500 
 41 H       -3.8650    -0.9230    -2.0830 H     1 <1>   0.1500 
 42 H        3.6420    -4.2890    -1.8610 H     1 <1>   0.0800 
 43 H        3.5120    -2.5830    -1.5590 H     1 <1>   0.0800 
 44 H        2.6510    -5.9500    -0.2120 H     1 <1>   0.0800 
 45 H        1.8450    -5.3780     1.2160 H     1 <1>   0.0800 
 46 H        1.5770    -5.6280    -2.4920 H     1 <1>   0.0800 
 47 H        0.0350    -4.8390    -2.6230 H     1 <1>   0.0800 
 48 H       -6.0150    -1.8990    -2.5580 H     1 <1>   0.1500 
 49 H       -7.8850    -3.8230     2.9460 H     1 <1>   0.0800 
 50 H       -7.3250    -4.3090     1.3470 H     1 <1>   0.0800 
 51 H       -8.6540    -3.1500     1.5160 H     1 <1>   0.0800 
 52 H       -9.4000    -3.0170    -1.9530 H     1 <1>   0.0800 
 53 H       -7.8360    -3.2470    -2.7250 H     1 <1>   0.0800 
 54 H       -8.4110    -1.6130    -2.3380 H     1 <1>   0.0800 
@<TRIPOS>BOND
  1   1   2  2   
  2   2   3  am  
  3   2   4  1   
  4   3   5  1   
  5   3  26  1   
  6   4   6  1   
  7   4   7  1   
  8   4   8  1   
  9   5   9  1   
 10   5  10  1   
 11   5  27  1   
 12   6  11  1   
 13   6  28  1   
 14   6  29  1   
 15   7  12  1   
 16   7  30  1   
 17   7  31  1   
 18   8  13  1   
 19   8  32  1   
 20   8  33  1   
 21   9  14  ar  
 22   9  15  ar  
 23  10  34  1   
 24  10  35  1   
 25  10  36  1   
 26  11  16  1   
 27  11  17  1   
 28  11  37  1   
 29  12  16  1   
 30  12  18  1   
 31  12  38  1   
 32  13  17  1   
 33  13  18  1   
 34  13  39  1   
 35  14  19  ar  
 36  14  40  1   
 37  15  20  ar  
 38  15  41  1   
 39  16  42  1   
 40  16  43  1   
 41  17  44  1   
 42  17  45  1   
 43  18  46  1   
 44  18  47  1   
 45  19  21  1   
 46  19  22  ar  
 47  20  22  ar  
 48  20  48  1   
 49  21  23  1   
 50  22  24  1   
 51  23  49  1   
 52  23  50  1   
 53  23  51  1   
 54  24  25  1   
 55  25  52  1   
 56  25  53  1   
 57  25  54  1   
@<TRIPOS>SUBSTRUCTURE
  1 ****   3 GROUP 4 **** **** 0

# MOE 2024.06 (io_trps.svl 2023.06)
