@<TRIPOS>MOLECULE
NONAME
47 49 1 0 0 
SMALL
USER_CHARGES


@<TRIPOS>ATOM
  1 S       -0.4510    -0.4810     0.5780 S.3   1 <1>  -0.0800 
  2 C        0.5630     0.9120     0.2130 C.2   1 <1>   0.1040 
  3 C       -1.8880     0.5130     0.5810 C.2   1 <1>  -0.1400 
  4 N        1.9340     0.7690     0.0690 N.am  1 <1>  -0.4940 
  5 C       -0.1880     2.0570     0.1140 C.2   1 <1>  -0.0860 
  6 C       -1.5980     1.7890     0.3100 C.2   1 <1>  -0.1810 
  7 C       -3.2520    -0.0840     0.8570 C.3   1 <1>   0.3000 
  8 C        2.7990    -0.3010     0.1350 C.2   1 <1>   0.6160 
  9 C        0.3940     3.3510    -0.1380 C.2   1 <1>   0.8060 
 10 C       -2.7590     2.7730     0.2530 C.3   1 <1>   0.0210 
 11 O       -4.1890     0.9540     1.0180 O.3   1 <1>  -0.5600 
 12 O        2.3980    -1.4250     0.3530 O.2   1 <1>  -0.5700 
 13 C        4.1970    -0.0580    -0.0640 C.2   1 <1>  -0.1360 
 14 O        1.5840     3.5090    -0.3630 O.2   1 <1>  -0.5700 
 15 O       -0.3900     4.4350    -0.1170 O.3   1 <1>  -0.4300 
 16 C       -4.1290     2.0480     0.1390 C.3   1 <1>   0.2800 
 17 C        5.1960    -0.9710    -0.0390 C.2   1 <1>  -0.1050 
 18 C        0.1190     5.7300    -0.3430 C.3   1 <1>   0.1200 
 19 C       -5.2590     2.9820     0.5750 C.3   1 <1>  -0.2400 
 20 C       -4.4090     1.5580    -1.2910 C.3   1 <1>  -0.2400 
 21 C        6.5890    -0.7220    -0.2380 C.2   1 <1>   0.0950 
 22 C       -1.0450     6.7130    -0.2560 C.3   1 <1>  -0.2400 
 23 O        7.4450    -1.7320    -0.1820 O.3   1 <1>  -0.2800 
 24 C        7.2820     0.4220    -0.4950 C.2   1 <1>  -0.1500 
 25 C        8.6580    -1.2700    -0.3930 C.2   1 <1>  -0.0100 
 26 C        8.6260     0.0640    -0.5940 C.2   1 <1>  -0.1500 
 27 H        2.3990     1.6580    -0.1380 H     1 <1>   0.3700 
 28 H       -3.2360    -0.6550     1.7690 H     1 <1>   0.0800 
 29 H       -3.5660    -0.7170     0.0470 H     1 <1>   0.0800 
 30 H       -2.6530     3.4280    -0.5920 H     1 <1>   0.0800 
 31 H       -2.7390     3.3780     1.1420 H     1 <1>   0.0800 
 32 H        4.4410     0.9690    -0.2500 H     1 <1>   0.1500 
 33 H        4.9570    -2.0050     0.1470 H     1 <1>   0.1500 
 34 H        0.8610     5.9430     0.4080 H     1 <1>   0.0800 
 35 H        0.5730     5.7560    -1.3200 H     1 <1>   0.0800 
 36 H       -5.1150     3.2900     1.5950 H     1 <1>   0.0800 
 37 H       -6.2070     2.4800     0.4950 H     1 <1>   0.0800 
 38 H       -5.2830     3.8590    -0.0470 H     1 <1>   0.0800 
 39 H       -4.5230     2.3990    -1.9510 H     1 <1>   0.0800 
 40 H       -5.3170     0.9840    -1.3160 H     1 <1>   0.0800 
 41 H       -3.5980     0.9600    -1.6650 H     1 <1>   0.0800 
 42 H       -1.4960     6.6690     0.7190 H     1 <1>   0.0800 
 43 H       -1.7820     6.4850    -1.0060 H     1 <1>   0.0800 
 44 H       -0.6880     7.7130    -0.4220 H     1 <1>   0.0800 
 45 H        6.8960     1.4190    -0.6040 H     1 <1>   0.1500 
 46 H        9.4870    -1.9570    -0.3820 H     1 <1>   0.1500 
 47 H        9.4450     0.7330    -0.7920 H     1 <1>   0.1500 
@<TRIPOS>BOND
  1   1   2  1   
  2   1   3  1   
  3   2   4  1   
  4   2   5  2   
  5   3   6  2   
  6   3   7  1   
  7   4   8  am  
  8   4  27  1   
  9   5   6  1   
 10   5   9  1   
 11   6  10  1   
 12   7  11  1   
 13   7  28  1   
 14   7  29  1   
 15   8  12  2   
 16   8  13  1   
 17   9  14  2   
 18   9  15  1   
 19  10  16  1   
 20  10  30  1   
 21  10  31  1   
 22  11  16  1   
 23  13  17  2   
 24  13  32  1   
 25  15  18  1   
 26  16  19  1   
 27  16  20  1   
 28  17  21  1   
 29  17  33  1   
 30  18  22  1   
 31  18  34  1   
 32  18  35  1   
 33  19  36  1   
 34  19  37  1   
 35  19  38  1   
 36  20  39  1   
 37  20  40  1   
 38  20  41  1   
 39  21  23  1   
 40  21  24  2   
 41  22  42  1   
 42  22  43  1   
 43  22  44  1   
 44  23  25  1   
 45  24  26  1   
 46  24  45  1   
 47  25  26  2   
 48  25  46  1   
 49  26  47  1   
@<TRIPOS>SUBSTRUCTURE
  1 ****   2 GROUP 4 **** **** 0

# MOE 2024.06 (io_trps.svl 2023.06)
