@<TRIPOS>MOLECULE
NONAME
39 39 1 0 0 
SMALL
USER_CHARGES


@<TRIPOS>ATOM
  1 S       -0.3490     0.0560    -0.2670 S.3   1 <1>  -0.3320 
  2 C       -0.1630     1.8190    -0.0690 C.ar  1 <1>   0.7220 
  3 C        1.3780    -0.6060    -0.0480 C.3   1 <1>   0.1310 
  4 N       -1.2570     2.5030    -0.1840 N.ar  1 <1>  -0.6200 
  5 N        1.0420     2.2400     0.1690 N.ar  1 <1>  -0.6200 
  6 C        1.4270    -2.1210    -0.1790 C.2   1 <1>   0.5690 
  7 C       -1.0710     3.7940    -0.0300 C.ar  1 <1>   0.7200 
  8 C        1.0860     3.5400     0.2990 C.ar  1 <1>   0.7200 
  9 O        2.4870    -2.6840    -0.0800 O.2   1 <1>  -0.5700 
 10 N        0.3070    -2.8370    -0.4020 N.am  1 <1>  -0.8000 
 11 N        0.0840     4.3650     0.2150 N.ar  1 <1>  -0.6200 
 12 N       -2.1780     4.6100    -0.1340 N.pl3 1 <1>  -0.8380 
 13 N        2.2790     4.1210     0.5510 N.pl3 1 <1>  -0.8690 
 14 C       -2.1550     6.0440     0.2750 C.3   1 <1>   0.1290 
 15 C       -3.4840     4.1240    -0.6640 C.3   1 <1>   0.1290 
 16 C        3.5980     3.4680     0.6690 C.3   1 <1>   0.2090 
 17 C        4.6380     4.3310    -0.0430 C.3   1 <1>  -0.1600 
 18 C        6.0370     3.7050     0.0420 C.3   1 <1>  -0.1600 
 19 C        7.0750     4.5760    -0.6710 C.3   1 <1>  -0.2400 
 20 H        1.7130    -0.3090     0.9280 H     1 <1>   0.0800 
 21 H        1.9940    -0.1500    -0.8010 H     1 <1>   0.0800 
 22 H        0.3530    -3.8510    -0.4880 H     1 <1>   0.3700 
 23 H       -0.6120    -2.3970    -0.4950 H     1 <1>   0.3700 
 24 H        2.2430     5.1330     0.6610 H     1 <1>   0.4000 
 25 H       -1.4150     6.2110     1.0390 H     1 <1>   0.0800 
 26 H       -3.1140     6.3320     0.6690 H     1 <1>   0.0800 
 27 H       -1.9220     6.6580    -0.5770 H     1 <1>   0.0800 
 28 H       -3.3400     3.2940    -1.3350 H     1 <1>   0.0800 
 29 H       -3.9790     4.9110    -1.2070 H     1 <1>   0.0800 
 30 H       -4.1090     3.8090     0.1530 H     1 <1>   0.0800 
 31 H        3.5720     2.4870     0.2250 H     1 <1>   0.0800 
 32 H        3.8500     3.3670     1.7110 H     1 <1>   0.0800 
 33 H        4.6580     5.3070     0.4080 H     1 <1>   0.0800 
 34 H        4.3560     4.4330    -1.0770 H     1 <1>   0.0800 
 35 H        6.0240     2.7280    -0.4120 H     1 <1>   0.0800 
 36 H        6.3210     3.5900     1.0740 H     1 <1>   0.0800 
 37 H        6.8220     4.6880    -1.7110 H     1 <1>   0.0800 
 38 H        8.0470     4.1200    -0.6040 H     1 <1>   0.0800 
 39 H        7.1240     5.5510    -0.2190 H     1 <1>   0.0800 
@<TRIPOS>BOND
  1   1   2  1   
  2   1   3  1   
  3   2   4  ar  
  4   2   5  ar  
  5   3   6  1   
  6   3  20  1   
  7   3  21  1   
  8   4   7  ar  
  9   5   8  ar  
 10   6   9  2   
 11   6  10  am  
 12   7  11  ar  
 13   7  12  1   
 14   8  11  ar  
 15   8  13  1   
 16  10  22  1   
 17  10  23  1   
 18  12  14  1   
 19  12  15  1   
 20  13  16  1   
 21  13  24  1   
 22  14  25  1   
 23  14  26  1   
 24  14  27  1   
 25  15  28  1   
 26  15  29  1   
 27  15  30  1   
 28  16  17  1   
 29  16  31  1   
 30  16  32  1   
 31  17  18  1   
 32  17  33  1   
 33  17  34  1   
 34  18  19  1   
 35  18  35  1   
 36  18  36  1   
 37  19  37  1   
 38  19  38  1   
 39  19  39  1   
@<TRIPOS>SUBSTRUCTURE
  1 ****   5 GROUP 4 **** **** 0

# MOE 2024.06 (io_trps.svl 2023.06)
