@<TRIPOS>MOLECULE
NONAME
40 42 1 0 0 
SMALL
USER_CHARGES


@<TRIPOS>ATOM
  1 CL      -1.6520    -0.2430    -2.2600 Cl    1 <1>  -0.1770 
  2 C       -2.4290     0.8030    -1.0960 C.ar  1 <1>   0.1770 
  3 C       -1.8540     2.0060    -0.7220 C.ar  1 <1>   0.1770 
  4 C       -3.6400     0.4070    -0.5560 C.ar  1 <1>  -0.1500 
  5 CL      -0.3280     2.5200    -1.4010 Cl    1 <1>  -0.1770 
  6 C       -2.4860     2.8210     0.1990 C.ar  1 <1>  -0.1500 
  7 C       -4.2870     1.2240     0.3650 C.ar  1 <1>  -0.1440 
  8 C       -3.7000     2.4280     0.7410 C.ar  1 <1>  -0.1500 
  9 C       -5.6220     0.8040     0.9580 C.3   1 <1>   0.4870 
 10 N       -6.6840     0.9710    -0.0700 N.4   1 <1>  -0.9590 
 11 C       -6.8480     2.4190    -0.4700 C.3   1 <1>   0.3430 
 12 C       -7.9970     0.4010     0.4060 C.3   1 <1>   0.3430 
 13 C       -7.9590     2.6320    -1.5210 C.3   1 <1>   0.2090 
 14 C       -9.1350     0.5670    -0.6250 C.3   1 <1>   0.2090 
 15 N       -9.2400     1.9690    -1.1290 N.pl3 1 <1>  -0.8380 
 16 C      -10.2410     2.7790    -0.5720 C.ar  1 <1>   0.1000 
 17 C      -10.2020     3.3200     0.7190 C.ar  1 <1>   0.1900 
 18 C      -11.3580     3.0770    -1.3420 C.ar  1 <1>  -0.1500 
 19 F       -9.1690     3.0720     1.4920 F     1 <1>  -0.1900 
 20 C      -11.2090     4.1140     1.2310 C.ar  1 <1>  -0.1500 
 21 C      -12.3790     3.8720    -0.8460 C.ar  1 <1>  -0.1500 
 22 C      -12.3090     4.3910     0.4370 C.ar  1 <1>  -0.1500 
 23 H       -4.0510    -0.5390    -0.8640 H     1 <1>   0.1500 
 24 H       -2.0240     3.7510     0.4860 H     1 <1>   0.1500 
 25 H       -4.1750     3.0740     1.4630 H     1 <1>   0.1500 
 26 H       -5.8460     1.4060     1.8240 H     1 <1>   0.0800 
 27 H       -5.5640    -0.2270     1.2670 H     1 <1>   0.0800 
 28 H       -6.3950     0.4570    -0.9110 H     1 <1>   0.4500 
 29 H       -5.9210     2.7970    -0.8690 H     1 <1>   0.0800 
 30 H       -7.0920     3.0070     0.3980 H     1 <1>   0.0800 
 31 H       -8.2960     0.8980     1.3130 H     1 <1>   0.0800 
 32 H       -7.8840    -0.6470     0.6300 H     1 <1>   0.0800 
 33 H       -7.6400     2.2410    -2.4710 H     1 <1>   0.0800 
 34 H       -8.1280     3.6880    -1.6480 H     1 <1>   0.0800 
 35 H      -10.0690     0.2800    -0.1700 H     1 <1>   0.0800 
 36 H       -8.9690    -0.0920    -1.4590 H     1 <1>   0.0800 
 37 H      -11.4220     2.6790    -2.3390 H     1 <1>   0.1500 
 38 H      -11.1370     4.5090     2.2290 H     1 <1>   0.1500 
 39 H      -13.2350     4.0870    -1.4630 H     1 <1>   0.1500 
 40 H      -13.1080     5.0080     0.8140 H     1 <1>   0.1500 
@<TRIPOS>BOND
  1   1   2  1   
  2   2   3  ar  
  3   2   4  ar  
  4   3   5  1   
  5   3   6  ar  
  6   4   7  ar  
  7   4  23  1   
  8   6   8  ar  
  9   6  24  1   
 10   7   8  ar  
 11   7   9  1   
 12   8  25  1   
 13   9  10  1   
 14   9  26  1   
 15   9  27  1   
 16  10  11  1   
 17  10  12  1   
 18  10  28  1   
 19  11  13  1   
 20  11  29  1   
 21  11  30  1   
 22  12  14  1   
 23  12  31  1   
 24  12  32  1   
 25  13  15  1   
 26  13  33  1   
 27  13  34  1   
 28  14  15  1   
 29  14  35  1   
 30  14  36  1   
 31  15  16  1   
 32  16  17  ar  
 33  16  18  ar  
 34  17  19  1   
 35  17  20  ar  
 36  18  21  ar  
 37  18  37  1   
 38  20  22  ar  
 39  20  38  1   
 40  21  22  ar  
 41  21  39  1   
 42  22  40  1   
@<TRIPOS>SUBSTRUCTURE
  1 ****  11 GROUP 4 **** **** 0

# MOE 2024.06 (io_trps.svl 2023.06)
