@<TRIPOS>MOLECULE
NONAME
51 54 1 0 0 
SMALL
USER_CHARGES


@<TRIPOS>ATOM
  1 O        0.9110    -1.0600     2.2370 O.2   1 <1>  -0.5700 
  2 C        0.9380    -1.4640     1.1010 C.2   1 <1>   0.5690 
  3 N        1.7460    -0.9430     0.1290 N.am  1 <1>  -0.5470 
  4 C        0.0580    -2.6450     0.7320 C.3   1 <1>  -0.0990 
  5 C        2.6310     0.1480     0.1560 C.ar  1 <1>   0.1170 
  6 C       -1.3240    -2.2760     0.1440 C.3   1 <1>   0.0000 
  7 C        2.5100     1.1960     1.0620 C.ar  1 <1>  -0.1500 
  8 C        3.6630     0.1950    -0.7740 C.ar  1 <1>  -0.1500 
  9 C       -2.1440    -1.4230     1.1400 C.3   1 <1>  -0.1600 
 10 C       -2.1070    -3.5800    -0.1390 C.3   1 <1>  -0.1600 
 11 C       -1.1950    -1.4900    -1.1840 C.3   1 <1>  -0.1600 
 12 C        3.4000     2.2550     1.0420 C.ar  1 <1>  -0.1500 
 13 C        4.5560     1.2510    -0.8000 C.ar  1 <1>  -0.1500 
 14 C       -3.5380    -1.1030     0.5680 C.3   1 <1>  -0.0800 
 15 C       -3.5010    -3.2730    -0.7170 C.3   1 <1>  -0.0800 
 16 C       -2.5850    -1.1730    -1.7680 C.3   1 <1>  -0.0800 
 17 C        4.4290     2.2910     0.1160 C.ar  1 <1>   0.0830 
 18 C       -4.2890    -2.4190     0.2940 C.3   1 <1>  -0.1600 
 19 C       -3.3770    -0.3270    -0.7520 C.3   1 <1>  -0.1600 
 20 C       -3.3400    -2.4880    -2.0310 C.3   1 <1>  -0.1600 
 21 O        5.2630     3.3650     0.1760 O.3   1 <1>  -0.3630 
 22 C        6.3840     3.4910    -0.6920 C.3   1 <1>   0.1810 
 23 C        7.4970     2.4990    -0.3570 C.2   1 <1>   0.5690 
 24 O        8.2750     2.1750    -1.2170 O.2   1 <1>  -0.5700 
 25 N        7.6090     1.9830     0.8830 N.am  1 <1>  -0.8000 
 26 H        1.7020    -1.4280    -0.7640 H     1 <1>   0.3700 
 27 H       -0.0890    -3.2260     1.6240 H     1 <1>   0.0800 
 28 H        0.5910    -3.2670     0.0380 H     1 <1>   0.0800 
 29 H        1.7170     1.1930     1.7870 H     1 <1>   0.1500 
 30 H        3.7750    -0.6040    -1.4840 H     1 <1>   0.1500 
 31 H       -1.6330    -0.4990     1.3500 H     1 <1>   0.0800 
 32 H       -2.2510    -1.9490     2.0730 H     1 <1>   0.0800 
 33 H       -2.2200    -4.1440     0.7710 H     1 <1>   0.0800 
 34 H       -1.5630    -4.1940    -0.8350 H     1 <1>   0.0800 
 35 H       -0.6310    -2.0620    -1.8990 H     1 <1>   0.0800 
 36 H       -0.6790    -0.5610    -1.0190 H     1 <1>   0.0800 
 37 H        3.2970     3.0590     1.7480 H     1 <1>   0.1500 
 38 H        5.3390     1.2390    -1.5360 H     1 <1>   0.1500 
 39 H       -4.0920    -0.5090     1.2740 H     1 <1>   0.0800 
 40 H       -4.0290    -4.1930    -0.9040 H     1 <1>   0.0800 
 41 H       -2.4770    -0.6250    -2.6890 H     1 <1>   0.0800 
 42 H       -5.2680    -2.2050    -0.0960 H     1 <1>   0.0800 
 43 H       -4.4150    -2.9640     1.2130 H     1 <1>   0.0800 
 44 H       -2.8620     0.5990    -0.5690 H     1 <1>   0.0800 
 45 H       -4.3460    -0.0880    -1.1540 H     1 <1>   0.0800 
 46 H       -4.3090    -2.2740    -2.4470 H     1 <1>   0.0800 
 47 H       -2.8010    -3.0820    -2.7480 H     1 <1>   0.0800 
 48 H        6.7660     4.4880    -0.5800 H     1 <1>   0.0800 
 49 H        6.0550     3.3640    -1.7070 H     1 <1>   0.0800 
 50 H        8.3320     1.2940     1.0910 H     1 <1>   0.3700 
 51 H        6.9030     2.1530     1.6030 H     1 <1>   0.3700 
@<TRIPOS>BOND
  1   1   2  2   
  2   2   3  am  
  3   2   4  1   
  4   3   5  1   
  5   3  26  1   
  6   4   6  1   
  7   4  27  1   
  8   4  28  1   
  9   5   7  ar  
 10   5   8  ar  
 11   6   9  1   
 12   6  10  1   
 13   6  11  1   
 14   7  12  ar  
 15   7  29  1   
 16   8  13  ar  
 17   8  30  1   
 18   9  14  1   
 19   9  31  1   
 20   9  32  1   
 21  10  15  1   
 22  10  33  1   
 23  10  34  1   
 24  11  16  1   
 25  11  35  1   
 26  11  36  1   
 27  12  17  ar  
 28  12  37  1   
 29  13  17  ar  
 30  13  38  1   
 31  14  18  1   
 32  14  19  1   
 33  14  39  1   
 34  15  18  1   
 35  15  20  1   
 36  15  40  1   
 37  16  19  1   
 38  16  20  1   
 39  16  41  1   
 40  17  21  1   
 41  18  42  1   
 42  18  43  1   
 43  19  44  1   
 44  19  45  1   
 45  20  46  1   
 46  20  47  1   
 47  21  22  1   
 48  22  23  1   
 49  22  48  1   
 50  22  49  1   
 51  23  24  2   
 52  23  25  am  
 53  25  50  1   
 54  25  51  1   
@<TRIPOS>SUBSTRUCTURE
  1 ****   3 GROUP 4 **** **** 0

# MOE 2024.06 (io_trps.svl 2023.06)
