@<TRIPOS>MOLECULE
NONAME
37 39 1 0 0 
SMALL
USER_CHARGES


@<TRIPOS>ATOM
  1 CL      -0.0480    -2.1870     1.1970 Cl    1 <1>  -0.1770 
  2 C        1.6690    -2.0130     0.9420 C.ar  1 <1>   0.1770 
  3 C        2.5260    -2.9950     1.4070 C.ar  1 <1>  -0.1500 
  4 C        2.1430    -0.8950     0.2780 C.ar  1 <1>  -0.1500 
  5 C        3.8880    -2.8530     1.2030 C.ar  1 <1>  -0.1500 
  6 C        3.5060    -0.7520     0.0730 C.ar  1 <1>  -0.1500 
  7 C        4.3690    -1.7360     0.5390 C.ar  1 <1>   0.1020 
  8 S        6.1530    -1.6310     0.3160 S.3   1 <1>  -0.3320 
  9 C        6.4820    -0.0480    -0.6110 C.3   1 <1>   0.1310 
 10 C        7.9650     0.1600    -0.8840 C.2   1 <1>   0.5690 
 11 O        8.2900     1.1020    -1.5650 O.2   1 <1>  -0.5700 
 12 N        8.8750    -0.7020    -0.3650 N.am  1 <1>  -0.7300 
 13 C       10.3340    -0.6510    -0.5660 C.3   1 <1>   0.2200 
 14 C       10.8810    -1.9180    -1.2570 C.3   1 <1>  -0.0800 
 15 C       11.0760    -0.6460     0.7790 C.3   1 <1>  -0.1600 
 16 C       12.3310    -1.8900    -0.7960 C.3   1 <1>  -0.1600 
 17 C       10.3890    -3.1980    -0.5500 C.3   1 <1>  -0.1600 
 18 C       11.9880    -1.8820     0.6850 C.3   1 <1>  -0.0800 
 19 C       11.1150    -3.1420     0.8070 C.3   1 <1>  -0.1600 
 20 H        2.1290    -3.8530     1.9200 H     1 <1>   0.1500 
 21 H        1.4500    -0.1500    -0.0700 H     1 <1>   0.1500 
 22 H        4.5750    -3.6030     1.5550 H     1 <1>   0.1500 
 23 H        3.8680     0.1170    -0.4410 H     1 <1>   0.1500 
 24 H        6.1070     0.7600    -0.0120 H     1 <1>   0.0800 
 25 H        5.9480    -0.1030    -1.5400 H     1 <1>   0.0800 
 26 H        8.5430    -1.4970     0.1850 H     1 <1>   0.3700 
 27 H       10.6010     0.2240    -1.1370 H     1 <1>   0.0800 
 28 H       10.7500    -1.9170    -2.3250 H     1 <1>   0.0800 
 29 H       10.4120    -0.6950     1.6240 H     1 <1>   0.0800 
 30 H       11.6740     0.2450     0.8520 H     1 <1>   0.0800 
 31 H       12.8540    -1.0010    -1.1090 H     1 <1>   0.0800 
 32 H       12.8830    -2.7670    -1.0920 H     1 <1>   0.0800 
 33 H       10.7120    -4.0640    -1.1010 H     1 <1>   0.0800 
 34 H        9.3200    -3.2430    -0.4440 H     1 <1>   0.0800 
 35 H       12.8300    -1.8610     1.3560 H     1 <1>   0.0800 
 36 H       11.7320    -4.0150     0.9340 H     1 <1>   0.0800 
 37 H       10.4260    -3.0740     1.6310 H     1 <1>   0.0800 
@<TRIPOS>BOND
  1   1   2  1   
  2   2   3  ar  
  3   2   4  ar  
  4   3   5  ar  
  5   3  20  1   
  6   4   6  ar  
  7   4  21  1   
  8   5   7  ar  
  9   5  22  1   
 10   6   7  ar  
 11   6  23  1   
 12   7   8  1   
 13   8   9  1   
 14   9  10  1   
 15   9  24  1   
 16   9  25  1   
 17  10  11  2   
 18  10  12  am  
 19  12  13  1   
 20  12  26  1   
 21  13  14  1   
 22  13  15  1   
 23  13  27  1   
 24  14  16  1   
 25  14  17  1   
 26  14  28  1   
 27  15  18  1   
 28  15  29  1   
 29  15  30  1   
 30  16  18  1   
 31  16  31  1   
 32  16  32  1   
 33  17  19  1   
 34  17  33  1   
 35  17  34  1   
 36  18  19  1   
 37  18  35  1   
 38  19  36  1   
 39  19  37  1   
@<TRIPOS>SUBSTRUCTURE
  1 ****   8 GROUP 4 **** **** 0

# MOE 2024.06 (io_trps.svl 2023.06)
