@<TRIPOS>MOLECULE
NONAME
44 46 1 0 0 
SMALL
USER_CHARGES


@<TRIPOS>ATOM
  1 S        0.5430     1.3170     0.9900 S.o2  1 <1>   1.4470 
  2 O        1.4420     2.3860     0.6130 O.2   1 <1>  -0.6500 
  3 O        0.4000     0.9710     2.3890 O.2   1 <1>  -0.6500 
  4 N        1.0510    -0.0920     0.1910 N.am  1 <1>  -0.8490 
  5 C       -1.0860     1.6380     0.2560 C.ar  1 <1>  -0.0090 
  6 C        0.2740    -1.2600     0.6250 C.3   1 <1>   0.1960 
  7 C        2.4980    -0.2760     0.3380 C.3   1 <1>   0.1960 
  8 C       -1.2460     1.6890    -1.1250 C.ar  1 <1>  -0.1500 
  9 C       -2.2100     1.8420     1.0500 C.ar  1 <1>  -0.1500 
 10 C        0.2340    -2.3160    -0.4830 C.3   1 <1>  -0.1600 
 11 C        3.0660    -1.4050    -0.5310 C.3   1 <1>  -0.1600 
 12 C       -2.4850     1.9220    -1.6970 C.ar  1 <1>  -0.1500 
 13 C       -3.4530     2.0760     0.4890 C.ar  1 <1>  -0.1500 
 14 C        1.3750    -3.3460    -0.4400 C.3   1 <1>  -0.1600 
 15 C        2.7430    -2.8090     0.0000 C.3   1 <1>  -0.1600 
 16 C       -3.5950     2.1070    -0.8920 C.ar  1 <1>   0.0820 
 17 O       -4.7920     2.3300    -1.4880 O.3   1 <1>  -0.1650 
 18 C       -5.9460     1.8390    -0.9700 C.ar  1 <1>   0.0820 
 19 C       -6.0180     0.5610    -0.4270 C.ar  1 <1>  -0.1500 
 20 C       -7.0760     2.6400    -1.0050 C.ar  1 <1>  -0.1500 
 21 C       -7.2140     0.0980     0.0930 C.ar  1 <1>  -0.1500 
 22 C       -8.2720     2.1740    -0.4860 C.ar  1 <1>  -0.1500 
 23 C       -8.3400     0.9050     0.0650 C.ar  1 <1>  -0.1500 
 24 H       -0.7440    -0.9600     0.8100 H     1 <1>   0.0800 
 25 H        0.6610    -1.6640     1.5460 H     1 <1>   0.0800 
 26 H        2.7440    -0.4430     1.3740 H     1 <1>   0.0800 
 27 H        2.9950     0.6310     0.0340 H     1 <1>   0.0800 
 28 H       -0.3860     1.5410    -1.7570 H     1 <1>   0.1500 
 29 H       -2.1090     1.8180     2.1230 H     1 <1>   0.1500 
 30 H        0.2250    -1.8180    -1.4370 H     1 <1>   0.0800 
 31 H       -0.6940    -2.8550    -0.4050 H     1 <1>   0.0800 
 32 H        4.1360    -1.2960    -0.5250 H     1 <1>   0.0800 
 33 H        2.7440    -1.2890    -1.5510 H     1 <1>   0.0800 
 34 H       -2.5940     1.9590    -2.7670 H     1 <1>   0.1500 
 35 H       -4.3070     2.2390     1.1240 H     1 <1>   0.1500 
 36 H        1.4690    -3.7760    -1.4230 H     1 <1>   0.0800 
 37 H        1.1010    -4.1460     0.2260 H     1 <1>   0.0800 
 38 H        2.8010    -2.8050     1.0750 H     1 <1>   0.0800 
 39 H        3.4960    -3.4950    -0.3490 H     1 <1>   0.0800 
 40 H       -5.1470    -0.0700    -0.4140 H     1 <1>   0.1500 
 41 H       -7.0160     3.6230    -1.4360 H     1 <1>   0.1500 
 42 H       -7.2720    -0.8900     0.5160 H     1 <1>   0.1500 
 43 H       -9.1480     2.7980    -0.5100 H     1 <1>   0.1500 
 44 H       -9.2700     0.5440     0.4690 H     1 <1>   0.1500 
@<TRIPOS>BOND
  1   1   2  2   
  2   1   3  2   
  3   1   4  am  
  4   1   5  1   
  5   4   6  1   
  6   4   7  1   
  7   5   8  ar  
  8   5   9  ar  
  9   6  10  1   
 10   6  24  1   
 11   6  25  1   
 12   7  11  1   
 13   7  26  1   
 14   7  27  1   
 15   8  12  ar  
 16   8  28  1   
 17   9  13  ar  
 18   9  29  1   
 19  10  14  1   
 20  10  30  1   
 21  10  31  1   
 22  11  15  1   
 23  11  32  1   
 24  11  33  1   
 25  12  16  ar  
 26  12  34  1   
 27  13  16  ar  
 28  13  35  1   
 29  14  15  1   
 30  14  36  1   
 31  14  37  1   
 32  15  38  1   
 33  15  39  1   
 34  16  17  1   
 35  17  18  1   
 36  18  19  ar  
 37  18  20  ar  
 38  19  21  ar  
 39  19  40  1   
 40  20  22  ar  
 41  20  41  1   
 42  21  23  ar  
 43  21  42  1   
 44  22  23  ar  
 45  22  43  1   
 46  23  44  1   
@<TRIPOS>SUBSTRUCTURE
  1 ****   5 GROUP 4 **** **** 0

# MOE 2024.06 (io_trps.svl 2023.06)
