@<TRIPOS>MOLECULE
NONAME
42 43 1 0 0 
SMALL
USER_CHARGES


@<TRIPOS>ATOM
  1 O        1.1040    -1.2580    -2.0620 O.3   1 <1>  -0.5600 
  2 C        0.6560    -0.7680    -0.8350 C.3   1 <1>   0.1200 
  3 C        1.8790    -2.4140    -1.9690 C.3   1 <1>   0.1200 
  4 C        1.8600    -0.3880     0.0410 C.3   1 <1>   0.1100 
  5 C        3.1490    -2.1160    -1.1570 C.3   1 <1>   0.1100 
  6 N        2.8000    -1.5240     0.1540 N.3   1 <1>  -0.3020 
  7 N        3.9480    -1.2790     1.0800 N.4   1 <1>  -0.6410 
  8 C        5.2420    -0.8310     0.4820 C.3   1 <1>   0.4230 
  9 C        6.3630    -1.0000     1.5210 C.3   1 <1>  -0.0170 
 10 C        5.1350     0.6200     0.0030 C.3   1 <1>  -0.2400 
 11 C        7.7240    -0.8470     0.8630 C.ar  1 <1>  -0.1440 
 12 C        8.1820    -1.8280    -0.0030 C.ar  1 <1>  -0.1500 
 13 C        8.5180     0.2610     1.1090 C.ar  1 <1>  -0.1500 
 14 C        9.4070    -1.7200    -0.6400 C.ar  1 <1>   0.0820 
 15 C        9.7470     0.3890     0.4870 C.ar  1 <1>  -0.1500 
 16 O        9.7000    -2.7670    -1.4640 O.3   1 <1>  -0.3620 
 17 C       10.2000    -0.5870    -0.3880 C.ar  1 <1>   0.0820 
 18 C       10.9620    -2.9400    -2.0680 C.3   1 <1>   0.0400 
 19 O       11.4030    -0.3760    -0.9620 O.3   1 <1>  -0.5330 
 20 H        0.0480    -1.5190    -0.3600 H     1 <1>   0.0800 
 21 H        0.0450     0.0970    -1.0300 H     1 <1>   0.0800 
 22 H        2.1350    -2.7190    -2.9690 H     1 <1>   0.0800 
 23 H        1.2940    -3.1920    -1.5100 H     1 <1>   0.0800 
 24 H        1.5070    -0.1100     1.0170 H     1 <1>   0.0800 
 25 H        2.3440     0.4620    -0.4020 H     1 <1>   0.0800 
 26 H        3.7570    -1.4350    -1.7260 H     1 <1>   0.0800 
 27 H        3.6970    -3.0300    -1.0110 H     1 <1>   0.0800 
 28 H        4.1280    -2.1570     1.5880 H     1 <1>   0.4500 
 29 H        3.6720    -0.6010     1.8020 H     1 <1>   0.4500 
 30 H        5.4810    -1.4640    -0.3560 H     1 <1>   0.0800 
 31 H        6.3210    -1.9840     1.9530 H     1 <1>   0.0800 
 32 H        6.2560    -0.2780     2.3110 H     1 <1>   0.0800 
 33 H        4.8250     1.2760     0.7960 H     1 <1>   0.0800 
 34 H        4.4550     0.7000    -0.8250 H     1 <1>   0.0800 
 35 H        6.0920     0.9590    -0.3550 H     1 <1>   0.0800 
 36 H        7.5980    -2.7080    -0.2030 H     1 <1>   0.1500 
 37 H        8.1930     1.0350     1.7840 H     1 <1>   0.1500 
 38 H       10.3490     1.2560     0.6890 H     1 <1>   0.1500 
 39 H       10.9630    -3.8840    -2.5810 H     1 <1>   0.0800 
 40 H       11.7180    -2.9370    -1.3030 H     1 <1>   0.0800 
 41 H       11.1240    -2.1420    -2.7710 H     1 <1>   0.0800 
 42 H       11.8230     0.4540    -0.6760 H     1 <1>   0.4500 
@<TRIPOS>BOND
  1   1   2  1   
  2   1   3  1   
  3   2   4  1   
  4   2  20  1   
  5   2  21  1   
  6   3   5  1   
  7   3  22  1   
  8   3  23  1   
  9   4   6  1   
 10   4  24  1   
 11   4  25  1   
 12   5   6  1   
 13   5  26  1   
 14   5  27  1   
 15   6   7  1   
 16   7   8  1   
 17   7  28  1   
 18   7  29  1   
 19   8   9  1   
 20   8  10  1   
 21   8  30  1   
 22   9  11  1   
 23   9  31  1   
 24   9  32  1   
 25  10  33  1   
 26  10  34  1   
 27  10  35  1   
 28  11  12  ar  
 29  11  13  ar  
 30  12  14  ar  
 31  12  36  1   
 32  13  15  ar  
 33  13  37  1   
 34  14  16  1   
 35  14  17  ar  
 36  15  17  ar  
 37  15  38  1   
 38  16  18  1   
 39  17  19  1   
 40  18  39  1   
 41  18  40  1   
 42  18  41  1   
 43  19  42  1   
@<TRIPOS>SUBSTRUCTURE
  1 ****   8 GROUP 4 **** **** 0

# MOE 2024.06 (io_trps.svl 2023.06)
