@<TRIPOS>MOLECULE
NONAME
39 40 1 0 0 
SMALL
USER_CHARGES


@<TRIPOS>ATOM
  1 O       -0.0990    -0.8970     1.8120 O.2   1 <1>  -0.5700 
  2 C       -0.2860    -1.2140     0.6590 C.2   1 <1>   0.5690 
  3 N       -1.5340    -1.3490     0.1500 N.am  1 <1>  -0.7300 
  4 C        0.9190    -1.4830    -0.2570 C.3   1 <1>   0.2610 
  5 C       -2.7900    -1.2590     0.8890 C.3   1 <1>   0.3640 
  6 O        0.5470    -1.6550    -1.6030 O.3   1 <1>  -0.5600 
  7 C        1.6690    -2.7640     0.0830 C.3   1 <1>  -0.1600 
  8 C       -3.8140    -2.2120     0.2630 C.ar  1 <1>  -0.1440 
  9 C       -3.2540     0.1950     0.9540 C.3   1 <1>  -0.2400 
 10 C        1.4930    -2.4170    -2.2870 C.3   1 <1>   0.1200 
 11 C        2.3420    -3.1210    -1.2300 C.3   1 <1>  -0.1600 
 12 C       -4.3270    -2.1120    -1.0360 C.ar  1 <1>  -0.1430 
 13 C       -4.2460    -3.2590     1.0700 C.ar  1 <1>  -0.1500 
 14 C       -5.2520    -3.0480    -1.4740 C.ar  1 <1>  -0.1500 
 15 C       -3.9460    -1.0200    -2.0310 C.3   1 <1>  -0.0970 
 16 C       -5.1650    -4.1910     0.6250 C.ar  1 <1>  -0.1430 
 17 C       -5.6700    -4.0790    -0.6550 C.ar  1 <1>  -0.1500 
 18 C       -5.6130    -5.3190     1.5370 C.3   1 <1>  -0.0970 
 19 H       -1.6200    -1.6770    -0.8150 H     1 <1>   0.3700 
 20 H        1.5870    -0.6420    -0.2150 H     1 <1>   0.0800 
 21 H       -2.5970    -1.5740     1.9010 H     1 <1>   0.0800 
 22 H        0.9620    -3.5270     0.3620 H     1 <1>   0.0800 
 23 H        2.3670    -2.6150     0.8880 H     1 <1>   0.0800 
 24 H       -3.3030     0.6410    -0.0180 H     1 <1>   0.0800 
 25 H       -2.5680     0.7600     1.5590 H     1 <1>   0.0800 
 26 H       -4.2260     0.2410     1.4100 H     1 <1>   0.0800 
 27 H        2.0870    -1.7570    -2.8960 H     1 <1>   0.0800 
 28 H        0.9690    -3.1200    -2.9100 H     1 <1>   0.0800 
 29 H        2.3740    -4.1840    -1.3920 H     1 <1>   0.0800 
 30 H        3.3450    -2.7320    -1.2610 H     1 <1>   0.0800 
 31 H       -3.8600    -3.3560     2.0700 H     1 <1>   0.1500 
 32 H       -5.6610    -2.9810    -2.4660 H     1 <1>   0.1500 
 33 H       -4.1220    -1.3500    -3.0390 H     1 <1>   0.0800 
 34 H       -4.5480    -0.1470    -1.8560 H     1 <1>   0.0800 
 35 H       -2.9110    -0.7520    -1.9610 H     1 <1>   0.0800 
 36 H       -6.3890    -4.7910    -1.0210 H     1 <1>   0.1500 
 37 H       -4.7810    -5.6830     2.1140 H     1 <1>   0.0800 
 38 H       -6.0100    -6.1370     0.9630 H     1 <1>   0.0800 
 39 H       -6.3740    -4.9640     2.2080 H     1 <1>   0.0800 
@<TRIPOS>BOND
  1   1   2  2   
  2   2   3  am  
  3   2   4  1   
  4   3   5  1   
  5   3  19  1   
  6   4   6  1   
  7   4   7  1   
  8   4  20  1   
  9   5   8  1   
 10   5   9  1   
 11   5  21  1   
 12   6  10  1   
 13   7  11  1   
 14   7  22  1   
 15   7  23  1   
 16   8  12  ar  
 17   8  13  ar  
 18   9  24  1   
 19   9  25  1   
 20   9  26  1   
 21  10  11  1   
 22  10  27  1   
 23  10  28  1   
 24  11  29  1   
 25  11  30  1   
 26  12  14  ar  
 27  12  15  1   
 28  13  16  ar  
 29  13  31  1   
 30  14  17  ar  
 31  14  32  1   
 32  15  33  1   
 33  15  34  1   
 34  15  35  1   
 35  16  17  ar  
 36  16  18  1   
 37  17  36  1   
 38  18  37  1   
 39  18  38  1   
 40  18  39  1   
@<TRIPOS>SUBSTRUCTURE
  1 ****   3 GROUP 4 **** **** 0

# MOE 2024.06 (io_trps.svl 2023.06)
