@<TRIPOS>MOLECULE
NONAME
57 59 1 0 0 
SMALL
USER_CHARGES


@<TRIPOS>ATOM
  1 O        0.1120    -1.2310     0.8770 O.3   1 <1>  -0.3630 
  2 C       -0.9840    -1.3270     0.0590 C.ar  1 <1>   0.0830 
  3 C        0.2540    -0.1550     1.7780 C.3   1 <1>   0.1200 
  4 C       -1.0410    -2.3850    -0.8660 C.ar  1 <1>   0.1000 
  5 C       -2.0340    -0.4130     0.1200 C.ar  1 <1>  -0.1500 
  6 C        1.5910    -0.3110     2.4960 C.3   1 <1>  -0.2400 
  7 N       -0.0450    -3.3620    -1.0090 N.pl3 1 <1>  -0.8380 
  8 C       -2.1460    -2.4870    -1.6990 C.ar  1 <1>  -0.1500 
  9 C       -3.1260    -0.5370    -0.7220 C.ar  1 <1>  -0.1500 
 10 C        1.2400    -2.9300    -1.6390 C.3   1 <1>   0.2090 
 11 C        0.0520    -4.3850     0.0730 C.3   1 <1>   0.2090 
 12 C       -3.1820    -1.5750    -1.6320 C.ar  1 <1>  -0.1500 
 13 C        2.3530    -2.6750    -0.6010 C.3   1 <1>   0.3430 
 14 C        1.1910    -4.0850     1.0700 C.3   1 <1>   0.3430 
 15 N        2.5040    -3.8030     0.3910 N.4   1 <1>  -0.9590 
 16 C        3.5800    -3.5220     1.3750 C.3   1 <1>   0.4860 
 17 C        4.9000    -3.4250     0.6340 C.ar  1 <1>  -0.1430 
 18 C        5.5950    -4.5560     0.2160 C.ar  1 <1>  -0.1430 
 19 C        5.4130    -2.1640     0.3660 C.ar  1 <1>  -0.1500 
 20 C        6.7810    -4.4000    -0.4840 C.ar  1 <1>  -0.1500 
 21 C        5.1060    -5.9710     0.5070 C.3   1 <1>  -0.0970 
 22 C        6.5970    -2.0100    -0.3320 C.ar  1 <1>  -0.1430 
 23 C        7.2880    -3.1350    -0.7650 C.ar  1 <1>   0.0830 
 24 C        7.1400    -0.6150    -0.6170 C.3   1 <1>  -0.0970 
 25 O        8.4450    -2.9380    -1.4500 O.3   1 <1>  -0.3620 
 26 C        9.2780    -4.0080    -1.8410 C.3   1 <1>   0.0400 
 27 H       -0.5620    -0.1870     2.4810 H     1 <1>   0.0800 
 28 H        0.2280     0.7660     1.2200 H     1 <1>   0.0800 
 29 H       -2.0340     0.4070     0.8120 H     1 <1>   0.1500 
 30 H        1.6130    -1.2340     3.0460 H     1 <1>   0.0800 
 31 H        1.7170     0.4990     3.1920 H     1 <1>   0.0800 
 32 H        2.4000    -0.2770     1.7900 H     1 <1>   0.0800 
 33 H       -2.1890    -3.2950    -2.4070 H     1 <1>   0.1500 
 34 H       -3.9330     0.1740    -0.6680 H     1 <1>   0.1500 
 35 H        1.0740    -2.0270    -2.2020 H     1 <1>   0.0800 
 36 H        1.5610    -3.6870    -2.3320 H     1 <1>   0.0800 
 37 H        0.2070    -5.3510    -0.3740 H     1 <1>   0.0800 
 38 H       -0.8820    -4.4240     0.6080 H     1 <1>   0.0800 
 39 H       -4.0300    -1.6730    -2.2880 H     1 <1>   0.1500 
 40 H        2.1210    -1.7640    -0.0790 H     1 <1>   0.0800 
 41 H        3.2820    -2.5220    -1.1260 H     1 <1>   0.0800 
 42 H        1.2950    -4.9230     1.7390 H     1 <1>   0.0800 
 43 H        0.9000    -3.2310     1.6580 H     1 <1>   0.0800 
 44 H        2.7930    -4.6280    -0.1460 H     1 <1>   0.4500 
 45 H        3.6350    -4.3120     2.1050 H     1 <1>   0.0800 
 46 H        3.3790    -2.5970     1.8900 H     1 <1>   0.0800 
 47 H        4.8930    -1.2830     0.7010 H     1 <1>   0.1500 
 48 H        7.3110    -5.2750    -0.8100 H     1 <1>   0.1500 
 49 H        4.2660    -6.2160    -0.1160 H     1 <1>   0.0800 
 50 H        4.8320    -6.0750     1.5410 H     1 <1>   0.0800 
 51 H        5.8840    -6.6880     0.3080 H     1 <1>   0.0800 
 52 H        6.4940     0.1490    -0.2240 H     1 <1>   0.0800 
 53 H        7.2380    -0.4720    -1.6780 H     1 <1>   0.0800 
 54 H        8.1110    -0.5060    -0.1670 H     1 <1>   0.0800 
 55 H       10.1440    -3.5960    -2.3250 H     1 <1>   0.0800 
 56 H        8.7410    -4.6360    -2.5280 H     1 <1>   0.0800 
 57 H        9.5760    -4.5560    -0.9650 H     1 <1>   0.0800 
@<TRIPOS>BOND
  1   1   2  1   
  2   1   3  1   
  3   2   4  ar  
  4   2   5  ar  
  5   3   6  1   
  6   3  27  1   
  7   3  28  1   
  8   4   7  1   
  9   4   8  ar  
 10   5   9  ar  
 11   5  29  1   
 12   6  30  1   
 13   6  31  1   
 14   6  32  1   
 15   7  10  1   
 16   7  11  1   
 17   8  12  ar  
 18   8  33  1   
 19   9  12  ar  
 20   9  34  1   
 21  10  13  1   
 22  10  35  1   
 23  10  36  1   
 24  11  14  1   
 25  11  37  1   
 26  11  38  1   
 27  12  39  1   
 28  13  15  1   
 29  13  40  1   
 30  13  41  1   
 31  14  15  1   
 32  14  42  1   
 33  14  43  1   
 34  15  16  1   
 35  15  44  1   
 36  16  17  1   
 37  16  45  1   
 38  16  46  1   
 39  17  18  ar  
 40  17  19  ar  
 41  18  20  ar  
 42  18  21  1   
 43  19  22  ar  
 44  19  47  1   
 45  20  23  ar  
 46  20  48  1   
 47  21  49  1   
 48  21  50  1   
 49  21  51  1   
 50  22  23  ar  
 51  22  24  1   
 52  23  25  1   
 53  24  52  1   
 54  24  53  1   
 55  24  54  1   
 56  25  26  1   
 57  26  55  1   
 58  26  56  1   
 59  26  57  1   
@<TRIPOS>SUBSTRUCTURE
  1 ****  13 GROUP 4 **** **** 0

# MOE 2024.06 (io_trps.svl 2023.06)
