@<TRIPOS>MOLECULE
NONAME
47 49 1 0 0 
SMALL
USER_CHARGES


@<TRIPOS>ATOM
  1 CL      -1.2690     0.1290    -0.8940 Cl    1 <1>  -0.1770 
  2 C        0.4010     0.0980    -0.3650 C.ar  1 <1>   0.1770 
  3 C        0.9500    -1.0900     0.1140 C.ar  1 <1>   0.1170 
  4 C        1.1320     1.2710    -0.4420 C.ar  1 <1>  -0.1500 
  5 N        0.1780    -2.2660     0.1530 N.am  1 <1>  -0.5470 
  6 C        2.2760    -1.0370     0.5470 C.ar  1 <1>   0.1770 
  7 C        2.4520     1.2860    -0.0240 C.ar  1 <1>  -0.1500 
  8 C        0.3930    -3.4370    -0.5090 C.2   1 <1>   0.5690 
  9 CL       3.0440    -2.4490     1.2450 Cl    1 <1>  -0.1770 
 10 C        3.0230     0.1260     0.4740 C.ar  1 <1>  -0.1500 
 11 O        1.3510    -3.6350    -1.2160 O.2   1 <1>  -0.5700 
 12 C       -0.6810    -4.5140    -0.3560 C.3   1 <1>   0.1710 
 13 N       -2.0350    -3.9510    -0.0850 N.3   1 <1>  -0.8100 
 14 C       -2.9550    -4.9920     0.4310 C.3   1 <1>   0.1100 
 15 C       -2.6170    -3.3490    -1.3140 C.3   1 <1>   0.1100 
 16 C       -4.3670    -4.4360     0.7020 C.3   1 <1>   0.2090 
 17 C       -4.0230    -2.7680    -1.0690 C.3   1 <1>   0.2090 
 18 N       -4.9380    -3.8150    -0.5280 N.pl3 1 <1>  -0.8380 
 19 C       -6.2900    -3.4510    -0.4480 C.ar  1 <1>   0.1000 
 20 C       -6.7970    -2.4450     0.3960 C.ar  1 <1>   0.0830 
 21 C       -7.1740    -4.1420    -1.2640 C.ar  1 <1>  -0.1500 
 22 O       -5.9220    -1.7630     1.2010 O.3   1 <1>  -0.3620 
 23 C       -8.1620    -2.1690     0.3930 C.ar  1 <1>  -0.1500 
 24 C       -8.5270    -3.8620    -1.2620 C.ar  1 <1>  -0.1500 
 25 C       -6.3390    -0.6660     1.9820 C.3   1 <1>   0.0400 
 26 C       -9.0220    -2.8740    -0.4320 C.ar  1 <1>  -0.1500 
 27 H        0.6690     2.1630    -0.8260 H     1 <1>   0.1500 
 28 H       -0.7830    -2.2030     0.5110 H     1 <1>   0.3700 
 29 H        3.0310     2.1930    -0.0830 H     1 <1>   0.1500 
 30 H        4.0450     0.1200     0.8120 H     1 <1>   0.1500 
 31 H       -0.3840    -5.1400     0.4660 H     1 <1>   0.0800 
 32 H       -0.7020    -5.1210    -1.2450 H     1 <1>   0.0800 
 33 H       -2.5620    -5.3920     1.3490 H     1 <1>   0.0800 
 34 H       -3.0350    -5.7960    -0.2810 H     1 <1>   0.0800 
 35 H       -2.6910    -4.0950    -2.0870 H     1 <1>   0.0800 
 36 H       -1.9800    -2.5610    -1.6740 H     1 <1>   0.0800 
 37 H       -4.3130    -3.7050     1.4890 H     1 <1>   0.0800 
 38 H       -5.0130    -5.2320     1.0270 H     1 <1>   0.0800 
 39 H       -4.4250    -2.3920    -1.9930 H     1 <1>   0.0800 
 40 H       -3.9510    -1.9490    -0.3760 H     1 <1>   0.0800 
 41 H       -6.7810    -4.9090    -1.9060 H     1 <1>   0.1500 
 42 H       -8.5810    -1.4110     1.0250 H     1 <1>   0.1500 
 43 H       -9.1910    -4.4120    -1.9050 H     1 <1>   0.1500 
 44 H       -5.4750    -0.2660     2.4810 H     1 <1>   0.0800 
 45 H       -7.0550    -1.0070     2.7080 H     1 <1>   0.0800 
 46 H       -6.7670     0.0800     1.3360 H     1 <1>   0.0800 
 47 H      -10.0750    -2.6530    -0.4270 H     1 <1>   0.1500 
@<TRIPOS>BOND
  1   1   2  1   
  2   2   3  ar  
  3   2   4  ar  
  4   3   5  1   
  5   3   6  ar  
  6   4   7  ar  
  7   4  27  1   
  8   5   8  am  
  9   5  28  1   
 10   6   9  1   
 11   6  10  ar  
 12   7  10  ar  
 13   7  29  1   
 14   8  11  2   
 15   8  12  1   
 16  10  30  1   
 17  12  13  1   
 18  12  31  1   
 19  12  32  1   
 20  13  14  1   
 21  13  15  1   
 22  14  16  1   
 23  14  33  1   
 24  14  34  1   
 25  15  17  1   
 26  15  35  1   
 27  15  36  1   
 28  16  18  1   
 29  16  37  1   
 30  16  38  1   
 31  17  18  1   
 32  17  39  1   
 33  17  40  1   
 34  18  19  1   
 35  19  20  ar  
 36  19  21  ar  
 37  20  22  1   
 38  20  23  ar  
 39  21  24  ar  
 40  21  41  1   
 41  22  25  1   
 42  23  26  ar  
 43  23  42  1   
 44  24  26  ar  
 45  24  43  1   
 46  25  44  1   
 47  25  45  1   
 48  25  46  1   
 49  26  47  1   
@<TRIPOS>SUBSTRUCTURE
  1 ****  15 GROUP 4 **** **** 0

# MOE 2024.06 (io_trps.svl 2023.06)
