@<TRIPOS>MOLECULE
NONAME
46 46 1 0 0 
SMALL
USER_CHARGES


@<TRIPOS>ATOM
  1 O       -1.1530    -3.6660    -1.7350 O.2   1 <1>  -0.5700 
  2 C       -0.6980    -3.2260    -0.6990 C.2   1 <1>   0.6900 
  3 N       -1.1990    -3.5660     0.5310 N.am  1 <1>  -0.6600 
  4 N        0.3400    -2.3690    -0.8110 N.am  1 <1>  -0.7300 
  5 C       -1.8490    -4.8740     0.8330 C.3   1 <1>   0.3580 
  6 C       -1.3990    -2.5290     1.5780 C.3   1 <1>   0.0600 
  7 C        1.5270    -2.3820     0.0470 C.3   1 <1>   0.2200 
  8 C       -3.3550    -4.9120     0.5350 C.2   1 <1>  -0.2760 
  9 C       -1.1360    -6.0600     0.1650 C.3   1 <1>  -0.1600 
 10 C        1.8830    -0.9410     0.3940 C.3   1 <1>  -0.2400 
 11 C        2.6570    -3.0630    -0.7170 C.3   1 <1>  -0.2400 
 12 C       -4.0330    -3.9380    -0.0960 C.2   1 <1>  -0.2880 
 13 C       -3.9570    -6.2220     1.0440 C.3   1 <1>  -0.0220 
 14 C       -1.7370    -7.3940     0.6340 C.3   1 <1>  -0.1600 
 15 C       -5.5070    -3.8490    -0.4580 C.3   1 <1>   0.0580 
 16 C       -3.2540    -7.4220     0.3940 C.3   1 <1>  -0.1600 
 17 C       -5.6450    -3.7720    -1.9780 C.3   1 <1>  -0.2400 
 18 C       -6.1180    -2.6130     0.2020 C.3   1 <1>  -0.2400 
 19 H        0.5400    -2.1450    -1.7830 H     1 <1>   0.3700 
 20 H       -1.7420    -5.0220     1.8930 H     1 <1>   0.0800 
 21 H       -0.7600    -2.7320     2.4180 H     1 <1>   0.0800 
 22 H       -2.4260    -2.5330     1.9030 H     1 <1>   0.0800 
 23 H       -1.1720    -1.5530     1.1880 H     1 <1>   0.0800 
 24 H        1.3220    -2.9350     0.9490 H     1 <1>   0.0800 
 25 H       -1.2530    -5.9970    -0.9010 H     1 <1>   0.0800 
 26 H       -0.0880    -6.0310     0.4010 H     1 <1>   0.0800 
 27 H        2.0910    -0.3760    -0.4970 H     1 <1>   0.0800 
 28 H        2.7540    -0.9210     1.0240 H     1 <1>   0.0800 
 29 H        1.0710    -0.4790     0.9240 H     1 <1>   0.0800 
 30 H        2.8860    -2.5260    -1.6200 H     1 <1>   0.0800 
 31 H        2.3760    -4.0710    -0.9650 H     1 <1>   0.0800 
 32 H        3.5410    -3.1000    -0.1070 H     1 <1>   0.0800 
 33 H       -3.5220    -3.0560    -0.4420 H     1 <1>   0.1500 
 34 H       -3.8410    -6.2730     2.1120 H     1 <1>   0.0800 
 35 H       -5.0070    -6.2880     0.8360 H     1 <1>   0.0800 
 36 H       -1.2730    -8.2050     0.0990 H     1 <1>   0.0800 
 37 H       -1.5360    -7.5310     1.6830 H     1 <1>   0.0800 
 38 H       -6.0440    -4.7130    -0.1160 H     1 <1>   0.0800 
 39 H       -3.6660    -8.3360     0.7840 H     1 <1>   0.0800 
 40 H       -3.4440    -7.3980    -0.6660 H     1 <1>   0.0800 
 41 H       -5.1380    -2.9020    -2.3590 H     1 <1>   0.0800 
 42 H       -6.6810    -3.7250    -2.2620 H     1 <1>   0.0800 
 43 H       -5.2020    -4.6440    -2.4260 H     1 <1>   0.0800 
 44 H       -5.6240    -1.7210    -0.1390 H     1 <1>   0.0800 
 45 H       -6.0090    -2.6790     1.2700 H     1 <1>   0.0800 
 46 H       -7.1650    -2.5420    -0.0340 H     1 <1>   0.0800 
@<TRIPOS>BOND
  1   1   2  2   
  2   2   3  am  
  3   2   4  am  
  4   3   5  1   
  5   3   6  1   
  6   4   7  1   
  7   4  19  1   
  8   5   8  1   
  9   5   9  1   
 10   5  20  1   
 11   6  21  1   
 12   6  22  1   
 13   6  23  1   
 14   7  10  1   
 15   7  11  1   
 16   7  24  1   
 17   8  12  2   
 18   8  13  1   
 19   9  14  1   
 20   9  25  1   
 21   9  26  1   
 22  10  27  1   
 23  10  28  1   
 24  10  29  1   
 25  11  30  1   
 26  11  31  1   
 27  11  32  1   
 28  12  15  1   
 29  12  33  1   
 30  13  16  1   
 31  13  34  1   
 32  13  35  1   
 33  14  16  1   
 34  14  36  1   
 35  14  37  1   
 36  15  17  1   
 37  15  18  1   
 38  15  38  1   
 39  16  39  1   
 40  16  40  1   
 41  17  41  1   
 42  17  42  1   
 43  17  43  1   
 44  18  44  1   
 45  18  45  1   
 46  18  46  1   
@<TRIPOS>SUBSTRUCTURE
  1 ****   3 GROUP 4 **** **** 0

# MOE 2024.06 (io_trps.svl 2023.06)
