@<TRIPOS>MOLECULE
NONAME
30 31 1 0 0 
SMALL
USER_CHARGES


@<TRIPOS>ATOM
  1 CL       0.0450    -0.0480     0.2980 Cl    1 <1>  -0.1770 
  2 C        1.5180    -0.9750     0.1610 C.ar  1 <1>   0.1770 
  3 C        1.7970    -1.9470     1.1050 C.ar  1 <1>  -0.1500 
  4 C        2.3830    -0.7240    -0.8890 C.ar  1 <1>  -0.1500 
  5 C        2.9660    -2.6840     0.9990 C.ar  1 <1>  -0.1500 
  6 C        3.5490    -1.4630    -0.9920 C.ar  1 <1>  -0.1500 
  7 C        3.8470    -2.4420    -0.0550 C.ar  1 <1>   0.0830 
  8 O        5.0100    -3.1160    -0.2350 O.3   1 <1>  -0.3630 
  9 C        5.3980    -4.1640     0.6400 C.3   1 <1>   0.1810 
 10 C        6.7320    -4.7600     0.2170 C.2   1 <1>   0.5390 
 11 O        6.7860    -5.3550    -0.9740 O.3   1 <1>  -0.4300 
 12 N        7.7930    -4.7680     0.8930 N.2   1 <1>  -0.6960 
 13 C        8.0960    -5.8220    -1.1700 C.3   1 <1>   0.1200 
 14 C        8.8190    -5.4350     0.1320 C.3   1 <1>   0.2460 
 15 C        9.9620    -4.4490    -0.1030 C.3   1 <1>  -0.2400 
 16 C        9.2890    -6.6550     0.9250 C.3   1 <1>  -0.2400 
 17 H        1.1060    -2.1190     1.9100 H     1 <1>   0.1500 
 18 H        2.1440     0.0360    -1.6100 H     1 <1>   0.1500 
 19 H        3.1680    -3.4330     1.7410 H     1 <1>   0.1500 
 20 H        4.2370    -1.2850    -1.8000 H     1 <1>   0.1500 
 21 H        4.6420    -4.9260     0.6140 H     1 <1>   0.0800 
 22 H        5.4890    -3.7610     1.6310 H     1 <1>   0.0800 
 23 H        8.5140    -5.3310    -2.0300 H     1 <1>   0.0800 
 24 H        8.0680    -6.8860    -1.3250 H     1 <1>   0.0800 
 25 H        9.6050    -3.5790    -0.6250 H     1 <1>   0.0800 
 26 H       10.7360    -4.9090    -0.6900 H     1 <1>   0.0800 
 27 H       10.3830    -4.1410     0.8370 H     1 <1>   0.0800 
 28 H        8.4660    -7.3190     1.1160 H     1 <1>   0.0800 
 29 H        9.7110    -6.3440     1.8650 H     1 <1>   0.0800 
 30 H       10.0410    -7.1890     0.3740 H     1 <1>   0.0800 
@<TRIPOS>BOND
  1   1   2  1   
  2   2   3  ar  
  3   2   4  ar  
  4   3   5  ar  
  5   3  17  1   
  6   4   6  ar  
  7   4  18  1   
  8   5   7  ar  
  9   5  19  1   
 10   6   7  ar  
 11   6  20  1   
 12   7   8  1   
 13   8   9  1   
 14   9  10  1   
 15   9  21  1   
 16   9  22  1   
 17  10  11  1   
 18  10  12  2   
 19  11  13  1   
 20  12  14  1   
 21  13  14  1   
 22  13  23  1   
 23  13  24  1   
 24  14  15  1   
 25  14  16  1   
 26  15  25  1   
 27  15  26  1   
 28  15  27  1   
 29  16  28  1   
 30  16  29  1   
 31  16  30  1   
@<TRIPOS>SUBSTRUCTURE
  1 ****   8 GROUP 4 **** **** 0

# MOE 2024.06 (io_trps.svl 2023.06)
