@<TRIPOS>MOLECULE
NONAME
47 48 1 0 0 
SMALL
USER_CHARGES


@<TRIPOS>ATOM
  1 O        0.3110    -4.1110    -1.2210 O.2   1 <1>  -0.5700 
  2 C        0.2390    -3.2000    -0.4390 C.2   1 <1>   0.6590 
  3 O       -0.8270    -2.4190    -0.3440 O.3   1 <1>  -0.4300 
  4 C        1.3900    -2.8760     0.5080 C.3   1 <1>  -0.0190 
  5 C       -1.9550    -2.6140    -1.1660 C.3   1 <1>   0.1200 
  6 C        2.6270    -2.4010    -0.2790 C.3   1 <1>  -0.1600 
  7 C        1.7430    -4.0940     1.3870 C.3   1 <1>  -0.1600 
  8 C       -2.9930    -1.5560    -0.8040 C.3   1 <1>  -0.2400 
  9 C        3.8380    -2.1840     0.6260 C.3   1 <1>   0.3430 
 10 C        2.9710    -3.8410     2.2590 C.3   1 <1>   0.3430 
 11 N        4.1010    -3.4330     1.3900 N.4   1 <1>  -0.9590 
 12 C        5.4000    -3.4000     2.1090 C.3   1 <1>   0.4860 
 13 C        6.5100    -3.3190     1.0790 C.ar  1 <1>  -0.1440 
 14 C        6.6310    -4.3000     0.0960 C.ar  1 <1>   0.0820 
 15 C        7.4030    -2.2580     1.1120 C.ar  1 <1>  -0.1500 
 16 O        5.7230    -5.3170     0.1140 O.3   1 <1>  -0.3620 
 17 C        7.6480    -4.1980    -0.8490 C.ar  1 <1>  -0.1500 
 18 C        8.4100    -2.1660     0.1690 C.ar  1 <1>  -0.1500 
 19 C        5.6540    -6.3140    -0.8880 C.3   1 <1>   0.1200 
 20 C        8.5310    -3.1350    -0.8110 C.ar  1 <1>  -0.1500 
 21 C        4.9060    -5.7570    -2.1010 C.3   1 <1>  -0.2400 
 22 H        1.0690    -2.0760     1.1520 H     1 <1>   0.0800 
 23 H       -2.3380    -3.6060    -0.9920 H     1 <1>   0.0800 
 24 H       -1.6500    -2.5210    -2.1950 H     1 <1>   0.0800 
 25 H        2.3970    -1.4800    -0.7850 H     1 <1>   0.0800 
 26 H        2.8820    -3.1250    -1.0350 H     1 <1>   0.0800 
 27 H        1.9280    -4.9540     0.7650 H     1 <1>   0.0800 
 28 H        0.9050    -4.3320     2.0190 H     1 <1>   0.0800 
 29 H       -3.2820    -1.6560     0.2270 H     1 <1>   0.0800 
 30 H       -3.8660    -1.6820    -1.4170 H     1 <1>   0.0800 
 31 H       -2.5960    -0.5720    -0.9740 H     1 <1>   0.0800 
 32 H        3.6480    -1.3690     1.3050 H     1 <1>   0.0800 
 33 H        4.6950    -1.9320     0.0200 H     1 <1>   0.0800 
 34 H        3.2210    -4.7430     2.7950 H     1 <1>   0.0800 
 35 H        2.7570    -3.0640     2.9750 H     1 <1>   0.0800 
 36 H        4.2540    -4.1810     0.6890 H     1 <1>   0.4500 
 37 H        5.5260    -4.3030     2.6830 H     1 <1>   0.0800 
 38 H        5.4410    -2.5540     2.7750 H     1 <1>   0.0800 
 39 H        7.3300    -1.4930     1.8670 H     1 <1>   0.1500 
 40 H        7.7760    -4.9300    -1.6240 H     1 <1>   0.1500 
 41 H        9.1050    -1.3430     0.1950 H     1 <1>   0.1500 
 42 H        5.1100    -7.1460    -0.4760 H     1 <1>   0.0800 
 43 H        6.6450    -6.6520    -1.1340 H     1 <1>   0.0800 
 44 H        9.3180    -3.0610    -1.5430 H     1 <1>   0.1500 
 45 H        3.9060    -5.4740    -1.8270 H     1 <1>   0.0800 
 46 H        4.8420    -6.5160    -2.8600 H     1 <1>   0.0800 
 47 H        5.4210    -4.9110    -2.5170 H     1 <1>   0.0800 
@<TRIPOS>BOND
  1   1   2  2   
  2   2   3  1   
  3   2   4  1   
  4   3   5  1   
  5   4   6  1   
  6   4   7  1   
  7   4  22  1   
  8   5   8  1   
  9   5  23  1   
 10   5  24  1   
 11   6   9  1   
 12   6  25  1   
 13   6  26  1   
 14   7  10  1   
 15   7  27  1   
 16   7  28  1   
 17   8  29  1   
 18   8  30  1   
 19   8  31  1   
 20   9  11  1   
 21   9  32  1   
 22   9  33  1   
 23  10  11  1   
 24  10  34  1   
 25  10  35  1   
 26  11  12  1   
 27  11  36  1   
 28  12  13  1   
 29  12  37  1   
 30  12  38  1   
 31  13  14  ar  
 32  13  15  ar  
 33  14  16  1   
 34  14  17  ar  
 35  15  18  ar  
 36  15  39  1   
 37  16  19  1   
 38  17  20  ar  
 39  17  40  1   
 40  18  20  ar  
 41  18  41  1   
 42  19  21  1   
 43  19  42  1   
 44  19  43  1   
 45  20  44  1   
 46  21  45  1   
 47  21  46  1   
 48  21  47  1   
@<TRIPOS>SUBSTRUCTURE
  1 ****  11 GROUP 4 **** **** 0

# MOE 2024.06 (io_trps.svl 2023.06)
