@<TRIPOS>MOLECULE
NONAME
39 40 1 0 0 
SMALL
USER_CHARGES


@<TRIPOS>ATOM
  1 N       -0.9190     0.3320    -1.8360 N.1   1 <1>  -0.5570 
  2 C       -1.8770     0.7600    -1.3850 C.1   1 <1>   0.4840 
  3 C       -3.0490     1.3440    -0.8120 C.ar  1 <1>   0.0730 
  4 C       -3.2750     2.7120    -0.9600 C.ar  1 <1>   0.4100 
  5 C       -3.9710     0.5870    -0.1020 C.ar  1 <1>   0.0000 
  6 N       -4.3080     3.3520    -0.4590 N.ar  1 <1>  -0.6200 
  7 N       -2.4370     3.5440    -1.6440 N.pl3 1 <1>  -0.9000 
  8 C       -3.7820    -0.8350     0.0810 C.ar  1 <1>   0.0000 
  9 C       -5.0750     1.2610     0.4210 C.ar  1 <1>  -0.1430 
 10 C       -5.1930     2.6340     0.2120 C.ar  1 <1>   0.1670 
 11 C       -3.1090    -1.3300     1.1940 C.ar  1 <1>  -0.1500 
 12 C       -4.2650    -1.7450    -0.8550 C.ar  1 <1>  -0.1500 
 13 C       -6.1030     0.4370     1.2050 C.3   1 <1>  -0.0970 
 14 C       -6.3650     3.4520     0.7540 C.3   1 <1>  -0.0170 
 15 C       -2.9260    -2.6900     1.3690 C.ar  1 <1>  -0.1500 
 16 C       -4.0840    -3.1060    -0.6840 C.ar  1 <1>  -0.1500 
 17 C       -7.6430     3.3340    -0.1040 C.3   1 <1>  -0.0800 
 18 C       -3.4140    -3.5800     0.4290 C.ar  1 <1>  -0.1500 
 19 C       -7.4410     3.9120    -1.5110 C.3   1 <1>  -0.2400 
 20 C       -8.8120     4.0530     0.5830 C.3   1 <1>  -0.2400 
 21 H       -2.6610     4.5350    -1.5300 H     1 <1>   0.4000 
 22 H       -1.4380     3.3370    -1.7020 H     1 <1>   0.4000 
 23 H       -2.7250    -0.6430     1.9270 H     1 <1>   0.1500 
 24 H       -4.7860    -1.3820    -1.7240 H     1 <1>   0.1500 
 25 H       -6.9550     1.0040     1.5260 H     1 <1>   0.0800 
 26 H       -6.4670    -0.3700     0.5940 H     1 <1>   0.0800 
 27 H       -5.6410     0.0170     2.0800 H     1 <1>   0.0800 
 28 H       -6.0750     4.4880     0.8030 H     1 <1>   0.0800 
 29 H       -6.5680     3.1530     1.7650 H     1 <1>   0.0800 
 30 H       -2.4010    -3.0570     2.2340 H     1 <1>   0.1500 
 31 H       -4.4630    -3.7960    -1.4180 H     1 <1>   0.1500 
 32 H       -7.9020     2.2940    -0.2050 H     1 <1>   0.0800 
 33 H       -3.2700    -4.6380     0.5620 H     1 <1>   0.1500 
 34 H       -7.1530     4.9480    -1.4580 H     1 <1>   0.0800 
 35 H       -8.3480     3.8360    -2.0840 H     1 <1>   0.0800 
 36 H       -6.6700     3.3730    -2.0330 H     1 <1>   0.0800 
 37 H       -8.5990     5.1010     0.6960 H     1 <1>   0.0800 
 38 H       -8.9940     3.6320     1.5560 H     1 <1>   0.0800 
 39 H       -9.7090     3.9480    -0.0010 H     1 <1>   0.0800 
@<TRIPOS>BOND
  1   1   2  3   
  2   2   3  1   
  3   3   4  ar  
  4   3   5  ar  
  5   4   6  ar  
  6   4   7  1   
  7   5   8  1   
  8   5   9  ar  
  9   6  10  ar  
 10   7  21  1   
 11   7  22  1   
 12   8  11  ar  
 13   8  12  ar  
 14   9  10  ar  
 15   9  13  1   
 16  10  14  1   
 17  11  15  ar  
 18  11  23  1   
 19  12  16  ar  
 20  12  24  1   
 21  13  25  1   
 22  13  26  1   
 23  13  27  1   
 24  14  17  1   
 25  14  28  1   
 26  14  29  1   
 27  15  18  ar  
 28  15  30  1   
 29  16  18  ar  
 30  16  31  1   
 31  17  19  1   
 32  17  20  1   
 33  17  32  1   
 34  18  33  1   
 35  19  34  1   
 36  19  35  1   
 37  19  36  1   
 38  20  37  1   
 39  20  38  1   
 40  20  39  1   
@<TRIPOS>SUBSTRUCTURE
  1 ****   5 GROUP 4 **** **** 0

# MOE 2024.06 (io_trps.svl 2023.06)
