@<TRIPOS>MOLECULE
NONAME
36 36 1 0 0 
SMALL
USER_CHARGES


@<TRIPOS>ATOM
  1 O        0.1380     0.5860    -0.7530 O.2   1 <1>  -0.5700 
  2 C       -0.0840     1.5110     0.0030 C.2   1 <1>   0.6900 
  3 N       -1.3510     1.9390     0.2640 N.am  1 <1>  -0.5470 
  4 N        0.9240     2.1780     0.6230 N.am  1 <1>  -0.7300 
  5 C       -2.6010     1.4030    -0.0850 C.ar  1 <1>   0.1170 
  6 C        2.3780     1.9520     0.4930 C.3   1 <1>   0.2200 
  7 C       -3.7120     2.2440    -0.1920 C.ar  1 <1>  -0.1430 
  8 C       -2.7740     0.0400    -0.3040 C.ar  1 <1>  -0.1500 
  9 C        2.8230     2.1330    -0.9670 C.3   1 <1>  -0.1600 
 10 C        2.7340     0.5840     1.0770 C.3   1 <1>  -0.2400 
 11 C       -4.9510     1.7130    -0.5120 C.ar  1 <1>  -0.1500 
 12 C       -3.5910     3.7470     0.0310 C.3   1 <1>  -0.0970 
 13 C       -4.0140    -0.4800    -0.6250 C.ar  1 <1>  -0.1500 
 14 C        4.3480     2.2170    -1.1270 C.3   1 <1>  -0.2400 
 15 C       -5.1120     0.3550    -0.7320 C.ar  1 <1>  -0.1430 
 16 C       -6.4760    -0.2100    -1.0830 C.3   1 <1>  -0.0970 
 17 H       -1.3930     2.8690     0.6580 H     1 <1>   0.3700 
 18 H        0.6720     2.7650     1.4130 H     1 <1>   0.3700 
 19 H        2.8730     2.7060     1.0830 H     1 <1>   0.0800 
 20 H       -1.9340    -0.6240    -0.2210 H     1 <1>   0.1500 
 21 H        2.3920     3.0410    -1.3500 H     1 <1>   0.0800 
 22 H        2.4570     1.3150    -1.5640 H     1 <1>   0.0800 
 23 H        2.3260    -0.2030     0.4690 H     1 <1>   0.0800 
 24 H        2.3480     0.4940     2.0760 H     1 <1>   0.0800 
 25 H        3.8000     0.4610     1.1170 H     1 <1>   0.0800 
 26 H       -5.8070     2.3590    -0.5940 H     1 <1>   0.1500 
 27 H       -2.8440     4.1570    -0.6250 H     1 <1>   0.0800 
 28 H       -3.3210     3.9470     1.0520 H     1 <1>   0.0800 
 29 H       -4.5230     4.2410    -0.1750 H     1 <1>   0.0800 
 30 H       -4.1160    -1.5370    -0.7900 H     1 <1>   0.1500 
 31 H        4.7490     3.0160    -0.5280 H     1 <1>   0.0800 
 32 H        4.5950     2.4070    -2.1570 H     1 <1>   0.0800 
 33 H        4.8150     1.2930    -0.8370 H     1 <1>   0.0800 
 34 H       -7.0310     0.4940    -1.6750 H     1 <1>   0.0800 
 35 H       -7.0240    -0.4190    -0.1820 H     1 <1>   0.0800 
 36 H       -6.3730    -1.1200    -1.6470 H     1 <1>   0.0800 
@<TRIPOS>BOND
  1   1   2  2   
  2   2   3  am  
  3   2   4  am  
  4   3   5  1   
  5   3  17  1   
  6   4   6  1   
  7   4  18  1   
  8   5   7  ar  
  9   5   8  ar  
 10   6   9  1   
 11   6  10  1   
 12   6  19  1   
 13   7  11  ar  
 14   7  12  1   
 15   8  13  ar  
 16   8  20  1   
 17   9  14  1   
 18   9  21  1   
 19   9  22  1   
 20  10  23  1   
 21  10  24  1   
 22  10  25  1   
 23  11  15  ar  
 24  11  26  1   
 25  12  27  1   
 26  12  28  1   
 27  12  29  1   
 28  13  15  ar  
 29  13  30  1   
 30  14  31  1   
 31  14  32  1   
 32  14  33  1   
 33  15  16  1   
 34  16  34  1   
 35  16  35  1   
 36  16  36  1   
@<TRIPOS>SUBSTRUCTURE
  1 ****   3 GROUP 4 **** **** 0

# MOE 2024.06 (io_trps.svl 2023.06)
