@<TRIPOS>MOLECULE
NONAME
43 45 1 0 0 
SMALL
USER_CHARGES


@<TRIPOS>ATOM
  1 S       -1.3060    -0.1210     2.4810 S.3   1 <1>  -0.0800 
  2 C       -1.4070     0.8720     1.0470 C.2   1 <1>  -0.1400 
  3 C       -2.4490    -1.2560     1.8040 C.2   1 <1>  -0.1100 
  4 C       -2.2520     0.3480     0.1460 C.2   1 <1>  -0.1810 
  5 C       -0.5730     2.1290     0.9300 C.3   1 <1>   0.0200 
  6 C       -2.8910    -0.8750     0.5790 C.2   1 <1>  -0.0860 
  7 C       -2.4560     1.0080    -1.2120 C.3   1 <1>   0.0210 
  8 C       -1.0410     2.9370    -0.2940 C.3   1 <1>  -0.1600 
  9 C       -3.8820    -1.5970    -0.1910 C.2   1 <1>   0.7160 
 10 C       -1.3360     2.0280    -1.5040 C.3   1 <1>  -0.1600 
 11 O       -3.8540    -2.8100    -0.2560 O.2   1 <1>  -0.5700 
 12 N       -4.9500    -0.9520    -0.7770 N.am  1 <1>  -0.6600 
 13 C       -5.8130    -1.6810    -1.7510 C.3   1 <1>   0.1400 
 14 C       -5.6760     0.1160    -0.0300 C.3   1 <1>   0.1400 
 15 C       -6.9960    -2.3240    -1.0050 C.3   1 <1>   0.3430 
 16 C       -6.8880    -0.4940     0.7070 C.3   1 <1>   0.3430 
 17 N       -7.7750    -1.3080    -0.2060 N.4   1 <1>  -0.9590 
 18 C       -8.8790    -1.9590     0.5330 C.3   1 <1>   0.4810 
 19 C       -9.8570    -0.8730     0.9140 C.2   1 <1>  -0.2880 
 20 C      -11.0290    -0.6470     0.3110 C.2   1 <1>  -0.3000 
 21 H       -2.6940    -2.1190     2.3970 H     1 <1>   0.1500 
 22 H        0.4590     1.8480     0.8140 H     1 <1>   0.0800 
 23 H       -0.6670     2.7220     1.8230 H     1 <1>   0.0800 
 24 H       -3.4050     1.5120    -1.2210 H     1 <1>   0.0800 
 25 H       -2.4600     0.2610    -1.9860 H     1 <1>   0.0800 
 26 H       -0.2880     3.6610    -0.5520 H     1 <1>   0.0800 
 27 H       -1.9380     3.4730    -0.0340 H     1 <1>   0.0800 
 28 H       -1.6130     2.6290    -2.3530 H     1 <1>   0.0800 
 29 H       -0.4380     1.4920    -1.7610 H     1 <1>   0.0800 
 30 H       -5.2420    -2.4470    -2.2500 H     1 <1>   0.0800 
 31 H       -6.1690    -0.9990    -2.5020 H     1 <1>   0.0800 
 32 H       -6.0060     0.8760    -0.7170 H     1 <1>   0.0800 
 33 H       -5.0250     0.5860     0.6880 H     1 <1>   0.0800 
 34 H       -6.6020    -3.0830    -0.3480 H     1 <1>   0.0800 
 35 H       -7.6420    -2.8080    -1.7200 H     1 <1>   0.0800 
 36 H       -7.4570     0.3000     1.1600 H     1 <1>   0.0800 
 37 H       -6.5150    -1.1240     1.4990 H     1 <1>   0.0800 
 38 H       -8.2290    -0.6590    -0.8620 H     1 <1>   0.4500 
 39 H       -8.5140    -2.4770     1.4060 H     1 <1>   0.0800 
 40 H       -9.3770    -2.6690    -0.1080 H     1 <1>   0.0800 
 41 H       -9.5270    -0.2800     1.7500 H     1 <1>   0.1500 
 42 H      -11.7150     0.1320     0.6080 H     1 <1>   0.1500 
 43 H      -11.4200    -1.2090    -0.5220 H     1 <1>   0.1500 
@<TRIPOS>BOND
  1   1   2  1   
  2   1   3  1   
  3   2   4  2   
  4   2   5  1   
  5   3   6  2   
  6   3  21  1   
  7   4   6  1   
  8   4   7  1   
  9   5   8  1   
 10   5  22  1   
 11   5  23  1   
 12   6   9  1   
 13   7  10  1   
 14   7  24  1   
 15   7  25  1   
 16   8  10  1   
 17   8  26  1   
 18   8  27  1   
 19   9  11  2   
 20   9  12  am  
 21  10  28  1   
 22  10  29  1   
 23  12  13  1   
 24  12  14  1   
 25  13  15  1   
 26  13  30  1   
 27  13  31  1   
 28  14  16  1   
 29  14  32  1   
 30  14  33  1   
 31  15  17  1   
 32  15  34  1   
 33  15  35  1   
 34  16  17  1   
 35  16  36  1   
 36  16  37  1   
 37  17  18  1   
 38  17  38  1   
 39  18  19  1   
 40  18  39  1   
 41  18  40  1   
 42  19  20  2   
 43  19  41  1   
 44  20  42  1   
 45  20  43  1   
@<TRIPOS>SUBSTRUCTURE
  1 ****  12 GROUP 4 **** **** 0

# MOE 2024.06 (io_trps.svl 2023.06)
