@<TRIPOS>MOLECULE
NONAME
44 47 1 0 0 
SMALL
USER_CHARGES


@<TRIPOS>ATOM
  1 O       -1.2100     1.9930     2.1830 O.2   1 <1>  -0.5700 
  2 C       -0.8400     2.7350     1.3130 C.2   1 <1>   0.4950 
  3 C       -1.3230     2.7200    -0.0220 C.2   1 <1>  -0.1240 
  4 C        0.1870     3.8160     1.6340 C.3   1 <1>  -0.0990 
  5 C       -0.9090     3.5370    -0.9940 C.2   1 <1>  -0.0620 
  6 C       -2.4070     1.8160    -0.5770 C.3   1 <1>   0.4810 
  7 C        1.0270     4.2470     0.4030 C.3   1 <1>  -0.1600 
  8 O       -1.5630     3.3800    -2.1430 O.3   1 <1>  -0.2270 
  9 C        0.1730     4.5840    -0.8390 C.3   1 <1>  -0.0220 
 10 C       -3.7450     1.9180     0.1760 C.2   1 <1>  -0.1240 
 11 C       -1.8440     0.3870    -0.6870 C.ar  1 <1>  -0.1440 
 12 C       -2.5000     2.4370    -1.9830 C.2   1 <1>   0.6590 
 13 C       -4.4550     0.7590     0.3610 C.2   1 <1>   0.2000 
 14 C       -4.1500     3.2140     0.5840 C.2   1 <1>   0.7060 
 15 C       -2.6930    -0.6870    -0.4450 C.ar  1 <1>   0.1000 
 16 C       -0.5180     0.1420    -1.0320 C.ar  1 <1>  -0.1500 
 17 O       -3.2850     2.1480    -2.8520 O.2   1 <1>  -0.5700 
 18 N       -4.0400    -0.4470    -0.1480 N.pl3 1 <1>  -0.5690 
 19 N       -5.6210     0.6890     1.0520 N.pl3 1 <1>  -0.9000 
 20 O       -3.6410     4.2480     0.1680 O.2   1 <1>  -0.5700 
 21 O       -5.1530     3.3600     1.4730 O.3   1 <1>  -0.4300 
 22 C       -2.1880    -1.9830    -0.5070 C.ar  1 <1>  -0.1500 
 23 C       -0.0320    -1.1510    -1.1080 C.ar  1 <1>  -0.1500 
 24 C       -5.0490    -1.3590    -0.7610 C.3   1 <1>   0.1290 
 25 C       -5.5830     4.6370     1.9070 C.3   1 <1>   0.0400 
 26 C       -0.8680    -2.2170    -0.8380 C.ar  1 <1>  -0.1500 
 27 H        0.8400     3.4560     2.4080 H     1 <1>   0.0800 
 28 H       -0.3440     4.6670     2.0210 H     1 <1>   0.0800 
 29 H        1.6860     3.4340     0.1480 H     1 <1>   0.0800 
 30 H        1.6420     5.0920     0.6600 H     1 <1>   0.0800 
 31 H       -0.2900     5.5490    -0.7270 H     1 <1>   0.0800 
 32 H        0.7970     4.6040    -1.7160 H     1 <1>   0.0800 
 33 H        0.1620     0.9470    -1.2480 H     1 <1>   0.1500 
 34 H       -5.9490     1.5070     1.5800 H     1 <1>   0.4000 
 35 H       -5.9330    -0.2100     1.4220 H     1 <1>   0.4000 
 36 H       -2.8290    -2.8160    -0.2880 H     1 <1>   0.1500 
 37 H        0.9960    -1.3280    -1.3720 H     1 <1>   0.1500 
 38 H       -5.9370    -0.8110    -1.0220 H     1 <1>   0.0800 
 39 H       -5.3010    -2.1380    -0.0640 H     1 <1>   0.0800 
 40 H       -4.6520    -1.7970    -1.6590 H     1 <1>   0.0800 
 41 H       -6.3870     4.5060     2.6090 H     1 <1>   0.0800 
 42 H       -5.9220     5.1990     1.0550 H     1 <1>   0.0800 
 43 H       -4.7570     5.1400     2.3800 H     1 <1>   0.0800 
 44 H       -0.4920    -3.2240    -0.8850 H     1 <1>   0.1500 
@<TRIPOS>BOND
  1   1   2  2   
  2   2   3  1   
  3   2   4  1   
  4   3   5  2   
  5   3   6  1   
  6   4   7  1   
  7   4  27  1   
  8   4  28  1   
  9   5   8  1   
 10   5   9  1   
 11   6  10  1   
 12   6  11  1   
 13   6  12  1   
 14   7   9  1   
 15   7  29  1   
 16   7  30  1   
 17   8  12  1   
 18   9  31  1   
 19   9  32  1   
 20  10  13  2   
 21  10  14  1   
 22  11  15  ar  
 23  11  16  ar  
 24  12  17  2   
 25  13  18  1   
 26  13  19  1   
 27  14  20  2   
 28  14  21  1   
 29  15  18  1   
 30  15  22  ar  
 31  16  23  ar  
 32  16  33  1   
 33  18  24  1   
 34  19  34  1   
 35  19  35  1   
 36  21  25  1   
 37  22  26  ar  
 38  22  36  1   
 39  23  26  ar  
 40  23  37  1   
 41  24  38  1   
 42  24  39  1   
 43  24  40  1   
 44  25  41  1   
 45  25  42  1   
 46  25  43  1   
 47  26  44  1   
@<TRIPOS>SUBSTRUCTURE
  1 ****   6 GROUP 4 **** **** 0

# MOE 2024.06 (io_trps.svl 2023.06)
