@<TRIPOS>MOLECULE
Structure1892
45 46 1 0 0 
SMALL
USER_CHARGES


@<TRIPOS>ATOM
  1 O       -1.1030     1.3410     1.4590 O.2   1 <1>  -0.5700 
  2 C       -0.6880     1.4750     0.3250 C.2   1 <1>   0.7800 
  3 O        0.5900     1.7480     0.0710 O.3   1 <1>  -0.4300 
  4 N       -1.4810     1.3710    -0.7580 N.am  1 <1>  -0.7300 
  5 C        1.6330     1.8900     1.0100 C.3   1 <1>   0.2800 
  6 C       -2.8460     0.7420    -0.8190 C.3   1 <1>   0.1140 
  7 C        1.3560     3.0800     1.9360 C.3   1 <1>  -0.2400 
  8 C        2.8820     2.1800     0.1760 C.3   1 <1>  -0.2400 
  9 C        1.8340     0.5800     1.7810 C.3   1 <1>  -0.2400 
 10 C       -2.9480    -0.1990    -2.0350 C.2   1 <1>   0.9060 
 11 C       -3.8860     1.8730    -0.8730 C.3   1 <1>   0.0210 
 12 O       -2.4540     0.1870    -3.1080 O.co2 1 <1>  -0.9000 
 13 O       -3.4330    -1.3320    -1.9130 O.co2 1 <1>  -0.9000 
 14 C       -5.3130     1.4650    -0.5270 C.2   1 <1>  -0.1810 
 15 C       -6.3520     2.3970    -0.2910 C.ar  1 <1>   0.0000 
 16 C       -5.8450     0.2270    -0.3850 C.2   1 <1>  -0.3020 
 17 C       -7.4930     1.6560    -0.0090 C.ar  1 <1>  -0.1520 
 18 C       -6.4260     3.7940    -0.2920 C.ar  1 <1>  -0.1500 
 19 N       -7.1680     0.3270    -0.0720 N.pl3 1 <1>   0.0330 
 20 C       -8.7150     2.2740     0.2770 C.ar  1 <1>   0.0820 
 21 C       -7.6240     4.4120    -0.0120 C.ar  1 <1>  -0.1500 
 22 O       -9.7720     1.4570     0.5420 O.3   1 <1>  -0.3630 
 23 C       -8.7690     3.6560     0.2730 C.ar  1 <1>  -0.1500 
 24 C      -11.0400     2.0010     0.8340 C.3   1 <1>   0.0400 
 25 H       -1.0340     1.3410    -1.6810 H     1 <1>   0.3700 
 26 H       -3.0020     0.1580     0.0690 H     1 <1>   0.0800 
 27 H        2.2130     3.2700     2.5560 H     1 <1>   0.0800 
 28 H        0.5240     2.8790     2.5850 H     1 <1>   0.0800 
 29 H        1.1480     3.9620     1.3580 H     1 <1>   0.0800 
 30 H        2.7480     3.0830    -0.3920 H     1 <1>   0.0800 
 31 H        3.0740     1.3660    -0.5000 H     1 <1>   0.0800 
 32 H        3.7390     2.3030     0.8140 H     1 <1>   0.0800 
 33 H        1.9490    -0.2410     1.0970 H     1 <1>   0.0800 
 34 H        1.0020     0.3830     2.4310 H     1 <1>   0.0800 
 35 H        2.7160     0.6440     2.3920 H     1 <1>   0.0800 
 36 H       -3.8770     2.3080    -1.8570 H     1 <1>   0.0800 
 37 H       -3.5920     2.6280    -0.1680 H     1 <1>   0.0800 
 38 H       -5.3610    -0.7290    -0.4990 H     1 <1>   0.1500 
 39 H       -5.5400     4.3600    -0.5130 H     1 <1>   0.1500 
 40 H       -7.8290    -0.4410     0.0750 H     1 <1>   0.2700 
 41 H       -7.6900     5.4850    -0.0110 H     1 <1>   0.1500 
 42 H       -9.6780     4.1840     0.4850 H     1 <1>   0.1500 
 43 H      -11.7200     1.1870     1.0070 H     1 <1>   0.0800 
 44 H      -11.3720     2.5830    -0.0070 H     1 <1>   0.0800 
 45 H      -10.9630     2.6080     1.7190 H     1 <1>   0.0800 
@<TRIPOS>BOND
  1   1   2  2   
  2   2   3  1   
  3   2   4  am  
  4   3   5  1   
  5   4   6  1   
  6   4  25  1   
  7   5   7  1   
  8   5   8  1   
  9   5   9  1   
 10   6  10  1   
 11   6  11  1   
 12   6  26  1   
 13   7  27  1   
 14   7  28  1   
 15   7  29  1   
 16   8  30  1   
 17   8  31  1   
 18   8  32  1   
 19   9  33  1   
 20   9  34  1   
 21   9  35  1   
 22  10  12  ar  
 23  10  13  ar  
 24  11  14  1   
 25  11  36  1   
 26  11  37  1   
 27  14  15  1   
 28  14  16  2   
 29  15  17  ar  
 30  15  18  ar  
 31  16  19  1   
 32  16  38  1   
 33  17  19  1   
 34  17  20  ar  
 35  18  21  ar  
 36  18  39  1   
 37  19  40  1   
 38  20  22  1   
 39  20  23  ar  
 40  21  23  ar  
 41  21  41  1   
 42  22  24  1   
 43  23  42  1   
 44  24  43  1   
 45  24  44  1   
 46  24  45  1   
@<TRIPOS>SUBSTRUCTURE
  1 ****  11 GROUP 4 **** **** 0

# MOE 2024.06 (io_trps.svl 2023.06)
