@<TRIPOS>MOLECULE
NONAME
43 45 1 0 0 
SMALL
USER_CHARGES


@<TRIPOS>ATOM
  1 CL       1.0160    -0.2990    -1.7640 Cl    1 <1>  -0.1770 
  2 C        2.2360    -0.9780    -0.7170 C.ar  1 <1>   0.1770 
  3 C        3.5390    -0.5360    -0.8150 C.ar  1 <1>  -0.1500 
  4 C        1.8730    -1.9480     0.1960 C.ar  1 <1>  -0.1500 
  5 C        4.5200    -1.0710     0.0150 C.ar  1 <1>   0.1170 
  6 C        2.8410    -2.4840     1.0270 C.ar  1 <1>  -0.1500 
  7 N        5.8560    -0.6480    -0.0470 N.am  1 <1>  -0.5470 
  8 C        4.1570    -2.0530     0.9430 C.ar  1 <1>  -0.1430 
  9 C        6.5780     0.1010    -0.9310 C.2   1 <1>   0.5690 
 10 C        5.1930    -2.6710     1.8770 C.3   1 <1>  -0.0960 
 11 O        6.1290     0.6030    -1.9330 O.2   1 <1>  -0.5700 
 12 C        8.0570     0.2940    -0.5910 C.3   1 <1>   0.1710 
 13 N        8.6160    -0.7810     0.2910 N.3   1 <1>  -0.8100 
 14 C        9.8410    -0.3400     0.9980 C.3   1 <1>   0.1100 
 15 C        8.7500    -2.0570    -0.4590 C.3   1 <1>   0.1100 
 16 C       11.1050    -0.7980     0.2720 C.3   1 <1>  -0.1600 
 17 C        9.7610    -2.9810     0.2120 C.3   1 <1>  -0.1600 
 18 C       11.1450    -2.3310     0.1960 C.3   1 <1>   0.5600 
 19 O       11.8870    -2.8480     1.2500 O.3   1 <1>  -0.5600 
 20 O       11.8150    -2.7200    -0.9560 O.3   1 <1>  -0.5600 
 21 C       13.1860    -3.0800     0.8340 C.3   1 <1>   0.1200 
 22 C       13.1570    -2.8500    -0.6640 C.3   1 <1>   0.1200 
 23 H        3.7760     0.2220    -1.5360 H     1 <1>   0.1500 
 24 H        0.8510    -2.2750     0.2520 H     1 <1>   0.1500 
 25 H        2.5580    -3.2400     1.7390 H     1 <1>   0.1500 
 26 H        6.4720    -1.0300     0.6780 H     1 <1>   0.3700 
 27 H        5.6230    -1.9120     2.5060 H     1 <1>   0.0800 
 28 H        5.9750    -3.1390     1.3050 H     1 <1>   0.0800 
 29 H        4.7470    -3.4180     2.5090 H     1 <1>   0.0800 
 30 H        8.1340     1.2440    -0.0930 H     1 <1>   0.0800 
 31 H        8.6230     0.3560    -1.5030 H     1 <1>   0.0800 
 32 H        9.8390    -0.7730     1.9860 H     1 <1>   0.0800 
 33 H        9.8480     0.7300     1.1200 H     1 <1>   0.0800 
 34 H        9.0830    -1.8630    -1.4670 H     1 <1>   0.0800 
 35 H        7.7920    -2.5460    -0.5160 H     1 <1>   0.0800 
 36 H       11.9730    -0.4310     0.7870 H     1 <1>   0.0800 
 37 H       11.0950    -0.3830    -0.7190 H     1 <1>   0.0800 
 38 H        9.8000    -3.9250    -0.2990 H     1 <1>   0.0800 
 39 H        9.4470    -3.1540     1.2250 H     1 <1>   0.0800 
 40 H       13.4480    -4.0950     1.0750 H     1 <1>   0.0800 
 41 H       13.8480    -2.3950     1.3340 H     1 <1>   0.0800 
 42 H       13.6620    -1.9380    -0.9310 H     1 <1>   0.0800 
 43 H       13.5630    -3.6790    -1.2150 H     1 <1>   0.0800 
@<TRIPOS>BOND
  1   1   2  1   
  2   2   3  ar  
  3   2   4  ar  
  4   3   5  ar  
  5   3  23  1   
  6   4   6  ar  
  7   4  24  1   
  8   5   7  1   
  9   5   8  ar  
 10   6   8  ar  
 11   6  25  1   
 12   7   9  am  
 13   7  26  1   
 14   8  10  1   
 15   9  11  2   
 16   9  12  1   
 17  10  27  1   
 18  10  28  1   
 19  10  29  1   
 20  12  13  1   
 21  12  30  1   
 22  12  31  1   
 23  13  14  1   
 24  13  15  1   
 25  14  16  1   
 26  14  32  1   
 27  14  33  1   
 28  15  17  1   
 29  15  34  1   
 30  15  35  1   
 31  16  18  1   
 32  16  36  1   
 33  16  37  1   
 34  17  18  1   
 35  17  38  1   
 36  17  39  1   
 37  18  19  1   
 38  18  20  1   
 39  19  21  1   
 40  20  22  1   
 41  21  22  1   
 42  21  40  1   
 43  21  41  1   
 44  22  42  1   
 45  22  43  1   
@<TRIPOS>SUBSTRUCTURE
  1 ****  13 GROUP 4 **** **** 0

# MOE 2024.06 (io_trps.svl 2023.06)
