@<TRIPOS>MOLECULE
NONAME
65 69 1 0 0 
SMALL
USER_CHARGES


@<TRIPOS>ATOM
  1 O       -1.2760     0.3850    -1.0650 O.2   1 <1>  -0.5700 
  2 C       -1.6690     0.7510     0.0190 C.2   1 <1>   0.5690 
  3 N       -1.0880     1.7830     0.7060 N.am  1 <1>  -0.5470 
  4 C       -2.8670     0.0590     0.6550 C.3   1 <1>   0.0420 
  5 C        0.0070     2.5980     0.3760 C.ar  1 <1>   0.1170 
  6 C       -2.5670    -1.4230     0.8280 C.2   1 <1>   0.5690 
  7 C       -4.2350     0.3670    -0.0300 C.3   1 <1>   0.0000 
  8 C        1.0420     2.1770    -0.4530 C.ar  1 <1>  -0.1500 
  9 C        0.0710     3.8770     0.9160 C.ar  1 <1>  -0.1500 
 10 O       -2.8180    -1.9180     1.9010 O.2   1 <1>  -0.5700 
 11 N       -2.0170    -2.1300    -0.2070 N.am  1 <1>  -0.5470 
 12 C       -4.4570     1.9020    -0.1030 C.3   1 <1>  -0.1600 
 13 C       -4.3480    -0.2030    -1.4700 C.3   1 <1>  -0.1600 
 14 C       -5.3900    -0.2400     0.8100 C.3   1 <1>  -0.1600 
 15 C        2.1080     3.0090    -0.7420 C.ar  1 <1>  -0.1500 
 16 C        1.1350     4.7130     0.6320 C.ar  1 <1>  -0.1500 
 17 C       -1.6950    -3.4870    -0.3550 C.ar  1 <1>   0.1170 
 18 C       -5.8260     2.2410    -0.7200 C.3   1 <1>  -0.0800 
 19 C       -5.7160     0.1300    -2.0930 C.3   1 <1>  -0.0800 
 20 C       -6.7630     0.0910     0.1980 C.3   1 <1>  -0.0800 
 21 C        2.1600     4.2890    -0.1980 C.ar  1 <1>   0.0830 
 22 C       -0.7970    -3.8480    -1.3520 C.ar  1 <1>  -0.1500 
 23 C       -2.2450    -4.4910     0.4360 C.ar  1 <1>  -0.1500 
 24 C       -5.8950     1.6580    -2.1430 C.3   1 <1>  -0.1600 
 25 C       -6.9390     1.6180     0.1410 C.3   1 <1>  -0.1600 
 26 C       -6.8310    -0.4840    -1.2280 C.3   1 <1>  -0.1600 
 27 O        3.1660     5.1730    -0.4270 O.3   1 <1>  -0.3620 
 28 C       -0.4520    -5.1730    -1.5500 C.ar  1 <1>  -0.1500 
 29 C       -1.9030    -5.8180     0.2440 C.ar  1 <1>  -0.1500 
 30 C        4.2400     4.8440    -1.2790 C.3   1 <1>   0.0400 
 31 C       -0.9990    -6.1670    -0.7560 C.ar  1 <1>   0.0830 
 32 O       -0.6060    -7.4420    -1.0140 O.3   1 <1>  -0.3620 
 33 C       -1.0820    -8.5170    -0.2360 C.3   1 <1>   0.0400 
 34 H       -1.5430     2.0410     1.5800 H     1 <1>   0.3700 
 35 H       -2.9420     0.4480     1.6530 H     1 <1>   0.0800 
 36 H        1.0230     1.1890    -0.8760 H     1 <1>   0.1500 
 37 H       -0.7130     4.2280     1.5600 H     1 <1>   0.1500 
 38 H       -1.7070    -1.5300    -0.9820 H     1 <1>   0.3700 
 39 H       -3.6920     2.3620    -0.7050 H     1 <1>   0.0800 
 40 H       -4.4010     2.3310     0.8820 H     1 <1>   0.0800 
 41 H       -3.5780     0.2070    -2.1000 H     1 <1>   0.0800 
 42 H       -4.2310    -1.2710    -1.4620 H     1 <1>   0.0800 
 43 H       -5.3540     0.1370     1.8170 H     1 <1>   0.0800 
 44 H       -5.2890    -1.3100     0.8650 H     1 <1>   0.0800 
 45 H        2.8840     2.6450    -1.3880 H     1 <1>   0.1500 
 46 H        1.1810     5.7020     1.0500 H     1 <1>   0.1500 
 47 H       -5.9530     3.3100    -0.7600 H     1 <1>   0.0800 
 48 H       -5.7680    -0.2730    -3.0900 H     1 <1>   0.0800 
 49 H       -7.5440    -0.3420     0.8010 H     1 <1>   0.0800 
 50 H       -0.3610    -3.0890    -1.9760 H     1 <1>   0.1500 
 51 H       -2.9480    -4.2410     1.2080 H     1 <1>   0.1500 
 52 H       -5.1250     2.0950    -2.7550 H     1 <1>   0.0800 
 53 H       -6.8430     1.8990    -2.5890 H     1 <1>   0.0800 
 54 H       -6.9060     2.0280     1.1350 H     1 <1>   0.0800 
 55 H       -7.9000     1.8580    -0.2790 H     1 <1>   0.0800 
 56 H       -6.7200    -1.5540    -1.1960 H     1 <1>   0.0800 
 57 H       -7.7910    -0.2680    -1.6630 H     1 <1>   0.0800 
 58 H        0.2450    -5.4460    -2.3220 H     1 <1>   0.1500 
 59 H       -2.3490    -6.5590     0.8780 H     1 <1>   0.1500 
 60 H        4.9040     5.6880    -1.3210 H     1 <1>   0.0800 
 61 H        3.8550     4.6330    -2.2610 H     1 <1>   0.0800 
 62 H        4.7580     3.9920    -0.8760 H     1 <1>   0.0800 
 63 H       -0.6340    -9.4210    -0.6060 H     1 <1>   0.0800 
 64 H       -2.1520    -8.5720    -0.3340 H     1 <1>   0.0800 
 65 H       -0.7950    -8.3590     0.7890 H     1 <1>   0.0800 
@<TRIPOS>BOND
  1   1   2  2   
  2   2   3  am  
  3   2   4  1   
  4   3   5  1   
  5   3  34  1   
  6   4   6  1   
  7   4   7  1   
  8   4  35  1   
  9   5   8  ar  
 10   5   9  ar  
 11   6  10  2   
 12   6  11  am  
 13   7  12  1   
 14   7  13  1   
 15   7  14  1   
 16   8  15  ar  
 17   8  36  1   
 18   9  16  ar  
 19   9  37  1   
 20  11  17  1   
 21  11  38  1   
 22  12  18  1   
 23  12  39  1   
 24  12  40  1   
 25  13  19  1   
 26  13  41  1   
 27  13  42  1   
 28  14  20  1   
 29  14  43  1   
 30  14  44  1   
 31  15  21  ar  
 32  15  45  1   
 33  16  21  ar  
 34  16  46  1   
 35  17  22  ar  
 36  17  23  ar  
 37  18  24  1   
 38  18  25  1   
 39  18  47  1   
 40  19  24  1   
 41  19  26  1   
 42  19  48  1   
 43  20  25  1   
 44  20  26  1   
 45  20  49  1   
 46  21  27  1   
 47  22  28  ar  
 48  22  50  1   
 49  23  29  ar  
 50  23  51  1   
 51  24  52  1   
 52  24  53  1   
 53  25  54  1   
 54  25  55  1   
 55  26  56  1   
 56  26  57  1   
 57  27  30  1   
 58  28  31  ar  
 59  28  58  1   
 60  29  31  ar  
 61  29  59  1   
 62  30  60  1   
 63  30  61  1   
 64  30  62  1   
 65  31  32  1   
 66  32  33  1   
 67  33  63  1   
 68  33  64  1   
 69  33  65  1   
@<TRIPOS>SUBSTRUCTURE
  1 ****   2 GROUP 4 **** **** 0

# MOE 2024.06 (io_trps.svl 2023.06)
