@<TRIPOS>MOLECULE
NONAME
37 39 1 0 0 
SMALL
USER_CHARGES


@<TRIPOS>ATOM
  1 CL      -0.0570    -0.3690    -0.2840 Cl    1 <1>  -0.1770 
  2 C        1.4900    -1.1750    -0.1790 C.ar  1 <1>   0.1770 
  3 C        1.7660    -2.2280    -1.0310 C.ar  1 <1>  -0.1500 
  4 C        2.4150    -0.7480     0.7560 C.ar  1 <1>  -0.1500 
  5 C        2.9930    -2.8630    -0.9430 C.ar  1 <1>  -0.1500 
  6 C        3.6390    -1.3890     0.8370 C.ar  1 <1>  -0.1500 
  7 C        3.9400    -2.4520    -0.0120 C.ar  1 <1>   0.1000 
  8 N        5.1620    -3.1090     0.0540 N.pl3 1 <1>  -0.8380 
  9 C        5.3920    -3.9610     1.2550 C.3   1 <1>   0.2090 
 10 C        6.3570    -2.3340    -0.3910 C.3   1 <1>   0.2090 
 11 C        6.6060    -4.8900     1.0380 C.3   1 <1>   0.3430 
 12 C        7.5660    -3.2700    -0.5980 C.3   1 <1>   0.3430 
 13 N        7.8450    -4.1420     0.6080 N.4   1 <1>  -0.9590 
 14 C        8.9890    -5.0620     0.3780 C.3   1 <1>   0.5240 
 15 C       10.2400    -4.2290     0.1980 C.2   1 <1>  -0.1810 
 16 C       11.0080    -3.7540     1.1990 C.2   1 <1>  -0.1100 
 17 C       10.7240    -3.8720    -1.1060 C.2   1 <1>  -0.1500 
 18 S       12.3520    -2.8230     0.5670 S.3   1 <1>  -0.0800 
 19 C       11.8400    -3.1210    -1.0820 C.2   1 <1>  -0.1100 
 20 H        1.0300    -2.5410    -1.7500 H     1 <1>   0.1500 
 21 H        2.1730     0.0730     1.4060 H     1 <1>   0.1500 
 22 H        3.2250    -3.6820    -1.5980 H     1 <1>   0.1500 
 23 H        4.3630    -1.0620     1.5610 H     1 <1>   0.1500 
 24 H        4.5130    -4.5560     1.4390 H     1 <1>   0.0800 
 25 H        5.5550    -3.3370     2.1170 H     1 <1>   0.0800 
 26 H        6.5960    -1.5810     0.3390 H     1 <1>   0.0800 
 27 H        6.1290    -1.8350    -1.3180 H     1 <1>   0.0800 
 28 H        6.3380    -5.6080     0.2800 H     1 <1>   0.0800 
 29 H        6.7990    -5.4300     1.9500 H     1 <1>   0.0800 
 30 H        8.4320    -2.6710    -0.8260 H     1 <1>   0.0800 
 31 H        7.3610    -3.8930    -1.4530 H     1 <1>   0.0800 
 32 H        8.1270    -3.5120     1.3680 H     1 <1>   0.4500 
 33 H        8.8200    -5.6770    -0.4910 H     1 <1>   0.0800 
 34 H        9.1170    -5.7060     1.2340 H     1 <1>   0.0800 
 35 H       10.9500    -3.8380     2.2720 H     1 <1>   0.1500 
 36 H       10.2320    -4.1940    -2.0090 H     1 <1>   0.1500 
 37 H       12.4450    -2.7000    -1.8680 H     1 <1>   0.1500 
@<TRIPOS>BOND
  1   1   2  1   
  2   2   3  ar  
  3   2   4  ar  
  4   3   5  ar  
  5   3  20  1   
  6   4   6  ar  
  7   4  21  1   
  8   5   7  ar  
  9   5  22  1   
 10   6   7  ar  
 11   6  23  1   
 12   7   8  1   
 13   8   9  1   
 14   8  10  1   
 15   9  11  1   
 16   9  24  1   
 17   9  25  1   
 18  10  12  1   
 19  10  26  1   
 20  10  27  1   
 21  11  13  1   
 22  11  28  1   
 23  11  29  1   
 24  12  13  1   
 25  12  30  1   
 26  12  31  1   
 27  13  14  1   
 28  13  32  1   
 29  14  15  1   
 30  14  33  1   
 31  14  34  1   
 32  15  16  2   
 33  15  17  1   
 34  16  18  1   
 35  16  35  1   
 36  17  19  2   
 37  17  36  1   
 38  18  19  1   
 39  19  37  1   
@<TRIPOS>SUBSTRUCTURE
  1 ****  10 GROUP 4 **** **** 0

# MOE 2024.06 (io_trps.svl 2023.06)
