@<TRIPOS>MOLECULE
NONAME
36 38 1 0 0 
SMALL
USER_CHARGES


@<TRIPOS>ATOM
  1 S       -8.6530     0.5590     2.6240 S.3   1 <1>  -0.4100 
  2 C       -7.7540     0.8640     1.0910 C.3   1 <1>   0.2300 
  3 C       -6.2560     0.7030     1.3860 C.3   1 <1>  -0.1600 
  4 C       -8.0500     2.2900     0.6060 C.3   1 <1>  -0.1600 
  5 C       -8.2040    -0.1580     0.0380 C.3   1 <1>  -0.1600 
  6 C       -5.4290     0.9470     0.0940 C.3   1 <1>   0.0000 
  7 C       -7.2670     2.5440    -0.6960 C.3   1 <1>  -0.0800 
  8 C       -7.4220     0.0910    -1.2650 C.3   1 <1>  -0.0800 
  9 C       -3.8930     0.7830     0.3160 C.3   1 <1>   0.4230 
 10 C       -5.7600     2.3760    -0.4200 C.3   1 <1>  -0.1600 
 11 C       -5.9140    -0.0610    -0.9880 C.3   1 <1>  -0.1600 
 12 C       -7.7030     1.5210    -1.7600 C.3   1 <1>  -0.1600 
 13 N       -3.5770    -0.5650     0.8190 N.4   1 <1>  -0.8530 
 14 C       -3.2560     1.7670     1.3010 C.3   1 <1>  -0.2400 
 15 H       -9.9470     0.7740     2.2460 H     1 <1>   0.1800 
 16 H       -5.9860     1.4110     2.1500 H     1 <1>   0.0800 
 17 H       -6.0950    -0.2870     1.7720 H     1 <1>   0.0800 
 18 H       -7.7620     3.0040     1.3570 H     1 <1>   0.0800 
 19 H       -9.1050     2.4060     0.4260 H     1 <1>   0.0800 
 20 H       -9.2590    -0.0540    -0.1460 H     1 <1>   0.0800 
 21 H       -8.0280    -1.1580     0.3930 H     1 <1>   0.0800 
 22 H       -7.4670     3.5420    -1.0490 H     1 <1>   0.0800 
 23 H       -7.7330    -0.6170    -2.0160 H     1 <1>   0.0800 
 24 H       -3.4120     0.9170    -0.6410 H     1 <1>   0.0800 
 25 H       -5.2140     2.5830    -1.3250 H     1 <1>   0.0800 
 26 H       -5.4780     3.1190     0.3060 H     1 <1>   0.0800 
 27 H       -5.7390    -1.0760    -0.6810 H     1 <1>   0.0800 
 28 H       -5.3770     0.0990    -1.9080 H     1 <1>   0.0800 
 29 H       -8.7540     1.6360    -1.9660 H     1 <1>   0.0800 
 30 H       -7.1750     1.7030    -2.6810 H     1 <1>   0.0800 
 31 H       -4.0220    -0.7010     1.7330 H     1 <1>   0.4500 
 32 H       -2.5660    -0.6860     0.9270 H     1 <1>   0.4500 
 33 H       -3.9330    -1.2780     0.1770 H     1 <1>   0.4500 
 34 H       -3.7100     1.7120     2.2740 H     1 <1>   0.0800 
 35 H       -3.3580     2.7750     0.9420 H     1 <1>   0.0800 
 36 H       -2.2010     1.5780     1.3950 H     1 <1>   0.0800 
@<TRIPOS>BOND
  1   1   2  1   
  2   1  15  1   
  3   2   3  1   
  4   2   4  1   
  5   2   5  1   
  6   3   6  1   
  7   3  16  1   
  8   3  17  1   
  9   4   7  1   
 10   4  18  1   
 11   4  19  1   
 12   5   8  1   
 13   5  20  1   
 14   5  21  1   
 15   6   9  1   
 16   6  10  1   
 17   6  11  1   
 18   7  10  1   
 19   7  12  1   
 20   7  22  1   
 21   8  11  1   
 22   8  12  1   
 23   8  23  1   
 24   9  13  1   
 25   9  14  1   
 26   9  24  1   
 27  10  25  1   
 28  10  26  1   
 29  11  27  1   
 30  11  28  1   
 31  12  29  1   
 32  12  30  1   
 33  13  31  1   
 34  13  32  1   
 35  13  33  1   
 36  14  34  1   
 37  14  35  1   
 38  14  36  1   
@<TRIPOS>SUBSTRUCTURE
  1 ****   6 GROUP 4 **** **** 0

# MOE 2024.06 (io_trps.svl 2023.06)
