@<TRIPOS>MOLECULE
NONAME
47 48 1 0 0 
SMALL
USER_CHARGES


@<TRIPOS>ATOM
  1 S       -0.2160    -0.1010    -0.4820 S.o2  1 <1>   1.4470 
  2 O       -0.5530     0.7270     0.6530 O.2   1 <1>  -0.6500 
  3 O       -0.3750     0.4040    -1.8280 O.2   1 <1>  -0.6500 
  4 N       -1.3340    -1.3420    -0.3100 N.am  1 <1>  -0.9140 
  5 C        1.3900    -0.9210    -0.2890 C.ar  1 <1>  -0.0090 
  6 C       -2.6150    -1.0390    -0.9570 C.3   1 <1>   0.1960 
  7 C        2.5240    -0.1740    -0.0050 C.ar  1 <1>   0.0830 
  8 C        1.5390    -2.2940    -0.4440 C.ar  1 <1>  -0.1500 
  9 C       -3.6710    -2.1060    -0.6280 C.3   1 <1>   0.2000 
 10 O        2.3750     1.1700     0.1090 O.3   1 <1>  -0.3630 
 11 C        3.7530    -0.8060     0.1460 C.ar  1 <1>  -0.1500 
 12 C        2.7590    -2.9460    -0.3040 C.ar  1 <1>  -0.1440 
 13 O       -4.8950    -1.7320    -1.1690 O.3   1 <1>  -0.5600 
 14 C       -3.9630    -2.2830     0.8570 C.3   1 <1>  -0.1600 
 15 C        3.4520     2.0310     0.4010 C.3   1 <1>   0.0400 
 16 C        3.8840    -2.1780     0.0070 C.ar  1 <1>  -0.1430 
 17 C        2.7330    -4.4720    -0.5080 C.3   1 <1>   0.0640 
 18 C       -5.9370    -2.3780    -0.5100 C.3   1 <1>   0.1200 
 19 C       -5.3990    -2.7780     0.8630 C.3   1 <1>  -0.1600 
 20 C        5.2850    -2.7480     0.2000 C.3   1 <1>  -0.0970 
 21 C        2.7650    -5.2210     0.8280 C.3   1 <1>  -0.2400 
 22 C        3.7910    -5.0040    -1.4830 C.3   1 <1>  -0.2400 
 23 H       -1.5100    -1.3190     0.6930 H     1 <1>   0.4200 
 24 H       -2.4790    -1.0060    -2.0250 H     1 <1>   0.0800 
 25 H       -2.9700    -0.0770    -0.6250 H     1 <1>   0.0800 
 26 H        0.6650    -2.8710    -0.6860 H     1 <1>   0.1500 
 27 H       -3.3980    -3.0460    -1.0760 H     1 <1>   0.0800 
 28 H        4.6280    -0.2280     0.3720 H     1 <1>   0.1500 
 29 H       -3.9000    -1.3310     1.3570 H     1 <1>   0.0800 
 30 H       -3.2840    -2.9770     1.3190 H     1 <1>   0.0800 
 31 H        3.0720     3.0360     0.4410 H     1 <1>   0.0800 
 32 H        4.1880     1.9490    -0.3790 H     1 <1>   0.0800 
 33 H        3.8670     1.7610     1.3560 H     1 <1>   0.0800 
 34 H        1.7890    -4.7180    -0.9640 H     1 <1>   0.0800 
 35 H       -6.2190    -3.2410    -1.0890 H     1 <1>   0.0800 
 36 H       -6.7660    -1.6960    -0.4360 H     1 <1>   0.0800 
 37 H       -5.9740    -2.3300     1.6540 H     1 <1>   0.0800 
 38 H       -5.4380    -3.8490     0.9650 H     1 <1>   0.0800 
 39 H        5.9160    -2.0510     0.7210 H     1 <1>   0.0800 
 40 H        5.7300    -2.9490    -0.7570 H     1 <1>   0.0800 
 41 H        5.2620    -3.6490     0.7790 H     1 <1>   0.0800 
 42 H        3.6960    -5.0760     1.3400 H     1 <1>   0.0800 
 43 H        2.6260    -6.2750     0.6660 H     1 <1>   0.0800 
 44 H        1.9720    -4.8670     1.4620 H     1 <1>   0.0800 
 45 H        4.7590    -5.0630    -1.0280 H     1 <1>   0.0800 
 46 H        3.8460    -4.3660    -2.3480 H     1 <1>   0.0800 
 47 H        3.5210    -5.9930    -1.8070 H     1 <1>   0.0800 
@<TRIPOS>BOND
  1   1   2  2   
  2   1   3  2   
  3   1   4  am  
  4   1   5  1   
  5   4   6  1   
  6   4  23  1   
  7   5   7  ar  
  8   5   8  ar  
  9   6   9  1   
 10   6  24  1   
 11   6  25  1   
 12   7  10  1   
 13   7  11  ar  
 14   8  12  ar  
 15   8  26  1   
 16   9  13  1   
 17   9  14  1   
 18   9  27  1   
 19  10  15  1   
 20  11  16  ar  
 21  11  28  1   
 22  12  16  ar  
 23  12  17  1   
 24  13  18  1   
 25  14  19  1   
 26  14  29  1   
 27  14  30  1   
 28  15  31  1   
 29  15  32  1   
 30  15  33  1   
 31  16  20  1   
 32  17  21  1   
 33  17  22  1   
 34  17  34  1   
 35  18  19  1   
 36  18  35  1   
 37  18  36  1   
 38  19  37  1   
 39  19  38  1   
 40  20  39  1   
 41  20  40  1   
 42  20  41  1   
 43  21  42  1   
 44  21  43  1   
 45  21  44  1   
 46  22  45  1   
 47  22  46  1   
 48  22  47  1   
@<TRIPOS>SUBSTRUCTURE
  1 ****   5 GROUP 4 **** **** 0

# MOE 2024.06 (io_trps.svl 2023.06)
