@<TRIPOS>MOLECULE
NONAME
50 53 1 0 0 
SMALL
USER_CHARGES


@<TRIPOS>ATOM
  1 O        0.4040     0.8420     0.4830 O.2   1 <1>  -0.5700 
  2 C        0.2230     1.8590    -0.1610 C.2   1 <1>   0.5440 
  3 N        1.2810     2.4040    -0.8650 N.am  1 <1>  -0.6600 
  4 C       -1.0940     2.4650    -0.1580 C.ar  1 <1>   0.0860 
  5 C        1.2970     3.8050    -1.3720 C.3   1 <1>   0.1400 
  6 C        2.5730     1.6780    -1.0100 C.3   1 <1>   0.1400 
  7 C       -1.7880     2.7150    -1.3430 C.ar  1 <1>  -0.1500 
  8 C       -1.7170     2.8150     1.0390 C.ar  1 <1>  -0.1500 
  9 C        2.4040     4.5930    -0.6660 C.3   1 <1>  -0.1600 
 10 C        3.6820     2.4520    -0.2930 C.3   1 <1>  -0.1600 
 11 C       -3.0370     3.3060    -1.3320 C.ar  1 <1>  -0.1500 
 12 C       -2.9670     3.4060     1.0600 C.ar  1 <1>  -0.1500 
 13 C        3.7790     3.9040    -0.7980 C.3   1 <1>  -0.0190 
 14 C       -3.6370     3.6600    -0.1340 C.ar  1 <1>   0.0820 
 15 C        4.8970     4.6620    -0.0790 C.2   1 <1>   0.5690 
 16 O       -4.8570     4.2360    -0.2060 O.3   1 <1>  -0.3630 
 17 O        4.6250     5.3990     0.8380 O.2   1 <1>  -0.5700 
 18 N        6.1760     4.4470    -0.5170 N.am  1 <1>  -0.5470 
 19 C       -5.5730     4.6060     0.9510 C.3   1 <1>   0.0400 
 20 C        7.4020     4.9800    -0.0850 C.ar  1 <1>   0.1170 
 21 C        8.5640     4.2610    -0.3620 C.ar  1 <1>  -0.1500 
 22 C        7.5040     6.2020     0.5910 C.ar  1 <1>  -0.1500 
 23 C        9.7760     4.7780     0.0450 C.ar  1 <1>   0.0820 
 24 C        8.7330     6.7080     0.9950 C.ar  1 <1>  -0.1500 
 25 O       10.9950     4.2540    -0.1170 O.3   1 <1>  -0.3620 
 26 C        9.8610     5.9680     0.7060 C.ar  1 <1>   0.0820 
 27 C       11.9150     5.1660     0.4820 C.3   1 <1>   0.4000 
 28 O       11.1390     6.2490     0.9910 O.3   1 <1>  -0.3620 
 29 H        0.3550     4.2940    -1.1920 H     1 <1>   0.0800 
 30 H        1.4710     3.7920    -2.4340 H     1 <1>   0.0800 
 31 H        2.8040     1.5850    -2.0570 H     1 <1>   0.0800 
 32 H        2.5030     0.6850    -0.6010 H     1 <1>   0.0800 
 33 H       -1.3360     2.4360    -2.2790 H     1 <1>   0.1500 
 34 H       -1.2020     2.6130     1.9630 H     1 <1>   0.1500 
 35 H        2.1440     4.6900     0.3740 H     1 <1>   0.0800 
 36 H        2.4550     5.5840    -1.0800 H     1 <1>   0.0800 
 37 H        4.6170     1.9430    -0.4420 H     1 <1>   0.0800 
 38 H        3.4750     2.4490     0.7650 H     1 <1>   0.0800 
 39 H       -3.5610     3.4950    -2.2510 H     1 <1>   0.1500 
 40 H       -3.4040     3.6600     2.0070 H     1 <1>   0.1500 
 41 H        4.0270     3.8810    -1.8440 H     1 <1>   0.0800 
 42 H        6.2650     3.7410    -1.2430 H     1 <1>   0.3700 
 43 H       -6.5120     5.0300     0.6420 H     1 <1>   0.0800 
 44 H       -5.0030     5.3380     1.4950 H     1 <1>   0.0800 
 45 H       -5.7460     3.7290     1.5490 H     1 <1>   0.0800 
 46 H        8.5350     3.3200    -0.8760 H     1 <1>   0.1500 
 47 H        6.6180     6.7710     0.8060 H     1 <1>   0.1500 
 48 H        8.8150     7.6440     1.5170 H     1 <1>   0.1500 
 49 H       12.5990     5.5310    -0.2630 H     1 <1>   0.0800 
 50 H       12.4300     4.6790     1.2910 H     1 <1>   0.0800 
@<TRIPOS>BOND
  1   1   2  2   
  2   2   3  am  
  3   2   4  1   
  4   3   5  1   
  5   3   6  1   
  6   4   7  ar  
  7   4   8  ar  
  8   5   9  1   
  9   5  29  1   
 10   5  30  1   
 11   6  10  1   
 12   6  31  1   
 13   6  32  1   
 14   7  11  ar  
 15   7  33  1   
 16   8  12  ar  
 17   8  34  1   
 18   9  13  1   
 19   9  35  1   
 20   9  36  1   
 21  10  13  1   
 22  10  37  1   
 23  10  38  1   
 24  11  14  ar  
 25  11  39  1   
 26  12  14  ar  
 27  12  40  1   
 28  13  15  1   
 29  13  41  1   
 30  14  16  1   
 31  15  17  2   
 32  15  18  am  
 33  16  19  1   
 34  18  20  1   
 35  18  42  1   
 36  19  43  1   
 37  19  44  1   
 38  19  45  1   
 39  20  21  ar  
 40  20  22  ar  
 41  21  23  ar  
 42  21  46  1   
 43  22  24  ar  
 44  22  47  1   
 45  23  25  1   
 46  23  26  ar  
 47  24  26  ar  
 48  24  48  1   
 49  25  27  1   
 50  26  28  1   
 51  27  28  1   
 52  27  49  1   
 53  27  50  1   
@<TRIPOS>SUBSTRUCTURE
  1 ****  13 GROUP 4 **** **** 0

# MOE 2024.06 (io_trps.svl 2023.06)
