@<TRIPOS>MOLECULE
NONAME
43 45 1 0 0 
SMALL
USER_CHARGES


@<TRIPOS>ATOM
  1 O        0.4170    -1.1400     0.8230 O.2   1 <1>  -0.5700 
  2 C       -0.1920    -1.7840     0.0080 C.2   1 <1>   0.5690 
  3 N        0.3310    -2.4370    -1.0660 N.am  1 <1>  -0.4200 
  4 C       -1.6940    -1.9550     0.0010 C.3   1 <1>  -0.0190 
  5 C       -0.6140    -3.2060    -1.6770 C.2   1 <1>   0.5690 
  6 C        1.7840    -2.6890    -1.2280 C.3   1 <1>   0.2010 
  7 C       -1.8470    -3.2490    -0.7990 C.3   1 <1>  -0.0190 
  8 C       -2.5110    -2.0530     1.2890 C.3   1 <1>  -0.0990 
  9 O       -0.4900    -3.7880    -2.7240 O.2   1 <1>  -0.5700 
 10 C        2.2860    -3.8460    -0.3550 C.2   1 <1>   0.5690 
 11 C       -3.2760    -3.3360    -1.3440 C.3   1 <1>  -0.1600 
 12 C       -3.9830    -2.2230     0.8810 C.2   1 <1>   0.3280 
 13 O        1.4700    -4.5060     0.2530 O.2   1 <1>  -0.5700 
 14 N        3.6310    -4.1200    -0.2740 N.am  1 <1>  -0.6600 
 15 C       -4.2470    -3.3400    -0.1390 C.3   1 <1>  -0.0990 
 16 N       -4.9460    -1.5190     1.3000 N.2   1 <1>  -0.5130 
 17 C        4.7060    -3.4020    -1.0170 C.3   1 <1>   0.1400 
 18 C        4.1500    -5.1750     0.6440 C.3   1 <1>   0.1400 
 19 O       -4.7730    -0.5460     2.1800 O.3   1 <1>  -0.3370 
 20 C        5.6590    -2.7380    -0.0190 C.3   1 <1>  -0.1600 
 21 C        5.1060    -4.5410     1.6610 C.3   1 <1>  -0.1600 
 22 C        6.2350    -3.7600     0.9720 C.3   1 <1>  -0.1600 
 23 H       -2.0750    -1.1280    -0.5750 H     1 <1>   0.0800 
 24 H        1.9860    -2.9190    -2.2580 H     1 <1>   0.0800 
 25 H        2.3180    -1.7960    -0.9600 H     1 <1>   0.0800 
 26 H       -1.6880    -4.0930    -0.1480 H     1 <1>   0.0800 
 27 H       -2.3500    -1.1650     1.8700 H     1 <1>   0.0800 
 28 H       -2.1950    -2.8980     1.8750 H     1 <1>   0.0800 
 29 H       -3.4830    -2.4970    -1.9860 H     1 <1>   0.0800 
 30 H       -3.3960    -4.2380    -1.9210 H     1 <1>   0.0800 
 31 H       -4.1660    -4.2810     0.3760 H     1 <1>   0.0800 
 32 H       -5.2590    -3.2610    -0.4980 H     1 <1>   0.0800 
 33 H        5.2490    -4.1150    -1.6150 H     1 <1>   0.0800 
 34 H        4.3020    -2.6590    -1.6800 H     1 <1>   0.0800 
 35 H        3.3440    -5.6620     1.1650 H     1 <1>   0.0800 
 36 H        4.6690    -5.9200     0.0660 H     1 <1>   0.0800 
 37 H       -3.8850    -0.4650     2.5780 H     1 <1>   0.4000 
 38 H        6.4630    -2.2640    -0.5540 H     1 <1>   0.0800 
 39 H        5.1250    -1.9730     0.5190 H     1 <1>   0.0800 
 40 H        4.5420    -3.8810     2.2970 H     1 <1>   0.0800 
 41 H        5.5260    -5.3120     2.2820 H     1 <1>   0.0800 
 42 H        6.8310    -3.2540     1.7120 H     1 <1>   0.0800 
 43 H        6.8730    -4.4480     0.4450 H     1 <1>   0.0800 
@<TRIPOS>BOND
  1   1   2  2   
  2   2   3  am  
  3   2   4  1   
  4   3   5  am  
  5   3   6  1   
  6   4   7  1   
  7   4   8  1   
  8   4  23  1   
  9   5   7  1   
 10   5   9  2   
 11   6  10  1   
 12   6  24  1   
 13   6  25  1   
 14   7  11  1   
 15   7  26  1   
 16   8  12  1   
 17   8  27  1   
 18   8  28  1   
 19  10  13  2   
 20  10  14  am  
 21  11  15  1   
 22  11  29  1   
 23  11  30  1   
 24  12  15  1   
 25  12  16  2   
 26  14  17  1   
 27  14  18  1   
 28  15  31  1   
 29  15  32  1   
 30  16  19  1   
 31  17  20  1   
 32  17  33  1   
 33  17  34  1   
 34  18  21  1   
 35  18  35  1   
 36  18  36  1   
 37  19  37  1   
 38  20  22  1   
 39  20  38  1   
 40  20  39  1   
 41  21  22  1   
 42  21  40  1   
 43  21  41  1   
 44  22  42  1   
 45  22  43  1   
@<TRIPOS>SUBSTRUCTURE
  1 ****   3 GROUP 4 **** **** 0

# MOE 2024.06 (io_trps.svl 2023.06)
