@<TRIPOS>MOLECULE
NONAME
44 45 1 0 0 
SMALL
USER_CHARGES


@<TRIPOS>ATOM
  1 O       -0.3880    -0.5310     0.4490 O.2   1 <1>  -0.5700 
  2 C       -0.3600    -1.6890     0.0790 C.2   1 <1>   0.7800 
  3 O        0.6810    -2.4590     0.3970 O.3   1 <1>  -0.4300 
  4 N       -1.3720    -2.2510    -0.6610 N.am  1 <1>  -0.6600 
  5 C        1.7610    -1.9440     1.1430 C.3   1 <1>   0.1200 
  6 C       -1.3570    -3.6590    -1.1190 C.3   1 <1>   0.1400 
  7 C       -2.5390    -1.4570    -1.1010 C.3   1 <1>   0.1400 
  8 C        2.7810    -3.0620     1.3340 C.3   1 <1>  -0.2400 
  9 C       -2.6190    -4.3570    -0.6090 C.3   1 <1>  -0.1600 
 10 C       -3.8150    -2.1250    -0.5890 C.3   1 <1>  -0.1600 
 11 C       -3.8960    -3.6010    -1.0160 C.3   1 <1>   0.4230 
 12 N       -5.0960    -4.2490    -0.4010 N.4   1 <1>  -0.9590 
 13 C       -5.2510    -5.7210    -0.6850 C.3   1 <1>   0.3430 
 14 C       -6.4090    -3.5570    -0.6640 C.3   1 <1>   0.3430 
 15 C       -6.4230    -6.3410     0.1160 C.3   1 <1>   0.1100 
 16 C       -7.5680    -4.1990     0.1380 C.3   1 <1>   0.1100 
 17 N       -7.1120    -5.3410     0.9600 N.3   1 <1>  -0.8100 
 18 C       -8.2250    -5.9430     1.7050 C.3   1 <1>   0.0300 
 19 H        1.3870    -1.5940     2.0910 H     1 <1>   0.0800 
 20 H        2.1890    -1.1190     0.5970 H     1 <1>   0.0800 
 21 H       -0.4850    -4.1760    -0.7540 H     1 <1>   0.0800 
 22 H       -1.3240    -3.6770    -2.1960 H     1 <1>   0.0800 
 23 H       -2.5430    -1.4040    -2.1770 H     1 <1>   0.0800 
 24 H       -2.4800    -0.4490    -0.7220 H     1 <1>   0.0800 
 25 H        2.3380    -3.8800     1.8730 H     1 <1>   0.0800 
 26 H        3.6190    -2.6940     1.8980 H     1 <1>   0.0800 
 27 H        3.1350    -3.4070     0.3800 H     1 <1>   0.0800 
 28 H       -2.5540    -4.4250     0.4630 H     1 <1>   0.0800 
 29 H       -2.6160    -5.3490    -1.0190 H     1 <1>   0.0800 
 30 H       -4.6420    -1.5670    -0.9840 H     1 <1>   0.0800 
 31 H       -3.8260    -2.0470     0.4840 H     1 <1>   0.0800 
 32 H       -3.9840    -3.6380    -2.0900 H     1 <1>   0.0800 
 33 H       -5.0090    -4.2120     0.6270 H     1 <1>   0.4500 
 34 H       -4.3520    -6.2480    -0.4150 H     1 <1>   0.0800 
 35 H       -5.4190    -5.8780    -1.7370 H     1 <1>   0.0800 
 36 H       -6.6420    -3.5950    -1.7150 H     1 <1>   0.0800 
 37 H       -6.3460    -2.5200    -0.3800 H     1 <1>   0.0800 
 38 H       -6.0380    -7.1270     0.7430 H     1 <1>   0.0800 
 39 H       -7.1230    -6.7890    -0.5700 H     1 <1>   0.0800 
 40 H       -8.3360    -4.5210    -0.5460 H     1 <1>   0.0800 
 41 H       -8.0010    -3.4510     0.7810 H     1 <1>   0.0800 
 42 H       -7.8620    -6.7440     2.3270 H     1 <1>   0.0800 
 43 H       -8.9700    -6.3350     1.0330 H     1 <1>   0.0800 
 44 H       -8.6840    -5.2060     2.3430 H     1 <1>   0.0800 
@<TRIPOS>BOND
  1   1   2  2   
  2   2   3  1   
  3   2   4  am  
  4   3   5  1   
  5   4   6  1   
  6   4   7  1   
  7   5   8  1   
  8   5  19  1   
  9   5  20  1   
 10   6   9  1   
 11   6  21  1   
 12   6  22  1   
 13   7  10  1   
 14   7  23  1   
 15   7  24  1   
 16   8  25  1   
 17   8  26  1   
 18   8  27  1   
 19   9  11  1   
 20   9  28  1   
 21   9  29  1   
 22  10  11  1   
 23  10  30  1   
 24  10  31  1   
 25  11  12  1   
 26  11  32  1   
 27  12  13  1   
 28  12  14  1   
 29  12  33  1   
 30  13  15  1   
 31  13  34  1   
 32  13  35  1   
 33  14  16  1   
 34  14  36  1   
 35  14  37  1   
 36  15  17  1   
 37  15  38  1   
 38  15  39  1   
 39  16  17  1   
 40  16  40  1   
 41  16  41  1   
 42  17  18  1   
 43  18  42  1   
 44  18  43  1   
 45  18  44  1   
@<TRIPOS>SUBSTRUCTURE
  1 ****   9 GROUP 4 **** **** 0

# MOE 2024.06 (io_trps.svl 2023.06)
