@<TRIPOS>MOLECULE
NONAME
55 59 1 0 0 
SMALL
USER_CHARGES


@<TRIPOS>ATOM
  1 O       -1.2170    -1.1250     1.3880 O.3   1 <1>  -0.5600 
  2 C       -0.5250    -1.0400     0.1630 C.3   1 <1>   0.5600 
  3 C       -2.5180    -1.1960     1.0090 C.3   1 <1>   0.4800 
  4 O       -1.4380    -1.4430    -0.8450 O.3   1 <1>  -0.5600 
  5 C        0.6770    -1.9910     0.1910 C.3   1 <1>  -0.1600 
  6 C       -0.0990     0.4110    -0.0930 C.3   1 <1>  -0.1600 
  7 O       -3.4240    -1.8070     1.8480 O.3   1 <1>  -0.5600 
  8 C       -2.4360    -2.0890    -0.1500 C.3   1 <1>   0.2000 
  9 C        1.5430    -1.8610    -1.0730 C.3   1 <1>  -0.1600 
 10 C        0.7700     0.5400    -1.3570 C.3   1 <1>  -0.1600 
 11 C       -4.4770    -2.2240     0.9860 C.3   1 <1>   0.2000 
 12 C       -3.9070    -2.1600    -0.4710 C.3   1 <1>   0.2000 
 13 C        1.9790    -0.4050    -1.2990 C.3   1 <1>  -0.1600 
 14 C       -5.7600    -1.4010     1.2740 C.3   1 <1>   0.2000 
 15 O       -4.1500    -3.3330    -1.2020 O.3   1 <1>  -0.5600 
 16 O       -6.5840    -1.3820     0.1510 O.3   1 <1>  -0.5600 
 17 C       -5.5610     0.0760     1.5930 C.3   1 <1>   0.1200 
 18 C       -5.4210    -3.4430    -1.7580 C.3   1 <1>   0.0400 
 19 C       -6.9210    -0.0720    -0.1700 C.3   1 <1>   0.5600 
 20 O       -5.9430     0.7080     0.4300 O.3   1 <1>  -0.5600 
 21 C       -6.8530     0.1180    -1.6890 C.3   1 <1>  -0.1600 
 22 C       -8.3170     0.2650     0.3780 C.3   1 <1>  -0.1600 
 23 C       -7.3140     1.5230    -2.1140 C.3   1 <1>  -0.1600 
 24 C       -8.7730     1.6730    -0.0420 C.3   1 <1>  -0.1600 
 25 C       -8.7140     1.8400    -1.5680 C.3   1 <1>  -0.1600 
 26 H       -2.8710    -0.2130     0.7430 H     1 <1>   0.0800 
 27 H        0.3350    -3.0040     0.2990 H     1 <1>   0.0800 
 28 H        1.2790    -1.7490     1.0480 H     1 <1>   0.0800 
 29 H        0.4710     0.7500     0.7530 H     1 <1>   0.0800 
 30 H       -0.9690     1.0340    -0.1850 H     1 <1>   0.0800 
 31 H       -2.0760    -3.0580     0.1560 H     1 <1>   0.0800 
 32 H        0.9770    -2.1990    -1.9260 H     1 <1>   0.0800 
 33 H        2.4120    -2.4900    -0.9840 H     1 <1>   0.0800 
 34 H        1.1080     1.5560    -1.4620 H     1 <1>   0.0800 
 35 H        0.1730     0.3000    -2.2210 H     1 <1>   0.0800 
 36 H       -4.6710    -3.2530     1.2300 H     1 <1>   0.0800 
 37 H       -4.2360    -1.2930    -1.0170 H     1 <1>   0.0800 
 38 H        2.5320    -0.3360    -2.2200 H     1 <1>   0.0800 
 39 H        2.6320    -0.1000    -0.5000 H     1 <1>   0.0800 
 40 H       -6.3010    -1.8720     2.0750 H     1 <1>   0.0800 
 41 H       -4.5570     0.3580     1.8470 H     1 <1>   0.0800 
 42 H       -6.2190     0.3860     2.3850 H     1 <1>   0.0800 
 43 H       -5.4320    -4.3100    -2.3940 H     1 <1>   0.0800 
 44 H       -5.6360    -2.5650    -2.3400 H     1 <1>   0.0800 
 45 H       -6.1450    -3.5670    -0.9730 H     1 <1>   0.0800 
 46 H       -7.4940    -0.6100    -2.1520 H     1 <1>   0.0800 
 47 H       -5.8480    -0.0480    -2.0280 H     1 <1>   0.0800 
 48 H       -8.3330     0.1810     1.4480 H     1 <1>   0.0800 
 49 H       -9.0140    -0.4510    -0.0190 H     1 <1>   0.0800 
 50 H       -7.3200     1.5930    -3.1880 H     1 <1>   0.0800 
 51 H       -6.6150     2.2520    -1.7400 H     1 <1>   0.0800 
 52 H       -8.1320     2.4060     0.4200 H     1 <1>   0.0800 
 53 H       -9.7770     1.8480     0.3030 H     1 <1>   0.0800 
 54 H       -9.4330     1.1830    -2.0270 H     1 <1>   0.0800 
 55 H       -8.9800     2.8500    -1.8280 H     1 <1>   0.0800 
@<TRIPOS>BOND
  1   1   2  1   
  2   1   3  1   
  3   2   4  1   
  4   2   5  1   
  5   2   6  1   
  6   3   7  1   
  7   3   8  1   
  8   3  26  1   
  9   4   8  1   
 10   5   9  1   
 11   5  27  1   
 12   5  28  1   
 13   6  10  1   
 14   6  29  1   
 15   6  30  1   
 16   7  11  1   
 17   8  12  1   
 18   8  31  1   
 19   9  13  1   
 20   9  32  1   
 21   9  33  1   
 22  10  13  1   
 23  10  34  1   
 24  10  35  1   
 25  11  12  1   
 26  11  14  1   
 27  11  36  1   
 28  12  15  1   
 29  12  37  1   
 30  13  38  1   
 31  13  39  1   
 32  14  16  1   
 33  14  17  1   
 34  14  40  1   
 35  15  18  1   
 36  16  19  1   
 37  17  20  1   
 38  17  41  1   
 39  17  42  1   
 40  18  43  1   
 41  18  44  1   
 42  18  45  1   
 43  19  20  1   
 44  19  21  1   
 45  19  22  1   
 46  21  23  1   
 47  21  46  1   
 48  21  47  1   
 49  22  24  1   
 50  22  48  1   
 51  22  49  1   
 52  23  25  1   
 53  23  50  1   
 54  23  51  1   
 55  24  25  1   
 56  24  52  1   
 57  24  53  1   
 58  25  54  1   
 59  25  55  1   
@<TRIPOS>SUBSTRUCTURE
  1 ****  12 GROUP 4 **** **** 0

# MOE 2024.06 (io_trps.svl 2023.06)
