@<TRIPOS>MOLECULE
NONAME
39 39 1 0 0 
SMALL
USER_CHARGES


@<TRIPOS>ATOM
  1 O       -3.8000     3.9080    -0.7940 O.2   1 <1>  -0.5700 
  2 C       -3.9260     4.2890     0.3550 C.2   1 <1>   0.7800 
  3 O       -4.8300     3.6980     1.1460 O.3   1 <1>  -0.2330 
  4 N       -3.1460     5.2850     0.8920 N.am  1 <1>  -0.6600 
  5 C       -5.7550     2.7950     0.7250 C.ar  1 <1>   0.0830 
  6 C       -2.1620     6.0470     0.0710 C.3   1 <1>   0.0600 
  7 C       -3.2830     5.7760     2.2930 C.3   1 <1>   0.0600 
  8 C       -5.4220     1.5030     0.3180 C.ar  1 <1>  -0.1440 
  9 C       -7.0810     3.1980     0.7590 C.ar  1 <1>  -0.1500 
 10 C       -6.4460     0.6300    -0.0290 C.ar  1 <1>  -0.1500 
 11 C       -3.9760     1.0360     0.2630 C.3   1 <1>   0.4860 
 12 C       -8.0890     2.3260     0.3920 C.ar  1 <1>  -0.1500 
 13 C       -7.7710     1.0320    -0.0030 C.ar  1 <1>   0.0830 
 14 N       -3.6890     0.3860    -1.0550 N.4   1 <1>  -0.9590 
 15 O       -8.6870     0.1050    -0.3760 O.3   1 <1>  -0.3620 
 16 C       -2.3250    -0.2160    -1.0750 C.3   1 <1>   0.2630 
 17 C       -3.8570     1.3600    -2.1820 C.3   1 <1>   0.2630 
 18 C      -10.0690     0.3930    -0.3510 C.3   1 <1>   0.0400 
 19 H       -2.1310     5.6760    -0.9390 H     1 <1>   0.0800 
 20 H       -1.1800     5.9560     0.5010 H     1 <1>   0.0800 
 21 H       -2.4400     7.0860     0.0440 H     1 <1>   0.0800 
 22 H       -3.9610     5.1650     2.8620 H     1 <1>   0.0800 
 23 H       -3.6550     6.7860     2.2870 H     1 <1>   0.0800 
 24 H       -2.3220     5.7610     2.7790 H     1 <1>   0.0800 
 25 H       -7.3250     4.1970     1.0770 H     1 <1>   0.1500 
 26 H       -6.2500    -0.3850    -0.3220 H     1 <1>   0.1500 
 27 H       -3.8090     0.3330     1.0620 H     1 <1>   0.0800 
 28 H       -3.3120     1.8700     0.4080 H     1 <1>   0.0800 
 29 H       -9.1070     2.6690     0.4240 H     1 <1>   0.1500 
 30 H       -4.3950    -0.3510    -1.1760 H     1 <1>   0.4500 
 31 H       -1.5770     0.5500    -0.9450 H     1 <1>   0.0800 
 32 H       -2.1500    -0.7110    -2.0170 H     1 <1>   0.0800 
 33 H       -2.2210    -0.9400    -0.2830 H     1 <1>   0.0800 
 34 H       -3.1130     2.1380    -2.1210 H     1 <1>   0.0800 
 35 H       -4.8310     1.8220    -2.1380 H     1 <1>   0.0800 
 36 H       -3.7560     0.8600    -3.1310 H     1 <1>   0.0800 
 37 H      -10.6010    -0.4850    -0.6690 H     1 <1>   0.0800 
 38 H      -10.2700     1.2060    -1.0260 H     1 <1>   0.0800 
 39 H      -10.3550     0.6480     0.6550 H     1 <1>   0.0800 
@<TRIPOS>BOND
  1   1   2  2   
  2   2   3  1   
  3   2   4  am  
  4   3   5  1   
  5   4   6  1   
  6   4   7  1   
  7   5   8  ar  
  8   5   9  ar  
  9   6  19  1   
 10   6  20  1   
 11   6  21  1   
 12   7  22  1   
 13   7  23  1   
 14   7  24  1   
 15   8  10  ar  
 16   8  11  1   
 17   9  12  ar  
 18   9  25  1   
 19  10  13  ar  
 20  10  26  1   
 21  11  14  1   
 22  11  27  1   
 23  11  28  1   
 24  12  13  ar  
 25  12  29  1   
 26  13  15  1   
 27  14  16  1   
 28  14  17  1   
 29  14  30  1   
 30  15  18  1   
 31  16  31  1   
 32  16  32  1   
 33  16  33  1   
 34  17  34  1   
 35  17  35  1   
 36  17  36  1   
 37  18  37  1   
 38  18  38  1   
 39  18  39  1   
@<TRIPOS>SUBSTRUCTURE
  1 ****   5 GROUP 4 **** **** 0

# MOE 2024.06 (io_trps.svl 2023.06)
