@<TRIPOS>MOLECULE
NONAME
36 36 1 0 0 
SMALL
USER_CHARGES


@<TRIPOS>ATOM
  1 S        0.7130    -0.5850     1.1260 S.2   1 <1>  -0.6770 
  2 P        0.4400    -2.1190    -0.0200 P.3   1 <1>   1.4880 
  3 O       -1.0720    -2.3300    -0.4940 O.3   1 <1>  -0.5510 
  4 O        0.8630    -3.5230     0.6160 O.3   1 <1>  -0.5510 
  5 N        1.3140    -1.9660    -1.4940 N.3   1 <1>  -0.6170 
  6 C       -2.1140    -2.3870     0.4170 C.3   1 <1>   0.1200 
  7 C        0.5780    -4.7250    -0.0050 C.3   1 <1>   0.1200 
  8 N        2.5870    -2.7310    -1.7360 N.pl3 1 <1>  -0.5110 
  9 C       -2.8230    -1.0350     0.4370 C.3   1 <1>  -0.2400 
 10 C        1.2690    -5.8270     0.7890 C.3   1 <1>  -0.2400 
 11 C        3.6770    -2.7190    -0.8790 C.ar  1 <1>   0.1000 
 12 C        4.5250    -3.8220    -0.8360 C.ar  1 <1>  -0.1500 
 13 C        3.9590    -1.6390    -0.0480 C.ar  1 <1>  -0.1500 
 14 C        5.6190    -3.8710     0.0190 C.ar  1 <1>  -0.1430 
 15 C        5.0430    -1.6670     0.8060 C.ar  1 <1>  -0.1500 
 16 C        5.8710    -2.7760     0.8410 C.ar  1 <1>  -0.1500 
 17 C        6.5300    -5.1070     0.0470 C.3   1 <1>   1.1630 
 18 F        7.4650    -5.0560    -0.8930 F     1 <1>  -0.3400 
 19 F        5.8610    -6.2380    -0.1550 F     1 <1>  -0.3400 
 20 F        7.1700    -5.2590     1.2010 F     1 <1>  -0.3400 
 21 H        1.4820    -0.9660    -1.6290 H     1 <1>   0.3600 
 22 H       -1.7370    -2.6520     1.3920 H     1 <1>   0.0800 
 23 H       -2.7950    -3.1520     0.0830 H     1 <1>   0.0800 
 24 H        0.9470    -4.6980    -1.0150 H     1 <1>   0.0800 
 25 H       -0.4890    -4.8690    -0.0130 H     1 <1>   0.0800 
 26 H        2.5460    -3.4480    -2.4760 H     1 <1>   0.4000 
 27 H       -2.1630    -0.2630     0.7880 H     1 <1>   0.0800 
 28 H       -3.6670    -1.0810     1.1000 H     1 <1>   0.0800 
 29 H       -3.1750    -0.7860    -0.5480 H     1 <1>   0.0800 
 30 H        2.3320    -5.6620     0.8000 H     1 <1>   0.0800 
 31 H        1.0740    -6.7820     0.3350 H     1 <1>   0.0800 
 32 H        0.9000    -5.8440     1.7990 H     1 <1>   0.0800 
 33 H        4.3120    -4.6540    -1.4830 H     1 <1>   0.1500 
 34 H        3.3300    -0.7680    -0.0690 H     1 <1>   0.1500 
 35 H        5.2420    -0.8240     1.4450 H     1 <1>   0.1500 
 36 H        6.7110    -2.7750     1.5160 H     1 <1>   0.1500 
@<TRIPOS>BOND
  1   1   2  2   
  2   2   3  1   
  3   2   4  1   
  4   2   5  1   
  5   3   6  1   
  6   4   7  1   
  7   5   8  1   
  8   5  21  1   
  9   6   9  1   
 10   6  22  1   
 11   6  23  1   
 12   7  10  1   
 13   7  24  1   
 14   7  25  1   
 15   8  11  1   
 16   8  26  1   
 17   9  27  1   
 18   9  28  1   
 19   9  29  1   
 20  10  30  1   
 21  10  31  1   
 22  10  32  1   
 23  11  12  ar  
 24  11  13  ar  
 25  12  14  ar  
 26  12  33  1   
 27  13  15  ar  
 28  13  34  1   
 29  14  16  ar  
 30  14  17  1   
 31  15  16  ar  
 32  15  35  1   
 33  16  36  1   
 34  17  18  1   
 35  17  19  1   
 36  17  20  1   
@<TRIPOS>SUBSTRUCTURE
  1 ****  11 GROUP 4 **** **** 0

# MOE 2024.06 (io_trps.svl 2023.06)
