@<TRIPOS>MOLECULE
NONAME
24 24 1 0 0 
SMALL
USER_CHARGES


@<TRIPOS>ATOM
  1 O       -0.7030    -0.1200    -0.3120 O.co2 1 <1>  -0.9000 
  2 C       -1.5120     0.8110    -0.4710 C.2   1 <1>   0.9060 
  3 O       -1.1680     1.9430    -0.8340 O.co2 1 <1>  -0.9000 
  4 C       -3.0090     0.5020    -0.1920 C.3   1 <1>   0.1740 
  5 O       -3.1160    -0.8430     0.2010 O.3   1 <1>  -0.6800 
  6 C       -3.5490     1.3780     0.9580 C.3   1 <1>  -0.1600 
  7 C       -3.8590     0.6950    -1.4660 C.3   1 <1>  -0.1600 
  8 C       -5.0440     1.1830     1.2380 C.3   1 <1>   0.2000 
  9 C       -5.3620     0.4830    -1.2480 C.3   1 <1>   0.2000 
 10 O       -5.1910    -0.0650     1.8250 O.3   1 <1>  -0.6800 
 11 C       -5.8960     1.3130    -0.0520 C.3   1 <1>   0.2000 
 12 O       -5.5590    -0.8770    -1.0550 O.3   1 <1>  -0.6800 
 13 O       -7.2090     0.9480     0.2190 O.3   1 <1>  -0.6800 
 14 H       -2.1670    -1.1540     0.1670 H     1 <1>   0.4000 
 15 H       -3.3930     2.4070     0.6840 H     1 <1>   0.0800 
 16 H       -2.9730     1.2090     1.8510 H     1 <1>   0.0800 
 17 H       -3.7120     1.7050    -1.8060 H     1 <1>   0.0800 
 18 H       -3.4980     0.0530    -2.2500 H     1 <1>   0.0800 
 19 H       -5.3790     1.9120     1.9550 H     1 <1>   0.0800 
 20 H       -5.9030     0.7590    -2.1360 H     1 <1>   0.0800 
 21 H       -4.5220    -0.6540     1.3970 H     1 <1>   0.4000 
 22 H       -5.9080     2.3480    -0.3420 H     1 <1>   0.0800 
 23 H       -4.7710    -1.2040    -0.5550 H     1 <1>   0.4000 
 24 H       -7.1750     0.0030     0.4820 H     1 <1>   0.4000 
@<TRIPOS>BOND
  1   1   2  ar  
  2   2   3  ar  
  3   2   4  1   
  4   4   5  1   
  5   4   6  1   
  6   4   7  1   
  7   5  14  1   
  8   6   8  1   
  9   6  15  1   
 10   6  16  1   
 11   7   9  1   
 12   7  17  1   
 13   7  18  1   
 14   8  10  1   
 15   8  11  1   
 16   8  19  1   
 17   9  11  1   
 18   9  12  1   
 19   9  20  1   
 20  10  21  1   
 21  11  13  1   
 22  11  22  1   
 23  12  23  1   
 24  13  24  1   
@<TRIPOS>SUBSTRUCTURE
  1 ****   4 GROUP 4 **** **** 0

# MOE 2024.06 (io_trps.svl 2023.06)
