@<TRIPOS>MOLECULE
NONAME
47 48 1 0 0 
SMALL
USER_CHARGES


@<TRIPOS>ATOM
  1 O       -1.1300    -0.2000     1.1080 O.3   1 <1>  -0.3630 
  2 C       -1.8490     0.5980     0.2790 C.ar  1 <1>   0.0830 
  3 C        0.0270    -0.8020     0.5670 C.3   1 <1>   0.0400 
  4 C       -1.3360     1.7600    -0.3080 C.ar  1 <1>   0.0830 
  5 C       -3.1540     0.2180     0.0180 C.ar  1 <1>  -0.1500 
  6 O       -0.0890     2.2260    -0.0590 O.3   1 <1>  -0.3630 
  7 C       -2.1250     2.4860    -1.1840 C.ar  1 <1>  -0.1500 
  8 C       -3.9510     0.9610    -0.8400 C.ar  1 <1>  -0.1430 
  9 C        0.1550     2.6950     1.2490 C.3   1 <1>   0.0400 
 10 C       -3.4250     2.0910    -1.4490 C.ar  1 <1>  -0.1500 
 11 C       -5.3860     0.5320    -1.1030 C.3   1 <1>  -0.0170 
 12 C       -6.2730     0.7200     0.1490 C.3   1 <1>   0.4230 
 13 N       -7.6750     0.2300    -0.0750 N.4   1 <1>  -0.9590 
 14 C       -6.3240     2.2010     0.5510 C.3   1 <1>  -0.2400 
 15 C       -8.5240     0.3370     1.1720 C.3   1 <1>   0.3430 
 16 C       -7.7400    -1.1920    -0.5850 C.3   1 <1>   0.3430 
 17 C       -9.9640    -0.1650     0.9500 C.3   1 <1>   0.1100 
 18 C       -9.1880    -1.6790    -0.7900 C.3   1 <1>   0.1100 
 19 N       -9.9720    -1.5490     0.4480 N.3   1 <1>  -0.8100 
 20 C      -11.3420    -2.0480     0.2720 C.3   1 <1>   0.0300 
 21 H        0.3870    -1.5300     1.2700 H     1 <1>   0.0800 
 22 H        0.7780    -0.0510     0.4040 H     1 <1>   0.0800 
 23 H       -0.2300    -1.2800    -0.3620 H     1 <1>   0.0800 
 24 H       -3.5230    -0.6730     0.4930 H     1 <1>   0.1500 
 25 H       -1.7150     3.3650    -1.6500 H     1 <1>   0.1500 
 26 H        1.1530     3.0910     1.2830 H     1 <1>   0.0800 
 27 H        0.0590     1.8820     1.9450 H     1 <1>   0.0800 
 28 H       -0.5570     3.4690     1.4780 H     1 <1>   0.0800 
 29 H       -4.0160     2.6780    -2.1320 H     1 <1>   0.1500 
 30 H       -5.3440    -0.5020    -1.3910 H     1 <1>   0.0800 
 31 H       -5.7880     1.0960    -1.9250 H     1 <1>   0.0800 
 32 H       -5.8300     0.1600     0.9570 H     1 <1>   0.0800 
 33 H       -8.1080     0.8310    -0.7850 H     1 <1>   0.4500 
 34 H       -6.8100     2.7920    -0.2050 H     1 <1>   0.0800 
 35 H       -5.3270     2.5850     0.6760 H     1 <1>   0.0800 
 36 H       -6.8140     2.3440     1.4950 H     1 <1>   0.0800 
 37 H       -8.5720     1.3600     1.5020 H     1 <1>   0.0800 
 38 H       -8.0810    -0.2460     1.9620 H     1 <1>   0.0800 
 39 H       -7.2600    -1.8510     0.1200 H     1 <1>   0.0800 
 40 H       -7.2220    -1.2750    -1.5250 H     1 <1>   0.0800 
 41 H      -10.4750     0.4830     0.2590 H     1 <1>   0.0800 
 42 H      -10.4910    -0.1290     1.8890 H     1 <1>   0.0800 
 43 H       -9.1660    -2.7150    -1.0840 H     1 <1>   0.0800 
 44 H       -9.6530    -1.1200    -1.5840 H     1 <1>   0.0800 
 45 H      -11.8770    -1.9940     1.2060 H     1 <1>   0.0800 
 46 H      -11.3220    -3.0790    -0.0410 H     1 <1>   0.0800 
 47 H      -11.8700    -1.4680    -0.4670 H     1 <1>   0.0800 
@<TRIPOS>BOND
  1   1   2  1   
  2   1   3  1   
  3   2   4  ar  
  4   2   5  ar  
  5   3  21  1   
  6   3  22  1   
  7   3  23  1   
  8   4   6  1   
  9   4   7  ar  
 10   5   8  ar  
 11   5  24  1   
 12   6   9  1   
 13   7  10  ar  
 14   7  25  1   
 15   8  10  ar  
 16   8  11  1   
 17   9  26  1   
 18   9  27  1   
 19   9  28  1   
 20  10  29  1   
 21  11  12  1   
 22  11  30  1   
 23  11  31  1   
 24  12  13  1   
 25  12  14  1   
 26  12  32  1   
 27  13  15  1   
 28  13  16  1   
 29  13  33  1   
 30  14  34  1   
 31  14  35  1   
 32  14  36  1   
 33  15  17  1   
 34  15  37  1   
 35  15  38  1   
 36  16  18  1   
 37  16  39  1   
 38  16  40  1   
 39  17  19  1   
 40  17  41  1   
 41  17  42  1   
 42  18  19  1   
 43  18  43  1   
 44  18  44  1   
 45  19  20  1   
 46  20  45  1   
 47  20  46  1   
 48  20  47  1   
@<TRIPOS>SUBSTRUCTURE
  1 ****  11 GROUP 4 **** **** 0

# MOE 2024.06 (io_trps.svl 2023.06)
