@<TRIPOS>MOLECULE
NONAME
35 36 1 0 0 
SMALL
USER_CHARGES


@<TRIPOS>ATOM
  1 S        0.9910    -0.4040    -1.1260 S.2   1 <1>  -0.3800 
  2 C        0.5420    -1.8390    -0.4710 C.2   1 <1>   0.2790 
  3 C       -0.7920    -2.3190    -0.6740 C.ar  1 <1>   0.0860 
  4 C        1.4600    -2.6140     0.2800 C.2   1 <1>  -0.1240 
  5 C       -1.1480    -3.5690    -0.1310 C.ar  1 <1>   0.1000 
  6 C       -1.7830    -1.6190    -1.3860 C.ar  1 <1>  -0.1500 
  7 C        1.0750    -3.8370     0.7750 C.2   1 <1>  -0.0380 
  8 C        2.8740    -2.0750     0.5320 C.3   1 <1>  -0.0220 
  9 N       -0.1920    -4.2780     0.5730 N.pl3 1 <1>  -0.6000 
 10 C       -2.4410    -4.0840    -0.3010 C.ar  1 <1>  -0.1440 
 11 C       -3.0490    -2.1290    -1.5510 C.ar  1 <1>  -0.1500 
 12 C        1.9540    -4.7980     1.5620 C.3   1 <1>  -0.1020 
 13 C        3.8060    -2.4260    -0.6350 C.3   1 <1>  -0.0990 
 14 C       -3.3780    -3.3630    -1.0070 C.ar  1 <1>  -0.1500 
 15 C       -2.8280    -5.4360     0.2850 C.3   1 <1>  -0.0970 
 16 C        5.1910    -1.8550    -0.4180 C.2   1 <1>   0.4480 
 17 O        6.0490    -2.4950     0.1070 O.2   1 <1>  -0.5700 
 18 C        5.4410    -0.4390    -0.8880 C.3   1 <1>  -0.1790 
 19 H       -1.5560    -0.6610    -1.8170 H     1 <1>   0.1500 
 20 H        3.2790    -2.4770     1.4430 H     1 <1>   0.0800 
 21 H        2.8490    -1.0110     0.6800 H     1 <1>   0.0800 
 22 H       -0.4780    -5.1830     0.9530 H     1 <1>   0.4000 
 23 H       -3.7920    -1.5760    -2.1000 H     1 <1>   0.1500 
 24 H        1.7900    -4.6600     2.6150 H     1 <1>   0.0800 
 25 H        2.9970    -4.6580     1.3510 H     1 <1>   0.0800 
 26 H        1.7140    -5.8140     1.3060 H     1 <1>   0.0800 
 27 H        3.4060    -2.0520    -1.5600 H     1 <1>   0.0800 
 28 H        3.8840    -3.4950    -0.7200 H     1 <1>   0.0800 
 29 H       -4.3750    -3.7420    -1.1480 H     1 <1>   0.1500 
 30 H       -2.2050    -6.2090    -0.1270 H     1 <1>   0.0800 
 31 H       -3.8520    -5.6740     0.0610 H     1 <1>   0.0800 
 32 H       -2.7140    -5.4200     1.3540 H     1 <1>   0.0800 
 33 H        4.7610     0.2360    -0.4040 H     1 <1>   0.0800 
 34 H        5.3050    -0.3780    -1.9520 H     1 <1>   0.0800 
 35 H        6.4490    -0.1510    -0.6490 H     1 <1>   0.0800 
@<TRIPOS>BOND
  1   1   2  2   
  2   2   3  1   
  3   2   4  1   
  4   3   5  ar  
  5   3   6  ar  
  6   4   7  2   
  7   4   8  1   
  8   5   9  1   
  9   5  10  ar  
 10   6  11  ar  
 11   6  19  1   
 12   7   9  1   
 13   7  12  1   
 14   8  13  1   
 15   8  20  1   
 16   8  21  1   
 17   9  22  1   
 18  10  14  ar  
 19  10  15  1   
 20  11  14  ar  
 21  11  23  1   
 22  12  24  1   
 23  12  25  1   
 24  12  26  1   
 25  13  16  1   
 26  13  27  1   
 27  13  28  1   
 28  14  29  1   
 29  15  30  1   
 30  15  31  1   
 31  15  32  1   
 32  16  17  2   
 33  16  18  1   
 34  18  33  1   
 35  18  34  1   
 36  18  35  1   
@<TRIPOS>SUBSTRUCTURE
  1 ****   4 GROUP 4 **** **** 0

# MOE 2024.06 (io_trps.svl 2023.06)
