@<TRIPOS>MOLECULE
NONAME
30 30 1 0 0 
SMALL
USER_CHARGES


@<TRIPOS>ATOM
  1 CL       1.1160    -0.6360    -2.4500 Cl    1 <1>  -0.1770 
  2 C        2.2770    -1.2380    -1.2970 C.ar  1 <1>   0.1770 
  3 C        3.3840    -0.4750    -0.9830 C.ar  1 <1>  -0.1500 
  4 C        2.0760    -2.4720    -0.7110 C.ar  1 <1>  -0.1500 
  5 C        4.3030    -0.9620    -0.0680 C.ar  1 <1>  -0.1500 
  6 C        3.0030    -2.9460     0.2030 C.ar  1 <1>  -0.1500 
  7 C        4.1340    -2.2040     0.5390 C.ar  1 <1>  -0.0090 
  8 S        5.3500    -2.8490     1.7220 S.o2  1 <1>   1.2040 
  9 O        6.0730    -1.7450     2.3170 O.2   1 <1>  -0.6500 
 10 O        4.6590    -3.7630     2.6060 O.2   1 <1>  -0.6500 
 11 C        6.5020    -3.8350     0.7770 C.3   1 <1>   0.0860 
 12 C        7.3360    -2.8780    -0.0250 C.2   1 <1>   0.6590 
 13 C        5.8490    -4.9400    -0.0900 C.3   1 <1>  -0.1600 
 14 O        6.8860    -2.2610    -0.9550 O.2   1 <1>  -0.5700 
 15 O        8.6080    -2.7720     0.3400 O.3   1 <1>  -0.4300 
 16 C        6.8880    -5.8480    -0.7630 C.3   1 <1>  -0.2400 
 17 C        9.5010    -1.8960    -0.3160 C.3   1 <1>   0.0400 
 18 H        3.5240     0.4830    -1.4500 H     1 <1>   0.1500 
 19 H        1.2050    -3.0490    -0.9660 H     1 <1>   0.1500 
 20 H        5.1680    -0.3660     0.1770 H     1 <1>   0.1500 
 21 H        2.8400    -3.9050     0.6670 H     1 <1>   0.1500 
 22 H        7.1600    -4.3160     1.4750 H     1 <1>   0.0800 
 23 H        5.2320    -4.4930    -0.8510 H     1 <1>   0.0800 
 24 H        5.2150    -5.5470     0.5350 H     1 <1>   0.0800 
 25 H        7.5030    -5.2900    -1.4480 H     1 <1>   0.0800 
 26 H        6.3900    -6.6240    -1.3190 H     1 <1>   0.0800 
 27 H        7.5220    -6.3140    -0.0270 H     1 <1>   0.0800 
 28 H       10.4670    -1.9830     0.1480 H     1 <1>   0.0800 
 29 H        9.1340    -0.8890    -0.2200 H     1 <1>   0.0800 
 30 H        9.5620    -2.1720    -1.3550 H     1 <1>   0.0800 
@<TRIPOS>BOND
  1   1   2  1   
  2   2   3  ar  
  3   2   4  ar  
  4   3   5  ar  
  5   3  18  1   
  6   4   6  ar  
  7   4  19  1   
  8   5   7  ar  
  9   5  20  1   
 10   6   7  ar  
 11   6  21  1   
 12   7   8  1   
 13   8   9  2   
 14   8  10  2   
 15   8  11  1   
 16  11  12  1   
 17  11  13  1   
 18  11  22  1   
 19  12  14  2   
 20  12  15  1   
 21  13  16  1   
 22  13  23  1   
 23  13  24  1   
 24  15  17  1   
 25  16  25  1   
 26  16  26  1   
 27  16  27  1   
 28  17  28  1   
 29  17  29  1   
 30  17  30  1   
@<TRIPOS>SUBSTRUCTURE
  1 ****   7 GROUP 4 **** **** 0

# MOE 2024.06 (io_trps.svl 2023.06)
