@<TRIPOS>MOLECULE
NONAME
45 46 1 0 0 
SMALL
USER_CHARGES


@<TRIPOS>ATOM
  1 CL      -0.0760     0.5890     2.1020 Cl    1 <1>  -0.1770 
  2 C       -1.1030     1.9170     1.6250 C.ar  1 <1>   0.1770 
  3 C       -2.1500     1.6840     0.7540 C.ar  1 <1>  -0.1500 
  4 C       -0.8520     3.1780     2.1280 C.ar  1 <1>  -0.1500 
  5 C       -2.9840     2.7230     0.3500 C.ar  1 <1>  -0.0090 
  6 C       -1.6740     4.2220     1.7460 C.ar  1 <1>  -0.1500 
  7 S       -4.3540     2.3930    -0.7950 S.o2  1 <1>   1.4470 
  8 C       -2.7260     3.9930     0.8670 C.ar  1 <1>   0.0830 
  9 O       -4.6670     3.5300    -1.6350 O.2   1 <1>  -0.6500 
 10 O       -4.0800     1.1330    -1.4530 O.2   1 <1>  -0.6500 
 11 N       -5.7050     2.1150     0.1930 N.am  1 <1>  -0.8490 
 12 O       -3.5200     5.0330     0.5500 O.3   1 <1>  -0.3630 
 13 C       -6.7940     1.5000    -0.5890 C.3   1 <1>   0.1960 
 14 C       -6.1890     3.3490     0.8470 C.3   1 <1>   0.1960 
 15 C       -3.0180     5.9620    -0.3820 C.3   1 <1>   0.1200 
 16 C       -8.0280     1.1830     0.2720 C.3   1 <1>   0.1400 
 17 C       -7.4070     3.0930     1.7510 C.3   1 <1>   0.1400 
 18 C       -4.1290     6.9580    -0.6950 C.3   1 <1>  -0.2400 
 19 N       -8.4900     2.4010     0.9970 N.am  1 <1>  -0.6600 
 20 C       -9.7520     2.9200     0.8930 C.2   1 <1>   0.7800 
 21 O      -10.0840     3.9500     1.4480 O.2   1 <1>  -0.5700 
 22 O      -10.6350     2.2580     0.1440 O.3   1 <1>  -0.4300 
 23 C      -11.9490     2.7390    -0.0160 C.3   1 <1>   0.1200 
 24 C      -12.6980     1.7740    -0.9300 C.3   1 <1>  -0.2400 
 25 H       -2.3130     0.6850     0.3870 H     1 <1>   0.1500 
 26 H       -0.0320     3.3330     2.8060 H     1 <1>   0.1500 
 27 H       -1.5080     5.2120     2.1340 H     1 <1>   0.1500 
 28 H       -6.4480     0.5790    -1.0290 H     1 <1>   0.0800 
 29 H       -7.0850     2.1580    -1.3920 H     1 <1>   0.0800 
 30 H       -6.4510     4.0870     0.1060 H     1 <1>   0.0800 
 31 H       -5.4110     3.7590     1.4640 H     1 <1>   0.0800 
 32 H       -2.7250     5.4300    -1.2720 H     1 <1>   0.0800 
 33 H       -2.1640     6.4570     0.0480 H     1 <1>   0.0800 
 34 H       -7.7720     0.4230     0.9900 H     1 <1>   0.0800 
 35 H       -8.8070     0.7930    -0.3580 H     1 <1>   0.0800 
 36 H       -7.7600     4.0310     2.1430 H     1 <1>   0.0800 
 37 H       -7.1100     2.4780     2.5810 H     1 <1>   0.0800 
 38 H       -4.9710     6.4430    -1.1250 H     1 <1>   0.0800 
 39 H       -3.7770     7.6850    -1.4040 H     1 <1>   0.0800 
 40 H       -4.4360     7.4690     0.2000 H     1 <1>   0.0800 
 41 H      -11.9010     3.7240    -0.4500 H     1 <1>   0.0800 
 42 H      -12.4130     2.7930     0.9550 H     1 <1>   0.0800 
 43 H      -12.2160     1.7230    -1.8900 H     1 <1>   0.0800 
 44 H      -13.7070     2.1180    -1.0700 H     1 <1>   0.0800 
 45 H      -12.7280     0.7940    -0.4880 H     1 <1>   0.0800 
@<TRIPOS>BOND
  1   1   2  1   
  2   2   3  ar  
  3   2   4  ar  
  4   3   5  ar  
  5   3  25  1   
  6   4   6  ar  
  7   4  26  1   
  8   5   7  1   
  9   5   8  ar  
 10   6   8  ar  
 11   6  27  1   
 12   7   9  2   
 13   7  10  2   
 14   7  11  am  
 15   8  12  1   
 16  11  13  1   
 17  11  14  1   
 18  12  15  1   
 19  13  16  1   
 20  13  28  1   
 21  13  29  1   
 22  14  17  1   
 23  14  30  1   
 24  14  31  1   
 25  15  18  1   
 26  15  32  1   
 27  15  33  1   
 28  16  19  1   
 29  16  34  1   
 30  16  35  1   
 31  17  19  1   
 32  17  36  1   
 33  17  37  1   
 34  18  38  1   
 35  18  39  1   
 36  18  40  1   
 37  19  20  am  
 38  20  21  2   
 39  20  22  1   
 40  22  23  1   
 41  23  24  1   
 42  23  41  1   
 43  23  42  1   
 44  24  43  1   
 45  24  44  1   
 46  24  45  1   
@<TRIPOS>SUBSTRUCTURE
  1 ****  14 GROUP 4 **** **** 0

# MOE 2024.06 (io_trps.svl 2023.06)
