@<TRIPOS>MOLECULE
NONAME
47 50 1 0 0 
SMALL
USER_CHARGES


@<TRIPOS>ATOM
  1 O       -1.3940     0.1230    -1.6530 O.2   1 <1>  -0.5700 
  2 C       -1.8100     0.8850    -0.8170 C.2   1 <1>   0.5690 
  3 N       -2.6250     0.5680     0.2080 N.am  1 <1>  -0.6600 
  4 C       -1.4610     2.3450    -0.7930 C.3   1 <1>  -0.0990 
  5 C       -2.9390     1.7230     1.0670 C.3   1 <1>   0.1400 
  6 C       -3.2720    -0.7530     0.4060 C.3   1 <1>   0.3200 
  7 C       -1.9500     2.8030     0.5950 C.3   1 <1>  -0.0190 
  8 C       -4.7640    -0.6920     0.1140 C.2   1 <1>  -0.0400 
  9 C       -2.5610     4.1930     0.5760 C.2   1 <1>   0.5690 
 10 O       -5.5270    -1.6740     0.5590 O.3   1 <1>  -0.2800 
 11 C       -5.5120     0.2170    -0.5510 C.2   1 <1>  -0.1500 
 12 O       -3.6630     4.3490     0.1110 O.2   1 <1>  -0.5700 
 13 N       -1.8380     5.2330     1.0660 N.am  1 <1>  -0.7300 
 14 C       -6.7670    -1.4150     0.1930 C.2   1 <1>  -0.0100 
 15 C       -6.8280    -0.2570    -0.4980 C.2   1 <1>  -0.1500 
 16 C       -2.3240     6.6350     1.1030 C.3   1 <1>   0.1400 
 17 C       -1.9210     7.3680    -0.1770 C.3   1 <1>   0.0210 
 18 C       -2.4910     8.7720    -0.1750 C.2   1 <1>  -0.1810 
 19 C       -3.8620     9.0720    -0.3430 C.ar  1 <1>   0.0000 
 20 C       -1.8300     9.9440    -0.0180 C.2   1 <1>  -0.3020 
 21 C       -3.9730    10.4570    -0.2720 C.ar  1 <1>  -0.1520 
 22 C       -5.0100     8.2980    -0.5490 C.ar  1 <1>  -0.1500 
 23 N       -2.7200    10.9790    -0.0750 N.pl3 1 <1>   0.0330 
 24 C       -5.2140    11.0860    -0.3980 C.ar  1 <1>  -0.1500 
 25 C       -6.2320     8.9180    -0.6730 C.ar  1 <1>  -0.1500 
 26 C       -6.3340    10.3120    -0.5970 C.ar  1 <1>  -0.1500 
 27 H       -2.0000     2.8370    -1.5820 H     1 <1>   0.0800 
 28 H       -0.4050     2.4910    -0.9190 H     1 <1>   0.0800 
 29 H       -2.7900     1.4810     2.1060 H     1 <1>   0.0800 
 30 H       -3.9610     2.0220     0.9080 H     1 <1>   0.0800 
 31 H       -3.1220    -1.0650     1.4240 H     1 <1>   0.0800 
 32 H       -2.8170    -1.4840    -0.2400 H     1 <1>   0.0800 
 33 H       -1.1160     2.7930     1.2730 H     1 <1>   0.0800 
 34 H       -5.1930     1.1230    -1.0360 H     1 <1>   0.1500 
 35 H       -0.8880     5.0870     1.4110 H     1 <1>   0.3700 
 36 H       -7.5440    -2.1070     0.4650 H     1 <1>   0.1500 
 37 H       -7.6840     0.2270    -0.9310 H     1 <1>   0.1500 
 38 H       -1.9150     7.1410     1.9600 H     1 <1>   0.0800 
 39 H       -3.3970     6.6400     1.1960 H     1 <1>   0.0800 
 40 H       -2.3000     6.8410    -1.0340 H     1 <1>   0.0800 
 41 H       -0.8500     7.4190    -0.2450 H     1 <1>   0.0800 
 42 H       -0.7780    10.1090     0.1310 H     1 <1>   0.1500 
 43 H       -4.9210     7.2270    -0.6090 H     1 <1>   0.1500 
 44 H       -2.5040    11.9760     0.0090 H     1 <1>   0.2700 
 45 H       -5.2840    12.1570    -0.3400 H     1 <1>   0.1500 
 46 H       -7.1210     8.3340    -0.8310 H     1 <1>   0.1500 
 47 H       -7.3020    10.7710    -0.6970 H     1 <1>   0.1500 
@<TRIPOS>BOND
  1   1   2  2   
  2   2   3  am  
  3   2   4  1   
  4   3   5  1   
  5   3   6  1   
  6   4   7  1   
  7   4  27  1   
  8   4  28  1   
  9   5   7  1   
 10   5  29  1   
 11   5  30  1   
 12   6   8  1   
 13   6  31  1   
 14   6  32  1   
 15   7   9  1   
 16   7  33  1   
 17   8  10  1   
 18   8  11  2   
 19   9  12  2   
 20   9  13  am  
 21  10  14  1   
 22  11  15  1   
 23  11  34  1   
 24  13  16  1   
 25  13  35  1   
 26  14  15  2   
 27  14  36  1   
 28  15  37  1   
 29  16  17  1   
 30  16  38  1   
 31  16  39  1   
 32  17  18  1   
 33  17  40  1   
 34  17  41  1   
 35  18  19  1   
 36  18  20  2   
 37  19  21  ar  
 38  19  22  ar  
 39  20  23  1   
 40  20  42  1   
 41  21  23  1   
 42  21  24  ar  
 43  22  25  ar  
 44  22  43  1   
 45  23  44  1   
 46  24  26  ar  
 47  24  45  1   
 48  25  26  ar  
 49  25  46  1   
 50  26  47  1   
@<TRIPOS>SUBSTRUCTURE
  1 ****  12 GROUP 4 **** **** 0

# MOE 2024.06 (io_trps.svl 2023.06)
