@<TRIPOS>MOLECULE
NONAME
39 40 1 0 0 
SMALL
USER_CHARGES


@<TRIPOS>ATOM
  1 O       -0.5670     0.3780     0.8540 O.2   1 <1>  -0.5700 
  2 C       -1.6580     0.7490     0.4730 C.2   1 <1>   0.7800 
  3 O       -2.5920    -0.1440     0.1570 O.3   1 <1>  -0.4300 
  4 N       -1.9840     2.0510     0.3590 N.am  1 <1>  -0.7300 
  5 C       -2.3190    -1.5190     0.2800 C.3   1 <1>   0.2630 
  6 C       -3.1960     2.6030    -0.2670 C.3   1 <1>   0.2200 
  7 C       -3.5710    -2.2990    -0.0920 C.ar  1 <1>  -0.1440 
  8 C       -2.9500     4.0170    -0.8500 C.3   1 <1>  -0.1860 
  9 C       -4.3850     2.5180     0.7160 C.3   1 <1>  -0.1600 
 10 C       -3.5580    -3.1930    -1.1530 C.ar  1 <1>  -0.1500 
 11 C       -4.7400    -2.1210     0.6320 C.ar  1 <1>  -0.1500 
 12 C       -1.9550     4.8670    -0.0520 C.2   1 <1>   0.9060 
 13 C       -4.3180     4.7080    -1.0920 C.3   1 <1>  -0.1600 
 14 C       -4.7830     3.8800     1.3030 C.3   1 <1>  -0.1600 
 15 C       -4.7000    -3.9030    -1.4820 C.ar  1 <1>  -0.1500 
 16 C       -5.8830    -2.8310     0.3050 C.ar  1 <1>  -0.1500 
 17 O       -2.3140     5.9290     0.4740 O.co2 1 <1>  -0.9000 
 18 O       -0.7850     4.4780     0.0280 O.co2 1 <1>  -0.9000 
 19 C       -5.1380     4.8910     0.1990 C.3   1 <1>   0.2000 
 20 C       -5.8630    -3.7230    -0.7530 C.ar  1 <1>  -0.1500 
 21 O       -4.8680     6.1420     0.6920 O.3   1 <1>  -0.6800 
 22 H       -1.2260     2.7540     0.4680 H     1 <1>   0.3700 
 23 H       -1.4980    -1.7600    -0.3730 H     1 <1>   0.0800 
 24 H       -2.0390    -1.7210     1.2990 H     1 <1>   0.0800 
 25 H       -3.4400     1.9600    -1.0970 H     1 <1>   0.0800 
 26 H       -2.4850     3.8830    -1.8080 H     1 <1>   0.0800 
 27 H       -5.2320     2.1280     0.1810 H     1 <1>   0.0800 
 28 H       -4.1660     1.8290     1.5130 H     1 <1>   0.0800 
 29 H       -2.6610    -3.3410    -1.7270 H     1 <1>   0.1500 
 30 H       -4.7610    -1.4240     1.4520 H     1 <1>   0.1500 
 31 H       -4.8870     4.0900    -1.7620 H     1 <1>   0.0800 
 32 H       -4.1750     5.6580    -1.5800 H     1 <1>   0.0800 
 33 H       -3.9530     4.2470     1.8840 H     1 <1>   0.0800 
 34 H       -5.6240     3.7650     1.9610 H     1 <1>   0.0800 
 35 H       -4.6840    -4.5960    -2.3050 H     1 <1>   0.1500 
 36 H       -6.7860    -2.6890     0.8720 H     1 <1>   0.1500 
 37 H       -6.1910     4.8540    -0.0240 H     1 <1>   0.0800 
 38 H       -6.7500    -4.2750    -1.0090 H     1 <1>   0.1500 
 39 H       -3.8590     6.2250     0.7100 H     1 <1>   0.4000 
@<TRIPOS>BOND
  1   1   2  2   
  2   2   3  1   
  3   2   4  am  
  4   3   5  1   
  5   4   6  1   
  6   4  22  1   
  7   5   7  1   
  8   5  23  1   
  9   5  24  1   
 10   6   8  1   
 11   6   9  1   
 12   6  25  1   
 13   7  10  ar  
 14   7  11  ar  
 15   8  12  1   
 16   8  13  1   
 17   8  26  1   
 18   9  14  1   
 19   9  27  1   
 20   9  28  1   
 21  10  15  ar  
 22  10  29  1   
 23  11  16  ar  
 24  11  30  1   
 25  12  17  ar  
 26  12  18  ar  
 27  13  19  1   
 28  13  31  1   
 29  13  32  1   
 30  14  19  1   
 31  14  33  1   
 32  14  34  1   
 33  15  20  ar  
 34  15  35  1   
 35  16  20  ar  
 36  16  36  1   
 37  19  21  1   
 38  19  37  1   
 39  20  38  1   
 40  21  39  1   
@<TRIPOS>SUBSTRUCTURE
  1 ****   6 GROUP 4 **** **** 0

# MOE 2024.06 (io_trps.svl 2023.06)
