@<TRIPOS>MOLECULE
NONAME
42 43 1 0 0 
SMALL
USER_CHARGES


@<TRIPOS>ATOM
  1 S       -0.6210    -0.2890    -1.1250 S.o2  1 <1>   1.3330 
  2 O       -0.2340     0.8970    -1.8540 O.2   1 <1>  -0.6500 
  3 O       -1.1330    -1.4400    -1.8320 O.2   1 <1>  -0.6500 
  4 N       -1.7670     0.1630     0.0360 N.am  1 <1>  -0.8490 
  5 C        0.7670    -0.7860    -0.1290 C.3   1 <1>  -0.1350 
  6 C       -2.5190    -0.9910     0.5720 C.3   1 <1>   0.1960 
  7 C       -2.7140     1.1590    -0.5010 C.3   1 <1>   0.1960 
  8 C       -3.4820    -0.5630     1.6910 C.3   1 <1>   0.1400 
  9 C       -3.7140     1.6450     0.5650 C.3   1 <1>   0.1400 
 10 N       -4.4190     0.4930     1.2050 N.am  1 <1>  -0.6600 
 11 C       -5.7310     0.1950     0.9470 C.2   1 <1>   0.6900 
 12 O       -6.0900    -0.9640     0.8690 O.2   1 <1>  -0.5700 
 13 N       -6.6120     1.2270     0.8060 N.am  1 <1>  -0.5470 
 14 C       -7.9400     1.2590     0.3580 C.ar  1 <1>   0.1170 
 15 C       -8.7500     2.3240     0.7310 C.ar  1 <1>  -0.1500 
 16 C       -8.4790     0.2810    -0.4660 C.ar  1 <1>  -0.1500 
 17 C      -10.0650     2.4220     0.3020 C.ar  1 <1>  -0.1440 
 18 C       -9.7880     0.3660    -0.8990 C.ar  1 <1>  -0.1500 
 19 C      -10.5910     1.4320    -0.5220 C.ar  1 <1>  -0.1440 
 20 C      -10.9050     3.6110     0.7460 C.3   1 <1>  -0.0970 
 21 C      -12.0270     1.4880    -1.0210 C.3   1 <1>  -0.0970 
 22 H        1.0810     0.0280     0.4950 H     1 <1>   0.0800 
 23 H        1.5850    -1.0720    -0.7600 H     1 <1>   0.0800 
 24 H        0.5040    -1.6200     0.4920 H     1 <1>   0.0800 
 25 H       -1.8330    -1.7210     0.9650 H     1 <1>   0.0800 
 26 H       -3.0890    -1.4620    -0.2130 H     1 <1>   0.0800 
 27 H       -3.2550     0.7360    -1.3320 H     1 <1>   0.0800 
 28 H       -2.1710     2.0160    -0.8650 H     1 <1>   0.0800 
 29 H       -2.9160    -0.1790     2.5210 H     1 <1>   0.0800 
 30 H       -4.0300    -1.4220     2.0390 H     1 <1>   0.0800 
 31 H       -4.4160     2.3110     0.0980 H     1 <1>   0.0800 
 32 H       -3.1820     2.1960     1.3210 H     1 <1>   0.0800 
 33 H       -6.2660     2.0890     1.2100 H     1 <1>   0.3700 
 34 H       -8.3440     3.0850     1.3700 H     1 <1>   0.1500 
 35 H       -7.8760    -0.5540    -0.7740 H     1 <1>   0.1500 
 36 H      -10.1770    -0.4090    -1.5350 H     1 <1>   0.1500 
 37 H      -10.3400     4.2700     1.3790 H     1 <1>   0.0800 
 38 H      -11.7620     3.2690     1.2970 H     1 <1>   0.0800 
 39 H      -11.2370     4.1680    -0.1110 H     1 <1>   0.0800 
 40 H      -12.7060     1.4820    -0.1880 H     1 <1>   0.0800 
 41 H      -12.2520     0.6430    -1.6450 H     1 <1>   0.0800 
 42 H      -12.1830     2.3830    -1.5960 H     1 <1>   0.0800 
@<TRIPOS>BOND
  1   1   2  2   
  2   1   3  2   
  3   1   4  am  
  4   1   5  1   
  5   4   6  1   
  6   4   7  1   
  7   5  22  1   
  8   5  23  1   
  9   5  24  1   
 10   6   8  1   
 11   6  25  1   
 12   6  26  1   
 13   7   9  1   
 14   7  27  1   
 15   7  28  1   
 16   8  10  1   
 17   8  29  1   
 18   8  30  1   
 19   9  10  1   
 20   9  31  1   
 21   9  32  1   
 22  10  11  am  
 23  11  12  2   
 24  11  13  am  
 25  13  14  1   
 26  13  33  1   
 27  14  15  ar  
 28  14  16  ar  
 29  15  17  ar  
 30  15  34  1   
 31  16  18  ar  
 32  16  35  1   
 33  17  19  ar  
 34  17  20  1   
 35  18  19  ar  
 36  18  36  1   
 37  19  21  1   
 38  20  37  1   
 39  20  38  1   
 40  20  39  1   
 41  21  40  1   
 42  21  41  1   
 43  21  42  1   
@<TRIPOS>SUBSTRUCTURE
  1 ****  11 GROUP 4 **** **** 0

# MOE 2024.06 (io_trps.svl 2023.06)
