@<TRIPOS>MOLECULE
NONAME
40 41 1 0 0 
SMALL
USER_CHARGES


@<TRIPOS>ATOM
  1 BR       1.0480     0.9350     0.3460 Br    1 <1>  -0.1110 
  2 C       -0.8460     1.2860     0.1950 C.ar  1 <1>   0.1110 
  3 C       -1.7620     0.2700     0.4160 C.ar  1 <1>  -0.1440 
  4 C       -1.2370     2.5660    -0.1400 C.ar  1 <1>  -0.1500 
  5 C       -3.1080     0.5780     0.2980 C.ar  1 <1>  -0.1500 
  6 C       -1.3190    -1.1420     0.7660 C.3   1 <1>  -0.0960 
  7 C       -2.5870     2.8440    -0.2490 C.ar  1 <1>  -0.1500 
  8 C       -3.5560     1.8630    -0.0230 C.ar  1 <1>   0.1990 
  9 N       -4.9310     2.1570    -0.1040 N.am  1 <1>  -0.6930 
 10 S       -5.6080     3.3190    -1.2010 S.o2  1 <1>   1.3330 
 11 C       -5.9270     1.4180     0.7500 C.3   1 <1>   0.2570 
 12 O       -6.9980     2.9920    -1.3960 O.2   1 <1>  -0.6500 
 13 O       -4.7140     3.5020    -2.3170 O.2   1 <1>  -0.6500 
 14 C       -5.5790     4.8050    -0.2180 C.3   1 <1>  -0.1350 
 15 C       -6.6980     0.2770     0.0560 C.2   1 <1>   0.5690 
 16 O       -6.0610    -0.6460    -0.4030 O.2   1 <1>  -0.5700 
 17 N       -8.0700     0.2530     0.0180 N.am  1 <1>  -0.6600 
 18 C       -8.7990    -0.8080    -0.7120 C.3   1 <1>   0.1400 
 19 C       -9.0090     1.2910     0.5050 C.3   1 <1>   0.1400 
 20 C      -10.2740    -0.5280    -0.4490 C.3   1 <1>  -0.1600 
 21 C      -10.3330     0.9710    -0.1770 C.3   1 <1>  -0.1600 
 22 H       -0.4970     3.3260    -0.3150 H     1 <1>   0.1500 
 23 H       -3.8200    -0.2080     0.4480 H     1 <1>   0.1500 
 24 H       -0.7630    -1.1380     1.6860 H     1 <1>   0.0800 
 25 H       -0.6960    -1.5360    -0.0170 H     1 <1>   0.0800 
 26 H       -2.1670    -1.7940     0.8820 H     1 <1>   0.0800 
 27 H       -2.8720     3.8390    -0.5230 H     1 <1>   0.1500 
 28 H       -6.6250     2.1270     1.1470 H     1 <1>   0.0800 
 29 H       -5.4150     0.9910     1.5920 H     1 <1>   0.0800 
 30 H       -6.1660     4.6750     0.6680 H     1 <1>   0.0800 
 31 H       -5.9890     5.6190    -0.7830 H     1 <1>   0.0800 
 32 H       -4.5790     5.0590     0.0650 H     1 <1>   0.0800 
 33 H       -8.5070    -1.7840    -0.3630 H     1 <1>   0.0800 
 34 H       -8.5780    -0.7200    -1.7620 H     1 <1>   0.0800 
 35 H       -8.6800     2.2820     0.2490 H     1 <1>   0.0800 
 36 H       -9.1110     1.2010     1.5730 H     1 <1>   0.0800 
 37 H      -10.5830    -1.0740     0.4250 H     1 <1>   0.0800 
 38 H      -10.8890    -0.8200    -1.2820 H     1 <1>   0.0800 
 39 H      -10.3800     1.5080    -1.1090 H     1 <1>   0.0800 
 40 H      -11.1770     1.2470     0.4300 H     1 <1>   0.0800 
@<TRIPOS>BOND
  1   1   2  1   
  2   2   3  ar  
  3   2   4  ar  
  4   3   5  ar  
  5   3   6  1   
  6   4   7  ar  
  7   4  22  1   
  8   5   8  ar  
  9   5  23  1   
 10   6  24  1   
 11   6  25  1   
 12   6  26  1   
 13   7   8  ar  
 14   7  27  1   
 15   8   9  1   
 16   9  10  am  
 17   9  11  1   
 18  10  12  2   
 19  10  13  2   
 20  10  14  1   
 21  11  15  1   
 22  11  28  1   
 23  11  29  1   
 24  14  30  1   
 25  14  31  1   
 26  14  32  1   
 27  15  16  2   
 28  15  17  am  
 29  17  18  1   
 30  17  19  1   
 31  18  20  1   
 32  18  33  1   
 33  18  34  1   
 34  19  21  1   
 35  19  35  1   
 36  19  36  1   
 37  20  21  1   
 38  20  37  1   
 39  20  38  1   
 40  21  39  1   
 41  21  40  1   
@<TRIPOS>SUBSTRUCTURE
  1 ****   9 GROUP 4 **** **** 0

# MOE 2024.06 (io_trps.svl 2023.06)
