@<TRIPOS>MOLECULE
NONAME
53 55 1 0 0 
SMALL
USER_CHARGES


@<TRIPOS>ATOM
  1 O       -0.5390     0.5600     0.2030 O.2   1 <1>  -0.5700 
  2 C       -0.4500     1.7280     0.5030 C.2   1 <1>   0.5690 
  3 N       -1.5510     2.4610     0.8640 N.am  1 <1>  -0.6600 
  4 C        0.9260     2.3800     0.4760 C.3   1 <1>  -0.0990 
  5 C       -1.5590     3.9230     1.2060 C.3   1 <1>   0.1400 
  6 C       -2.9170     1.8450     0.9100 C.3   1 <1>   0.1400 
  7 C        2.0760     1.4070     0.1440 C.3   1 <1>  -0.0990 
  8 C       -2.5820     4.6970     0.3560 C.3   1 <1>   0.2090 
  9 C       -3.9230     2.6370     0.0570 C.3   1 <1>   0.2090 
 10 C        3.4480     2.0630     0.1390 C.2   1 <1>   0.5690 
 11 N       -3.9400     4.0780     0.4410 N.pl3 1 <1>  -0.8380 
 12 O        3.5530     3.2440     0.3540 O.2   1 <1>  -0.5700 
 13 N        4.5590     1.3330    -0.1020 N.am  1 <1>  -0.7300 
 14 C       -5.0180     4.8210     0.0000 C.ar  1 <1>   0.4100 
 15 C        4.6870    -0.1060    -0.3900 C.3   1 <1>   0.2200 
 16 N       -4.8070     5.6730    -0.9970 N.ar  1 <1>  -0.6200 
 17 C       -6.2620     4.6430     0.6010 C.ar  1 <1>  -0.1500 
 18 C        5.4690    -0.7690     0.7470 C.3   1 <1>  -0.1600 
 19 C        5.4040    -0.2780    -1.7320 C.3   1 <1>  -0.1600 
 20 C       -5.8620     6.3580    -1.4040 C.ar  1 <1>   0.1600 
 21 C       -7.3510     5.3620     0.1670 C.ar  1 <1>  -0.1500 
 22 C        5.7270    -2.2540     0.4500 C.3   1 <1>  -0.1600 
 23 C        5.6610    -1.7620    -2.0370 C.3   1 <1>  -0.1600 
 24 C       -7.1340     6.2450    -0.8710 C.ar  1 <1>  -0.1500 
 25 C        6.4390    -2.4350    -0.8970 C.3   1 <1>  -0.1600 
 26 H        1.1140     2.8160     1.4400 H     1 <1>   0.0800 
 27 H        0.9140     3.1650    -0.2570 H     1 <1>   0.0800 
 28 H       -0.5900     4.3630     1.0610 H     1 <1>   0.0800 
 29 H       -1.8200     4.0360     2.2430 H     1 <1>   0.0800 
 30 H       -3.2600     1.8310     1.9300 H     1 <1>   0.0800 
 31 H       -2.8880     0.8290     0.5600 H     1 <1>   0.0800 
 32 H        1.9030     0.9780    -0.8260 H     1 <1>   0.0800 
 33 H        2.0820     0.6130     0.8680 H     1 <1>   0.0800 
 34 H       -2.2600     4.7090    -0.6710 H     1 <1>   0.0800 
 35 H       -2.6340     5.7170     0.6980 H     1 <1>   0.0800 
 36 H       -4.9050     2.2150     0.1810 H     1 <1>   0.0800 
 37 H       -3.6530     2.5500    -0.9820 H     1 <1>   0.0800 
 38 H        5.4370     1.8510    -0.0780 H     1 <1>   0.3700 
 39 H        3.7130    -0.5620    -0.4560 H     1 <1>   0.0800 
 40 H       -6.3490     3.9420     1.4070 H     1 <1>   0.1500 
 41 H        4.9110    -0.6820     1.6630 H     1 <1>   0.0800 
 42 H        6.4130    -0.2690     0.8740 H     1 <1>   0.0800 
 43 H        6.3460     0.2410    -1.7070 H     1 <1>   0.0800 
 44 H        4.8020     0.1460    -2.5170 H     1 <1>   0.0800 
 45 H       -5.7040     7.0510    -2.2120 H     1 <1>   0.1500 
 46 H       -8.3230     5.2440     0.6140 H     1 <1>   0.1500 
 47 H        4.7880    -2.7820     0.4310 H     1 <1>   0.0800 
 48 H        6.3270    -2.6810     1.2360 H     1 <1>   0.0800 
 49 H        6.2160    -1.8510    -2.9550 H     1 <1>   0.0800 
 50 H        4.7190    -2.2670    -2.1720 H     1 <1>   0.0800 
 51 H       -7.9400     6.8400    -1.2600 H     1 <1>   0.1500 
 52 H        6.5490    -3.4850    -1.1080 H     1 <1>   0.0800 
 53 H        7.4250    -2.0070    -0.8390 H     1 <1>   0.0800 
@<TRIPOS>BOND
  1   1   2  2   
  2   2   3  am  
  3   2   4  1   
  4   3   5  1   
  5   3   6  1   
  6   4   7  1   
  7   4  26  1   
  8   4  27  1   
  9   5   8  1   
 10   5  28  1   
 11   5  29  1   
 12   6   9  1   
 13   6  30  1   
 14   6  31  1   
 15   7  10  1   
 16   7  32  1   
 17   7  33  1   
 18   8  11  1   
 19   8  34  1   
 20   8  35  1   
 21   9  11  1   
 22   9  36  1   
 23   9  37  1   
 24  10  12  2   
 25  10  13  am  
 26  11  14  1   
 27  13  15  1   
 28  13  38  1   
 29  14  16  ar  
 30  14  17  ar  
 31  15  18  1   
 32  15  19  1   
 33  15  39  1   
 34  16  20  ar  
 35  17  21  ar  
 36  17  40  1   
 37  18  22  1   
 38  18  41  1   
 39  18  42  1   
 40  19  23  1   
 41  19  43  1   
 42  19  44  1   
 43  20  24  ar  
 44  20  45  1   
 45  21  24  ar  
 46  21  46  1   
 47  22  25  1   
 48  22  47  1   
 49  22  48  1   
 50  23  25  1   
 51  23  49  1   
 52  23  50  1   
 53  24  51  1   
 54  25  52  1   
 55  25  53  1   
@<TRIPOS>SUBSTRUCTURE
  1 ****   2 GROUP 4 **** **** 0

# MOE 2024.06 (io_trps.svl 2023.06)
