@<TRIPOS>MOLECULE
NONAME
43 44 1 0 0 
SMALL
USER_CHARGES


@<TRIPOS>ATOM
  1 O       -0.1110     0.7330     1.4270 O.2   1 <1>  -0.5700 
  2 C       -0.7830     1.5990     0.9100 C.2   1 <1>   0.5690 
  3 N       -0.2480     2.4790    -0.0070 N.am  1 <1>  -0.6600 
  4 C       -2.2370     1.7000     1.3570 C.3   1 <1>   0.1810 
  5 C        1.1900     2.4090    -0.3840 C.3   1 <1>   0.1400 
  6 C       -1.0410     3.5360    -0.6950 C.3   1 <1>   0.1400 
  7 O       -3.1140     1.2760     0.3320 O.3   1 <1>  -0.2170 
  8 C        1.9490     3.6710     0.0470 C.3   1 <1>  -0.1600 
  9 C       -0.8820     4.8630     0.0530 C.3   1 <1>  -0.1600 
 10 N       -4.3750     1.6020     0.4740 N.2   1 <1>  -0.5130 
 11 C        1.6030     4.9080    -0.7960 C.3   1 <1>  -0.1600 
 12 C        0.3630     5.6880    -0.3260 C.3   1 <1>  -0.1600 
 13 C       -5.1580     1.1320    -0.4120 C.2   1 <1>   0.3040 
 14 C       -6.5830     1.3350    -0.4900 C.ar  1 <1>   0.0860 
 15 C       -7.3290     0.7630    -1.5210 C.ar  1 <1>  -0.1500 
 16 C       -7.2740     2.1050     0.4490 C.ar  1 <1>  -0.1500 
 17 C       -8.6960     0.9500    -1.6100 C.ar  1 <1>  -0.1500 
 18 C       -8.6410     2.2970     0.3680 C.ar  1 <1>  -0.1500 
 19 C       -9.3640     1.7170    -0.6700 C.ar  1 <1>   0.0820 
 20 O      -10.7020     1.8520    -0.8270 O.3   1 <1>  -0.3620 
 21 C      -11.4770     2.6110     0.0740 C.3   1 <1>   0.0400 
 22 H       -2.4750     2.7150     1.6120 H     1 <1>   0.0800 
 23 H       -2.4040     1.0710     2.2100 H     1 <1>   0.0800 
 24 H        1.6520     1.5560     0.0830 H     1 <1>   0.0800 
 25 H        1.2710     2.2720    -1.4480 H     1 <1>   0.0800 
 26 H       -0.7230     3.6340    -1.7180 H     1 <1>   0.0800 
 27 H       -2.0810     3.2640    -0.7150 H     1 <1>   0.0800 
 28 H        1.7910     3.8580     1.0950 H     1 <1>   0.0800 
 29 H        2.9970     3.4670    -0.0850 H     1 <1>   0.0800 
 30 H       -1.7490     5.4680    -0.1420 H     1 <1>   0.0800 
 31 H       -0.8720     4.6660     1.1110 H     1 <1>   0.0800 
 32 H        2.4400     5.5840    -0.7690 H     1 <1>   0.0800 
 33 H        1.4770     4.6150    -1.8240 H     1 <1>   0.0800 
 34 H        0.0930     6.3720    -1.1120 H     1 <1>   0.0800 
 35 H        0.6350     6.2870     0.5260 H     1 <1>   0.0800 
 36 H       -4.7490     0.5170    -1.1950 H     1 <1>   0.0600 
 37 H       -6.8340     0.1620    -2.2630 H     1 <1>   0.1500 
 38 H       -6.7230     2.5570     1.2560 H     1 <1>   0.1500 
 39 H       -9.2590     0.5030    -2.4100 H     1 <1>   0.1500 
 40 H       -9.1240     2.8970     1.1150 H     1 <1>   0.1500 
 41 H      -12.5010     2.5730    -0.2520 H     1 <1>   0.0800 
 42 H      -11.1270     3.6280     0.0650 H     1 <1>   0.0800 
 43 H      -11.3900     2.1810     1.0570 H     1 <1>   0.0800 
@<TRIPOS>BOND
  1   1   2  2   
  2   2   3  am  
  3   2   4  1   
  4   3   5  1   
  5   3   6  1   
  6   4   7  1   
  7   4  22  1   
  8   4  23  1   
  9   5   8  1   
 10   5  24  1   
 11   5  25  1   
 12   6   9  1   
 13   6  26  1   
 14   6  27  1   
 15   7  10  1   
 16   8  11  1   
 17   8  28  1   
 18   8  29  1   
 19   9  12  1   
 20   9  30  1   
 21   9  31  1   
 22  10  13  2   
 23  11  12  1   
 24  11  32  1   
 25  11  33  1   
 26  12  34  1   
 27  12  35  1   
 28  13  14  1   
 29  13  36  1   
 30  14  15  ar  
 31  14  16  ar  
 32  15  17  ar  
 33  15  37  1   
 34  16  18  ar  
 35  16  38  1   
 36  17  19  ar  
 37  17  39  1   
 38  18  19  ar  
 39  18  40  1   
 40  19  20  1   
 41  20  21  1   
 42  21  41  1   
 43  21  42  1   
 44  21  43  1   
@<TRIPOS>SUBSTRUCTURE
  1 ****  10 GROUP 4 **** **** 0

# MOE 2024.06 (io_trps.svl 2023.06)
