@<TRIPOS>MOLECULE
NONAME
26 26 1 0 0 
SMALL
USER_CHARGES


@<TRIPOS>ATOM
  1 S       -0.0300     2.6210     0.3400 S.3   1 <1>  -0.4600 
  2 C        1.3370     1.9770    -0.6710 C.3   1 <1>   0.2140 
  3 C       -1.5240     1.9180    -0.4550 C.3   1 <1>   0.1310 
  4 C        1.7170     0.5960    -0.1630 C.ar  1 <1>  -0.1440 
  5 C       -1.6430     0.4180    -0.2280 C.2   1 <1>   0.5690 
  6 C        2.3380     0.4610     1.0730 C.ar  1 <1>  -0.1500 
  7 C        1.4490    -0.5320    -0.9300 C.ar  1 <1>  -0.1500 
  8 O       -2.0080    -0.2760    -1.1470 O.2   1 <1>  -0.5700 
  9 N       -1.3400    -0.0910     0.9960 N.am  1 <1>  -0.7300 
 10 C        2.6930    -0.7920     1.5450 C.ar  1 <1>  -0.1500 
 11 C        1.7990    -1.7900    -0.4700 C.ar  1 <1>  -0.1500 
 12 C       -1.3610    -1.5260     1.3660 C.3   1 <1>   0.0600 
 13 C        2.4150    -1.8950     0.7620 C.ar  1 <1>   0.1900 
 14 F        2.7420    -3.0790     1.2050 F     1 <1>  -0.1900 
 15 H        2.1580     2.6640    -0.5650 H     1 <1>   0.0800 
 16 H        1.0080     1.9580    -1.6950 H     1 <1>   0.0800 
 17 H       -1.4640     2.1350    -1.5050 H     1 <1>   0.0800 
 18 H       -2.3720     2.4190    -0.0290 H     1 <1>   0.0800 
 19 H        2.5430     1.3340     1.6710 H     1 <1>   0.1500 
 20 H        0.9590    -0.4400    -1.8850 H     1 <1>   0.1500 
 21 H       -0.8870     0.5400     1.6650 H     1 <1>   0.3700 
 22 H        3.1730    -0.9130     2.4990 H     1 <1>   0.1500 
 23 H        1.5950    -2.6710    -1.0500 H     1 <1>   0.1500 
 24 H       -1.7230    -2.1190     0.5430 H     1 <1>   0.0800 
 25 H       -2.0060    -1.6750     2.2130 H     1 <1>   0.0800 
 26 H       -0.3660    -1.8510     1.6150 H     1 <1>   0.0800 
@<TRIPOS>BOND
  1   1   2  1   
  2   1   3  1   
  3   2   4  1   
  4   2  15  1   
  5   2  16  1   
  6   3   5  1   
  7   3  17  1   
  8   3  18  1   
  9   4   6  ar  
 10   4   7  ar  
 11   5   8  2   
 12   5   9  am  
 13   6  10  ar  
 14   6  19  1   
 15   7  11  ar  
 16   7  20  1   
 17   9  12  1   
 18   9  21  1   
 19  10  13  ar  
 20  10  22  1   
 21  11  13  ar  
 22  11  23  1   
 23  12  24  1   
 24  12  25  1   
 25  12  26  1   
 26  13  14  1   
@<TRIPOS>SUBSTRUCTURE
  1 ****   4 GROUP 4 **** **** 0

# MOE 2024.06 (io_trps.svl 2023.06)
