@<TRIPOS>MOLECULE
NONAME
45 47 1 0 0 
SMALL
USER_CHARGES


@<TRIPOS>ATOM
  1 S        0.1870    -0.1620    -0.4720 S.3   1 <1>  -0.2860 
  2 C       -1.3740    -1.0120    -0.7200 C.2   1 <1>   0.2420 
  3 C        1.4100    -1.3270    -1.2550 C.3   1 <1>   0.1310 
  4 N       -1.4690    -2.1610    -1.2870 N.2   1 <1>  -0.3380 
  5 N       -2.5410    -0.5090    -0.3330 N.pl3 1 <1>   0.0480 
  6 C        2.8380    -0.8160    -1.1370 C.2   1 <1>   0.5690 
  7 N       -2.7680    -2.4550    -1.2880 N.2   1 <1>  -0.3380 
  8 C       -3.4060    -1.4720    -0.7110 C.2   1 <1>   0.1330 
  9 C       -2.8180     0.8000     0.2940 C.3   1 <1>   0.0160 
 10 O        3.6860    -1.3360    -1.8230 O.2   1 <1>  -0.5700 
 11 N        3.1240     0.1930    -0.2690 N.am  1 <1>  -0.5790 
 12 C       -4.8330    -1.4060    -0.5160 C.ar  1 <1>   0.0530 
 13 C        4.4470     0.7870    -0.0410 C.3   1 <1>   0.0490 
 14 C       -5.7020    -1.5550    -1.5930 C.ar  1 <1>  -0.1500 
 15 C       -5.3940    -1.1890     0.7400 C.ar  1 <1>  -0.1500 
 16 C        4.7730     1.2670     1.3340 C.3   1 <1>  -0.2000 
 17 C        4.5190     2.2520     0.2330 C.3   1 <1>  -0.2000 
 18 C       -7.0720    -1.4680    -1.4280 C.ar  1 <1>  -0.1500 
 19 C       -6.7630    -1.1010     0.9090 C.ar  1 <1>  -0.1500 
 20 C       -7.6190    -1.2350    -0.1750 C.ar  1 <1>  -0.1430 
 21 C       -9.1350    -1.1410    -0.0090 C.3   1 <1>   0.0630 
 22 C       -9.5430     0.2390     0.5170 C.3   1 <1>  -0.2400 
 23 C       -9.6540    -2.2490     0.9120 C.3   1 <1>  -0.2400 
 24 H        1.1350    -1.4280    -2.2890 H     1 <1>   0.0800 
 25 H        1.3110    -2.2750    -0.7610 H     1 <1>   0.0800 
 26 H       -2.1110     1.5280    -0.0610 H     1 <1>   0.0800 
 27 H       -2.7320     0.7080     1.3620 H     1 <1>   0.0800 
 28 H       -3.8110     1.1220     0.0380 H     1 <1>   0.0800 
 29 H        2.3580     0.6100     0.2610 H     1 <1>   0.3700 
 30 H        5.2290     0.3310    -0.6300 H     1 <1>   0.1000 
 31 H       -5.2920    -1.7430    -2.5700 H     1 <1>   0.1500 
 32 H       -4.7510    -1.0980     1.5970 H     1 <1>   0.1500 
 33 H        5.7810     1.1540     1.6930 H     1 <1>   0.1000 
 34 H        4.0400     1.1490     2.1130 H     1 <1>   0.1000 
 35 H        3.6090     2.8250     0.2390 H     1 <1>   0.1000 
 36 H        5.3550     2.8070    -0.1560 H     1 <1>   0.1000 
 37 H       -7.7120    -1.5860    -2.2850 H     1 <1>   0.1500 
 38 H       -7.1640    -0.9310     1.8920 H     1 <1>   0.1500 
 39 H       -9.5970    -1.2730    -0.9730 H     1 <1>   0.0800 
 40 H       -9.1490     0.4060     1.5030 H     1 <1>   0.0800 
 41 H      -10.6140     0.3210     0.5560 H     1 <1>   0.0800 
 42 H       -9.1650     1.0050    -0.1380 H     1 <1>   0.0800 
 43 H       -9.2630    -2.1370     1.9070 H     1 <1>   0.0800 
 44 H       -9.3530    -3.2090     0.5320 H     1 <1>   0.0800 
 45 H      -10.7280    -2.2210     0.9590 H     1 <1>   0.0800 
@<TRIPOS>BOND
  1   1   2  1   
  2   1   3  1   
  3   2   4  2   
  4   2   5  1   
  5   3   6  1   
  6   3  24  1   
  7   3  25  1   
  8   4   7  1   
  9   5   8  1   
 10   5   9  1   
 11   6  10  2   
 12   6  11  am  
 13   7   8  2   
 14   8  12  1   
 15   9  26  1   
 16   9  27  1   
 17   9  28  1   
 18  11  13  1   
 19  11  29  1   
 20  12  14  ar  
 21  12  15  ar  
 22  13  16  1   
 23  13  17  1   
 24  13  30  1   
 25  14  18  ar  
 26  14  31  1   
 27  15  19  ar  
 28  15  32  1   
 29  16  17  1   
 30  16  33  1   
 31  16  34  1   
 32  17  35  1   
 33  17  36  1   
 34  18  20  ar  
 35  18  37  1   
 36  19  20  ar  
 37  19  38  1   
 38  20  21  1   
 39  21  22  1   
 40  21  23  1   
 41  21  39  1   
 42  22  40  1   
 43  22  41  1   
 44  22  42  1   
 45  23  43  1   
 46  23  44  1   
 47  23  45  1   
@<TRIPOS>SUBSTRUCTURE
  1 ****   5 GROUP 4 **** **** 0

# MOE 2024.06 (io_trps.svl 2023.06)
