@<TRIPOS>MOLECULE
NONAME
42 45 1 0 0 
SMALL
USER_CHARGES


@<TRIPOS>ATOM
  1 S        0.1350     0.5090    -0.6710 S.3   1 <1>  -0.3610 
  2 C        0.3450    -1.0830     0.0070 C.cat 1 <1>   0.8400 
  3 C        1.9250     0.9060    -0.6990 C.3   1 <1>   0.1310 
  4 N       -0.6620    -1.8840     0.2480 N.pl3 1 <1>  -0.7940 
  5 N        1.6270    -1.3470     0.2260 N.pl3 1 <1>  -0.7250 
  6 C        2.5350    -0.3560    -0.1220 C.2   1 <1>   0.8900 
  7 C       -2.1180    -1.7410     0.0610 C.3   1 <1>   0.4900 
  8 C        2.1490    -2.6090     0.8070 C.3   1 <1>   0.3300 
  9 O        3.7190    -0.4730     0.0180 O.2   1 <1>  -0.5700 
 10 C       -2.4830    -1.5530    -1.4250 C.3   1 <1>  -0.1600 
 11 C       -2.6890    -0.5850     0.9070 C.3   1 <1>  -0.1600 
 12 C       -2.7480    -3.0610     0.5530 C.3   1 <1>  -0.1600 
 13 C        2.3780    -3.6210    -0.3120 C.3   1 <1>  -0.2400 
 14 C       -4.0150    -1.4900    -1.5860 C.3   1 <1>  -0.0800 
 15 C       -4.2200    -0.5220     0.7450 C.3   1 <1>  -0.0800 
 16 C       -4.2800    -3.0210     0.4010 C.3   1 <1>  -0.0800 
 17 C       -4.5640    -0.3200    -0.7440 C.3   1 <1>  -0.1600 
 18 C       -4.6330    -2.8060    -1.0820 C.3   1 <1>  -0.1600 
 19 C       -4.8370    -1.8470     1.2280 C.3   1 <1>  -0.1600 
 20 H        2.2290     1.0740    -1.7160 H     1 <1>   0.0800 
 21 H        2.1020     1.7630    -0.0760 H     1 <1>   0.0800 
 22 H       -0.4620    -2.8040     0.6280 H     1 <1>   0.4500 
 23 H        3.0760    -2.4300     1.3310 H     1 <1>   0.0800 
 24 H        1.4500    -3.0050     1.5240 H     1 <1>   0.0800 
 25 H       -2.0980    -2.3700    -2.0090 H     1 <1>   0.0800 
 26 H       -2.0710    -0.6410    -1.8100 H     1 <1>   0.0800 
 27 H       -2.4460    -0.7290     1.9450 H     1 <1>   0.0800 
 28 H       -2.2840     0.3580     0.5940 H     1 <1>   0.0800 
 29 H       -2.3670    -3.8890    -0.0180 H     1 <1>   0.0800 
 30 H       -2.5090    -3.2220     1.5900 H     1 <1>   0.0800 
 31 H        3.1170    -3.2540    -1.0030 H     1 <1>   0.0800 
 32 H        1.4660    -3.8310    -0.8400 H     1 <1>   0.0800 
 33 H        2.7470    -4.5410     0.1070 H     1 <1>   0.0800 
 34 H       -4.2700    -1.3420    -2.6220 H     1 <1>   0.0800 
 35 H       -4.6180     0.2950     1.3230 H     1 <1>   0.0800 
 36 H       -4.7110    -3.9460     0.7470 H     1 <1>   0.0800 
 37 H       -5.6330    -0.2610    -0.8630 H     1 <1>   0.0800 
 38 H       -4.1510     0.6110    -1.0940 H     1 <1>   0.0800 
 39 H       -4.2720    -3.6320    -1.6710 H     1 <1>   0.0800 
 40 H       -5.7030    -2.7730    -1.1990 H     1 <1>   0.0800 
 41 H       -5.9090    -1.8080     1.1260 H     1 <1>   0.0800 
 42 H       -4.6200    -1.9950     2.2730 H     1 <1>   0.0800 
@<TRIPOS>BOND
  1   1   2  1   
  2   1   3  1   
  3   2   4  ar  
  4   2   5  ar  
  5   3   6  1   
  6   3  20  1   
  7   3  21  1   
  8   4   7  1   
  9   4  22  1   
 10   5   6  1   
 11   5   8  1   
 12   6   9  2   
 13   7  10  1   
 14   7  11  1   
 15   7  12  1   
 16   8  13  1   
 17   8  23  1   
 18   8  24  1   
 19  10  14  1   
 20  10  25  1   
 21  10  26  1   
 22  11  15  1   
 23  11  27  1   
 24  11  28  1   
 25  12  16  1   
 26  12  29  1   
 27  12  30  1   
 28  13  31  1   
 29  13  32  1   
 30  13  33  1   
 31  14  17  1   
 32  14  18  1   
 33  14  34  1   
 34  15  17  1   
 35  15  19  1   
 36  15  35  1   
 37  16  18  1   
 38  16  19  1   
 39  16  36  1   
 40  17  37  1   
 41  17  38  1   
 42  18  39  1   
 43  18  40  1   
 44  19  41  1   
 45  19  42  1   
@<TRIPOS>SUBSTRUCTURE
  1 ****   4 GROUP 4 **** **** 0

# MOE 2024.06 (io_trps.svl 2023.06)
