@<TRIPOS>MOLECULE
NONAME
46 48 1 0 0 
SMALL
USER_CHARGES


@<TRIPOS>ATOM
  1 S        0.2860     0.8700     0.5640 S.o2  1 <1>   1.5000 
  2 O       -0.2650     1.7280    -0.4620 O.2   1 <1>  -0.6500 
  3 O       -0.0040     1.1370     1.9560 O.2   1 <1>  -0.6500 
  4 N        1.9710     0.9020     0.3780 N.am  1 <1>  -0.8490 
  5 C       -0.1740    -0.8380     0.1620 C.2   1 <1>  -0.0220 
  6 C        2.4230     0.6620    -1.0040 C.3   1 <1>   0.1960 
  7 C        2.6970     0.0860     1.3740 C.3   1 <1>   0.1960 
  8 S       -0.2470    -2.0220     1.4680 S.3   1 <1>  -0.0800 
  9 C       -0.4710    -1.4490    -1.0050 C.2   1 <1>  -0.1500 
 10 C        3.9480     0.7760    -1.1460 C.3   1 <1>   0.1400 
 11 C        4.2250     0.1610     1.2130 C.3   1 <1>   0.1400 
 12 C       -0.6860    -3.3110     0.3650 C.2   1 <1>  -0.1100 
 13 C       -0.7620    -2.8460    -0.8940 C.2   1 <1>  -0.1500 
 14 N        4.6200    -0.1520    -0.1950 N.am  1 <1>  -0.6600 
 15 C        5.6440    -0.9750    -0.6080 C.2   1 <1>   0.5690 
 16 O        5.8720    -1.0900    -1.7940 O.2   1 <1>  -0.5700 
 17 C        6.4680    -1.8360     0.3830 C.3   1 <1>  -0.0190 
 18 C        7.6730    -1.0950     1.0340 C.3   1 <1>  -0.1860 
 19 C        6.9080    -3.1960    -0.2430 C.3   1 <1>  -0.1600 
 20 C        7.3630     0.3410     1.4380 C.2   1 <1>   0.9060 
 21 C        8.9400    -1.2540     0.1730 C.3   1 <1>  -0.1600 
 22 C        8.2260    -3.7260     0.3350 C.3   1 <1>  -0.1600 
 23 O        7.6240     1.2800     0.6810 O.co2 1 <1>  -0.9000 
 24 O        6.8400     0.5180     2.5460 O.co2 1 <1>  -0.9000 
 25 C        9.3740    -2.7310     0.0730 C.3   1 <1>  -0.1600 
 26 H        1.9660     1.3830    -1.6610 H     1 <1>   0.0800 
 27 H        2.1280    -0.3220    -1.3260 H     1 <1>   0.0800 
 28 H        2.4050    -0.9450     1.2880 H     1 <1>   0.0800 
 29 H        2.4440     0.4230     2.3660 H     1 <1>   0.0800 
 30 H       -0.5020    -0.9580    -1.9630 H     1 <1>   0.1500 
 31 H        4.2590     1.7830    -0.9290 H     1 <1>   0.0800 
 32 H        4.2290     0.5580    -2.1610 H     1 <1>   0.0800 
 33 H        4.6790    -0.5120     1.9130 H     1 <1>   0.0800 
 34 H        4.5640     1.1530     1.4590 H     1 <1>   0.0800 
 35 H       -0.8440    -4.2910     0.7810 H     1 <1>   0.1500 
 36 H       -1.0150    -3.4310    -1.7630 H     1 <1>   0.1500 
 37 H        5.8130    -2.0950     1.1900 H     1 <1>   0.0800 
 38 H        7.8810    -1.5820     1.9690 H     1 <1>   0.0800 
 39 H        7.0590    -3.0940    -1.3030 H     1 <1>   0.0800 
 40 H        6.1250    -3.9200    -0.1040 H     1 <1>   0.0800 
 41 H        9.7390    -0.6630     0.5890 H     1 <1>   0.0800 
 42 H        8.7310    -0.8640    -0.8090 H     1 <1>   0.0800 
 43 H        8.4660    -4.6770    -0.1060 H     1 <1>   0.0800 
 44 H        8.1110    -3.8750     1.3950 H     1 <1>   0.0800 
 45 H       10.1600    -2.9200     0.7830 H     1 <1>   0.0800 
 46 H        9.7770    -2.8980    -0.9110 H     1 <1>   0.0800 
@<TRIPOS>BOND
  1   1   2  2   
  2   1   3  2   
  3   1   4  am  
  4   1   5  1   
  5   4   6  1   
  6   4   7  1   
  7   5   8  1   
  8   5   9  2   
  9   6  10  1   
 10   6  26  1   
 11   6  27  1   
 12   7  11  1   
 13   7  28  1   
 14   7  29  1   
 15   8  12  1   
 16   9  13  1   
 17   9  30  1   
 18  10  14  1   
 19  10  31  1   
 20  10  32  1   
 21  11  14  1   
 22  11  33  1   
 23  11  34  1   
 24  12  13  2   
 25  12  35  1   
 26  13  36  1   
 27  14  15  am  
 28  15  16  2   
 29  15  17  1   
 30  17  18  1   
 31  17  19  1   
 32  17  37  1   
 33  18  20  1   
 34  18  21  1   
 35  18  38  1   
 36  19  22  1   
 37  19  39  1   
 38  19  40  1   
 39  20  23  ar  
 40  20  24  ar  
 41  21  25  1   
 42  21  41  1   
 43  21  42  1   
 44  22  25  1   
 45  22  43  1   
 46  22  44  1   
 47  25  45  1   
 48  25  46  1   
@<TRIPOS>SUBSTRUCTURE
  1 ****  14 GROUP 4 **** **** 0

# MOE 2024.06 (io_trps.svl 2023.06)
