@<TRIPOS>MOLECULE
NONAME
43 43 1 0 0 
SMALL
USER_CHARGES


@<TRIPOS>ATOM
  1 O       -2.2740    -1.8560     1.4320 O.2   1 <1>  -0.5700 
  2 C       -1.8830    -1.6230     0.3050 C.2   1 <1>   0.7800 
  3 O       -0.7860    -2.1960    -0.1860 O.3   1 <1>  -0.4300 
  4 N       -2.5060    -0.7680    -0.5250 N.am  1 <1>  -0.7300 
  5 C        0.0820    -3.0880     0.4770 C.3   1 <1>   0.2800 
  6 C       -3.5540     0.1690    -0.1080 C.3   1 <1>   0.3640 
  7 C       -0.6620    -4.3760     0.8470 C.3   1 <1>  -0.2400 
  8 C        1.1750    -3.4100    -0.5440 C.3   1 <1>  -0.2400 
  9 C        0.7150    -2.4040     1.6950 C.3   1 <1>  -0.2400 
 10 C       -4.8850    -0.5610     0.0710 C.ar  1 <1>  -0.1440 
 11 C       -3.6930     1.2550    -1.1630 C.3   1 <1>  -0.2660 
 12 C       -5.3780    -1.4090    -0.9110 C.ar  1 <1>  -0.1500 
 13 C       -5.6270    -0.3760     1.2270 C.ar  1 <1>  -0.1500 
 14 C       -2.3880     1.9670    -1.3250 C.2   1 <1>   0.9060 
 15 C       -6.5920    -2.0540    -0.7430 C.ar  1 <1>  -0.1500 
 16 C       -6.8410    -1.0200     1.3970 C.ar  1 <1>  -0.1500 
 17 O       -2.2350     3.0570    -0.7740 O.co2 1 <1>  -0.9000 
 18 O       -1.5060     1.4090    -1.9860 O.co2 1 <1>  -0.9000 
 19 C       -7.3320    -1.8630     0.4130 C.ar  1 <1>  -0.1440 
 20 C       -8.6650    -2.5680     0.5980 C.3   1 <1>  -0.0170 
 21 C       -9.8040    -1.7090     0.0470 C.3   1 <1>  -0.2400 
 22 H       -1.9100    -0.3450    -1.2570 H     1 <1>   0.3700 
 23 H       -3.2560     0.6230     0.8240 H     1 <1>   0.0800 
 24 H       -1.3920    -4.1940     1.6130 H     1 <1>   0.0800 
 25 H        0.0310    -5.1060     1.2230 H     1 <1>   0.0800 
 26 H       -1.1530    -4.7830    -0.0180 H     1 <1>   0.0800 
 27 H        0.7430    -3.8660    -1.4170 H     1 <1>   0.0800 
 28 H        1.8940    -4.0890    -0.1230 H     1 <1>   0.0800 
 29 H        1.6840    -2.5100    -0.8360 H     1 <1>   0.0800 
 30 H       -0.0160    -2.2270     2.4610 H     1 <1>   0.0800 
 31 H        1.1560    -1.4670     1.4060 H     1 <1>   0.0800 
 32 H        1.4810    -3.0300     2.1120 H     1 <1>   0.0800 
 33 H       -4.4350     1.9660    -0.8570 H     1 <1>   0.0800 
 34 H       -3.9830     0.8380    -2.1060 H     1 <1>   0.0800 
 35 H       -4.8080    -1.5660    -1.8100 H     1 <1>   0.1500 
 36 H       -5.2570     0.2720     2.0010 H     1 <1>   0.1500 
 37 H       -6.9540    -2.7050    -1.5170 H     1 <1>   0.1500 
 38 H       -7.4000    -0.8610     2.3010 H     1 <1>   0.1500 
 39 H       -8.8300    -2.7630     1.6430 H     1 <1>   0.0800 
 40 H       -8.6470    -3.5160     0.0880 H     1 <1>   0.0800 
 41 H       -9.8390    -0.7660     0.5630 H     1 <1>   0.0800 
 42 H      -10.7460    -2.2120     0.1760 H     1 <1>   0.0800 
 43 H       -9.6510    -1.5210    -1.0010 H     1 <1>   0.0800 
@<TRIPOS>BOND
  1   1   2  2   
  2   2   3  1   
  3   2   4  am  
  4   3   5  1   
  5   4   6  1   
  6   4  22  1   
  7   5   7  1   
  8   5   8  1   
  9   5   9  1   
 10   6  10  1   
 11   6  11  1   
 12   6  23  1   
 13   7  24  1   
 14   7  25  1   
 15   7  26  1   
 16   8  27  1   
 17   8  28  1   
 18   8  29  1   
 19   9  30  1   
 20   9  31  1   
 21   9  32  1   
 22  10  12  ar  
 23  10  13  ar  
 24  11  14  1   
 25  11  33  1   
 26  11  34  1   
 27  12  15  ar  
 28  12  35  1   
 29  13  16  ar  
 30  13  36  1   
 31  14  17  ar  
 32  14  18  ar  
 33  15  19  ar  
 34  15  37  1   
 35  16  19  ar  
 36  16  38  1   
 37  19  20  1   
 38  20  21  1   
 39  20  39  1   
 40  20  40  1   
 41  21  41  1   
 42  21  42  1   
 43  21  43  1   
@<TRIPOS>SUBSTRUCTURE
  1 ****   4 GROUP 4 **** **** 0

# MOE 2024.06 (io_trps.svl 2023.06)
