@<TRIPOS>MOLECULE
NONAME
37 37 1 0 0 
SMALL
USER_CHARGES


@<TRIPOS>ATOM
  1 O       -2.1150     0.2450    -0.1330 O.3   1 <1>  -0.6800 
  2 C       -3.2460     1.0240    -0.2040 C.3   1 <1>   0.2000 
  3 C       -4.4310     0.1160     0.1810 C.3   1 <1>   0.3430 
  4 C       -3.3180     1.5760    -1.6290 C.3   1 <1>  -0.2400 
  5 N       -5.7520     0.7980     0.0430 N.4   1 <1>  -0.9060 
  6 C       -6.8970    -0.0710     0.3760 C.3   1 <1>   0.4860 
  7 C       -8.1300     0.7710     0.1620 C.ar  1 <1>  -0.1430 
  8 C       -8.7490     0.8040    -1.0780 C.ar  1 <1>  -0.1500 
  9 C       -8.6450     1.5320     1.2000 C.ar  1 <1>  -0.1500 
 10 C       -9.8640     1.5980    -1.2780 C.ar  1 <1>  -0.1500 
 11 C       -9.7600     2.3240     0.9940 C.ar  1 <1>  -0.1500 
 12 C      -10.3790     2.3670    -0.2460 C.ar  1 <1>  -0.1430 
 13 C      -11.6130     3.2360    -0.4870 C.3   1 <1>   0.0630 
 14 C      -11.2910     4.7180    -0.2670 C.3   1 <1>  -0.2400 
 15 C      -12.7760     2.7950     0.4070 C.3   1 <1>  -0.2400 
 16 H       -1.3170     0.7550    -0.3880 H     1 <1>   0.4000 
 17 H       -3.1360     1.8220     0.5120 H     1 <1>   0.0800 
 18 H       -4.2940    -0.2100     1.2000 H     1 <1>   0.0800 
 19 H       -4.4080    -0.7520    -0.4580 H     1 <1>   0.0800 
 20 H       -3.4140     0.7760    -2.3440 H     1 <1>   0.0800 
 21 H       -2.4290     2.1390    -1.8550 H     1 <1>   0.0800 
 22 H       -4.1550     2.2400    -1.7410 H     1 <1>   0.0800 
 23 H       -5.8890     1.1310    -0.9190 H     1 <1>   0.4500 
 24 H       -5.8100     1.6310     0.6410 H     1 <1>   0.4500 
 25 H       -6.8440    -0.3980     1.4020 H     1 <1>   0.0800 
 26 H       -6.9220    -0.9350    -0.2690 H     1 <1>   0.0800 
 27 H       -8.3820     0.2160    -1.9020 H     1 <1>   0.1500 
 28 H       -8.1970     1.5210     2.1800 H     1 <1>   0.1500 
 29 H      -10.3350     1.6130    -2.2460 H     1 <1>   0.1500 
 30 H      -10.1510     2.9100     1.8090 H     1 <1>   0.1500 
 31 H      -11.9260     3.1190    -1.5110 H     1 <1>   0.0800 
 32 H      -11.0210     4.9060     0.7560 H     1 <1>   0.0800 
 33 H      -12.1450     5.3230    -0.5120 H     1 <1>   0.0800 
 34 H      -10.4720     5.0130    -0.8980 H     1 <1>   0.0800 
 35 H      -12.5400     2.9400     1.4460 H     1 <1>   0.0800 
 36 H      -12.9860     1.7520     0.2460 H     1 <1>   0.0800 
 37 H      -13.6600     3.3610     0.1740 H     1 <1>   0.0800 
@<TRIPOS>BOND
  1   1   2  1   
  2   1  16  1   
  3   2   3  1   
  4   2   4  1   
  5   2  17  1   
  6   3   5  1   
  7   3  18  1   
  8   3  19  1   
  9   4  20  1   
 10   4  21  1   
 11   4  22  1   
 12   5   6  1   
 13   5  23  1   
 14   5  24  1   
 15   6   7  1   
 16   6  25  1   
 17   6  26  1   
 18   7   8  ar  
 19   7   9  ar  
 20   8  10  ar  
 21   8  27  1   
 22   9  11  ar  
 23   9  28  1   
 24  10  12  ar  
 25  10  29  1   
 26  11  12  ar  
 27  11  30  1   
 28  12  13  1   
 29  13  14  1   
 30  13  15  1   
 31  13  31  1   
 32  14  32  1   
 33  14  33  1   
 34  14  34  1   
 35  15  35  1   
 36  15  36  1   
 37  15  37  1   
@<TRIPOS>SUBSTRUCTURE
  1 ****   7 GROUP 4 **** **** 0

# MOE 2024.06 (io_trps.svl 2023.06)
