@<TRIPOS>MOLECULE
NONAME
38 40 1 0 0 
SMALL
USER_CHARGES


@<TRIPOS>ATOM
  1 S       -1.8280     1.8970    -1.7200 S.3   1 <1>  -0.0800 
  2 C       -2.2550     1.1390    -0.1910 C.2   1 <1>  -0.1400 
  3 C       -0.1950     2.2020    -1.1650 C.2   1 <1>  -0.1100 
  4 C       -1.1980     1.1340     0.6470 C.2   1 <1>  -0.1810 
  5 C       -3.6690     0.6170    -0.0610 C.3   1 <1>   0.5230 
  6 C       -0.0280     1.7440     0.0880 C.2   1 <1>  -0.1500 
  7 C       -1.1320     0.5610     2.0520 C.3   1 <1>  -0.0590 
  8 N       -4.5170     1.6880     0.5240 N.4   1 <1>  -0.9590 
  9 C       -5.8030     1.1240     1.0840 C.3   1 <1>   0.3430 
 10 C       -4.7790     2.7980    -0.4740 C.3   1 <1>   0.3430 
 11 C       -6.7320     2.2210     1.6400 C.3   1 <1>   0.2090 
 12 C       -5.7420     3.8800     0.0610 C.3   1 <1>   0.2090 
 13 N       -6.9840     3.2410     0.5840 N.pl3 1 <1>  -0.8380 
 14 C       -8.0760     3.1340    -0.2470 C.ar  1 <1>   0.7200 
 15 N       -8.6540     1.9360    -0.3250 N.ar  1 <1>  -0.6200 
 16 N       -8.4210     4.2260    -0.9170 N.ar  1 <1>  -0.6200 
 17 C       -9.7010     1.8580    -1.1130 C.ar  1 <1>   0.1600 
 18 C       -9.4710     4.1170    -1.6950 C.ar  1 <1>   0.1600 
 19 C      -10.1590     2.9370    -1.8290 C.ar  1 <1>  -0.1500 
 20 H        0.4800     2.6950    -1.8440 H     1 <1>   0.1500 
 21 H       -3.6600    -0.2380     0.5940 H     1 <1>   0.0800 
 22 H       -4.0460     0.3080    -1.0230 H     1 <1>   0.0800 
 23 H        0.8890     1.8090     0.6500 H     1 <1>   0.1500 
 24 H       -2.0680     0.1220     2.3420 H     1 <1>   0.0800 
 25 H       -0.8820     1.3370     2.7530 H     1 <1>   0.0800 
 26 H       -0.3710    -0.1980     2.0990 H     1 <1>   0.0800 
 27 H       -3.9720     2.0990     1.2910 H     1 <1>   0.4500 
 28 H       -5.5870     0.4170     1.8670 H     1 <1>   0.0800 
 29 H       -6.3410     0.6060     0.3070 H     1 <1>   0.0800 
 30 H       -5.2160     2.3820    -1.3670 H     1 <1>   0.0800 
 31 H       -3.8520     3.2700    -0.7510 H     1 <1>   0.0800 
 32 H       -6.2810     2.6930     2.4950 H     1 <1>   0.0800 
 33 H       -7.6610     1.7840     1.9690 H     1 <1>   0.0800 
 34 H       -5.9700     4.5730    -0.7310 H     1 <1>   0.0800 
 35 H       -5.2690     4.4400     0.8500 H     1 <1>   0.0800 
 36 H      -10.2090     0.9110    -1.1910 H     1 <1>   0.1500 
 37 H       -9.7890     4.9910    -2.2400 H     1 <1>   0.1500 
 38 H      -11.0190     2.8610    -2.4680 H     1 <1>   0.1500 
@<TRIPOS>BOND
  1   1   2  1   
  2   1   3  1   
  3   2   4  2   
  4   2   5  1   
  5   3   6  2   
  6   3  20  1   
  7   4   6  1   
  8   4   7  1   
  9   5   8  1   
 10   5  21  1   
 11   5  22  1   
 12   6  23  1   
 13   7  24  1   
 14   7  25  1   
 15   7  26  1   
 16   8   9  1   
 17   8  10  1   
 18   8  27  1   
 19   9  11  1   
 20   9  28  1   
 21   9  29  1   
 22  10  12  1   
 23  10  30  1   
 24  10  31  1   
 25  11  13  1   
 26  11  32  1   
 27  11  33  1   
 28  12  13  1   
 29  12  34  1   
 30  12  35  1   
 31  13  14  1   
 32  14  15  ar  
 33  14  16  ar  
 34  15  17  ar  
 35  16  18  ar  
 36  17  19  ar  
 37  17  36  1   
 38  18  19  ar  
 39  18  37  1   
 40  19  38  1   
@<TRIPOS>SUBSTRUCTURE
  1 ****  10 GROUP 4 **** **** 0

# MOE 2024.06 (io_trps.svl 2023.06)
