@<TRIPOS>MOLECULE
NONAME
56 57 1 0 0 
SMALL
USER_CHARGES


@<TRIPOS>ATOM
  1 O        1.9550     1.6300    -2.0140 O.2   1 <1>  -0.5700 
  2 C        1.4700     1.8190    -0.9140 C.2   1 <1>   0.5440 
  3 N        1.8490     0.9670     0.1050 N.am  1 <1>  -0.6600 
  4 C        0.5690     2.9330    -0.6970 C.ar  1 <1>   0.0860 
  5 C        2.4660    -0.3500    -0.2280 C.3   1 <1>   0.1400 
  6 C        1.9100     1.3960     1.5260 C.3   1 <1>   0.1400 
  7 C        0.8960     4.2100    -1.1430 C.ar  1 <1>  -0.1500 
  8 C       -0.6410     2.7690    -0.0260 C.ar  1 <1>  -0.1500 
  9 C        3.9240    -0.1740    -0.6960 C.3   1 <1>   0.3430 
 10 C        3.3400     1.3030     2.0760 C.3   1 <1>  -0.1600 
 11 C        0.0780     5.2990    -0.9090 C.ar  1 <1>   0.0830 
 12 C       -1.4930     3.8420     0.2080 C.ar  1 <1>   0.0830 
 13 N        4.8720     0.3250     0.3680 N.4   1 <1>  -0.9590 
 14 C        4.4270     1.5900     1.0340 C.3   1 <1>   0.3430 
 15 O        0.5520     6.4880    -1.3750 O.3   1 <1>  -0.3630 
 16 C       -1.1380     5.1180    -0.2390 C.ar  1 <1>   0.0830 
 17 O       -2.6780     3.6980     0.8690 O.3   1 <1>  -0.3630 
 18 C        6.2220     0.5240    -0.2410 C.3   1 <1>   0.2630 
 19 C        0.3080     7.6850    -0.6730 C.3   1 <1>   0.1200 
 20 O       -1.9810     6.1600    -0.0220 O.3   1 <1>  -0.3630 
 21 C       -3.2070     2.4350     1.1950 C.3   1 <1>   0.1200 
 22 C        1.3760     8.6970    -1.0780 C.3   1 <1>  -0.2400 
 23 C       -3.0870     6.2500    -0.8870 C.3   1 <1>   0.1200 
 24 C       -4.5850     2.6490     1.8120 C.3   1 <1>  -0.2400 
 25 C       -3.8650     7.5130    -0.5300 C.3   1 <1>  -0.2400 
 26 H        1.9040    -0.7940    -1.0330 H     1 <1>   0.0800 
 27 H        2.4120    -1.0190     0.6120 H     1 <1>   0.0800 
 28 H        1.2440     0.7890     2.1170 H     1 <1>   0.0800 
 29 H        1.5780     2.4170     1.6110 H     1 <1>   0.0800 
 30 H        1.8130     4.3610    -1.6830 H     1 <1>   0.1500 
 31 H       -0.8950     1.7810     0.3060 H     1 <1>   0.1500 
 32 H        3.9240     0.5100    -1.5290 H     1 <1>   0.0800 
 33 H        4.2760    -1.1240    -1.0620 H     1 <1>   0.0800 
 34 H        3.4990     0.3450     2.5380 H     1 <1>   0.0800 
 35 H        3.4230     2.0360     2.8600 H     1 <1>   0.0800 
 36 H        4.9470    -0.3980     1.0960 H     1 <1>   0.4500 
 37 H        5.2700     2.0330     1.5410 H     1 <1>   0.0800 
 38 H        4.0690     2.2960     0.3020 H     1 <1>   0.0800 
 39 H        6.1760     1.2790    -1.0100 H     1 <1>   0.0800 
 40 H        6.5740    -0.3950    -0.6820 H     1 <1>   0.0800 
 41 H        6.9300     0.8380     0.5080 H     1 <1>   0.0800 
 42 H        0.3510     7.4830     0.3840 H     1 <1>   0.0800 
 43 H       -0.6710     8.0430    -0.9390 H     1 <1>   0.0800 
 44 H       -2.5470     1.9590     1.8990 H     1 <1>   0.0800 
 45 H       -3.2820     1.8510     0.2930 H     1 <1>   0.0800 
 46 H        2.3520     8.3260    -0.8210 H     1 <1>   0.0800 
 47 H        1.2120     9.6240    -0.5600 H     1 <1>   0.0800 
 48 H        1.3270     8.8810    -2.1360 H     1 <1>   0.0800 
 49 H       -3.7000     5.3750    -0.7570 H     1 <1>   0.0800 
 50 H       -2.7230     6.2940    -1.9000 H     1 <1>   0.0800 
 51 H       -4.5020     3.2500     2.7000 H     1 <1>   0.0800 
 52 H       -5.0190     1.7020     2.0760 H     1 <1>   0.0800 
 53 H       -5.2330     3.1400     1.1070 H     1 <1>   0.0800 
 54 H       -4.2050     7.4580     0.4880 H     1 <1>   0.0800 
 55 H       -4.7210     7.6070    -1.1740 H     1 <1>   0.0800 
 56 H       -3.2430     8.3800    -0.6570 H     1 <1>   0.0800 
@<TRIPOS>BOND
  1   1   2  2   
  2   2   3  am  
  3   2   4  1   
  4   3   5  1   
  5   3   6  1   
  6   4   7  ar  
  7   4   8  ar  
  8   5   9  1   
  9   5  26  1   
 10   5  27  1   
 11   6  10  1   
 12   6  28  1   
 13   6  29  1   
 14   7  11  ar  
 15   7  30  1   
 16   8  12  ar  
 17   8  31  1   
 18   9  13  1   
 19   9  32  1   
 20   9  33  1   
 21  10  14  1   
 22  10  34  1   
 23  10  35  1   
 24  11  15  1   
 25  11  16  ar  
 26  12  16  ar  
 27  12  17  1   
 28  13  14  1   
 29  13  18  1   
 30  13  36  1   
 31  14  37  1   
 32  14  38  1   
 33  15  19  1   
 34  16  20  1   
 35  17  21  1   
 36  18  39  1   
 37  18  40  1   
 38  18  41  1   
 39  19  22  1   
 40  19  42  1   
 41  19  43  1   
 42  20  23  1   
 43  21  24  1   
 44  21  44  1   
 45  21  45  1   
 46  22  46  1   
 47  22  47  1   
 48  22  48  1   
 49  23  25  1   
 50  23  49  1   
 51  23  50  1   
 52  24  51  1   
 53  24  52  1   
 54  24  53  1   
 55  25  54  1   
 56  25  55  1   
 57  25  56  1   
@<TRIPOS>SUBSTRUCTURE
  1 ****   4 GROUP 4 **** **** 0

# MOE 2024.06 (io_trps.svl 2023.06)
