@<TRIPOS>MOLECULE
NONAME
29 30 1 0 0 
SMALL
USER_CHARGES


@<TRIPOS>ATOM
  1 O        0.8890     1.8110    -2.0720 O.2   1 <1>  -0.5700 
  2 C        1.7290     1.7590    -1.2090 C.2   1 <1>   0.6900 
  3 N        2.8270     0.9880    -1.3560 N.am  1 <1>  -0.4900 
  4 N        1.5800     2.4450    -0.0560 N.am  1 <1>  -0.4900 
  5 C        3.8170     0.8770    -0.4360 C.2   1 <1>   0.5690 
  6 C        2.4900     2.4690     0.9490 C.2   1 <1>   0.5690 
  7 O        4.6380     0.0070    -0.5460 O.2   1 <1>  -0.5700 
  8 C        3.8670     1.8490     0.7400 C.3   1 <1>   0.0420 
  9 O        2.2170     2.9900     1.9970 O.2   1 <1>  -0.5700 
 10 C        4.9480     2.9540     0.5960 C.3   1 <1>  -0.0800 
 11 C        4.7730     3.8140    -0.6750 C.3   1 <1>  -0.1600 
 12 C        6.3780     2.3780     0.6530 C.3   1 <1>  -0.1600 
 13 C        5.8300     4.9250    -0.7460 C.3   1 <1>  -0.1600 
 14 C        7.4310     3.4910     0.5870 C.3   1 <1>  -0.1600 
 15 C        7.2490     4.3500    -0.6700 C.3   1 <1>  -0.1600 
 16 H        2.8580     0.3770    -2.1670 H     1 <1>   0.3700 
 17 H        0.6970     2.9290     0.0860 H     1 <1>   0.3700 
 18 H        4.0870     1.2750     1.6210 H     1 <1>   0.0800 
 19 H        4.8420     3.6090     1.4460 H     1 <1>   0.0800 
 20 H        3.7990     4.2720    -0.6880 H     1 <1>   0.0800 
 21 H        4.8650     3.1980    -1.5530 H     1 <1>   0.0800 
 22 H        6.5410     1.7050    -0.1720 H     1 <1>   0.0800 
 23 H        6.5120     1.8200     1.5630 H     1 <1>   0.0800 
 24 H        5.6810     5.6120     0.0700 H     1 <1>   0.0800 
 25 H        5.7140     5.4750    -1.6640 H     1 <1>   0.0800 
 26 H        8.4160     3.0550     0.5850 H     1 <1>   0.0800 
 27 H        7.3500     4.1150     1.4610 H     1 <1>   0.0800 
 28 H        7.9650     5.1540    -0.6640 H     1 <1>   0.0800 
 29 H        7.4370     3.7480    -1.5430 H     1 <1>   0.0800 
@<TRIPOS>BOND
  1   1   2  2   
  2   2   3  am  
  3   2   4  am  
  4   3   5  am  
  5   3  16  1   
  6   4   6  am  
  7   4  17  1   
  8   5   7  2   
  9   5   8  1   
 10   6   8  1   
 11   6   9  2   
 12   8  10  1   
 13   8  18  1   
 14  10  11  1   
 15  10  12  1   
 16  10  19  1   
 17  11  13  1   
 18  11  20  1   
 19  11  21  1   
 20  12  14  1   
 21  12  22  1   
 22  12  23  1   
 23  13  15  1   
 24  13  24  1   
 25  13  25  1   
 26  14  15  1   
 27  14  26  1   
 28  14  27  1   
 29  15  28  1   
 30  15  29  1   
@<TRIPOS>SUBSTRUCTURE
  1 ****   8 GROUP 4 **** **** 0

# MOE 2024.06 (io_trps.svl 2023.06)
