@<TRIPOS>MOLECULE
NONAME
47 49 1 0 0 
SMALL
USER_CHARGES


@<TRIPOS>ATOM
  1 O       -4.0010     3.2110     1.3680 O.2   1 <1>  -0.5700 
  2 C       -4.6680     3.1970     0.3610 C.2   1 <1>   0.6590 
  3 O       -4.0660     3.1660    -0.8280 O.3   1 <1>  -0.4300 
  4 C       -6.2120     3.1980     0.3620 C.3   1 <1>   0.0610 
  5 C       -2.6610     3.2540    -0.9760 C.3   1 <1>   0.1200 
  6 C       -6.7450     3.4470     1.7940 C.3   1 <1>  -0.1600 
  7 C       -6.7160     1.8400    -0.1900 C.3   1 <1>  -0.1600 
  8 C       -6.7340     4.3390    -0.5380 C.3   1 <1>  -0.1600 
  9 C       -1.9920     1.9620    -0.4660 C.3   1 <1>   0.3430 
 10 C       -8.2710     3.6140     1.9060 C.3   1 <1>  -0.0800 
 11 C       -8.2270     1.7620    -0.4910 C.3   1 <1>  -0.0800 
 12 C       -8.2670     4.3340    -0.5780 C.3   1 <1>  -0.0800 
 13 N       -0.7520     2.2200     0.3450 N.4   1 <1>  -0.9590 
 14 C       -9.0010     2.2650     1.9900 C.3   1 <1>  -0.1600 
 15 C       -8.8390     4.5590     0.8310 C.3   1 <1>  -0.1600 
 16 C       -9.0810     1.3860     0.7310 C.3   1 <1>  -0.1600 
 17 C       -8.7510     3.0210    -1.2040 C.3   1 <1>  -0.1600 
 18 C       -0.0030     0.9450     0.5670 C.3   1 <1>   0.2630 
 19 C       -1.0940     2.8430     1.6670 C.3   1 <1>   0.2630 
 20 H       -2.3310     4.1230    -0.4350 H     1 <1>   0.0800 
 21 H       -2.4550     3.3910    -2.0230 H     1 <1>   0.0800 
 22 H       -6.2960     4.3540     2.1620 H     1 <1>   0.0800 
 23 H       -6.4180     2.6570     2.4480 H     1 <1>   0.0800 
 24 H       -6.4430     1.0480     0.4850 H     1 <1>   0.0800 
 25 H       -6.2070     1.6500    -1.1180 H     1 <1>   0.0800 
 26 H       -6.3570     4.2260    -1.5390 H     1 <1>   0.0800 
 27 H       -6.3880     5.2870    -0.1650 H     1 <1>   0.0800 
 28 H       -1.7460     1.3490    -1.3170 H     1 <1>   0.0800 
 29 H       -2.6990     1.4220     0.1420 H     1 <1>   0.0800 
 30 H       -8.4520     4.0890     2.8560 H     1 <1>   0.0800 
 31 H       -8.3610     0.9480    -1.1840 H     1 <1>   0.0800 
 32 H       -8.5980     5.1430    -1.2060 H     1 <1>   0.0800 
 33 H       -0.1420     2.8690    -0.1760 H     1 <1>   0.4500 
 34 H      -10.0080     2.4550     2.3200 H     1 <1>   0.0800 
 35 H       -8.5400     1.6870     2.7730 H     1 <1>   0.0800 
 36 H       -8.6010     5.5680     1.1210 H     1 <1>   0.0800 
 37 H       -9.9120     4.4860     0.8080 H     1 <1>   0.0800 
 38 H       -8.8270     0.3800     1.0170 H     1 <1>   0.0800 
 39 H      -10.1100     1.3510     0.4160 H     1 <1>   0.0800 
 40 H       -9.8270     3.0080    -1.2380 H     1 <1>   0.0800 
 41 H       -8.4100     2.9940    -2.2250 H     1 <1>   0.0800 
 42 H       -0.6130     0.2440     1.1140 H     1 <1>   0.0800 
 43 H        0.8960     1.1330     1.1330 H     1 <1>   0.0800 
 44 H        0.2730     0.5020    -0.3760 H     1 <1>   0.0800 
 45 H       -1.7580     2.2010     2.2240 H     1 <1>   0.0800 
 46 H       -1.5910     3.7890     1.5240 H     1 <1>   0.0800 
 47 H       -0.2030     3.0090     2.2500 H     1 <1>   0.0800 
@<TRIPOS>BOND
  1   1   2  2   
  2   2   3  1   
  3   2   4  1   
  4   3   5  1   
  5   4   6  1   
  6   4   7  1   
  7   4   8  1   
  8   5   9  1   
  9   5  20  1   
 10   5  21  1   
 11   6  10  1   
 12   6  22  1   
 13   6  23  1   
 14   7  11  1   
 15   7  24  1   
 16   7  25  1   
 17   8  12  1   
 18   8  26  1   
 19   8  27  1   
 20   9  13  1   
 21   9  28  1   
 22   9  29  1   
 23  10  14  1   
 24  10  15  1   
 25  10  30  1   
 26  11  16  1   
 27  11  17  1   
 28  11  31  1   
 29  12  15  1   
 30  12  17  1   
 31  12  32  1   
 32  13  18  1   
 33  13  19  1   
 34  13  33  1   
 35  14  16  1   
 36  14  34  1   
 37  14  35  1   
 38  15  36  1   
 39  15  37  1   
 40  16  38  1   
 41  16  39  1   
 42  17  40  1   
 43  17  41  1   
 44  18  42  1   
 45  18  43  1   
 46  18  44  1   
 47  19  45  1   
 48  19  46  1   
 49  19  47  1   
@<TRIPOS>SUBSTRUCTURE
  1 ****   4 GROUP 4 **** **** 0

# MOE 2024.06 (io_trps.svl 2023.06)
