@<TRIPOS>MOLECULE
NONAME
40 42 1 0 0 
SMALL
USER_CHARGES


@<TRIPOS>ATOM
  1 S        0.0920    -0.5890    -0.0790 S.3   1 <1>  -0.3710 
  2 C       -1.3150     0.5020    -0.2670 C.2   1 <1>   0.6510 
  3 C        1.4980     0.6300    -0.0610 C.3   1 <1>   0.1310 
  4 N       -1.0420     1.7510    -0.3200 N.2   1 <1>  -0.6210 
  5 N       -2.5690    -0.0800    -0.3360 N.am  1 <1>  -0.2370 
  6 C        2.8800     0.0180     0.1420 C.2   1 <1>   0.5690 
  7 C       -2.0790     2.6240    -0.4510 C.2   1 <1>   0.0210 
  8 C       -3.6400     0.8040    -0.4610 C.2   1 <1>   0.6160 
  9 C       -2.7720    -1.4720    -0.2950 C.ar  1 <1>   0.1170 
 10 O        3.0500    -1.1620    -0.0670 O.2   1 <1>  -0.5700 
 11 N        3.9220     0.8240     0.5390 N.am  1 <1>  -0.6600 
 12 O       -1.7980     3.8200    -0.4990 O.3   1 <1>  -0.8500 
 13 C       -3.3770     2.1610    -0.5210 C.2   1 <1>  -0.1360 
 14 O       -4.7990     0.3520    -0.5150 O.2   1 <1>  -0.5700 
 15 C       -2.5490    -2.2550    -1.4220 C.ar  1 <1>  -0.1500 
 16 C       -3.2040    -2.0900     0.8740 C.ar  1 <1>  -0.1500 
 17 C        3.8500     2.3100     0.7110 C.3   1 <1>   0.1400 
 18 C        5.2860     0.2720     0.7970 C.3   1 <1>   0.1400 
 19 C       -2.7460    -3.6240    -1.3820 C.ar  1 <1>  -0.1500 
 20 C       -3.4040    -3.4580     0.9170 C.ar  1 <1>  -0.1500 
 21 C        5.0050     3.0000    -0.0370 C.3   1 <1>   0.1200 
 22 C        6.3500     1.0790     0.0360 C.3   1 <1>   0.1200 
 23 C       -3.1740    -4.2270    -0.2110 C.ar  1 <1>  -0.1500 
 24 O        6.2380     2.4440     0.3260 O.3   1 <1>  -0.5600 
 25 H        1.2780     1.3120     0.7390 H     1 <1>   0.0800 
 26 H        1.4620     1.1530    -0.9990 H     1 <1>   0.0800 
 27 H       -4.1760     2.8650    -0.6200 H     1 <1>   0.1500 
 28 H       -2.2160    -1.7850    -2.3300 H     1 <1>   0.1500 
 29 H       -3.3850    -1.4890     1.7470 H     1 <1>   0.1500 
 30 H        3.9190     2.5480     1.7580 H     1 <1>   0.0800 
 31 H        2.9210     2.7060     0.3420 H     1 <1>   0.0800 
 32 H        5.3420    -0.7600     0.4960 H     1 <1>   0.0800 
 33 H        5.4920     0.3190     1.8520 H     1 <1>   0.0800 
 34 H       -2.5660    -4.2180    -2.2600 H     1 <1>   0.1500 
 35 H       -3.7380    -3.9230     1.8280 H     1 <1>   0.1500 
 36 H        5.0300     4.0460     0.2080 H     1 <1>   0.0800 
 37 H        4.8800     2.8970    -1.1010 H     1 <1>   0.0800 
 38 H        6.2390     0.9390    -1.0260 H     1 <1>   0.0800 
 39 H        7.3350     0.7600     0.3260 H     1 <1>   0.0800 
 40 H       -3.3290    -5.2920    -0.1780 H     1 <1>   0.1500 
@<TRIPOS>BOND
  1   1   2  1   
  2   1   3  1   
  3   2   4  2   
  4   2   5  1   
  5   3   6  1   
  6   3  25  1   
  7   3  26  1   
  8   4   7  1   
  9   5   8  am  
 10   5   9  1   
 11   6  10  2   
 12   6  11  am  
 13   7  12  1   
 14   7  13  2   
 15   8  13  1   
 16   8  14  2   
 17   9  15  ar  
 18   9  16  ar  
 19  11  17  1   
 20  11  18  1   
 21  13  27  1   
 22  15  19  ar  
 23  15  28  1   
 24  16  20  ar  
 25  16  29  1   
 26  17  21  1   
 27  17  30  1   
 28  17  31  1   
 29  18  22  1   
 30  18  32  1   
 31  18  33  1   
 32  19  23  ar  
 33  19  34  1   
 34  20  23  ar  
 35  20  35  1   
 36  21  24  1   
 37  21  36  1   
 38  21  37  1   
 39  22  24  1   
 40  22  38  1   
 41  22  39  1   
 42  23  40  1   
@<TRIPOS>SUBSTRUCTURE
  1 ****   1 GROUP 4 **** **** 0

# MOE 2024.06 (io_trps.svl 2023.06)
