@<TRIPOS>MOLECULE
NONAME
34 36 1 0 0 
SMALL
USER_CHARGES


@<TRIPOS>ATOM
  1 S       -7.6910    -2.6670    -1.1820 S.3   1 <1>  -0.0800 
  2 C       -6.3060    -1.5760    -1.1490 C.ar  1 <1>   0.2970 
  3 C       -8.6790    -1.5370    -0.2490 C.2   1 <1>  -0.1400 
  4 N       -5.1460    -1.8650    -1.6970 N.ar  1 <1>  -0.5670 
  5 C       -6.6240    -0.4230    -0.4770 C.ar  1 <1>   0.0000 
  6 C       -7.9700    -0.4280     0.0370 C.2   1 <1>  -0.1500 
  7 C      -10.0940    -1.9890     0.0660 C.3   1 <1>   0.0200 
  8 C       -4.2620    -0.9000    -1.5300 C.ar  1 <1>   0.4700 
  9 C       -5.5990     0.5230    -0.4020 C.ar  1 <1>   0.4100 
 10 C      -10.8660    -0.9440     0.8750 C.3   1 <1>  -0.2400 
 11 N       -4.4080     0.2680    -0.9180 N.ar  1 <1>  -0.6200 
 12 N       -5.7830     1.7530     0.1940 N.pl3 1 <1>  -0.8380 
 13 C       -6.8330     2.6790    -0.3050 C.3   1 <1>   0.2090 
 14 C       -4.6910     2.3930     0.9770 C.3   1 <1>   0.2090 
 15 C       -6.1910     3.8060    -1.1210 C.3   1 <1>  -0.1600 
 16 C       -4.0500     3.5240     0.1650 C.3   1 <1>  -0.1600 
 17 C       -5.0940     4.5330    -0.3310 C.3   1 <1>  -0.1600 
 18 H       -8.3230     0.4130     0.6050 H     1 <1>   0.1500 
 19 H      -10.0500    -2.9100     0.6210 H     1 <1>   0.0800 
 20 H      -10.6130    -2.1810    -0.8570 H     1 <1>   0.0800 
 21 H       -3.2870    -1.0830    -1.9500 H     1 <1>   0.1500 
 22 H      -10.3690    -0.7560     1.8110 H     1 <1>   0.0800 
 23 H      -11.8610    -1.2980     1.0790 H     1 <1>   0.0800 
 24 H      -10.9350    -0.0230     0.3240 H     1 <1>   0.0800 
 25 H       -7.3650     3.0910     0.5350 H     1 <1>   0.0800 
 26 H       -7.5330     2.1480    -0.9250 H     1 <1>   0.0800 
 27 H       -3.9450     1.6610     1.2370 H     1 <1>   0.0800 
 28 H       -5.1030     2.7870     1.8900 H     1 <1>   0.0800 
 29 H       -6.9510     4.5070    -1.4170 H     1 <1>   0.0800 
 30 H       -5.7690     3.3800    -2.0150 H     1 <1>   0.0800 
 31 H       -3.5380     3.0880    -0.6750 H     1 <1>   0.0800 
 32 H       -3.3180     4.0250     0.7720 H     1 <1>   0.0800 
 33 H       -5.5330     5.0400     0.5110 H     1 <1>   0.0800 
 34 H       -4.6200     5.2680    -0.9580 H     1 <1>   0.0800 
@<TRIPOS>BOND
  1   1   2  1   
  2   1   3  1   
  3   2   4  ar  
  4   2   5  ar  
  5   3   6  2   
  6   3   7  1   
  7   4   8  ar  
  8   5   6  1   
  9   5   9  ar  
 10   6  18  1   
 11   7  10  1   
 12   7  19  1   
 13   7  20  1   
 14   8  11  ar  
 15   8  21  1   
 16   9  11  ar  
 17   9  12  1   
 18  10  22  1   
 19  10  23  1   
 20  10  24  1   
 21  12  13  1   
 22  12  14  1   
 23  13  15  1   
 24  13  25  1   
 25  13  26  1   
 26  14  16  1   
 27  14  27  1   
 28  14  28  1   
 29  15  17  1   
 30  15  29  1   
 31  15  30  1   
 32  16  17  1   
 33  16  31  1   
 34  16  32  1   
 35  17  33  1   
 36  17  34  1   
@<TRIPOS>SUBSTRUCTURE
  1 ****   5 GROUP 4 **** **** 0

# MOE 2024.06 (io_trps.svl 2023.06)
