@<TRIPOS>MOLECULE
NONAME
36 37 1 0 0 
SMALL
USER_CHARGES


@<TRIPOS>ATOM
  1 O        0.0130    -0.4810    -0.6540 O.3   1 <1>  -0.6800 
  2 C        1.0950    -0.8230     0.1200 C.3   1 <1>   0.2000 
  3 C        2.2620     0.0820    -0.2680 C.3   1 <1>  -0.1600 
  4 C        1.4040    -2.2890    -0.1690 C.3   1 <1>  -0.1600 
  5 C        3.5610    -0.3920     0.3800 C.3   1 <1>   0.3430 
  6 C        2.7130    -2.7100     0.4880 C.3   1 <1>   0.3430 
  7 N        3.8200    -1.8210     0.0280 N.4   1 <1>  -0.9590 
  8 C        5.1320    -2.3290     0.5400 C.3   1 <1>   0.3430 
  9 C        6.3330    -1.6190    -0.1070 C.3   1 <1>  -0.0800 
 10 C        7.4320    -2.6530    -0.4270 C.3   1 <1>  -0.0220 
 11 C        6.9090    -0.5040     0.7950 C.3   1 <1>  -0.1600 
 12 C        8.7190    -1.9690    -0.8490 C.2   1 <1>  -0.2880 
 13 C        8.0300     0.2690     0.0820 C.3   1 <1>  -0.0220 
 14 C        8.9770    -0.6770    -0.6330 C.2   1 <1>  -0.2880 
 15 H       -0.3290     0.4080    -0.4270 H     1 <1>   0.4000 
 16 H        0.8260    -0.6900     1.1560 H     1 <1>   0.0800 
 17 H        2.0600     1.0880     0.0530 H     1 <1>   0.0800 
 18 H        2.3860     0.0870    -1.3370 H     1 <1>   0.0800 
 19 H        1.4690    -2.4530    -1.2300 H     1 <1>   0.0800 
 20 H        0.6060    -2.9010     0.2140 H     1 <1>   0.0800 
 21 H        3.4930    -0.2870     1.4510 H     1 <1>   0.0800 
 22 H        4.3700     0.2270     0.0280 H     1 <1>   0.0800 
 23 H        2.9280    -3.7340     0.2250 H     1 <1>   0.0800 
 24 H        2.6150    -2.6490     1.5600 H     1 <1>   0.0800 
 25 H        3.8430    -1.8790    -1.0010 H     1 <1>   0.4500 
 26 H        5.2020    -3.3810     0.3140 H     1 <1>   0.0800 
 27 H        5.1830    -2.2230     1.6120 H     1 <1>   0.0800 
 28 H        6.0330    -1.1840    -1.0450 H     1 <1>   0.0800 
 29 H        7.1000    -3.2950    -1.2250 H     1 <1>   0.0800 
 30 H        7.6440    -3.2660     0.4330 H     1 <1>   0.0800 
 31 H        7.3210    -0.9500     1.6850 H     1 <1>   0.0800 
 32 H        6.1540     0.1940     1.1020 H     1 <1>   0.0800 
 33 H        9.4170    -2.6290    -1.3410 H     1 <1>   0.1500 
 34 H        8.5790     0.8460     0.8060 H     1 <1>   0.0800 
 35 H        7.6130     0.9510    -0.6390 H     1 <1>   0.0800 
 36 H        9.8910    -0.2020    -0.9540 H     1 <1>   0.1500 
@<TRIPOS>BOND
  1   1   2  1   
  2   1  15  1   
  3   2   3  1   
  4   2   4  1   
  5   2  16  1   
  6   3   5  1   
  7   3  17  1   
  8   3  18  1   
  9   4   6  1   
 10   4  19  1   
 11   4  20  1   
 12   5   7  1   
 13   5  21  1   
 14   5  22  1   
 15   6   7  1   
 16   6  23  1   
 17   6  24  1   
 18   7   8  1   
 19   7  25  1   
 20   8   9  1   
 21   8  26  1   
 22   8  27  1   
 23   9  10  1   
 24   9  11  1   
 25   9  28  1   
 26  10  12  1   
 27  10  29  1   
 28  10  30  1   
 29  11  13  1   
 30  11  31  1   
 31  11  32  1   
 32  12  14  2   
 33  12  33  1   
 34  13  14  1   
 35  13  34  1   
 36  13  35  1   
 37  14  36  1   
@<TRIPOS>SUBSTRUCTURE
  1 ****   7 GROUP 4 **** **** 0

# MOE 2024.06 (io_trps.svl 2023.06)
