@<TRIPOS>MOLECULE
NONAME
44 45 1 0 0 
SMALL
USER_CHARGES


@<TRIPOS>ATOM
  1 O        1.4780    -2.9820    -0.4430 O.2   1 <1>  -0.5700 
  2 C        1.1820    -2.5310     0.6460 C.2   1 <1>   0.6900 
  3 N        2.1840    -2.1910     1.5070 N.am  1 <1>  -0.6600 
  4 N       -0.0990    -2.3030     1.0410 N.am  1 <1>  -0.5470 
  5 C        3.3750    -3.0880     1.5580 C.3   1 <1>   0.1400 
  6 C        2.5420    -0.7480     1.5700 C.3   1 <1>   0.1400 
  7 C       -1.3200    -2.4170     0.3570 C.ar  1 <1>   0.1170 
  8 C        4.3640    -2.7380     0.4270 C.3   1 <1>   0.3430 
  9 C        3.5280    -0.3960     0.4340 C.3   1 <1>   0.3430 
 10 C       -2.4910    -2.5280     1.1000 C.ar  1 <1>  -0.1500 
 11 C       -1.4190    -2.4060    -1.0310 C.ar  1 <1>  -0.1500 
 12 N        4.7540    -1.2800     0.4390 N.4   1 <1>  -0.9590 
 13 C       -3.7250    -2.6270     0.4830 C.ar  1 <1>  -0.1500 
 14 C       -2.6500    -2.5050    -1.6530 C.ar  1 <1>  -0.1500 
 15 C        5.6480    -0.9900    -0.7150 C.3   1 <1>   0.3430 
 16 C       -3.8100    -2.6150    -0.9060 C.ar  1 <1>   0.0830 
 17 C        6.3380     0.3640    -0.5340 C.3   1 <1>  -0.1600 
 18 O       -4.9780    -2.7060    -1.5970 O.3   1 <1>  -0.3630 
 19 C        7.3440     0.6180    -1.6630 C.3   1 <1>  -0.2400 
 20 C       -6.2090    -2.8480    -0.9240 C.3   1 <1>   0.0400 
 21 H       -0.1770    -2.1250     2.0380 H     1 <1>   0.3700 
 22 H        3.0550    -4.1110     1.4410 H     1 <1>   0.0800 
 23 H        3.8550    -3.0010     2.5160 H     1 <1>   0.0800 
 24 H        2.9810    -0.5240     2.5270 H     1 <1>   0.0800 
 25 H        1.6540    -0.1470     1.4650 H     1 <1>   0.0800 
 26 H        3.8930    -2.9780    -0.5130 H     1 <1>   0.0800 
 27 H        5.2420    -3.3550     0.5220 H     1 <1>   0.0800 
 28 H        3.8170     0.6370     0.5290 H     1 <1>   0.0800 
 29 H        3.0100    -0.5090    -0.5050 H     1 <1>   0.0800 
 30 H       -2.4410    -2.5410     2.1730 H     1 <1>   0.1500 
 31 H       -0.5380    -2.3190    -1.6380 H     1 <1>   0.1500 
 32 H        5.2780    -1.1000     1.3040 H     1 <1>   0.4500 
 33 H       -4.6030    -2.7120     1.0930 H     1 <1>   0.1500 
 34 H       -2.7190    -2.4970    -2.7260 H     1 <1>   0.1500 
 35 H        5.0820    -0.9960    -1.6340 H     1 <1>   0.0800 
 36 H        6.4050    -1.7550    -0.7860 H     1 <1>   0.0800 
 37 H        6.8650     0.3840     0.4040 H     1 <1>   0.0800 
 38 H        5.6150     1.1600    -0.5440 H     1 <1>   0.0800 
 39 H        8.1080    -0.1410    -1.6740 H     1 <1>   0.0800 
 40 H        7.8220     1.5720    -1.5210 H     1 <1>   0.0800 
 41 H        6.8520     0.6280    -2.6210 H     1 <1>   0.0800 
 42 H       -6.9870    -2.9110    -1.6640 H     1 <1>   0.0800 
 43 H       -6.3660    -1.9870    -0.3000 H     1 <1>   0.0800 
 44 H       -6.1850    -3.7520    -0.3410 H     1 <1>   0.0800 
@<TRIPOS>BOND
  1   1   2  2   
  2   2   3  am  
  3   2   4  am  
  4   3   5  1   
  5   3   6  1   
  6   4   7  1   
  7   4  21  1   
  8   5   8  1   
  9   5  22  1   
 10   5  23  1   
 11   6   9  1   
 12   6  24  1   
 13   6  25  1   
 14   7  10  ar  
 15   7  11  ar  
 16   8  12  1   
 17   8  26  1   
 18   8  27  1   
 19   9  12  1   
 20   9  28  1   
 21   9  29  1   
 22  10  13  ar  
 23  10  30  1   
 24  11  14  ar  
 25  11  31  1   
 26  12  15  1   
 27  12  32  1   
 28  13  16  ar  
 29  13  33  1   
 30  14  16  ar  
 31  14  34  1   
 32  15  17  1   
 33  15  35  1   
 34  15  36  1   
 35  16  18  1   
 36  17  19  1   
 37  17  37  1   
 38  17  38  1   
 39  18  20  1   
 40  19  39  1   
 41  19  40  1   
 42  19  41  1   
 43  20  42  1   
 44  20  43  1   
 45  20  44  1   
@<TRIPOS>SUBSTRUCTURE
  1 ****   2 GROUP 4 **** **** 0

# MOE 2024.06 (io_trps.svl 2023.06)
