@<TRIPOS>MOLECULE
NONAME
55 57 1 0 0 
SMALL
USER_CHARGES


@<TRIPOS>ATOM
  1 O       -1.3790     0.6920    -0.3900 O.2   1 <1>  -0.5700 
  2 C       -1.1560     1.5930    -1.1740 C.2   1 <1>   0.6900 
  3 N       -2.1160     1.9170    -2.0890 N.am  1 <1>  -0.6600 
  4 N       -0.0240     2.3430    -1.1500 N.am  1 <1>  -0.5470 
  5 C       -2.9860     0.8180    -2.5960 C.3   1 <1>   0.1400 
  6 C       -2.8520     3.1930    -1.8750 C.3   1 <1>   0.1400 
  7 C        1.0880     2.4140    -0.2910 C.ar  1 <1>   0.1170 
  8 C       -4.1620     0.5840    -1.6270 C.3   1 <1>   0.3430 
  9 C       -4.0310     2.9600    -0.9060 C.3   1 <1>   0.3430 
 10 C        2.1060     3.3180    -0.6180 C.ar  1 <1>   0.0820 
 11 C        1.2220     1.6410     0.8560 C.ar  1 <1>  -0.1500 
 12 N       -4.9480     1.8480    -1.3650 N.4   1 <1>  -0.9590 
 13 O        1.9330     4.0650    -1.7540 O.3   1 <1>  -0.3620 
 14 C        3.2270     3.4310     0.1980 C.ar  1 <1>  -0.1500 
 15 C        2.3360     1.7530     1.6690 C.ar  1 <1>   0.0820 
 16 C       -6.0250     1.5610    -0.3660 C.3   1 <1>   0.3430 
 17 C        2.9500     4.9290    -2.2140 C.3   1 <1>   0.0400 
 18 C        3.3440     2.6520     1.3360 C.ar  1 <1>  -0.1500 
 19 O        2.3710     0.9540     2.7680 O.3   1 <1>  -0.3620 
 20 C       -7.0240     2.7140    -0.2410 C.3   1 <1>  -0.0170 
 21 C        3.4740     0.9680     3.6470 C.3   1 <1>   0.0400 
 22 C       -8.1400     2.2830     0.6910 C.ar  1 <1>  -0.1440 
 23 C       -9.3020     1.7230     0.1800 C.ar  1 <1>  -0.1500 
 24 C       -8.0030     2.4370     2.0630 C.ar  1 <1>  -0.1500 
 25 C      -10.3130     1.3160     1.0330 C.ar  1 <1>  -0.1500 
 26 C       -9.0140     2.0280     2.9150 C.ar  1 <1>  -0.1500 
 27 C      -10.1690     1.4670     2.4010 C.ar  1 <1>  -0.1500 
 28 H        0.0910     2.9440    -1.9660 H     1 <1>   0.3700 
 29 H       -2.4080    -0.0880    -2.6770 H     1 <1>   0.0800 
 30 H       -3.3500     1.0640    -3.5780 H     1 <1>   0.0800 
 31 H       -3.2100     3.5680    -2.8180 H     1 <1>   0.0800 
 32 H       -2.1900     3.9320    -1.4560 H     1 <1>   0.0800 
 33 H       -3.7580     0.2100    -0.6990 H     1 <1>   0.0800 
 34 H       -4.8090    -0.1760    -2.0330 H     1 <1>   0.0800 
 35 H       -4.5860     3.8780    -0.8050 H     1 <1>   0.0800 
 36 H       -3.6240     2.7120     0.0610 H     1 <1>   0.0800 
 37 H        0.4640     0.9370     1.1370 H     1 <1>   0.1500 
 38 H       -5.3850     2.1310    -2.2510 H     1 <1>   0.4500 
 39 H        4.0210     4.1160    -0.0300 H     1 <1>   0.1500 
 40 H       -5.5880     1.3630     0.6000 H     1 <1>   0.0800 
 41 H       -6.5680     0.6790    -0.6650 H     1 <1>   0.0800 
 42 H        2.6190     5.3770    -3.1340 H     1 <1>   0.0800 
 43 H        3.8440     4.3560    -2.3900 H     1 <1>   0.0800 
 44 H        3.1200     5.6950    -1.4780 H     1 <1>   0.0800 
 45 H        4.2190     2.7600     1.9480 H     1 <1>   0.1500 
 46 H       -7.4380     2.9560    -1.2030 H     1 <1>   0.0800 
 47 H       -6.5510     3.5900     0.1640 H     1 <1>   0.0800 
 48 H        3.2850     0.2540     4.4280 H     1 <1>   0.0800 
 49 H        3.5730     1.9530     4.0680 H     1 <1>   0.0800 
 50 H        4.3580     0.6880     3.1010 H     1 <1>   0.0800 
 51 H       -9.4380     1.6000    -0.8800 H     1 <1>   0.1500 
 52 H       -7.1160     2.8750     2.4850 H     1 <1>   0.1500 
 53 H      -11.2150     0.8830     0.6350 H     1 <1>   0.1500 
 54 H       -8.9060     2.1490     3.9790 H     1 <1>   0.1500 
 55 H      -10.9560     1.1500     3.0640 H     1 <1>   0.1500 
@<TRIPOS>BOND
  1   1   2  2   
  2   2   3  am  
  3   2   4  am  
  4   3   5  1   
  5   3   6  1   
  6   4   7  1   
  7   4  28  1   
  8   5   8  1   
  9   5  29  1   
 10   5  30  1   
 11   6   9  1   
 12   6  31  1   
 13   6  32  1   
 14   7  10  ar  
 15   7  11  ar  
 16   8  12  1   
 17   8  33  1   
 18   8  34  1   
 19   9  12  1   
 20   9  35  1   
 21   9  36  1   
 22  10  13  1   
 23  10  14  ar  
 24  11  15  ar  
 25  11  37  1   
 26  12  16  1   
 27  12  38  1   
 28  13  17  1   
 29  14  18  ar  
 30  14  39  1   
 31  15  18  ar  
 32  15  19  1   
 33  16  20  1   
 34  16  40  1   
 35  16  41  1   
 36  17  42  1   
 37  17  43  1   
 38  17  44  1   
 39  18  45  1   
 40  19  21  1   
 41  20  22  1   
 42  20  46  1   
 43  20  47  1   
 44  21  48  1   
 45  21  49  1   
 46  21  50  1   
 47  22  23  ar  
 48  22  24  ar  
 49  23  25  ar  
 50  23  51  1   
 51  24  26  ar  
 52  24  52  1   
 53  25  27  ar  
 54  25  53  1   
 55  26  27  ar  
 56  26  54  1   
 57  27  55  1   
@<TRIPOS>SUBSTRUCTURE
  1 ****   1 GROUP 4 **** **** 0

# MOE 2024.06 (io_trps.svl 2023.06)
