@<TRIPOS>MOLECULE
NONAME
41 42 1 0 0 
SMALL
USER_CHARGES


@<TRIPOS>ATOM
  1 CL       0.2310     0.0480     0.7980 Cl    1 <1>  -0.1770 
  2 C        1.8170     0.7170     0.5010 C.ar  1 <1>   0.1770 
  3 C        1.9310     1.9010    -0.2040 C.ar  1 <1>  -0.1500 
  4 C        2.9320     0.0520     0.9760 C.ar  1 <1>  -0.1500 
  5 C        3.1910     2.4270    -0.4360 C.ar  1 <1>  -0.1500 
  6 C        4.1910     0.5810     0.7420 C.ar  1 <1>  -0.1500 
  7 C        4.3230     1.7750     0.0320 C.ar  1 <1>   0.0830 
  8 O        5.5150     2.3620    -0.2420 O.3   1 <1>  -0.3630 
  9 C        6.7300     1.7920     0.1780 C.3   1 <1>   0.1200 
 10 C        7.8560     2.7110    -0.3000 C.3   1 <1>  -0.1600 
 11 C        9.2410     2.1800     0.1000 C.3   1 <1>  -0.1600 
 12 C       10.3370     3.1290    -0.3910 C.3   1 <1>   0.3430 
 13 N       11.6750     2.6780     0.0810 N.4   1 <1>  -0.9590 
 14 C       12.6700     3.7840    -0.0460 C.3   1 <1>   0.3430 
 15 C       12.1440     1.4470    -0.6250 C.3   1 <1>   0.3430 
 16 C       14.0000     3.3600     0.5800 C.3   1 <1>  -0.1600 
 17 C       13.4630     0.9700    -0.0140 C.3   1 <1>  -0.1600 
 18 C       14.5350     2.0660    -0.0470 C.3   1 <1>  -0.1600 
 19 H        1.0490     2.3990    -0.5630 H     1 <1>   0.1500 
 20 H        2.8110    -0.8660     1.5210 H     1 <1>   0.1500 
 21 H        3.3030     3.3460    -0.9830 H     1 <1>   0.1500 
 22 H        5.0470     0.0530     1.1170 H     1 <1>   0.1500 
 23 H        6.8140     0.8130    -0.2620 H     1 <1>   0.0800 
 24 H        6.7170     1.7220     1.2530 H     1 <1>   0.0800 
 25 H        7.7030     3.6870     0.1280 H     1 <1>   0.0800 
 26 H        7.7950     2.7940    -1.3730 H     1 <1>   0.0800 
 27 H        9.3710     1.2030    -0.3310 H     1 <1>   0.0800 
 28 H        9.2860     2.0990     1.1730 H     1 <1>   0.0800 
 29 H       10.1340     4.1150    -0.0050 H     1 <1>   0.0800 
 30 H       10.3230     3.1830    -1.4680 H     1 <1>   0.0800 
 31 H       11.6060     2.4520     1.0820 H     1 <1>   0.4500 
 32 H       12.3070     4.6690     0.4530 H     1 <1>   0.0800 
 33 H       12.8230     4.0200    -1.0870 H     1 <1>   0.0800 
 34 H       12.2900     1.6600    -1.6720 H     1 <1>   0.0800 
 35 H       11.4100     0.6620    -0.5380 H     1 <1>   0.0800 
 36 H       13.8700     3.2280     1.6410 H     1 <1>   0.0800 
 37 H       14.7210     4.1470     0.4410 H     1 <1>   0.0800 
 38 H       13.8150     0.1130    -0.5620 H     1 <1>   0.0800 
 39 H       13.2930     0.6530     1.0010 H     1 <1>   0.0800 
 40 H       15.4130     1.7370     0.4840 H     1 <1>   0.0800 
 41 H       14.8240     2.2550    -1.0680 H     1 <1>   0.0800 
@<TRIPOS>BOND
  1   1   2  1   
  2   2   3  ar  
  3   2   4  ar  
  4   3   5  ar  
  5   3  19  1   
  6   4   6  ar  
  7   4  20  1   
  8   5   7  ar  
  9   5  21  1   
 10   6   7  ar  
 11   6  22  1   
 12   7   8  1   
 13   8   9  1   
 14   9  10  1   
 15   9  23  1   
 16   9  24  1   
 17  10  11  1   
 18  10  25  1   
 19  10  26  1   
 20  11  12  1   
 21  11  27  1   
 22  11  28  1   
 23  12  13  1   
 24  12  29  1   
 25  12  30  1   
 26  13  14  1   
 27  13  15  1   
 28  13  31  1   
 29  14  16  1   
 30  14  32  1   
 31  14  33  1   
 32  15  17  1   
 33  15  34  1   
 34  15  35  1   
 35  16  18  1   
 36  16  36  1   
 37  16  37  1   
 38  17  18  1   
 39  17  38  1   
 40  17  39  1   
 41  18  40  1   
 42  18  41  1   
@<TRIPOS>SUBSTRUCTURE
  1 ****   9 GROUP 4 **** **** 0

# MOE 2024.06 (io_trps.svl 2023.06)
