@<TRIPOS>MOLECULE
NONAME
53 56 1 0 0 
SMALL
USER_CHARGES


@<TRIPOS>ATOM
  1 O        1.9440     0.0090     1.1640 O.2   1 <1>  -0.5700 
  2 C        2.0730     1.1770     0.8140 C.2   1 <1>   0.5440 
  3 N        3.3190     1.6730     0.4600 N.am  1 <1>  -0.2980 
  4 C        0.9560     2.0790     0.7690 C.ar  1 <1>   0.0860 
  5 N        3.5640     2.9890     0.1890 N.2   1 <1>  -0.5120 
  6 C        4.5110     0.7750     0.3780 C.3   1 <1>   0.2010 
  7 C        1.2060     3.4170     0.4300 C.ar  1 <1>   0.0860 
  8 C       -0.3540     1.6710     1.0410 C.ar  1 <1>  -0.1500 
  9 C        2.5700     3.8230     0.1840 C.2   1 <1>   0.2780 
 10 C        4.3590    -0.3800    -0.6190 C.2   1 <1>   0.5690 
 11 C        0.1120     4.2920     0.3430 C.ar  1 <1>  -0.1500 
 12 C       -1.4080     2.5540     0.9630 C.ar  1 <1>  -0.1500 
 13 C        2.8530     5.2130    -0.0790 C.ar  1 <1>   0.0860 
 14 O        4.2900    -0.1010    -1.7940 O.2   1 <1>  -0.5700 
 15 N        4.3330    -1.7060    -0.2320 N.am  1 <1>  -0.6600 
 16 C       -1.1720     3.8720     0.6070 C.ar  1 <1>  -0.1500 
 17 C        2.7340     6.1810     0.9180 C.ar  1 <1>  -0.1500 
 18 C        3.2540     5.6350    -1.3450 C.ar  1 <1>  -0.1500 
 19 C        3.9930    -2.2010     1.1390 C.3   1 <1>   0.1400 
 20 C        4.3120    -2.7890    -1.2630 C.3   1 <1>   0.1400 
 21 C        2.9850     7.5150     0.6560 C.ar  1 <1>  -0.1500 
 22 C        3.5050     6.9680    -1.6110 C.ar  1 <1>  -0.1500 
 23 C        2.6320    -2.9310     1.1270 C.3   1 <1>   0.3430 
 24 C        2.9320    -3.4690    -1.2820 C.3   1 <1>   0.3430 
 25 C        3.3680     7.9180    -0.6120 C.ar  1 <1>  -0.1440 
 26 N        2.5570    -4.0120     0.0750 N.4   1 <1>  -0.9590 
 27 C        3.6460     9.3820    -0.9020 C.3   1 <1>  -0.0970 
 28 C        1.1900    -4.6120     0.0420 C.3   1 <1>   0.2630 
 29 H        4.7450     0.4180     1.3590 H     1 <1>   0.0800 
 30 H        5.3500     1.3620     0.0510 H     1 <1>   0.0800 
 31 H       -0.5390     0.6470     1.3130 H     1 <1>   0.1500 
 32 H        0.2650     5.3200     0.0610 H     1 <1>   0.1500 
 33 H       -2.4130     2.2280     1.1740 H     1 <1>   0.1500 
 34 H       -1.9970     4.5620     0.5380 H     1 <1>   0.1500 
 35 H        2.4450     5.8790     1.9090 H     1 <1>   0.1500 
 36 H        3.3710     4.9020    -2.1240 H     1 <1>   0.1500 
 37 H        3.9370    -1.3930     1.8450 H     1 <1>   0.0800 
 38 H        4.7630    -2.8720     1.4770 H     1 <1>   0.0800 
 39 H        5.0770    -3.5120    -1.0400 H     1 <1>   0.0800 
 40 H        4.5230    -2.3940    -2.2420 H     1 <1>   0.0800 
 41 H        2.8840     8.2410     1.4440 H     1 <1>   0.1500 
 42 H        3.8130     7.2640    -2.5990 H     1 <1>   0.1500 
 43 H        1.8590    -2.2040     0.9400 H     1 <1>   0.0800 
 44 H        2.4500    -3.3530     2.1010 H     1 <1>   0.0800 
 45 H        2.9410    -4.2650    -2.0080 H     1 <1>   0.0800 
 46 H        2.2040    -2.7390    -1.5970 H     1 <1>   0.0800 
 47 H        3.2390    -4.7420     0.3230 H     1 <1>   0.4500 
 48 H        3.4160     9.6130    -1.9270 H     1 <1>   0.0800 
 49 H        4.6830     9.5980    -0.7220 H     1 <1>   0.0800 
 50 H        3.0450    10.0120    -0.2710 H     1 <1>   0.0800 
 51 H        0.4590    -3.8600    -0.2130 H     1 <1>   0.0800 
 52 H        0.9370    -5.0230     1.0060 H     1 <1>   0.0800 
 53 H        1.1430    -5.4010    -0.6910 H     1 <1>   0.0800 
@<TRIPOS>BOND
  1   1   2  2   
  2   2   3  am  
  3   2   4  1   
  4   3   5  1   
  5   3   6  1   
  6   4   7  ar  
  7   4   8  ar  
  8   5   9  2   
  9   6  10  1   
 10   6  29  1   
 11   6  30  1   
 12   7   9  1   
 13   7  11  ar  
 14   8  12  ar  
 15   8  31  1   
 16   9  13  1   
 17  10  14  2   
 18  10  15  am  
 19  11  16  ar  
 20  11  32  1   
 21  12  16  ar  
 22  12  33  1   
 23  13  17  ar  
 24  13  18  ar  
 25  15  19  1   
 26  15  20  1   
 27  16  34  1   
 28  17  21  ar  
 29  17  35  1   
 30  18  22  ar  
 31  18  36  1   
 32  19  23  1   
 33  19  37  1   
 34  19  38  1   
 35  20  24  1   
 36  20  39  1   
 37  20  40  1   
 38  21  25  ar  
 39  21  41  1   
 40  22  25  ar  
 41  22  42  1   
 42  23  26  1   
 43  23  43  1   
 44  23  44  1   
 45  24  26  1   
 46  24  45  1   
 47  24  46  1   
 48  25  27  1   
 49  26  28  1   
 50  26  47  1   
 51  27  48  1   
 52  27  49  1   
 53  27  50  1   
 54  28  51  1   
 55  28  52  1   
 56  28  53  1   
@<TRIPOS>SUBSTRUCTURE
  1 ****   3 GROUP 4 **** **** 0

# MOE 2024.06 (io_trps.svl 2023.06)
