@<TRIPOS>MOLECULE
NONAME
40 42 1 0 0 
SMALL
USER_CHARGES


@<TRIPOS>ATOM
  1 CL      -0.6110    -2.2510     2.6590 Cl    1 <1>  -0.1770 
  2 C       -1.6270    -2.0900     1.2380 C.ar  1 <1>   0.1770 
  3 C       -1.1970    -2.5690    -0.0070 C.ar  1 <1>   0.1000 
  4 C       -2.8550    -1.4770     1.3970 C.ar  1 <1>  -0.1500 
  5 N        0.0340    -3.1990    -0.2340 N.pl3 1 <1>  -0.8380 
  6 C       -2.0560    -2.4050    -1.0870 C.ar  1 <1>  -0.1500 
  7 C       -3.6910    -1.3270     0.3030 C.ar  1 <1>  -0.1500 
  8 C        0.1960    -4.5590     0.3630 C.3   1 <1>   0.2090 
  9 C        1.2450    -2.3300    -0.1330 C.3   1 <1>   0.2090 
 10 C       -3.2880    -1.7920    -0.9370 C.ar  1 <1>  -0.1500 
 11 C        1.4500    -5.2610    -0.2000 C.3   1 <1>   0.3430 
 12 C        2.4890    -3.0520    -0.6900 C.3   1 <1>   0.3430 
 13 N        2.6920    -4.4150    -0.0700 N.4   1 <1>  -0.9590 
 14 C        3.8920    -5.1080    -0.6070 C.3   1 <1>   0.4860 
 15 C        5.1330    -4.3040    -0.2650 C.ar  1 <1>  -0.1430 
 16 C        5.5210    -4.1430     1.0590 C.ar  1 <1>   0.1900 
 17 C        5.9100    -3.7190    -1.2600 C.ar  1 <1>  -0.1500 
 18 F        4.7880    -4.6800     1.9980 F     1 <1>  -0.1900 
 19 C        6.6420    -3.4270     1.4310 C.ar  1 <1>  -0.1500 
 20 C        7.0410    -2.9920    -0.9190 C.ar  1 <1>  -0.1500 
 21 C        7.3850    -2.8590     0.4160 C.ar  1 <1>   0.1900 
 22 F        8.4490    -2.1720     0.7250 F     1 <1>  -0.1900 
 23 H       -3.1540    -1.1200     2.3660 H     1 <1>   0.1500 
 24 H       -1.7500    -2.7640    -2.0530 H     1 <1>   0.1500 
 25 H       -4.6500    -0.8500     0.4160 H     1 <1>   0.1500 
 26 H       -0.6760    -5.1490     0.1380 H     1 <1>   0.0800 
 27 H        0.2750    -4.4850     1.4330 H     1 <1>   0.0800 
 28 H        1.4190    -2.0550     0.8920 H     1 <1>   0.0800 
 29 H        1.0780    -1.4240    -0.6920 H     1 <1>   0.0800 
 30 H       -3.9370    -1.6760    -1.7890 H     1 <1>   0.1500 
 31 H        1.2680    -5.4800    -1.2390 H     1 <1>   0.0800 
 32 H        1.5850    -6.1970     0.3170 H     1 <1>   0.0800 
 33 H        3.3560    -2.4350    -0.5170 H     1 <1>   0.0800 
 34 H        2.3650    -3.1550    -1.7550 H     1 <1>   0.0800 
 35 H        2.8660    -4.2680     0.9360 H     1 <1>   0.4500 
 36 H        3.8090    -5.2210    -1.6760 H     1 <1>   0.0800 
 37 H        3.9780    -6.0890    -0.1670 H     1 <1>   0.0800 
 38 H        5.6530    -3.8240    -2.3030 H     1 <1>   0.1500 
 39 H        6.9280    -3.3130     2.4610 H     1 <1>   0.1500 
 40 H        7.6570    -2.5320    -1.6740 H     1 <1>   0.1500 
@<TRIPOS>BOND
  1   1   2  1   
  2   2   3  ar  
  3   2   4  ar  
  4   3   5  1   
  5   3   6  ar  
  6   4   7  ar  
  7   4  23  1   
  8   5   8  1   
  9   5   9  1   
 10   6  10  ar  
 11   6  24  1   
 12   7  10  ar  
 13   7  25  1   
 14   8  11  1   
 15   8  26  1   
 16   8  27  1   
 17   9  12  1   
 18   9  28  1   
 19   9  29  1   
 20  10  30  1   
 21  11  13  1   
 22  11  31  1   
 23  11  32  1   
 24  12  13  1   
 25  12  33  1   
 26  12  34  1   
 27  13  14  1   
 28  13  35  1   
 29  14  15  1   
 30  14  36  1   
 31  14  37  1   
 32  15  16  ar  
 33  15  17  ar  
 34  16  18  1   
 35  16  19  ar  
 36  17  20  ar  
 37  17  38  1   
 38  19  21  ar  
 39  19  39  1   
 40  20  21  ar  
 41  20  40  1   
 42  21  22  1   
@<TRIPOS>SUBSTRUCTURE
  1 ****  12 GROUP 4 **** **** 0

# MOE 2024.06 (io_trps.svl 2023.06)
