@<TRIPOS>MOLECULE
NONAME
39 40 1 0 0 
SMALL
USER_CHARGES


@<TRIPOS>ATOM
  1 BR       0.4060    -0.4380     2.2110 Br    1 <1>  -0.1110 
  2 C        2.1370    -0.8160     1.4570 C.ar  1 <1>   0.1110 
  3 C        2.2760    -1.9100     0.6240 C.ar  1 <1>  -0.1500 
  4 C        3.1950     0.0170     1.7680 C.ar  1 <1>  -0.1500 
  5 C        3.5220    -2.1800     0.0820 C.ar  1 <1>  -0.1500 
  6 C        4.4350    -0.2620     1.2210 C.ar  1 <1>  -0.1500 
  7 C        4.6070    -1.3530     0.3790 C.ar  1 <1>   0.0830 
  8 O        5.8620    -1.5380    -0.1040 O.3   1 <1>  -0.3630 
  9 C        6.2160    -2.5760    -1.0130 C.3   1 <1>   0.2610 
 10 C        7.7170    -2.9200    -0.9260 C.2   1 <1>   0.5690 
 11 C        5.7800    -2.1810    -2.4340 C.3   1 <1>  -0.2400 
 12 O        7.9780    -4.1040    -0.9050 O.2   1 <1>  -0.5700 
 13 N        8.7300    -1.9780    -0.8890 N.am  1 <1>  -0.6600 
 14 C        8.5360    -0.5050    -0.9410 C.3   1 <1>   0.1400 
 15 C       10.1420    -2.4100    -0.7010 C.3   1 <1>   0.1400 
 16 C        8.8000     0.1360     0.4260 C.3   1 <1>  -0.1600 
 17 C       10.4640    -2.4620     0.7960 C.3   1 <1>  -0.1600 
 18 C       10.2900     0.1660     0.8010 C.3   1 <1>  -0.1600 
 19 C       10.8160    -1.1180     1.4640 C.3   1 <1>  -0.1600 
 20 H        1.4280    -2.5340     0.4070 H     1 <1>   0.1500 
 21 H        3.0500     0.8590     2.4210 H     1 <1>   0.1500 
 22 H        3.6210    -3.0320    -0.5630 H     1 <1>   0.1500 
 23 H        5.2800     0.3640     1.4440 H     1 <1>   0.1500 
 24 H        5.6920    -3.4620    -0.7080 H     1 <1>   0.0800 
 25 H        6.3130    -1.3120    -2.7700 H     1 <1>   0.0800 
 26 H        4.7240    -1.9860    -2.4720 H     1 <1>   0.0800 
 27 H        5.9990    -2.9890    -3.1080 H     1 <1>   0.0800 
 28 H        7.5390    -0.2630    -1.2510 H     1 <1>   0.0800 
 29 H        9.2010    -0.0870    -1.6770 H     1 <1>   0.0800 
 30 H       10.8150    -1.7480    -1.2170 H     1 <1>   0.0800 
 31 H       10.2730    -3.3930    -1.1210 H     1 <1>   0.0800 
 32 H        8.2190    -0.3580     1.1860 H     1 <1>   0.0800 
 33 H        8.4540     1.1530     0.3710 H     1 <1>   0.0800 
 34 H       11.2960    -3.1290     0.9370 H     1 <1>   0.0800 
 35 H        9.6270    -2.9080     1.3060 H     1 <1>   0.0800 
 36 H       10.4490     0.9750     1.4930 H     1 <1>   0.0800 
 37 H       10.8770     0.3870    -0.0740 H     1 <1>   0.0800 
 38 H       11.8880    -1.0370     1.5170 H     1 <1>   0.0800 
 39 H       10.4600    -1.1510     2.4800 H     1 <1>   0.0800 
@<TRIPOS>BOND
  1   1   2  1   
  2   2   3  ar  
  3   2   4  ar  
  4   3   5  ar  
  5   3  20  1   
  6   4   6  ar  
  7   4  21  1   
  8   5   7  ar  
  9   5  22  1   
 10   6   7  ar  
 11   6  23  1   
 12   7   8  1   
 13   8   9  1   
 14   9  10  1   
 15   9  11  1   
 16   9  24  1   
 17  10  12  2   
 18  10  13  am  
 19  11  25  1   
 20  11  26  1   
 21  11  27  1   
 22  13  14  1   
 23  13  15  1   
 24  14  16  1   
 25  14  28  1   
 26  14  29  1   
 27  15  17  1   
 28  15  30  1   
 29  15  31  1   
 30  16  18  1   
 31  16  32  1   
 32  16  33  1   
 33  17  19  1   
 34  17  34  1   
 35  17  35  1   
 36  18  19  1   
 37  18  36  1   
 38  18  37  1   
 39  19  38  1   
 40  19  39  1   
@<TRIPOS>SUBSTRUCTURE
  1 ****   8 GROUP 4 **** **** 0

# MOE 2024.06 (io_trps.svl 2023.06)
