@<TRIPOS>MOLECULE
NONAME
49 51 1 0 0 
SMALL
USER_CHARGES


@<TRIPOS>ATOM
  1 O       -0.1880     1.1560     2.0010 O.2   1 <1>  -0.5700 
  2 C       -0.6660     2.0090     1.2910 C.2   1 <1>   0.5690 
  3 N        0.0240     2.7670     0.3830 N.am  1 <1>  -0.2370 
  4 C       -2.1390     2.4420     1.3780 C.3   1 <1>   0.2510 
  5 C        1.3610     2.5380    -0.0160 C.ar  1 <1>   0.1170 
  6 C       -0.7740     3.7910    -0.0490 C.2   1 <1>   0.5690 
  7 N       -3.1550     1.5220     0.7770 N.3   1 <1>  -0.8100 
  8 C       -2.1360     3.7610     0.5940 C.3   1 <1>  -0.0990 
  9 C        2.2790     3.5810    -0.0920 C.ar  1 <1>  -0.1500 
 10 C        1.7940     1.2570    -0.3440 C.ar  1 <1>  -0.1500 
 11 O       -0.4700     4.6610    -0.8240 O.2   1 <1>  -0.5700 
 12 C       -2.9450     0.1010     1.1150 C.3   1 <1>   0.1100 
 13 C       -4.5300     1.9460     1.1410 C.3   1 <1>   0.1100 
 14 C        3.5860     3.3520    -0.4820 C.ar  1 <1>  -0.1500 
 15 C        3.1010     1.0260    -0.7330 C.ar  1 <1>  -0.1500 
 16 C       -3.8270    -0.7930     0.2310 C.3   1 <1>  -0.1600 
 17 C       -5.5970     0.9020     0.7720 C.3   1 <1>  -0.1600 
 18 C        4.0060     2.0720    -0.8060 C.ar  1 <1>  -0.1430 
 19 C       -5.0940    -0.0870    -0.2930 C.3   1 <1>  -0.0190 
 20 C        5.4430     1.8190    -1.2340 C.3   1 <1>  -0.0170 
 21 C       -6.1520    -1.0940    -0.7360 C.2   1 <1>   0.6590 
 22 C        6.3150     1.4980    -0.0180 C.3   1 <1>  -0.2400 
 23 O       -7.1210    -1.3510    -0.0680 O.2   1 <1>  -0.5700 
 24 O       -5.9330    -1.6800    -1.9080 O.3   1 <1>  -0.4300 
 25 C       -6.8280    -2.6370    -2.4370 C.3   1 <1>   0.0400 
 26 H       -2.3720     2.6150     2.4150 H     1 <1>   0.0800 
 27 H       -2.2310     4.6020     1.2550 H     1 <1>   0.0800 
 28 H       -2.8890     3.8020    -0.1710 H     1 <1>   0.0800 
 29 H        1.9710     4.5820     0.1510 H     1 <1>   0.1500 
 30 H        1.1070     0.4320    -0.2890 H     1 <1>   0.1500 
 31 H       -3.1780    -0.0580     2.1550 H     1 <1>   0.0800 
 32 H       -1.9230    -0.1930     0.9520 H     1 <1>   0.0800 
 33 H       -4.7610     2.8610     0.6240 H     1 <1>   0.0800 
 34 H       -4.5910     2.1390     2.1990 H     1 <1>   0.0800 
 35 H        4.2760     4.1750    -0.5330 H     1 <1>   0.1500 
 36 H        3.4130     0.0250    -0.9770 H     1 <1>   0.1500 
 37 H       -4.1020    -1.6610     0.8050 H     1 <1>   0.0800 
 38 H       -3.2500    -1.1380    -0.6090 H     1 <1>   0.0800 
 39 H       -6.4820     1.4050     0.4230 H     1 <1>   0.0800 
 40 H       -5.8720     0.3560     1.6580 H     1 <1>   0.0800 
 41 H       -4.8210     0.4870    -1.1610 H     1 <1>   0.0800 
 42 H        5.8300     2.6870    -1.7380 H     1 <1>   0.0800 
 43 H        5.4750     0.9970    -1.9280 H     1 <1>   0.0800 
 44 H        6.3040     2.3220     0.6740 H     1 <1>   0.0800 
 45 H        7.3300     1.3180    -0.3270 H     1 <1>   0.0800 
 46 H        5.9440     0.6220     0.4840 H     1 <1>   0.0800 
 47 H       -6.4500    -2.9710    -3.3860 H     1 <1>   0.0800 
 48 H       -7.7940    -2.1770    -2.5620 H     1 <1>   0.0800 
 49 H       -6.8980    -3.4640    -1.7520 H     1 <1>   0.0800 
@<TRIPOS>BOND
  1   1   2  2   
  2   2   3  am  
  3   2   4  1   
  4   3   5  1   
  5   3   6  am  
  6   4   7  1   
  7   4   8  1   
  8   4  26  1   
  9   5   9  ar  
 10   5  10  ar  
 11   6   8  1   
 12   6  11  2   
 13   7  12  1   
 14   7  13  1   
 15   8  27  1   
 16   8  28  1   
 17   9  14  ar  
 18   9  29  1   
 19  10  15  ar  
 20  10  30  1   
 21  12  16  1   
 22  12  31  1   
 23  12  32  1   
 24  13  17  1   
 25  13  33  1   
 26  13  34  1   
 27  14  18  ar  
 28  14  35  1   
 29  15  18  ar  
 30  15  36  1   
 31  16  19  1   
 32  16  37  1   
 33  16  38  1   
 34  17  19  1   
 35  17  39  1   
 36  17  40  1   
 37  18  20  1   
 38  19  21  1   
 39  19  41  1   
 40  20  22  1   
 41  20  42  1   
 42  20  43  1   
 43  21  23  2   
 44  21  24  1   
 45  22  44  1   
 46  22  45  1   
 47  22  46  1   
 48  24  25  1   
 49  25  47  1   
 50  25  48  1   
 51  25  49  1   
@<TRIPOS>SUBSTRUCTURE
  1 ****   2 GROUP 4 **** **** 0

# MOE 2024.06 (io_trps.svl 2023.06)
