@<TRIPOS>MOLECULE
NONAME
44 45 1 0 0 
SMALL
USER_CHARGES


@<TRIPOS>ATOM
  1 S       -0.1180     0.9330     1.8770 S.o2  1 <1>   1.4470 
  2 O        0.2860     1.4590     3.1630 O.2   1 <1>  -0.6500 
  3 O       -0.9220    -0.2680     1.8200 O.2   1 <1>  -0.6500 
  4 N       -1.0410     2.1460     1.1410 N.am  1 <1>  -0.8490 
  5 C        1.3120     0.7520     0.7740 C.ar  1 <1>  -0.0090 
  6 C       -2.3580     2.2600     1.8270 C.3   1 <1>   0.2570 
  7 C       -0.3570     3.4430     1.1090 C.3   1 <1>   0.1960 
  8 C        1.1390     0.5390    -0.5880 C.ar  1 <1>  -0.1500 
  9 C        2.6120     0.8240     1.2590 C.ar  1 <1>  -0.1500 
 10 C       -3.4200     3.0850     1.0850 C.2   1 <1>   0.5690 
 11 C       -0.5360     4.0690    -0.2700 C.3   1 <1>  -0.2400 
 12 C        2.2230     0.4070    -1.4390 C.ar  1 <1>  -0.1500 
 13 C        3.7010     0.6920     0.4140 C.ar  1 <1>  -0.1500 
 14 O       -3.7830     4.1180     1.6030 O.2   1 <1>  -0.5700 
 15 N       -3.9380     2.6650    -0.1170 N.am  1 <1>  -0.6600 
 16 C        3.5120     0.4820    -0.9410 C.ar  1 <1>  -0.1430 
 17 C       -3.4910     1.4460    -0.8590 C.3   1 <1>   0.1400 
 18 C       -4.9600     3.4640    -0.8560 C.3   1 <1>   0.1400 
 19 C        4.7050     0.3380    -1.8690 C.3   1 <1>  -0.0970 
 20 C       -4.6980     0.6610    -1.3980 C.3   1 <1>   0.1200 
 21 C       -6.0790     2.5570    -1.3920 C.3   1 <1>   0.1200 
 22 O       -5.5450     1.4970    -2.1340 O.3   1 <1>  -0.5600 
 23 H       -2.2170     2.6830     2.8070 H     1 <1>   0.0800 
 24 H       -2.7820     1.2820     1.9710 H     1 <1>   0.0800 
 25 H        0.7000     3.3210     1.2840 H     1 <1>   0.0800 
 26 H       -0.7350     4.1040     1.8740 H     1 <1>   0.0800 
 27 H        0.1410     0.4770    -0.9870 H     1 <1>   0.1500 
 28 H        2.7780     0.9850     2.3110 H     1 <1>   0.1500 
 29 H       -1.5680     4.2930    -0.4630 H     1 <1>   0.0800 
 30 H       -0.1660     3.4060    -1.0310 H     1 <1>   0.0800 
 31 H        0.0190     4.9880    -0.3210 H     1 <1>   0.0800 
 32 H        2.0580     0.2440    -2.4900 H     1 <1>   0.1500 
 33 H        4.6980     0.7530     0.8170 H     1 <1>   0.1500 
 34 H       -2.9100     0.7960    -0.2300 H     1 <1>   0.0800 
 35 H       -2.8700     1.7470    -1.6840 H     1 <1>   0.0800 
 36 H       -4.4860     3.9670    -1.6800 H     1 <1>   0.0800 
 37 H       -5.3890     4.2140    -0.2140 H     1 <1>   0.0800 
 38 H        4.4570    -0.2880    -2.7070 H     1 <1>   0.0800 
 39 H        5.5340    -0.1060    -1.3490 H     1 <1>   0.0800 
 40 H        5.0020     1.3050    -2.2340 H     1 <1>   0.0800 
 41 H       -5.2590     0.2260    -0.5890 H     1 <1>   0.0800 
 42 H       -4.3670    -0.1270    -2.0500 H     1 <1>   0.0800 
 43 H       -6.7310     3.1160    -2.0390 H     1 <1>   0.0800 
 44 H       -6.6600     2.1550    -0.5800 H     1 <1>   0.0800 
@<TRIPOS>BOND
  1   1   2  2   
  2   1   3  2   
  3   1   4  am  
  4   1   5  1   
  5   4   6  1   
  6   4   7  1   
  7   5   8  ar  
  8   5   9  ar  
  9   6  10  1   
 10   6  23  1   
 11   6  24  1   
 12   7  11  1   
 13   7  25  1   
 14   7  26  1   
 15   8  12  ar  
 16   8  27  1   
 17   9  13  ar  
 18   9  28  1   
 19  10  14  2   
 20  10  15  am  
 21  11  29  1   
 22  11  30  1   
 23  11  31  1   
 24  12  16  ar  
 25  12  32  1   
 26  13  16  ar  
 27  13  33  1   
 28  15  17  1   
 29  15  18  1   
 30  16  19  1   
 31  17  20  1   
 32  17  34  1   
 33  17  35  1   
 34  18  21  1   
 35  18  36  1   
 36  18  37  1   
 37  19  38  1   
 38  19  39  1   
 39  19  40  1   
 40  20  22  1   
 41  20  41  1   
 42  20  42  1   
 43  21  22  1   
 44  21  43  1   
 45  21  44  1   
@<TRIPOS>SUBSTRUCTURE
  1 ****   4 GROUP 4 **** **** 0

# MOE 2024.06 (io_trps.svl 2023.06)
