@<TRIPOS>MOLECULE
NONAME
42 43 1 0 0 
SMALL
USER_CHARGES


@<TRIPOS>ATOM
  1 CL       0.8850     0.0070     0.3140 Cl    1 <1>  -0.1770 
  2 C        2.5320     0.1080    -0.2710 C.ar  1 <1>   0.1770 
  3 C        3.2760     1.2940    -0.2210 C.ar  1 <1>   0.0830 
  4 C        3.0850    -1.0590    -0.7620 C.ar  1 <1>  -0.1500 
  5 O        2.7980     2.4820     0.2420 O.3   1 <1>  -0.3630 
  6 C        4.6050     1.2820    -0.6440 C.ar  1 <1>  -0.1440 
  7 C        4.3970    -1.0430    -1.1910 C.ar  1 <1>   0.1770 
  8 C        1.5250     2.9460    -0.1660 C.3   1 <1>   0.1200 
  9 C        5.1620     0.1080    -1.1340 C.ar  1 <1>  -0.1500 
 10 C        5.4400     2.5460    -0.5770 C.3   1 <1>   0.4870 
 11 CL       5.1130    -2.5060    -1.8110 Cl    1 <1>  -0.1770 
 12 C        1.5820     4.4680    -0.2420 C.3   1 <1>  -0.2400 
 13 N        5.5160     2.9520     0.8430 N.4   1 <1>  -0.9060 
 14 C        6.2390     4.2240     1.0660 C.3   1 <1>   0.4860 
 15 C        7.6490     4.0660     0.5320 C.ar  1 <1>  -0.1430 
 16 C        8.5910     3.3270     1.2360 C.ar  1 <1>  -0.1500 
 17 C        8.0040     4.6500    -0.6760 C.ar  1 <1>  -0.1500 
 18 C        9.8680     3.1580     0.7300 C.ar  1 <1>  -0.1500 
 19 C        9.2790     4.4790    -1.1810 C.ar  1 <1>  -0.1500 
 20 C       10.2170     3.7320    -0.4880 C.ar  1 <1>   0.0830 
 21 O       11.4400     3.6120    -1.0590 O.3   1 <1>  -0.3630 
 22 C       12.5000     2.9490    -0.4050 C.3   1 <1>   0.0400 
 23 H        2.5090    -1.9660    -0.8040 H     1 <1>   0.1500 
 24 H        0.7970     2.6340     0.5640 H     1 <1>   0.0800 
 25 H        1.2840     2.5260    -1.1280 H     1 <1>   0.0800 
 26 H        6.1820     0.0640    -1.4780 H     1 <1>   0.1500 
 27 H        4.9690     3.3190    -1.1620 H     1 <1>   0.0800 
 28 H        6.4280     2.3630    -0.9700 H     1 <1>   0.0800 
 29 H        1.8170     4.8840     0.7210 H     1 <1>   0.0800 
 30 H        0.6200     4.8450    -0.5430 H     1 <1>   0.0800 
 31 H        2.3080     4.7840    -0.9680 H     1 <1>   0.0800 
 32 H        5.9710     2.1990     1.3650 H     1 <1>   0.4500 
 33 H        4.5390     3.0120     1.1730 H     1 <1>   0.4500 
 34 H        6.2740     4.4550     2.1180 H     1 <1>   0.0800 
 35 H        5.7410     5.0330     0.5550 H     1 <1>   0.0800 
 36 H        8.3500     2.8780     2.1840 H     1 <1>   0.1500 
 37 H        7.3040     5.2450    -1.2390 H     1 <1>   0.1500 
 38 H       10.5790     2.5820     1.2920 H     1 <1>   0.1500 
 39 H        9.5650     4.9270    -2.1170 H     1 <1>   0.1500 
 40 H       13.3700     3.0110    -1.0330 H     1 <1>   0.0800 
 41 H       12.2310     1.9180    -0.2560 H     1 <1>   0.0800 
 42 H       12.6920     3.4380     0.5340 H     1 <1>   0.0800 
@<TRIPOS>BOND
  1   1   2  1   
  2   2   3  ar  
  3   2   4  ar  
  4   3   5  1   
  5   3   6  ar  
  6   4   7  ar  
  7   4  23  1   
  8   5   8  1   
  9   6   9  ar  
 10   6  10  1   
 11   7   9  ar  
 12   7  11  1   
 13   8  12  1   
 14   8  24  1   
 15   8  25  1   
 16   9  26  1   
 17  10  13  1   
 18  10  27  1   
 19  10  28  1   
 20  12  29  1   
 21  12  30  1   
 22  12  31  1   
 23  13  14  1   
 24  13  32  1   
 25  13  33  1   
 26  14  15  1   
 27  14  34  1   
 28  14  35  1   
 29  15  16  ar  
 30  15  17  ar  
 31  16  18  ar  
 32  16  36  1   
 33  17  19  ar  
 34  17  37  1   
 35  18  20  ar  
 36  18  38  1   
 37  19  20  ar  
 38  19  39  1   
 39  20  21  1   
 40  21  22  1   
 41  22  40  1   
 42  22  41  1   
 43  22  42  1   
@<TRIPOS>SUBSTRUCTURE
  1 ****  10 GROUP 4 **** **** 0

# MOE 2024.06 (io_trps.svl 2023.06)
