@<TRIPOS>MOLECULE
NONAME
32 33 1 0 0 
SMALL
USER_CHARGES


@<TRIPOS>ATOM
  1 F        1.1510    -0.9420     2.1510 F     1 <1>  -0.1900 
  2 C        1.8650    -1.1230     1.0740 C.ar  1 <1>   0.1900 
  3 C        3.1630    -0.6560     1.0520 C.ar  1 <1>  -0.1500 
  4 C        1.2930    -1.7770     0.0010 C.ar  1 <1>  -0.1500 
  5 C        3.9510    -0.8440    -0.0840 C.ar  1 <1>   0.0860 
  6 C        2.0580    -1.9610    -1.1370 C.ar  1 <1>  -0.1500 
  7 C        5.3270    -0.3780    -0.1230 C.2   1 <1>   0.5440 
  8 C        3.3640    -1.4980    -1.1740 C.ar  1 <1>  -0.1500 
  9 O        5.7000     0.5340     0.5910 O.2   1 <1>  -0.5700 
 10 N        6.2800    -0.9820    -0.9100 N.am  1 <1>  -0.6600 
 11 C        7.4630    -0.1810    -1.3440 C.3   1 <1>   0.1400 
 12 C        6.5920    -2.4230    -0.6910 C.3   1 <1>   0.1400 
 13 C        8.5900    -0.3070    -0.3020 C.3   1 <1>   0.3430 
 14 C        7.7420    -2.5640     0.3310 C.3   1 <1>   0.3430 
 15 N        8.9570    -1.7490    -0.0420 N.4   1 <1>  -0.9590 
 16 C       10.0010    -1.8370     1.0220 C.3   1 <1>   0.2630 
 17 H        3.5600    -0.1450     1.9110 H     1 <1>   0.1500 
 18 H        0.2770    -2.1260     0.0590 H     1 <1>   0.1500 
 19 H        1.6340    -2.4610    -1.9920 H     1 <1>   0.1500 
 20 H        3.9380    -1.6400    -2.0730 H     1 <1>   0.1500 
 21 H        7.1830     0.8550    -1.4430 H     1 <1>   0.0800 
 22 H        7.8020    -0.5220    -2.3070 H     1 <1>   0.0800 
 23 H        6.8680    -2.8780    -1.6270 H     1 <1>   0.0800 
 24 H        5.7220    -2.9370    -0.3190 H     1 <1>   0.0800 
 25 H        8.2480     0.1530     0.6120 H     1 <1>   0.0800 
 26 H        9.4530     0.2390    -0.6450 H     1 <1>   0.0800 
 27 H        8.0110    -3.6040     0.4190 H     1 <1>   0.0800 
 28 H        7.3750    -2.2380     1.2910 H     1 <1>   0.0800 
 29 H        9.3400    -2.1340    -0.9170 H     1 <1>   0.4500 
 30 H        9.6250    -1.4330     1.9490 H     1 <1>   0.0800 
 31 H       10.8780    -1.2790     0.7350 H     1 <1>   0.0800 
 32 H       10.2870    -2.8640     1.1850 H     1 <1>   0.0800 
@<TRIPOS>BOND
  1   1   2  1   
  2   2   3  ar  
  3   2   4  ar  
  4   3   5  ar  
  5   3  17  1   
  6   4   6  ar  
  7   4  18  1   
  8   5   7  1   
  9   5   8  ar  
 10   6   8  ar  
 11   6  19  1   
 12   7   9  2   
 13   7  10  am  
 14   8  20  1   
 15  10  11  1   
 16  10  12  1   
 17  11  13  1   
 18  11  21  1   
 19  11  22  1   
 20  12  14  1   
 21  12  23  1   
 22  12  24  1   
 23  13  15  1   
 24  13  25  1   
 25  13  26  1   
 26  14  15  1   
 27  14  27  1   
 28  14  28  1   
 29  15  16  1   
 30  15  29  1   
 31  16  30  1   
 32  16  31  1   
 33  16  32  1   
@<TRIPOS>SUBSTRUCTURE
  1 ****   7 GROUP 4 **** **** 0

# MOE 2024.06 (io_trps.svl 2023.06)
