@<TRIPOS>MOLECULE
NONAME
32 33 1 0 0 
SMALL
USER_CHARGES


@<TRIPOS>ATOM
  1 S        0.1010     0.2180     0.7660 S.o2  1 <1>   1.4470 
  2 O        0.4750    -1.0750     0.2390 O.2   1 <1>  -0.6500 
  3 O        0.4190     0.5530     2.1380 O.2   1 <1>  -0.6500 
  4 N        0.8500     1.3900    -0.2040 N.am  1 <1>  -0.8490 
  5 C       -1.6650     0.4950     0.4420 C.ar  1 <1>  -0.0090 
  6 C        0.6270     2.7510     0.3240 C.3   1 <1>   0.1960 
  7 C        2.2920     1.1080    -0.3450 C.3   1 <1>   0.1960 
  8 C       -2.1880     0.3360    -0.8340 C.ar  1 <1>  -0.1500 
  9 C       -2.5360     0.8910     1.4490 C.ar  1 <1>  -0.1500 
 10 C        1.0250     3.8380    -0.6810 C.3   1 <1>   0.0700 
 11 C        2.9530     1.9600    -1.4370 C.3   1 <1>   0.0700 
 12 C       -3.5270     0.5650    -1.0970 C.ar  1 <1>  -0.1500 
 13 C       -3.8750     1.1220     1.1870 C.ar  1 <1>  -0.1500 
 14 S        2.8000     3.7150    -1.0140 S.3   1 <1>  -0.4600 
 15 C       -4.4080     0.9630    -0.0910 C.ar  1 <1>   0.0860 
 16 C       -5.8170     1.2100    -0.3480 C.2   1 <1>   0.5440 
 17 O       -6.4670     1.9590     0.3470 O.2   1 <1>  -0.5700 
 18 N       -6.4800     0.6100    -1.3620 N.am  1 <1>  -0.8000 
 19 H        1.1790     2.8890     1.2400 H     1 <1>   0.0800 
 20 H       -0.4170     2.8830     0.5490 H     1 <1>   0.0800 
 21 H        2.4330     0.0760    -0.6190 H     1 <1>   0.0800 
 22 H        2.7940     1.2680     0.5950 H     1 <1>   0.0800 
 23 H       -1.5310     0.0300    -1.6320 H     1 <1>   0.1500 
 24 H       -2.1640     1.0230     2.4520 H     1 <1>   0.1500 
 25 H        0.8450     4.8220    -0.2850 H     1 <1>   0.0800 
 26 H        0.5060     3.7160    -1.6140 H     1 <1>   0.0800 
 27 H        2.4750     1.8090    -2.3880 H     1 <1>   0.0800 
 28 H        4.0030     1.7440    -1.5180 H     1 <1>   0.0800 
 29 H       -3.8900     0.4410    -2.1020 H     1 <1>   0.1500 
 30 H       -4.5290     1.4330     1.9860 H     1 <1>   0.1500 
 31 H       -7.4780     0.8000    -1.4650 H     1 <1>   0.3700 
 32 H       -6.1010    -0.1520    -1.9220 H     1 <1>   0.3700 
@<TRIPOS>BOND
  1   1   2  2   
  2   1   3  2   
  3   1   4  am  
  4   1   5  1   
  5   4   6  1   
  6   4   7  1   
  7   5   8  ar  
  8   5   9  ar  
  9   6  10  1   
 10   6  19  1   
 11   6  20  1   
 12   7  11  1   
 13   7  21  1   
 14   7  22  1   
 15   8  12  ar  
 16   8  23  1   
 17   9  13  ar  
 18   9  24  1   
 19  10  14  1   
 20  10  25  1   
 21  10  26  1   
 22  11  14  1   
 23  11  27  1   
 24  11  28  1   
 25  12  15  ar  
 26  12  29  1   
 27  13  15  ar  
 28  13  30  1   
 29  15  16  1   
 30  16  17  2   
 31  16  18  am  
 32  18  31  1   
 33  18  32  1   
@<TRIPOS>SUBSTRUCTURE
  1 ****   5 GROUP 4 **** **** 0

# MOE 2024.06 (io_trps.svl 2023.06)
