@<TRIPOS>MOLECULE
NONAME
41 42 1 0 0 
SMALL
USER_CHARGES


@<TRIPOS>ATOM
  1 O       -1.6810    -1.0630     2.3410 O.2   1 <1>  -0.5700 
  2 C       -1.5710    -2.0000     1.5670 C.2   1 <1>   0.6160 
  3 N       -0.5210    -2.8550     1.6140 N.am  1 <1>  -0.5470 
  4 C       -2.4670    -2.3870     0.5250 C.2   1 <1>  -0.0140 
  5 C       -0.6810    -3.8160     0.6360 C.ar  1 <1>   0.1170 
  6 C       -1.8630    -3.5620    -0.0510 C.ar  1 <1>   0.0280 
  7 C       -3.6260    -1.7280     0.2190 C.2   1 <1>  -0.0500 
  8 C        0.1380    -4.8870     0.3170 C.ar  1 <1>  -0.1500 
  9 C       -2.2290    -4.4150    -1.0900 C.ar  1 <1>  -0.1500 
 10 N       -4.5400    -2.0440    -0.7460 N.pl3 1 <1>  -0.8690 
 11 C       -0.2380    -5.7250    -0.7170 C.ar  1 <1>  -0.1500 
 12 C       -1.4170    -5.4890    -1.4160 C.ar  1 <1>  -0.1500 
 13 C       -5.7750    -1.2710    -1.0070 C.3   1 <1>   0.2090 
 14 C       -6.7100    -1.3720     0.2140 C.3   1 <1>   0.3430 
 15 N       -7.9650    -0.5490     0.1040 N.4   1 <1>  -0.9590 
 16 C       -7.6740     0.9120     0.0820 C.3   1 <1>   0.3430 
 17 C       -8.8830    -0.9060     1.2190 C.3   1 <1>   0.3430 
 18 C       -8.0130     1.4490    -1.3020 C.3   1 <1>  -0.2400 
 19 C      -10.2950    -0.4330     0.8920 C.3   1 <1>  -0.2400 
 20 H        0.2310    -2.7600     2.2930 H     1 <1>   0.3700 
 21 H       -3.8430    -0.8520     0.8130 H     1 <1>   0.1500 
 22 H        1.0460    -5.0580     0.8660 H     1 <1>   0.1500 
 23 H       -3.1340    -4.2460    -1.6380 H     1 <1>   0.1500 
 24 H       -4.3460    -2.8120    -1.4040 H     1 <1>   0.4000 
 25 H        0.3810    -6.5650    -0.9840 H     1 <1>   0.1500 
 26 H       -1.6980    -6.1500    -2.2190 H     1 <1>   0.1500 
 27 H       -5.4980    -0.2480    -1.1890 H     1 <1>   0.0800 
 28 H       -6.2610    -1.6680    -1.8820 H     1 <1>   0.0800 
 29 H       -6.1590    -1.0640     1.0870 H     1 <1>   0.0800 
 30 H       -6.9730    -2.4090     0.3400 H     1 <1>   0.0800 
 31 H       -8.4460    -0.7910    -0.7720 H     1 <1>   0.4500 
 32 H       -8.2710     1.4250     0.8190 H     1 <1>   0.0800 
 33 H       -6.6350     1.0960     0.3070 H     1 <1>   0.0800 
 34 H       -8.8990    -1.9770     1.3500 H     1 <1>   0.0800 
 35 H       -8.5440    -0.4600     2.1420 H     1 <1>   0.0800 
 36 H       -9.0580     1.3110    -1.5200 H     1 <1>   0.0800 
 37 H       -7.4180     0.9790    -2.0630 H     1 <1>   0.0800 
 38 H       -7.8090     2.5050    -1.3290 H     1 <1>   0.0800 
 39 H      -10.6440    -0.8740    -0.0250 H     1 <1>   0.0800 
 40 H      -10.3490     0.6380     0.8240 H     1 <1>   0.0800 
 41 H      -10.9600    -0.7430     1.6800 H     1 <1>   0.0800 
@<TRIPOS>BOND
  1   1   2  2   
  2   2   3  am  
  3   2   4  1   
  4   3   5  1   
  5   3  20  1   
  6   4   6  1   
  7   4   7  2   
  8   5   6  ar  
  9   5   8  ar  
 10   6   9  ar  
 11   7  10  1   
 12   7  21  1   
 13   8  11  ar  
 14   8  22  1   
 15   9  12  ar  
 16   9  23  1   
 17  10  13  1   
 18  10  24  1   
 19  11  12  ar  
 20  11  25  1   
 21  12  26  1   
 22  13  14  1   
 23  13  27  1   
 24  13  28  1   
 25  14  15  1   
 26  14  29  1   
 27  14  30  1   
 28  15  16  1   
 29  15  17  1   
 30  15  31  1   
 31  16  18  1   
 32  16  32  1   
 33  16  33  1   
 34  17  19  1   
 35  17  34  1   
 36  17  35  1   
 37  18  36  1   
 38  18  37  1   
 39  18  38  1   
 40  19  39  1   
 41  19  40  1   
 42  19  41  1   
@<TRIPOS>SUBSTRUCTURE
  1 ****   7 GROUP 4 **** **** 0

# MOE 2024.06 (io_trps.svl 2023.06)
