@<TRIPOS>MOLECULE
NONAME
44 46 1 0 0 
SMALL
USER_CHARGES


@<TRIPOS>ATOM
  1 F       -0.1770    -1.9680     1.7510 F     1 <1>  -0.1900 
  2 C       -1.1940    -1.9490     0.9200 C.ar  1 <1>   0.1900 
  3 C       -1.1990    -2.8120    -0.1830 C.ar  1 <1>   0.1000 
  4 C       -2.2200    -1.0640     1.1860 C.ar  1 <1>  -0.1500 
  5 N       -0.1790    -3.7240    -0.4890 N.pl3 1 <1>  -0.8380 
  6 C       -2.3020    -2.7450    -1.0240 C.ar  1 <1>  -0.1500 
  7 C       -3.3060    -1.0230     0.3270 C.ar  1 <1>  -0.1500 
  8 C        1.1010    -3.1690    -1.0250 C.3   1 <1>   0.2090 
  9 C       -0.0610    -4.9390     0.3740 C.3   1 <1>   0.2090 
 10 C       -3.3420    -1.8630    -0.7750 C.ar  1 <1>  -0.1500 
 11 C        2.1960    -3.0700     0.0580 C.3   1 <1>   0.3430 
 12 C        1.0600    -4.8040     1.4290 C.3   1 <1>   0.3430 
 13 N        2.3690    -4.3530     0.8360 N.4   1 <1>  -0.9590 
 14 C        3.4240    -4.2170     1.8750 C.3   1 <1>   0.4860 
 15 C        4.7420    -3.9430     1.1800 C.ar  1 <1>  -0.1430 
 16 C        5.3620    -4.9430     0.4460 C.ar  1 <1>  -0.1500 
 17 C        5.3360    -2.6920     1.2620 C.ar  1 <1>  -0.1500 
 18 C        6.5520    -4.7000    -0.2170 C.ar  1 <1>   0.0830 
 19 C        6.5290    -2.4440     0.6050 C.ar  1 <1>  -0.1500 
 20 O        7.0740    -5.7360    -0.9170 O.3   1 <1>  -0.3630 
 21 C        7.1380    -3.4410    -0.1350 C.ar  1 <1>  -0.1500 
 22 C        8.3260    -5.6300    -1.5600 C.3   1 <1>   0.0400 
 23 H       -2.1750    -0.4200     2.0460 H     1 <1>   0.1500 
 24 H       -2.3400    -3.3920    -1.8820 H     1 <1>   0.1500 
 25 H       -4.1180    -0.3410     0.5130 H     1 <1>   0.1500 
 26 H        0.9220    -2.1890    -1.4360 H     1 <1>   0.0800 
 27 H        1.4450    -3.7960    -1.8290 H     1 <1>   0.0800 
 28 H        0.1320    -5.7930    -0.2510 H     1 <1>   0.0800 
 29 H       -0.9990    -5.1130     0.8750 H     1 <1>   0.0800 
 30 H       -4.1860    -1.8310    -1.4430 H     1 <1>   0.1500 
 31 H        1.9300    -2.2730     0.7320 H     1 <1>   0.0800 
 32 H        3.1260    -2.8000    -0.4150 H     1 <1>   0.0800 
 33 H        1.1870    -5.7520     1.9230 H     1 <1>   0.0800 
 34 H        0.7360    -4.0910     2.1680 H     1 <1>   0.0800 
 35 H        2.6920    -5.0620     0.1670 H     1 <1>   0.4500 
 36 H        3.5060    -5.1280     2.4450 H     1 <1>   0.0800 
 37 H        3.1850    -3.4100     2.5480 H     1 <1>   0.0800 
 38 H        4.9420    -5.9310     0.3720 H     1 <1>   0.1500 
 39 H        4.8850    -1.8980     1.8340 H     1 <1>   0.1500 
 40 H        6.9900    -1.4720     0.6710 H     1 <1>   0.1500 
 41 H        8.0630    -3.2220    -0.6370 H     1 <1>   0.1500 
 42 H        8.5490    -6.5770    -2.0180 H     1 <1>   0.0800 
 43 H        9.0780    -5.3940    -0.8270 H     1 <1>   0.0800 
 44 H        8.2700    -4.8650    -2.3140 H     1 <1>   0.0800 
@<TRIPOS>BOND
  1   1   2  1   
  2   2   3  ar  
  3   2   4  ar  
  4   3   5  1   
  5   3   6  ar  
  6   4   7  ar  
  7   4  23  1   
  8   5   8  1   
  9   5   9  1   
 10   6  10  ar  
 11   6  24  1   
 12   7  10  ar  
 13   7  25  1   
 14   8  11  1   
 15   8  26  1   
 16   8  27  1   
 17   9  12  1   
 18   9  28  1   
 19   9  29  1   
 20  10  30  1   
 21  11  13  1   
 22  11  31  1   
 23  11  32  1   
 24  12  13  1   
 25  12  33  1   
 26  12  34  1   
 27  13  14  1   
 28  13  35  1   
 29  14  15  1   
 30  14  36  1   
 31  14  37  1   
 32  15  16  ar  
 33  15  17  ar  
 34  16  18  ar  
 35  16  38  1   
 36  17  19  ar  
 37  17  39  1   
 38  18  20  1   
 39  18  21  ar  
 40  19  21  ar  
 41  19  40  1   
 42  20  22  1   
 43  21  41  1   
 44  22  42  1   
 45  22  43  1   
 46  22  44  1   
@<TRIPOS>SUBSTRUCTURE
  1 ****  11 GROUP 4 **** **** 0

# MOE 2024.06 (io_trps.svl 2023.06)
