@<TRIPOS>MOLECULE
NONAME
47 50 1 0 0 
SMALL
USER_CHARGES


@<TRIPOS>ATOM
  1 O       -0.3980    -0.5410    -0.0160 O.2   1 <1>  -0.5700 
  2 C       -0.4970    -1.7340     0.2040 C.2   1 <1>   0.5440 
  3 N        0.6440    -2.4460     0.5130 N.am  1 <1>  -0.6600 
  4 C       -1.8010    -2.3630     0.1230 C.ar  1 <1>   0.0860 
  5 C        0.8010    -3.9130     0.2780 C.3   1 <1>   0.1400 
  6 C        1.9300    -1.7700     0.8650 C.3   1 <1>   0.1400 
  7 C       -2.2490    -3.2660     1.0890 C.ar  1 <1>  -0.1500 
  8 C       -2.6720    -2.0780    -0.9290 C.ar  1 <1>  -0.1500 
  9 C        1.9860    -4.1910    -0.6640 C.3   1 <1>   0.1200 
 10 C        3.0390    -2.1680    -0.1210 C.3   1 <1>   0.1200 
 11 C       -3.4890    -3.8680     0.9970 C.ar  1 <1>  -0.1500 
 12 C       -3.9130    -2.6780    -1.0230 C.ar  1 <1>  -0.1500 
 13 O        3.1480    -3.5620    -0.2030 O.3   1 <1>  -0.5600 
 14 C       -4.3430    -3.5900    -0.0670 C.ar  1 <1>   0.1170 
 15 N       -5.6100    -4.1680    -0.2080 N.am  1 <1>  -0.5470 
 16 C       -6.1730    -5.2920     0.3410 C.2   1 <1>   0.5690 
 17 O       -5.5850    -6.0300     1.0950 O.2   1 <1>  -0.5700 
 18 C       -7.6160    -5.6320    -0.0240 C.3   1 <1>   0.2610 
 19 O       -8.1170    -4.7110    -0.9960 O.3   1 <1>  -0.3630 
 20 C       -8.5080    -5.6170     1.2260 C.3   1 <1>   0.1200 
 21 C       -9.4630    -4.6670    -1.1680 C.ar  1 <1>   0.0820 
 22 O       -9.8600    -5.8570     0.8780 O.3   1 <1>  -0.3630 
 23 C      -10.3300    -5.2480    -0.2400 C.ar  1 <1>   0.0820 
 24 C       -9.9720    -4.0360    -2.2890 C.ar  1 <1>  -0.1500 
 25 C      -11.6970    -5.2070    -0.4520 C.ar  1 <1>  -0.1500 
 26 C      -11.3420    -3.9920    -2.4940 C.ar  1 <1>  -0.1500 
 27 C      -12.2030    -4.5780    -1.5780 C.ar  1 <1>  -0.1500 
 28 H       -0.0900    -4.3270    -0.1600 H     1 <1>   0.0800 
 29 H        0.9740    -4.4070     1.2180 H     1 <1>   0.0800 
 30 H        2.2200    -2.0610     1.8590 H     1 <1>   0.0800 
 31 H        1.8150    -0.7000     0.8580 H     1 <1>   0.0800 
 32 H       -1.6120    -3.4900     1.9270 H     1 <1>   0.1500 
 33 H       -2.3580    -1.3700    -1.6770 H     1 <1>   0.1500 
 34 H        1.7720    -3.8320    -1.6560 H     1 <1>   0.0800 
 35 H        2.1820    -5.2470    -0.7130 H     1 <1>   0.0800 
 36 H        3.9870    -1.7820     0.2110 H     1 <1>   0.0800 
 37 H        2.8290    -1.7760    -1.1010 H     1 <1>   0.0800 
 38 H       -3.7930    -4.5550     1.7650 H     1 <1>   0.1500 
 39 H       -4.5540    -2.4340    -1.8510 H     1 <1>   0.1500 
 40 H       -6.2340    -3.6960    -0.8670 H     1 <1>   0.3700 
 41 H       -7.6370    -6.6120    -0.4640 H     1 <1>   0.0800 
 42 H       -8.4530    -4.6610     1.7160 H     1 <1>   0.0800 
 43 H       -8.2040    -6.3830     1.9170 H     1 <1>   0.0800 
 44 H       -9.3020    -3.5860    -2.9980 H     1 <1>   0.1500 
 45 H      -12.3570    -5.6620     0.2640 H     1 <1>   0.1500 
 46 H      -11.7400    -3.5030    -3.3670 H     1 <1>   0.1500 
 47 H      -13.2660    -4.5440    -1.7420 H     1 <1>   0.1500 
@<TRIPOS>BOND
  1   1   2  2   
  2   2   3  am  
  3   2   4  1   
  4   3   5  1   
  5   3   6  1   
  6   4   7  ar  
  7   4   8  ar  
  8   5   9  1   
  9   5  28  1   
 10   5  29  1   
 11   6  10  1   
 12   6  30  1   
 13   6  31  1   
 14   7  11  ar  
 15   7  32  1   
 16   8  12  ar  
 17   8  33  1   
 18   9  13  1   
 19   9  34  1   
 20   9  35  1   
 21  10  13  1   
 22  10  36  1   
 23  10  37  1   
 24  11  14  ar  
 25  11  38  1   
 26  12  14  ar  
 27  12  39  1   
 28  14  15  1   
 29  15  16  am  
 30  15  40  1   
 31  16  17  2   
 32  16  18  1   
 33  18  19  1   
 34  18  20  1   
 35  18  41  1   
 36  19  21  1   
 37  20  22  1   
 38  20  42  1   
 39  20  43  1   
 40  21  23  ar  
 41  21  24  ar  
 42  22  23  1   
 43  23  25  ar  
 44  24  26  ar  
 45  24  44  1   
 46  25  27  ar  
 47  25  45  1   
 48  26  27  ar  
 49  26  46  1   
 50  27  47  1   
@<TRIPOS>SUBSTRUCTURE
  1 ****  14 GROUP 4 **** **** 0

# MOE 2024.06 (io_trps.svl 2023.06)
