@<TRIPOS>MOLECULE
NONAME
42 43 1 0 0 
SMALL
USER_CHARGES


@<TRIPOS>ATOM
  1 S       -0.0910     0.2220    -0.9700 S.o2  1 <1>   1.4470 
  2 O       -0.1650     0.3370    -2.4110 O.2   1 <1>  -0.6500 
  3 O       -0.7310    -0.8880    -0.3000 O.2   1 <1>  -0.6500 
  4 N       -0.6920     1.6980    -0.3700 N.am  1 <1>  -0.8490 
  5 C        1.6560     0.1830    -0.4630 C.ar  1 <1>  -0.0090 
  6 C       -2.1300     1.9720    -0.6460 C.3   1 <1>   0.2760 
  7 C        0.1670     2.8260    -0.8610 C.3   1 <1>   0.2570 
  8 C        2.6660    -0.0680    -1.3910 C.ar  1 <1>  -0.1500 
  9 C        2.0180     0.3940     0.8650 C.ar  1 <1>  -0.1500 
 10 C       -2.5650     3.2510     0.1110 C.3   1 <1>  -0.1600 
 11 C       -3.0640     0.8110    -0.2390 C.3   1 <1>  -0.1600 
 12 C        0.6770     3.7800     0.2270 C.2   1 <1>   0.6590 
 13 C        3.9990    -0.0990    -1.0130 C.ar  1 <1>  -0.1500 
 14 C        3.3440     0.3700     1.2640 C.ar  1 <1>  -0.1500 
 15 C       -4.0600     3.5720    -0.0240 C.3   1 <1>  -0.1600 
 16 C       -4.5580     1.1430    -0.3590 C.3   1 <1>  -0.1600 
 17 O        1.3710     3.4080     1.1390 O.2   1 <1>  -0.5700 
 18 O        0.3340     5.0580     0.0890 O.3   1 <1>  -0.4300 
 19 C        4.3130     0.1230     0.3130 C.ar  1 <1>   0.1900 
 20 C       -4.9190     2.3960     0.4370 C.3   1 <1>  -0.1600 
 21 C        0.7430     6.0400     1.0190 C.3   1 <1>   0.0400 
 22 F        5.5660     0.0980     0.6770 F     1 <1>  -0.1900 
 23 H       -2.2600     2.1340    -1.7040 H     1 <1>   0.0800 
 24 H       -0.3610     3.3990    -1.6030 H     1 <1>   0.0800 
 25 H        1.0430     2.4570    -1.3600 H     1 <1>   0.0800 
 26 H        2.4070    -0.2440    -2.4230 H     1 <1>   0.1500 
 27 H        1.2490     0.5900     1.5960 H     1 <1>   0.1500 
 28 H       -2.0420     4.1110    -0.2590 H     1 <1>   0.0800 
 29 H       -2.3300     3.1320     1.1550 H     1 <1>   0.0800 
 30 H       -2.8480     0.5210     0.7750 H     1 <1>   0.0800 
 31 H       -2.9020    -0.0330    -0.8830 H     1 <1>   0.0800 
 32 H        4.7800    -0.2920    -1.7270 H     1 <1>   0.1500 
 33 H        3.6200     0.5430     2.2890 H     1 <1>   0.1500 
 34 H       -4.2880     3.8010    -1.0510 H     1 <1>   0.0800 
 35 H       -4.2960     4.4400     0.5670 H     1 <1>   0.0800 
 36 H       -5.1380     0.3100     0.0010 H     1 <1>   0.0800 
 37 H       -4.8080     1.2930    -1.3950 H     1 <1>   0.0800 
 38 H       -5.9610     2.6280     0.2970 H     1 <1>   0.0800 
 39 H       -4.7560     2.2170     1.4870 H     1 <1>   0.0800 
 40 H        0.3490     6.9910     0.7080 H     1 <1>   0.0800 
 41 H        1.8180     6.0740     1.0420 H     1 <1>   0.0800 
 42 H        0.3590     5.7800     1.9910 H     1 <1>   0.0800 
@<TRIPOS>BOND
  1   1   2  2   
  2   1   3  2   
  3   1   4  am  
  4   1   5  1   
  5   4   6  1   
  6   4   7  1   
  7   5   8  ar  
  8   5   9  ar  
  9   6  10  1   
 10   6  11  1   
 11   6  23  1   
 12   7  12  1   
 13   7  24  1   
 14   7  25  1   
 15   8  13  ar  
 16   8  26  1   
 17   9  14  ar  
 18   9  27  1   
 19  10  15  1   
 20  10  28  1   
 21  10  29  1   
 22  11  16  1   
 23  11  30  1   
 24  11  31  1   
 25  12  17  2   
 26  12  18  1   
 27  13  19  ar  
 28  13  32  1   
 29  14  19  ar  
 30  14  33  1   
 31  15  20  1   
 32  15  34  1   
 33  15  35  1   
 34  16  20  1   
 35  16  36  1   
 36  16  37  1   
 37  18  21  1   
 38  19  22  1   
 39  20  38  1   
 40  20  39  1   
 41  21  40  1   
 42  21  41  1   
 43  21  42  1   
@<TRIPOS>SUBSTRUCTURE
  1 ****   4 GROUP 4 **** **** 0

# MOE 2024.06 (io_trps.svl 2023.06)
