@<TRIPOS>MOLECULE
NONAME
50 52 1 0 0 
SMALL
USER_CHARGES


@<TRIPOS>ATOM
  1 BR       1.8890    -0.1830     1.5800 Br    1 <1>  -0.1110 
  2 C        1.0320    -1.7590     0.8730 C.ar  1 <1>   0.1110 
  3 C        1.5210    -2.3370    -0.2890 C.ar  1 <1>  -0.1440 
  4 C       -0.0480    -2.2740     1.5630 C.ar  1 <1>  -0.1500 
  5 C        0.8900    -3.4770    -0.7680 C.ar  1 <1>  -0.1500 
  6 C        2.7060    -1.7400    -1.0070 C.3   1 <1>   0.4870 
  7 C       -0.6630    -3.4130     1.0730 C.ar  1 <1>  -0.1500 
  8 C       -0.1940    -4.0090    -0.0870 C.ar  1 <1>  -0.1500 
  9 N        3.9130    -2.1200    -0.2280 N.4   1 <1>  -0.9060 
 10 C        5.1860    -1.5020    -0.6650 C.3   1 <1>   0.4230 
 11 C        6.3400    -2.2040     0.0530 C.3   1 <1>  -0.1600 
 12 C        5.1950    -0.0040    -0.3370 C.3   1 <1>  -0.1600 
 13 C        7.6840    -1.5510    -0.2800 C.3   1 <1>   0.3430 
 14 C        6.5500     0.6280    -0.6630 C.3   1 <1>   0.3430 
 15 N        7.6420    -0.0950     0.0510 N.4   1 <1>  -0.9590 
 16 C        8.9550     0.5760    -0.2490 C.3   1 <1>   0.3430 
 17 C       10.0720     0.1310     0.6970 C.3   1 <1>  -0.0170 
 18 C       11.3100     0.9430     0.3770 C.ar  1 <1>  -0.1430 
 19 C       11.5370     2.1530     1.0170 C.ar  1 <1>  -0.1500 
 20 C       12.2200     0.4910    -0.5670 C.ar  1 <1>  -0.1500 
 21 C       12.6560     2.9060     0.7090 C.ar  1 <1>  -0.1500 
 22 C       13.3400     1.2440    -0.8730 C.ar  1 <1>  -0.1500 
 23 C       13.5580     2.4530    -0.2370 C.ar  1 <1>  -0.1500 
 24 H       -0.4040    -1.8000     2.4620 H     1 <1>   0.1500 
 25 H        1.2200    -3.9650    -1.6710 H     1 <1>   0.1500 
 26 H        2.5950    -0.6690    -1.0500 H     1 <1>   0.0800 
 27 H        2.7640    -2.1250    -2.0130 H     1 <1>   0.0800 
 28 H       -1.5080    -3.8350     1.5930 H     1 <1>   0.1500 
 29 H       -0.6840    -4.8940    -0.4610 H     1 <1>   0.1500 
 30 H        3.9680    -3.1460    -0.2540 H     1 <1>   0.4500 
 31 H        3.7070    -1.8860     0.7530 H     1 <1>   0.4500 
 32 H        5.3050    -1.6360    -1.7300 H     1 <1>   0.0800 
 33 H        6.3850    -3.2340    -0.2540 H     1 <1>   0.0800 
 34 H        6.1990    -2.1780     1.1200 H     1 <1>   0.0800 
 35 H        4.9800     0.1600     0.7040 H     1 <1>   0.0800 
 36 H        4.4470     0.5070    -0.9180 H     1 <1>   0.0800 
 37 H        7.9040    -1.6800    -1.3290 H     1 <1>   0.0800 
 38 H        8.4650    -2.0370     0.2850 H     1 <1>   0.0800 
 39 H        6.5430     1.6670    -0.3670 H     1 <1>   0.0800 
 40 H        6.7250     0.5890    -1.7280 H     1 <1>   0.0800 
 41 H        7.4920     0.0140     1.0670 H     1 <1>   0.4500 
 42 H        8.8450     1.6450    -0.1490 H     1 <1>   0.0800 
 43 H        9.2530     0.3760    -1.2660 H     1 <1>   0.0800 
 44 H       10.2970    -0.9120     0.5710 H     1 <1>   0.0800 
 45 H        9.7910     0.3050     1.7210 H     1 <1>   0.0800 
 46 H       10.8530     2.5240     1.7600 H     1 <1>   0.1500 
 47 H       12.0760    -0.4490    -1.0710 H     1 <1>   0.1500 
 48 H       12.8310     3.8450     1.2070 H     1 <1>   0.1500 
 49 H       14.0460     0.8910    -1.6060 H     1 <1>   0.1500 
 50 H       14.4290     3.0380    -0.4750 H     1 <1>   0.1500 
@<TRIPOS>BOND
  1   1   2  1   
  2   2   3  ar  
  3   2   4  ar  
  4   3   5  ar  
  5   3   6  1   
  6   4   7  ar  
  7   4  24  1   
  8   5   8  ar  
  9   5  25  1   
 10   6   9  1   
 11   6  26  1   
 12   6  27  1   
 13   7   8  ar  
 14   7  28  1   
 15   8  29  1   
 16   9  10  1   
 17   9  30  1   
 18   9  31  1   
 19  10  11  1   
 20  10  12  1   
 21  10  32  1   
 22  11  13  1   
 23  11  33  1   
 24  11  34  1   
 25  12  14  1   
 26  12  35  1   
 27  12  36  1   
 28  13  15  1   
 29  13  37  1   
 30  13  38  1   
 31  14  15  1   
 32  14  39  1   
 33  14  40  1   
 34  15  16  1   
 35  15  41  1   
 36  16  17  1   
 37  16  42  1   
 38  16  43  1   
 39  17  18  1   
 40  17  44  1   
 41  17  45  1   
 42  18  19  ar  
 43  18  20  ar  
 44  19  21  ar  
 45  19  46  1   
 46  20  22  ar  
 47  20  47  1   
 48  21  23  ar  
 49  21  48  1   
 50  22  23  ar  
 51  22  49  1   
 52  23  50  1   
@<TRIPOS>SUBSTRUCTURE
  1 ****  12 GROUP 4 **** **** 0

# MOE 2024.06 (io_trps.svl 2023.06)
