@<TRIPOS>MOLECULE
NONAME
39 42 1 0 0 
SMALL
USER_CHARGES


@<TRIPOS>ATOM
  1 S        0.1770    -0.1280    -0.2180 S.3   1 <1>  -0.0800 
  2 C        1.0840     1.3630    -0.2570 C.2   1 <1>   0.1660 
  3 C       -1.3340     0.7450    -0.4170 C.2   1 <1>  -0.1400 
  4 N        2.4320     1.3810    -0.1400 N.2   1 <1>  -0.5760 
  5 C        0.2770     2.4360    -0.4160 C.2   1 <1>  -0.0860 
  6 C       -1.1200     2.0730    -0.5060 C.2   1 <1>  -0.1810 
  7 C       -2.6030    -0.0820    -0.4620 C.3   1 <1>   0.0200 
  8 C        3.0020     2.5410    -0.1840 C.2   1 <1>   0.5140 
  9 C        0.9650     3.6860    -0.4640 C.2   1 <1>   0.8060 
 10 C       -2.2460     3.0830    -0.6930 C.3   1 <1>   0.0210 
 11 C       -3.6340     0.4000     0.5660 C.3   1 <1>  -0.1600 
 12 O        2.2890     3.6660    -0.3410 O.3   1 <1>  -0.3000 
 13 C        4.4390     2.7220    -0.0690 C.ar  1 <1>   0.0860 
 14 O        0.4460     4.7750    -0.6120 O.2   1 <1>  -0.5700 
 15 C       -3.3250     2.9650     0.3930 C.3   1 <1>  -0.1600 
 16 C       -4.2680     1.7600     0.2310 C.3   1 <1>  -0.1600 
 17 C        5.2940     1.6300     0.1070 C.ar  1 <1>  -0.1500 
 18 C        5.0410     3.9830    -0.1280 C.ar  1 <1>  -0.1500 
 19 C        6.6630     1.7840     0.2190 C.ar  1 <1>  -0.1500 
 20 C        6.4110     4.1430    -0.0170 C.ar  1 <1>  -0.1500 
 21 C        7.2320     3.0440     0.1590 C.ar  1 <1>  -0.1430 
 22 C        8.7360     3.2170     0.2790 C.3   1 <1>  -0.0970 
 23 H       -2.3590    -1.1080    -0.2470 H     1 <1>   0.0800 
 24 H       -3.0190    -0.0460    -1.4530 H     1 <1>   0.0800 
 25 H       -2.6870     2.9470    -1.6650 H     1 <1>   0.0800 
 26 H       -1.8630     4.0830    -0.6610 H     1 <1>   0.0800 
 27 H       -3.1750     0.4410     1.5390 H     1 <1>   0.0800 
 28 H       -4.4210    -0.3320     0.6130 H     1 <1>   0.0800 
 29 H       -3.9250     3.8570     0.3540 H     1 <1>   0.0800 
 30 H       -2.8570     2.9390     1.3630 H     1 <1>   0.0800 
 31 H       -5.0980     1.9050     0.9020 H     1 <1>   0.0800 
 32 H       -4.6700     1.7420    -0.7670 H     1 <1>   0.0800 
 33 H        4.8800     0.6370     0.1580 H     1 <1>   0.1500 
 34 H        4.4370     4.8630    -0.2640 H     1 <1>   0.1500 
 35 H        7.2860     0.9160     0.3520 H     1 <1>   0.1500 
 36 H        6.8370     5.1300    -0.0690 H     1 <1>   0.1500 
 37 H        9.1570     2.4390     0.8900 H     1 <1>   0.0800 
 38 H        8.9710     4.1650     0.7300 H     1 <1>   0.0800 
 39 H        9.1860     3.1750    -0.6960 H     1 <1>   0.0800 
@<TRIPOS>BOND
  1   1   2  1   
  2   1   3  1   
  3   2   4  1   
  4   2   5  2   
  5   3   6  2   
  6   3   7  1   
  7   4   8  2   
  8   5   6  1   
  9   5   9  1   
 10   6  10  1   
 11   7  11  1   
 12   7  23  1   
 13   7  24  1   
 14   8  12  1   
 15   8  13  1   
 16   9  12  1   
 17   9  14  2   
 18  10  15  1   
 19  10  25  1   
 20  10  26  1   
 21  11  16  1   
 22  11  27  1   
 23  11  28  1   
 24  13  17  ar  
 25  13  18  ar  
 26  15  16  1   
 27  15  29  1   
 28  15  30  1   
 29  16  31  1   
 30  16  32  1   
 31  17  19  ar  
 32  17  33  1   
 33  18  20  ar  
 34  18  34  1   
 35  19  21  ar  
 36  19  35  1   
 37  20  21  ar  
 38  20  36  1   
 39  21  22  1   
 40  22  37  1   
 41  22  38  1   
 42  22  39  1   
@<TRIPOS>SUBSTRUCTURE
  1 ****   2 GROUP 4 **** **** 0

# MOE 2024.06 (io_trps.svl 2023.06)
