@<TRIPOS>MOLECULE
NONAME
37 37 1 0 0 
SMALL
USER_CHARGES


@<TRIPOS>ATOM
  1 F       -0.3390    -0.3830    -0.0120 F     1 <1>  -0.1900 
  2 C       -1.2390     0.5700    -0.0060 C.ar  1 <1>   0.1900 
  3 C       -0.8760     1.9230     0.0010 C.ar  1 <1>   0.0830 
  4 C       -2.5600     0.1650    -0.0090 C.ar  1 <1>  -0.1500 
  5 O        0.3880     2.4370     0.0040 O.3   1 <1>  -0.3630 
  6 C       -1.9000     2.8600     0.0060 C.ar  1 <1>  -0.1500 
  7 C       -3.5620     1.1210    -0.0030 C.ar  1 <1>  -0.1500 
  8 C        1.5370     1.6300     0.0000 C.3   1 <1>   0.1200 
  9 C       -3.2290     2.4660     0.0040 C.ar  1 <1>  -0.1500 
 10 C        2.7490     2.5600     0.0050 C.3   1 <1>  -0.1600 
 11 C        4.0410     1.7520     0.0010 C.3   1 <1>   0.3430 
 12 N        5.1900     2.6880     0.0070 N.4   1 <1>  -0.9060 
 13 C        6.4970     1.9900     0.0030 C.3   1 <1>   0.3430 
 14 C        7.6140     3.0310     0.0100 C.3   1 <1>  -0.1600 
 15 C        8.9900     2.3540     0.0060 C.3   1 <1>  -0.1600 
 16 C       10.1120     3.3960     0.0130 C.3   1 <1>  -0.2400 
 17 H       -2.8010    -0.8830    -0.0150 H     1 <1>   0.1500 
 18 H       -1.6520     3.9070     0.0120 H     1 <1>   0.1500 
 19 H       -4.5960     0.8210    -0.0050 H     1 <1>   0.1500 
 20 H        1.5170     1.0210    -0.8890 H     1 <1>   0.0800 
 21 H        1.5170     1.0120     0.8820 H     1 <1>   0.0800 
 22 H       -4.0070     3.2100     0.0080 H     1 <1>   0.1500 
 23 H        2.7030     3.1730     0.8880 H     1 <1>   0.0800 
 24 H        2.7030     3.1830    -0.8710 H     1 <1>   0.0800 
 25 H        4.0770     1.1280    -0.8780 H     1 <1>   0.0800 
 26 H        4.0760     1.1180     0.8730 H     1 <1>   0.0800 
 27 H        5.1330     3.2960     0.8340 H     1 <1>   0.4500 
 28 H        5.1340     3.3060    -0.8130 H     1 <1>   0.4500 
 29 H        6.5860     1.3710    -0.8760 H     1 <1>   0.0800 
 30 H        6.5850     1.3610     0.8750 H     1 <1>   0.0800 
 31 H        7.5330     3.6470     0.8890 H     1 <1>   0.0800 
 32 H        7.5340     3.6570    -0.8630 H     1 <1>   0.0800 
 33 H        9.0970     1.7350    -0.8700 H     1 <1>   0.0800 
 34 H        9.0960     1.7250     0.8750 H     1 <1>   0.0800 
 35 H       10.0550     4.0250    -0.8590 H     1 <1>   0.0800 
 36 H       11.0700     2.9050     0.0100 H     1 <1>   0.0800 
 37 H       10.0540     4.0150     0.8910 H     1 <1>   0.0800 
@<TRIPOS>BOND
  1   1   2  1   
  2   2   3  ar  
  3   2   4  ar  
  4   3   5  1   
  5   3   6  ar  
  6   4   7  ar  
  7   4  17  1   
  8   5   8  1   
  9   6   9  ar  
 10   6  18  1   
 11   7   9  ar  
 12   7  19  1   
 13   8  10  1   
 14   8  20  1   
 15   8  21  1   
 16   9  22  1   
 17  10  11  1   
 18  10  23  1   
 19  10  24  1   
 20  11  12  1   
 21  11  25  1   
 22  11  26  1   
 23  12  13  1   
 24  12  27  1   
 25  12  28  1   
 26  13  14  1   
 27  13  29  1   
 28  13  30  1   
 29  14  15  1   
 30  14  31  1   
 31  14  32  1   
 32  15  16  1   
 33  15  33  1   
 34  15  34  1   
 35  16  35  1   
 36  16  36  1   
 37  16  37  1   
@<TRIPOS>SUBSTRUCTURE
  1 ****   8 GROUP 4 **** **** 0

# MOE 2024.06 (io_trps.svl 2023.06)
