@<TRIPOS>MOLECULE
NONAME
40 43 1 0 0 
SMALL
USER_CHARGES


@<TRIPOS>ATOM
  1 I       -1.5260    -0.9390    -0.9750 I     1 <1>  -0.0810 
  2 C       -0.8960     1.1090    -0.9960 C.ar  1 <1>   0.0810 
  3 C       -1.8330     2.1320    -0.8320 C.ar  1 <1>   0.1170 
  4 C        0.4560     1.3380    -1.1750 C.ar  1 <1>  -0.1500 
  5 N       -3.2000     1.8330    -0.6580 N.am  1 <1>  -0.5470 
  6 C       -1.3390     3.4340    -0.8660 C.ar  1 <1>  -0.1500 
  7 C        0.9110     2.6440    -1.1980 C.ar  1 <1>  -0.1500 
  8 C       -4.2750     2.5760    -0.2460 C.2   1 <1>   0.5690 
  9 C        0.0120     3.6870    -1.0440 C.ar  1 <1>  -0.1500 
 10 O       -4.1840     3.7410     0.0590 O.2   1 <1>  -0.5700 
 11 C       -5.6400     1.8570    -0.1670 C.3   1 <1>   0.0610 
 12 C       -6.7750     2.8200     0.2740 C.3   1 <1>  -0.1600 
 13 C       -6.0270     1.2710    -1.5510 C.3   1 <1>  -0.1600 
 14 C       -5.5780     0.6950     0.8580 C.3   1 <1>  -0.1600 
 15 C       -8.1290     2.0910     0.3510 C.3   1 <1>  -0.0800 
 16 C       -7.3760     0.5310    -1.4810 C.3   1 <1>  -0.0800 
 17 C       -6.9260    -0.0470     0.9350 C.3   1 <1>  -0.0800 
 18 C       -8.4710     1.5160    -1.0340 C.3   1 <1>  -0.1600 
 19 C       -8.0240     0.9410     1.3680 C.3   1 <1>  -0.1600 
 20 C       -7.2720    -0.6130    -0.4550 C.3   1 <1>  -0.1600 
 21 H        1.1430     0.5180    -1.2950 H     1 <1>   0.1500 
 22 H       -3.4270     0.8550    -0.8300 H     1 <1>   0.3700 
 23 H       -2.0070     4.2680    -0.7550 H     1 <1>   0.1500 
 24 H        1.9590     2.8510    -1.3360 H     1 <1>   0.1500 
 25 H        0.3640     4.7040    -1.0630 H     1 <1>   0.1500 
 26 H       -6.8470     3.6380    -0.4220 H     1 <1>   0.0800 
 27 H       -6.5390     3.2400     1.2370 H     1 <1>   0.0800 
 28 H       -6.0910     2.0680    -2.2720 H     1 <1>   0.0800 
 29 H       -5.2730     0.5860    -1.8950 H     1 <1>   0.0800 
 30 H       -5.3280     1.0870     1.8290 H     1 <1>   0.0800 
 31 H       -4.8100    -0.0070     0.5860 H     1 <1>   0.0800 
 32 H       -8.8960     2.7810     0.6590 H     1 <1>   0.0800 
 33 H       -7.6230     0.1300    -2.4500 H     1 <1>   0.0800 
 34 H       -6.8600    -0.8510     1.6480 H     1 <1>   0.0800 
 35 H       -8.5580     2.3160    -1.7500 H     1 <1>   0.0800 
 36 H       -9.4210     1.0110    -0.9940 H     1 <1>   0.0800 
 37 H       -7.7960     1.3360     2.3430 H     1 <1>   0.0800 
 38 H       -8.9680     0.4290     1.4370 H     1 <1>   0.0800 
 39 H       -6.5170    -1.3150    -0.7640 H     1 <1>   0.0800 
 40 H       -8.2080    -1.1430    -0.4080 H     1 <1>   0.0800 
@<TRIPOS>BOND
  1   1   2  1   
  2   2   3  ar  
  3   2   4  ar  
  4   3   5  1   
  5   3   6  ar  
  6   4   7  ar  
  7   4  21  1   
  8   5   8  am  
  9   5  22  1   
 10   6   9  ar  
 11   6  23  1   
 12   7   9  ar  
 13   7  24  1   
 14   8  10  2   
 15   8  11  1   
 16   9  25  1   
 17  11  12  1   
 18  11  13  1   
 19  11  14  1   
 20  12  15  1   
 21  12  26  1   
 22  12  27  1   
 23  13  16  1   
 24  13  28  1   
 25  13  29  1   
 26  14  17  1   
 27  14  30  1   
 28  14  31  1   
 29  15  18  1   
 30  15  19  1   
 31  15  32  1   
 32  16  18  1   
 33  16  20  1   
 34  16  33  1   
 35  17  19  1   
 36  17  20  1   
 37  17  34  1   
 38  18  35  1   
 39  18  36  1   
 40  19  37  1   
 41  19  38  1   
 42  20  39  1   
 43  20  40  1   
@<TRIPOS>SUBSTRUCTURE
  1 ****   8 GROUP 4 **** **** 0

# MOE 2024.06 (io_trps.svl 2023.06)
