@<TRIPOS>MOLECULE
NONAME
57 59 1 0 0 
SMALL
USER_CHARGES


@<TRIPOS>ATOM
  1 O       -0.0400    -0.1820    -1.3470 O.3   1 <1>  -0.3630 
  2 C       -0.2040    -0.9080    -0.2040 C.ar  1 <1>   0.0830 
  3 C       -1.1580     0.0290    -2.1840 C.3   1 <1>   0.0400 
  4 C       -1.2140    -0.6350     0.7320 C.ar  1 <1>   0.0830 
  5 C        0.7010    -1.9410     0.0290 C.ar  1 <1>  -0.1440 
  6 O       -2.0550     0.4190     0.5170 O.3   1 <1>  -0.3620 
  7 C       -1.3180    -1.4330     1.8690 C.ar  1 <1>  -0.1500 
  8 C        0.5830    -2.7140     1.1740 C.ar  1 <1>  -0.1500 
  9 C        1.8330    -2.2400    -0.9470 C.3   1 <1>   0.2530 
 10 C       -3.0120     0.8190     1.4730 C.3   1 <1>   0.0400 
 11 C       -0.4250    -2.4660     2.0860 C.ar  1 <1>  -0.1500 
 12 N        3.1160    -1.6900    -0.4570 N.3   1 <1>  -0.8100 
 13 C        3.0310    -0.2240    -0.2590 C.3   1 <1>   0.1100 
 14 C        4.2220    -2.0510    -1.3620 C.3   1 <1>   0.1100 
 15 C        4.3600     0.3600     0.2500 C.3   1 <1>   0.3430 
 16 C        5.5670    -1.4930    -0.8560 C.3   1 <1>   0.3430 
 17 N        5.5110    -0.0030    -0.6530 N.4   1 <1>  -0.9590 
 18 C        6.8240     0.5530    -0.2210 C.3   1 <1>   0.4230 
 19 C        7.1440     0.1880     1.2410 C.3   1 <1>  -0.1600 
 20 C        6.8030     2.0750    -0.4380 C.3   1 <1>  -0.1600 
 21 C        8.6460     0.0150     1.5180 C.3   1 <1>  -0.1600 
 22 C        8.1950     2.7230    -0.4820 C.3   1 <1>  -0.1600 
 23 C        9.5860     1.0000     0.8050 C.3   1 <1>  -0.1600 
 24 C        9.0790     2.4480     0.7450 C.3   1 <1>  -0.1600 
 25 H       -1.8030    -0.8320    -2.1390 H     1 <1>   0.0800 
 26 H       -0.8050     0.1730    -3.1890 H     1 <1>   0.0800 
 27 H       -1.6800     0.9090    -1.8550 H     1 <1>   0.0800 
 28 H       -2.0840    -1.2680     2.6020 H     1 <1>   0.1500 
 29 H        1.2830    -3.5100     1.3580 H     1 <1>   0.1500 
 30 H        1.6070    -1.8420    -1.9210 H     1 <1>   0.0800 
 31 H        1.9210    -3.3080    -1.0470 H     1 <1>   0.0800 
 32 H       -3.5130     1.6930     1.0980 H     1 <1>   0.0800 
 33 H       -2.5080     1.0550     2.3940 H     1 <1>   0.0800 
 34 H       -3.7220     0.0240     1.6120 H     1 <1>   0.0800 
 35 H       -0.5110    -3.0760     2.9690 H     1 <1>   0.1500 
 36 H        2.2760     0.0000     0.4750 H     1 <1>   0.0800 
 37 H        2.7450     0.2590    -1.1780 H     1 <1>   0.0800 
 38 H        4.0250    -1.6780    -2.3530 H     1 <1>   0.0800 
 39 H        4.2930    -3.1240    -1.4200 H     1 <1>   0.0800 
 40 H        4.5360    -0.0260     1.2400 H     1 <1>   0.0800 
 41 H        4.2680     1.4300     0.3220 H     1 <1>   0.0800 
 42 H        6.3410    -1.7390    -1.5640 H     1 <1>   0.0800 
 43 H        5.8020    -1.9800     0.0760 H     1 <1>   0.0800 
 44 H        5.2970     0.4060    -1.5690 H     1 <1>   0.4500 
 45 H        7.5900     0.1340    -0.8540 H     1 <1>   0.0800 
 46 H        6.6670    -0.7320     1.5250 H     1 <1>   0.0800 
 47 H        6.7640     0.9530     1.8960 H     1 <1>   0.0800 
 48 H        6.2300     2.5520     0.3380 H     1 <1>   0.0800 
 49 H        6.3270     2.2950    -1.3780 H     1 <1>   0.0800 
 50 H        8.9450    -0.9840     1.2460 H     1 <1>   0.0800 
 51 H        8.8010     0.1030     2.5810 H     1 <1>   0.0800 
 52 H        8.0650     3.7890    -0.5670 H     1 <1>   0.0800 
 53 H        8.7150     2.4040    -1.3690 H     1 <1>   0.0800 
 54 H        9.8000     0.6500    -0.1910 H     1 <1>   0.0800 
 55 H       10.5240     0.9920     1.3350 H     1 <1>   0.0800 
 56 H        8.5710     2.7160     1.6570 H     1 <1>   0.0800 
 57 H        9.9400     3.0910     0.6690 H     1 <1>   0.0800 
@<TRIPOS>BOND
  1   1   2  1   
  2   1   3  1   
  3   2   4  ar  
  4   2   5  ar  
  5   3  25  1   
  6   3  26  1   
  7   3  27  1   
  8   4   6  1   
  9   4   7  ar  
 10   5   8  ar  
 11   5   9  1   
 12   6  10  1   
 13   7  11  ar  
 14   7  28  1   
 15   8  11  ar  
 16   8  29  1   
 17   9  12  1   
 18   9  30  1   
 19   9  31  1   
 20  10  32  1   
 21  10  33  1   
 22  10  34  1   
 23  11  35  1   
 24  12  13  1   
 25  12  14  1   
 26  13  15  1   
 27  13  36  1   
 28  13  37  1   
 29  14  16  1   
 30  14  38  1   
 31  14  39  1   
 32  15  17  1   
 33  15  40  1   
 34  15  41  1   
 35  16  17  1   
 36  16  42  1   
 37  16  43  1   
 38  17  18  1   
 39  17  44  1   
 40  18  19  1   
 41  18  20  1   
 42  18  45  1   
 43  19  21  1   
 44  19  46  1   
 45  19  47  1   
 46  20  22  1   
 47  20  48  1   
 48  20  49  1   
 49  21  23  1   
 50  21  50  1   
 51  21  51  1   
 52  22  24  1   
 53  22  52  1   
 54  22  53  1   
 55  23  24  1   
 56  23  54  1   
 57  23  55  1   
 58  24  56  1   
 59  24  57  1   
@<TRIPOS>SUBSTRUCTURE
  1 ****  13 GROUP 4 **** **** 0

# MOE 2024.06 (io_trps.svl 2023.06)
