@<TRIPOS>MOLECULE
NONAME
32 33 1 0 0 
SMALL
USER_CHARGES


@<TRIPOS>ATOM
  1 BR       0.7230     1.4530    -1.8870 Br    1 <1>  -0.0580 
  2 C       -0.3750     2.3860    -0.6160 C.2   1 <1>   0.1980 
  3 O       -1.6290     2.5950    -0.9260 O.3   1 <1>  -0.2800 
  4 C       -0.0410     2.8740     0.5930 C.2   1 <1>  -0.1500 
  5 C       -2.1820     3.2490     0.0990 C.2   1 <1>   0.0550 
  6 C       -1.2290     3.4420     1.0610 C.2   1 <1>  -0.1500 
  7 C       -3.5730     3.6450     0.0810 C.2   1 <1>   0.7150 
  8 O       -4.0540     4.2740     1.0090 O.2   1 <1>  -0.5700 
  9 N       -4.4470     3.2920    -0.9250 N.am  1 <1>  -0.6600 
 10 C       -5.5090     4.2420    -1.3880 C.3   1 <1>   0.1400 
 11 C       -4.6630     1.8700    -1.2870 C.3   1 <1>   0.1400 
 12 C       -6.7110     4.3390    -0.4220 C.3   1 <1>   0.3430 
 13 C       -5.5690     1.1970    -0.2470 C.3   1 <1>  -0.1600 
 14 N       -6.7420     3.2330     0.5890 N.4   1 <1>  -0.9590 
 15 C       -6.9220     1.8820    -0.0170 C.3   1 <1>   0.3430 
 16 C       -7.7280     3.5090     1.6730 C.3   1 <1>   0.2630 
 17 H        0.9090     2.8460     1.0960 H     1 <1>   0.1500 
 18 H       -1.3500     3.9400     2.0080 H     1 <1>   0.1500 
 19 H       -5.8570     3.9430    -2.3610 H     1 <1>   0.0800 
 20 H       -5.0780     5.2230    -1.4990 H     1 <1>   0.0800 
 21 H       -3.7210     1.3510    -1.3270 H     1 <1>   0.0800 
 22 H       -5.1050     1.8070    -2.2670 H     1 <1>   0.0800 
 23 H       -7.6280     4.3600    -0.9860 H     1 <1>   0.0800 
 24 H       -6.6310     5.2800     0.0990 H     1 <1>   0.0800 
 25 H       -5.0450     1.1100     0.6880 H     1 <1>   0.0800 
 26 H       -5.7600     0.1940    -0.5840 H     1 <1>   0.0800 
 27 H       -5.7860     3.2660     1.0010 H     1 <1>   0.4500 
 28 H       -7.5010     1.2650     0.6520 H     1 <1>   0.0800 
 29 H       -7.4630     1.9600    -0.9460 H     1 <1>   0.0800 
 30 H       -8.7300     3.5250     1.2760 H     1 <1>   0.0800 
 31 H       -7.5200     4.4640     2.1290 H     1 <1>   0.0800 
 32 H       -7.6670     2.7480     2.4340 H     1 <1>   0.0800 
@<TRIPOS>BOND
  1   1   2  1   
  2   2   3  1   
  3   2   4  2   
  4   3   5  1   
  5   4   6  1   
  6   4  17  1   
  7   5   6  2   
  8   5   7  1   
  9   6  18  1   
 10   7   8  2   
 11   7   9  am  
 12   9  10  1   
 13   9  11  1   
 14  10  12  1   
 15  10  19  1   
 16  10  20  1   
 17  11  13  1   
 18  11  21  1   
 19  11  22  1   
 20  12  14  1   
 21  12  23  1   
 22  12  24  1   
 23  13  15  1   
 24  13  25  1   
 25  13  26  1   
 26  14  15  1   
 27  14  16  1   
 28  14  27  1   
 29  15  28  1   
 30  15  29  1   
 31  16  30  1   
 32  16  31  1   
 33  16  32  1   
@<TRIPOS>SUBSTRUCTURE
  1 ****   7 GROUP 4 **** **** 0

# MOE 2024.06 (io_trps.svl 2023.06)
