@<TRIPOS>MOLECULE
NONAME
33 33 1 0 0 
SMALL
USER_CHARGES


@<TRIPOS>ATOM
  1 CL       0.0150    -0.4120     1.0340 Cl    1 <1>  -0.1770 
  2 C        1.6670    -0.9270     0.8150 C.ar  1 <1>   0.1770 
  3 C        2.3590    -1.4560     1.8910 C.ar  1 <1>  -0.1500 
  4 C        2.2560    -0.7980    -0.4310 C.ar  1 <1>  -0.1500 
  5 C        3.6710    -1.8640     1.7140 C.ar  1 <1>  -0.1500 
  6 C        3.5680    -1.2060    -0.6090 C.ar  1 <1>  -0.1500 
  7 C        4.2650    -1.7360     0.4690 C.ar  1 <1>   0.1020 
  8 S        5.9730    -2.2910     0.3270 S.3   1 <1>  -0.3320 
  9 C        6.4980    -1.9610    -1.4310 C.3   1 <1>   0.1310 
 10 C        7.9430    -2.3650    -1.6830 C.2   1 <1>   0.5690 
 11 O        8.3860    -2.2220    -2.7970 O.2   1 <1>  -0.5700 
 12 N        8.6960    -2.8710    -0.6710 N.am  1 <1>  -0.7300 
 13 C       10.1130    -3.2710    -0.7670 C.3   1 <1>   0.1400 
 14 C       10.8790    -2.6810     0.4150 C.3   1 <1>  -0.1600 
 15 C       12.3600    -3.0390     0.3320 C.3   1 <1>   0.1200 
 16 O       12.9830    -2.5140     1.4560 O.3   1 <1>  -0.5600 
 17 C       14.3530    -2.7460     1.5040 C.3   1 <1>   0.0400 
 18 H        1.8760    -1.5440     2.8470 H     1 <1>   0.1500 
 19 H        1.6900    -0.3830    -1.2460 H     1 <1>   0.1500 
 20 H        4.2310    -2.2780     2.5340 H     1 <1>   0.1500 
 21 H        4.0180    -1.1040    -1.5770 H     1 <1>   0.1500 
 22 H        6.3790    -0.9090    -1.6090 H     1 <1>   0.0800 
 23 H        5.8460    -2.5250    -2.0720 H     1 <1>   0.0800 
 24 H        8.2590    -2.9730     0.2500 H     1 <1>   0.3700 
 25 H       10.5300    -2.9130    -1.6940 H     1 <1>   0.0800 
 26 H       10.1780    -4.3460    -0.7550 H     1 <1>   0.0800 
 27 H       10.4770    -3.0700     1.3330 H     1 <1>   0.0800 
 28 H       10.7800    -1.6100     0.4040 H     1 <1>   0.0800 
 29 H       12.8080    -2.6060    -0.5470 H     1 <1>   0.0800 
 30 H       12.4970    -4.1070     0.3300 H     1 <1>   0.0800 
 31 H       14.7350    -2.3040     2.4070 H     1 <1>   0.0800 
 32 H       14.8220    -2.2880     0.6500 H     1 <1>   0.0800 
 33 H       14.5340    -3.8070     1.5150 H     1 <1>   0.0800 
@<TRIPOS>BOND
  1   1   2  1   
  2   2   3  ar  
  3   2   4  ar  
  4   3   5  ar  
  5   3  18  1   
  6   4   6  ar  
  7   4  19  1   
  8   5   7  ar  
  9   5  20  1   
 10   6   7  ar  
 11   6  21  1   
 12   7   8  1   
 13   8   9  1   
 14   9  10  1   
 15   9  22  1   
 16   9  23  1   
 17  10  11  2   
 18  10  12  am  
 19  12  13  1   
 20  12  24  1   
 21  13  14  1   
 22  13  25  1   
 23  13  26  1   
 24  14  15  1   
 25  14  27  1   
 26  14  28  1   
 27  15  16  1   
 28  15  29  1   
 29  15  30  1   
 30  16  17  1   
 31  17  31  1   
 32  17  32  1   
 33  17  33  1   
@<TRIPOS>SUBSTRUCTURE
  1 ****   8 GROUP 4 **** **** 0

# MOE 2024.06 (io_trps.svl 2023.06)
