@<TRIPOS>MOLECULE
NONAME
45 48 1 0 0 
SMALL
USER_CHARGES


@<TRIPOS>ATOM
  1 O        0.0610     0.8470    -1.2510 O.2   1 <1>  -0.5700 
  2 C       -0.6720     1.6030    -0.6610 C.2   1 <1>   0.5690 
  3 N       -1.9340     1.2370    -0.2670 N.am  1 <1>  -0.5470 
  4 C       -0.1680     3.0310    -0.3470 C.3   1 <1>   0.0610 
  5 C       -2.6240     0.0150    -0.3940 C.ar  1 <1>   0.1170 
  6 C        1.0630     2.9520     0.5880 C.3   1 <1>  -0.1600 
  7 C       -1.2400     3.9190     0.3460 C.3   1 <1>  -0.1600 
  8 C        0.2590     3.7370    -1.6580 C.3   1 <1>  -0.1600 
  9 C       -4.0200    -0.0080    -0.3650 C.ar  1 <1>   0.1600 
 10 C       -1.9760    -1.2030    -0.5320 C.ar  1 <1>  -0.1500 
 11 C        1.6330     4.3530     0.8890 C.3   1 <1>   0.0000 
 12 C       -0.6960     5.3310     0.6430 C.3   1 <1>   0.0000 
 13 C        0.8170     5.1420    -1.3720 C.3   1 <1>  -0.0800 
 14 N       -4.7850    -1.0850    -0.4570 N.ar  1 <1>  -0.6200 
 15 C       -2.7510    -2.3380    -0.6340 C.ar  1 <1>  -0.1500 
 16 C        0.5370     5.2040     1.5610 C.3   1 <1>  -0.1600 
 17 C        2.0370     5.0220    -0.4410 C.3   1 <1>  -0.1600 
 18 C        2.8520     4.2390     1.8120 C.3   1 <1>  -0.2400 
 19 C       -0.2660     5.9890    -0.6830 C.3   1 <1>  -0.1600 
 20 C       -1.7750     6.1800     1.3260 C.3   1 <1>  -0.2400 
 21 C       -4.1300    -2.2270    -0.5910 C.ar  1 <1>   0.1600 
 22 H       -2.4670     1.9910     0.1610 H     1 <1>   0.3700 
 23 H        1.8250     2.3490     0.1230 H     1 <1>   0.0800 
 24 H        0.7850     2.4660     1.5060 H     1 <1>   0.0800 
 25 H       -1.5450     3.4640     1.2720 H     1 <1>   0.0800 
 26 H       -2.1050     4.0060    -0.2890 H     1 <1>   0.0800 
 27 H       -0.5820     3.8080    -2.3250 H     1 <1>   0.0800 
 28 H        1.0140     3.1510    -2.1560 H     1 <1>   0.0800 
 29 H       -4.5350     0.9300    -0.2620 H     1 <1>   0.1500 
 30 H       -0.9030    -1.2690    -0.5570 H     1 <1>   0.1500 
 31 H        1.1120     5.6110    -2.2960 H     1 <1>   0.0800 
 32 H       -2.2900    -3.3030    -0.7450 H     1 <1>   0.1500 
 33 H        0.2500     4.7530     2.4950 H     1 <1>   0.0800 
 34 H        0.9260     6.1840     1.7790 H     1 <1>   0.0800 
 35 H        2.8020     4.4410    -0.9250 H     1 <1>   0.0800 
 36 H        2.4420     6.0000    -0.2510 H     1 <1>   0.0800 
 37 H        2.5790     3.7720     2.7420 H     1 <1>   0.0800 
 38 H        3.2560     5.2120     2.0250 H     1 <1>   0.0800 
 39 H        3.6210     3.6460     1.3480 H     1 <1>   0.0800 
 40 H        0.1180     6.9760    -0.4940 H     1 <1>   0.0800 
 41 H       -1.1140     6.0900    -1.3380 H     1 <1>   0.0800 
 42 H       -2.0800     5.7300     2.2540 H     1 <1>   0.0800 
 43 H       -2.6390     6.2750     0.6920 H     1 <1>   0.0800 
 44 H       -1.3990     7.1660     1.5350 H     1 <1>   0.0800 
 45 H       -4.7240    -3.1220    -0.6720 H     1 <1>   0.1500 
@<TRIPOS>BOND
  1   1   2  2   
  2   2   3  am  
  3   2   4  1   
  4   3   5  1   
  5   3  22  1   
  6   4   6  1   
  7   4   7  1   
  8   4   8  1   
  9   5   9  ar  
 10   5  10  ar  
 11   6  11  1   
 12   6  23  1   
 13   6  24  1   
 14   7  12  1   
 15   7  25  1   
 16   7  26  1   
 17   8  13  1   
 18   8  27  1   
 19   8  28  1   
 20   9  14  ar  
 21   9  29  1   
 22  10  15  ar  
 23  10  30  1   
 24  11  16  1   
 25  11  17  1   
 26  11  18  1   
 27  12  16  1   
 28  12  19  1   
 29  12  20  1   
 30  13  17  1   
 31  13  19  1   
 32  13  31  1   
 33  14  21  ar  
 34  15  21  ar  
 35  15  32  1   
 36  16  33  1   
 37  16  34  1   
 38  17  35  1   
 39  17  36  1   
 40  18  37  1   
 41  18  38  1   
 42  18  39  1   
 43  19  40  1   
 44  19  41  1   
 45  20  42  1   
 46  20  43  1   
 47  20  44  1   
 48  21  45  1   
@<TRIPOS>SUBSTRUCTURE
  1 ****   4 GROUP 4 **** **** 0

# MOE 2024.06 (io_trps.svl 2023.06)
