@<TRIPOS>MOLECULE
NONAME
37 38 1 0 0 
SMALL
USER_CHARGES


@<TRIPOS>ATOM
  1 F        1.1390    -1.1280    -1.9630 F     1 <1>  -0.1900 
  2 C        0.1820    -1.9060    -1.5170 C.ar  1 <1>   0.1900 
  3 C        0.4770    -2.8220    -0.5030 C.ar  1 <1>   0.1170 
  4 C       -1.0720    -1.7710    -2.0780 C.ar  1 <1>  -0.1500 
  5 N        1.7830    -2.8940     0.0170 N.am  1 <1>  -0.5470 
  6 C       -0.5680    -3.6230    -0.0420 C.ar  1 <1>  -0.1500 
  7 C       -2.0680    -2.5920    -1.5900 C.ar  1 <1>   0.1900 
  8 C        2.4520    -3.8770     0.6840 C.2   1 <1>   0.6900 
  9 C       -1.8410    -3.5140    -0.5830 C.ar  1 <1>  -0.1500 
 10 F       -3.2690    -2.4940    -2.0960 F     1 <1>  -0.1900 
 11 O        1.9420    -4.9660     0.8740 O.2   1 <1>  -0.5700 
 12 N        3.7340    -3.6250     1.0980 N.am  1 <1>  -0.6600 
 13 C        4.6650    -4.7540     1.3580 C.3   1 <1>   0.1400 
 14 C        4.2020    -2.2770     1.5280 C.3   1 <1>   0.1400 
 15 C        5.0660    -5.4480     0.0490 C.3   1 <1>  -0.1600 
 16 C        5.5780    -1.8920     0.9610 C.3   1 <1>  -0.1600 
 17 C        5.2900    -4.5430    -1.1780 C.3   1 <1>  -0.1600 
 18 C        5.7550    -2.0620    -0.5590 C.3   1 <1>  -0.1600 
 19 C        6.3310    -3.4240    -0.9980 C.3   1 <1>  -0.1600 
 20 H       -1.2670    -1.0590    -2.8580 H     1 <1>   0.1500 
 21 H        2.4140    -2.1710    -0.3180 H     1 <1>   0.3700 
 22 H       -0.3930    -4.3360     0.7440 H     1 <1>   0.1500 
 23 H       -2.6450    -4.1340    -0.2300 H     1 <1>   0.1500 
 24 H        4.1860    -5.4670     2.0080 H     1 <1>   0.0800 
 25 H        5.5460    -4.4030     1.8630 H     1 <1>   0.0800 
 26 H        4.2510    -2.2630     2.6030 H     1 <1>   0.0800 
 27 H        3.4880    -1.5280     1.2370 H     1 <1>   0.0800 
 28 H        4.2900    -6.1520    -0.1970 H     1 <1>   0.0800 
 29 H        5.9560    -6.0220     0.2340 H     1 <1>   0.0800 
 30 H        6.3580    -2.4150     1.4840 H     1 <1>   0.0800 
 31 H        5.7200    -0.8500     1.1920 H     1 <1>   0.0800 
 32 H        4.3530    -4.1240    -1.5010 H     1 <1>   0.0800 
 33 H        5.6250    -5.1800    -1.9790 H     1 <1>   0.0800 
 34 H        6.4600    -1.3130    -0.8770 H     1 <1>   0.0800 
 35 H        4.8330    -1.8540    -1.0750 H     1 <1>   0.0800 
 36 H        6.7870    -3.2690    -1.9610 H     1 <1>   0.0800 
 37 H        7.1170    -3.7420    -0.3350 H     1 <1>   0.0800 
@<TRIPOS>BOND
  1   1   2  1   
  2   2   3  ar  
  3   2   4  ar  
  4   3   5  1   
  5   3   6  ar  
  6   4   7  ar  
  7   4  20  1   
  8   5   8  am  
  9   5  21  1   
 10   6   9  ar  
 11   6  22  1   
 12   7   9  ar  
 13   7  10  1   
 14   8  11  2   
 15   8  12  am  
 16   9  23  1   
 17  12  13  1   
 18  12  14  1   
 19  13  15  1   
 20  13  24  1   
 21  13  25  1   
 22  14  16  1   
 23  14  26  1   
 24  14  27  1   
 25  15  17  1   
 26  15  28  1   
 27  15  29  1   
 28  16  18  1   
 29  16  30  1   
 30  16  31  1   
 31  17  19  1   
 32  17  32  1   
 33  17  33  1   
 34  18  19  1   
 35  18  34  1   
 36  18  35  1   
 37  19  36  1   
 38  19  37  1   
@<TRIPOS>SUBSTRUCTURE
  1 ****   5 GROUP 4 **** **** 0

# MOE 2024.06 (io_trps.svl 2023.06)
