@<TRIPOS>MOLECULE
NONAME
56 57 1 0 0 
SMALL
USER_CHARGES


@<TRIPOS>ATOM
  1 S        1.3300     0.9250    -1.4680 S.o2  1 <1>   1.4470 
  2 O        0.7490     0.7360    -2.7820 O.2   1 <1>  -0.6500 
  3 O        2.7640     0.7560    -1.3310 O.2   1 <1>  -0.6500 
  4 N        0.5550    -0.1920    -0.4500 N.am  1 <1>  -0.8490 
  5 C        0.8200     2.5270    -0.7990 C.ar  1 <1>  -0.0090 
  6 C       -0.8780    -0.3030    -0.7160 C.3   1 <1>   0.1960 
  7 C        1.2300    -1.4870    -0.3980 C.3   1 <1>   0.1960 
  8 C        1.3460     3.0010     0.3970 C.ar  1 <1>   0.0820 
  9 C       -0.1220     3.3120    -1.4530 C.ar  1 <1>  -0.1500 
 10 C       -1.6040    -0.7960     0.5340 C.3   1 <1>  -0.2400 
 11 C        1.9850    -1.5710     0.9230 C.3   1 <1>  -0.2400 
 12 O        2.2800     2.2540     1.0290 O.3   1 <1>  -0.3620 
 13 C        0.9210     4.2150     0.9230 C.ar  1 <1>  -0.1500 
 14 C       -0.5440     4.5300    -0.9430 C.ar  1 <1>  -0.1430 
 15 C        3.3680     2.8910     1.6820 C.3   1 <1>   0.1810 
 16 C       -0.0200     4.9850     0.2600 C.ar  1 <1>  -0.1430 
 17 C       -1.5780     5.3370    -1.7170 C.3   1 <1>  -0.0970 
 18 C        4.6140     2.0120     1.7180 C.2   1 <1>   0.5690 
 19 C       -0.4580     6.3100     0.8680 C.3   1 <1>  -0.0970 
 20 O        5.3760     2.1570     2.6450 O.2   1 <1>  -0.5700 
 21 N        4.8700     1.1330     0.7120 N.am  1 <1>  -0.7300 
 22 C        6.1130     0.3540     0.5690 C.3   1 <1>   0.2200 
 23 C        6.7180     0.6240    -0.8030 C.3   1 <1>  -0.1600 
 24 C        5.7890    -1.1340     0.5300 C.3   1 <1>  -0.1600 
 25 C        6.0050    -0.3220    -1.7750 C.3   1 <1>  -0.1600 
 26 C        5.4020    -1.4430    -0.9190 C.3   1 <1>  -0.1600 
 27 H       -1.0540    -0.9600    -1.5530 H     1 <1>   0.0800 
 28 H       -1.2760     0.6660    -0.9680 H     1 <1>   0.0800 
 29 H        1.9100    -1.6010    -1.2270 H     1 <1>   0.0800 
 30 H        0.5230    -2.2980    -0.4490 H     1 <1>   0.0800 
 31 H       -0.5300     2.9570    -2.3840 H     1 <1>   0.1500 
 32 H       -1.3080    -1.7960     0.7890 H     1 <1>   0.0800 
 33 H       -2.6640    -0.7940     0.3580 H     1 <1>   0.0800 
 34 H       -1.3940    -0.1410     1.3600 H     1 <1>   0.0800 
 35 H        2.6860    -0.7600     1.0020 H     1 <1>   0.0800 
 36 H        2.5240    -2.4990     0.9790 H     1 <1>   0.0800 
 37 H        1.2970    -1.5190     1.7460 H     1 <1>   0.0800 
 38 H        1.3170     4.5600     1.8600 H     1 <1>   0.1500 
 39 H        3.0640     3.1250     2.6850 H     1 <1>   0.0800 
 40 H        3.6070     3.7950     1.1540 H     1 <1>   0.0800 
 41 H       -1.8610     4.8360    -2.6250 H     1 <1>   0.0800 
 42 H       -1.1750     6.2990    -1.9770 H     1 <1>   0.0800 
 43 H       -2.4610     5.4750    -1.1200 H     1 <1>   0.0800 
 44 H        0.0470     6.4960     1.7980 H     1 <1>   0.0800 
 45 H       -1.5160     6.2970     1.0570 H     1 <1>   0.0800 
 46 H       -0.2310     7.1180     0.1950 H     1 <1>   0.0800 
 47 H        4.1730     0.9900    -0.0370 H     1 <1>   0.3700 
 48 H        6.8010     0.5930     1.3640 H     1 <1>   0.0800 
 49 H        7.7620     0.3660    -0.7700 H     1 <1>   0.0800 
 50 H        6.6280     1.6570    -1.0900 H     1 <1>   0.0800 
 51 H        5.0240    -1.4000     1.2370 H     1 <1>   0.0800 
 52 H        6.6840    -1.6790     0.7740 H     1 <1>   0.0800 
 53 H        6.6910    -0.7110    -2.5070 H     1 <1>   0.0800 
 54 H        5.2170     0.2050    -2.2840 H     1 <1>   0.0800 
 55 H        4.3320    -1.4300    -1.0220 H     1 <1>   0.0800 
 56 H        5.7680    -2.4100    -1.2190 H     1 <1>   0.0800 
@<TRIPOS>BOND
  1   1   2  2   
  2   1   3  2   
  3   1   4  am  
  4   1   5  1   
  5   4   6  1   
  6   4   7  1   
  7   5   8  ar  
  8   5   9  ar  
  9   6  10  1   
 10   6  27  1   
 11   6  28  1   
 12   7  11  1   
 13   7  29  1   
 14   7  30  1   
 15   8  12  1   
 16   8  13  ar  
 17   9  14  ar  
 18   9  31  1   
 19  10  32  1   
 20  10  33  1   
 21  10  34  1   
 22  11  35  1   
 23  11  36  1   
 24  11  37  1   
 25  12  15  1   
 26  13  16  ar  
 27  13  38  1   
 28  14  16  ar  
 29  14  17  1   
 30  15  18  1   
 31  15  39  1   
 32  15  40  1   
 33  16  19  1   
 34  17  41  1   
 35  17  42  1   
 36  17  43  1   
 37  18  20  2   
 38  18  21  am  
 39  19  44  1   
 40  19  45  1   
 41  19  46  1   
 42  21  22  1   
 43  21  47  1   
 44  22  23  1   
 45  22  24  1   
 46  22  48  1   
 47  23  25  1   
 48  23  49  1   
 49  23  50  1   
 50  24  26  1   
 51  24  51  1   
 52  24  52  1   
 53  25  26  1   
 54  25  53  1   
 55  25  54  1   
 56  26  55  1   
 57  26  56  1   
@<TRIPOS>SUBSTRUCTURE
  1 ****  12 GROUP 4 **** **** 0

# MOE 2024.06 (io_trps.svl 2023.06)
