@<TRIPOS>MOLECULE
NONAME
28 28 1 0 0 
SMALL
USER_CHARGES


@<TRIPOS>ATOM
  1 P        0.2410     0.0830     0.5780 P.3   1 <1>   0.9000 
  2 O        0.9800     0.5100     1.7970 O.co2 1 <1>  -0.9500 
  3 O       -0.9480     0.8370     0.0930 O.co2 1 <1>  -0.9500 
  4 C        1.3530    -0.1380    -0.8010 C.3   1 <1>   0.0640 
  5 C       -0.3540    -1.5690     0.9070 C.3   1 <1>  -0.2400 
  6 C        2.3140    -1.3420    -0.7340 C.ar  1 <1>  -0.1440 
  7 C        2.0960     1.1630    -1.0870 C.3   1 <1>   1.0200 
  8 C        3.1180    -1.5590     0.3770 C.ar  1 <1>  -0.1500 
  9 C        2.3890    -2.2300    -1.7980 C.ar  1 <1>  -0.1500 
 10 F        3.0010     1.5120    -0.1780 F     1 <1>  -0.3400 
 11 F        1.3240     2.2270    -1.2760 F     1 <1>  -0.3400 
 12 F        2.7880     1.0510    -2.2230 F     1 <1>  -0.3400 
 13 C        3.9830    -2.6410     0.4320 C.ar  1 <1>   0.0830 
 14 C        3.2490    -3.3140    -1.7530 C.ar  1 <1>  -0.1500 
 15 O        4.7320    -2.7740     1.5570 O.3   1 <1>  -0.3630 
 16 C        4.0460    -3.5220    -0.6420 C.ar  1 <1>  -0.1500 
 17 C        5.6290    -3.8470     1.7210 C.3   1 <1>   0.0400 
 18 H        0.7340    -0.2910    -1.6620 H     1 <1>   0.0800 
 19 H       -1.0810    -1.5470     1.6950 H     1 <1>   0.0800 
 20 H        0.4350    -2.2220     1.2220 H     1 <1>   0.0800 
 21 H       -0.8250    -1.9990     0.0470 H     1 <1>   0.0800 
 22 H        3.0760    -0.8850     1.2190 H     1 <1>   0.1500 
 23 H        1.7780    -2.0840    -2.6720 H     1 <1>   0.1500 
 24 H        3.2970    -3.9940    -2.5850 H     1 <1>   0.1500 
 25 H        4.7050    -4.3690    -0.6320 H     1 <1>   0.1500 
 26 H        6.0970    -3.7440     2.6830 H     1 <1>   0.0800 
 27 H        6.3720    -3.8010     0.9450 H     1 <1>   0.0800 
 28 H        5.0790    -4.7700     1.6780 H     1 <1>   0.0800 
@<TRIPOS>BOND
  1   1   2  ar  
  2   1   3  ar  
  3   1   4  1   
  4   1   5  1   
  5   4   6  1   
  6   4   7  1   
  7   4  18  1   
  8   5  19  1   
  9   5  20  1   
 10   5  21  1   
 11   6   8  ar  
 12   6   9  ar  
 13   7  10  1   
 14   7  11  1   
 15   7  12  1   
 16   8  13  ar  
 17   8  22  1   
 18   9  14  ar  
 19   9  23  1   
 20  13  15  1   
 21  13  16  ar  
 22  14  16  ar  
 23  14  24  1   
 24  15  17  1   
 25  16  25  1   
 26  17  26  1   
 27  17  27  1   
 28  17  28  1   
@<TRIPOS>SUBSTRUCTURE
  1 ****   6 GROUP 4 **** **** 0

# MOE 2024.06 (io_trps.svl 2023.06)
