@<TRIPOS>MOLECULE
NONAME
48 50 1 0 0 
SMALL
USER_CHARGES


@<TRIPOS>ATOM
  1 CL       2.0090     0.7850     2.1660 Cl    1 <1>  -0.1770 
  2 C        2.8050     0.4890     0.6410 C.ar  1 <1>   0.1770 
  3 C        4.0280    -0.1500     0.6370 C.ar  1 <1>  -0.1500 
  4 C        2.2000     0.9030    -0.5310 C.ar  1 <1>  -0.1500 
  5 C        4.6790    -0.3910    -0.5670 C.ar  1 <1>   0.1000 
  6 C        2.8410     0.6650    -1.7350 C.ar  1 <1>  -0.1500 
  7 N        5.9210    -1.0210    -0.6200 N.pl3 1 <1>  -0.8380 
  8 C        4.0680     0.0230    -1.7470 C.ar  1 <1>  -0.1500 
  9 C        7.1080    -0.2150    -1.0370 C.3   1 <1>   0.2090 
 10 C        6.2040    -2.2240     0.2250 C.3   1 <1>   0.2090 
 11 C        8.0350     0.0870     0.1580 C.3   1 <1>   0.3430 
 12 C        7.1560    -1.8920     1.3950 C.3   1 <1>   0.3430 
 13 N        8.3820    -1.1540     0.9380 N.4   1 <1>  -0.9590 
 14 C        9.3490    -0.8870     2.0320 C.3   1 <1>   0.4860 
 15 C       10.6620    -0.4280     1.4220 C.ar  1 <1>  -0.1430 
 16 C       11.3260    -1.2330     0.5000 C.ar  1 <1>   0.0820 
 17 C       11.2060     0.7970     1.7780 C.ar  1 <1>  -0.1500 
 18 O       10.7450    -2.4100     0.1620 O.3   1 <1>  -0.3630 
 19 C       12.5330    -0.8140    -0.0480 C.ar  1 <1>  -0.1500 
 20 C       12.4030     1.2150     1.2210 C.ar  1 <1>  -0.1500 
 21 C       10.9400    -2.9770    -1.1140 C.3   1 <1>   0.2580 
 22 C       13.0650     0.4100     0.3110 C.ar  1 <1>  -0.1500 
 23 C        9.6750    -3.7500    -1.4280 C.2   1 <1>  -0.2880 
 24 C        8.8080    -3.4580    -2.4030 C.2   1 <1>  -0.3000 
 25 H        4.4600    -0.4480     1.5700 H     1 <1>   0.1500 
 26 H        1.2460     1.3980    -0.4990 H     1 <1>   0.1500 
 27 H        2.3840     0.9750    -2.6600 H     1 <1>   0.1500 
 28 H        4.5600    -0.1690    -2.6830 H     1 <1>   0.1500 
 29 H        6.7820     0.7140    -1.4740 H     1 <1>   0.0800 
 30 H        7.6540    -0.7550    -1.7910 H     1 <1>   0.0800 
 31 H        6.6480    -2.9850    -0.3930 H     1 <1>   0.0800 
 32 H        5.2810    -2.6230     0.6110 H     1 <1>   0.0800 
 33 H        7.5340     0.7900     0.8030 H     1 <1>   0.0800 
 34 H        8.9340     0.5550    -0.2070 H     1 <1>   0.0800 
 35 H        7.4410    -2.8090     1.8830 H     1 <1>   0.0800 
 36 H        6.6180    -1.2890     2.1060 H     1 <1>   0.0800 
 37 H        8.9030    -1.7770     0.2940 H     1 <1>   0.4500 
 38 H        9.5270    -1.7900     2.5940 H     1 <1>   0.0800 
 39 H        8.9630    -0.1350     2.7000 H     1 <1>   0.0800 
 40 H       10.7150     1.4380     2.4910 H     1 <1>   0.1500 
 41 H       13.0730    -1.4300    -0.7450 H     1 <1>   0.1500 
 42 H       12.8260     2.1670     1.4990 H     1 <1>   0.1500 
 43 H       11.8030    -3.6190    -1.0810 H     1 <1>   0.0800 
 44 H       11.0890    -2.1900    -1.8340 H     1 <1>   0.0800 
 45 H       14.0000     0.7380    -0.1120 H     1 <1>   0.1500 
 46 H        9.5440    -4.5930    -0.7690 H     1 <1>   0.1500 
 47 H        7.9190    -4.0310    -2.6090 H     1 <1>   0.1500 
 48 H        8.9110    -2.6330    -3.0880 H     1 <1>   0.1500 
@<TRIPOS>BOND
  1   1   2  1   
  2   2   3  ar  
  3   2   4  ar  
  4   3   5  ar  
  5   3  25  1   
  6   4   6  ar  
  7   4  26  1   
  8   5   7  1   
  9   5   8  ar  
 10   6   8  ar  
 11   6  27  1   
 12   7   9  1   
 13   7  10  1   
 14   8  28  1   
 15   9  11  1   
 16   9  29  1   
 17   9  30  1   
 18  10  12  1   
 19  10  31  1   
 20  10  32  1   
 21  11  13  1   
 22  11  33  1   
 23  11  34  1   
 24  12  13  1   
 25  12  35  1   
 26  12  36  1   
 27  13  14  1   
 28  13  37  1   
 29  14  15  1   
 30  14  38  1   
 31  14  39  1   
 32  15  16  ar  
 33  15  17  ar  
 34  16  18  1   
 35  16  19  ar  
 36  17  20  ar  
 37  17  40  1   
 38  18  21  1   
 39  19  22  ar  
 40  19  41  1   
 41  20  22  ar  
 42  20  42  1   
 43  21  23  1   
 44  21  43  1   
 45  21  44  1   
 46  22  45  1   
 47  23  24  2   
 48  23  46  1   
 49  24  47  1   
 50  24  48  1   
@<TRIPOS>SUBSTRUCTURE
  1 ****  11 GROUP 4 **** **** 0

# MOE 2024.06 (io_trps.svl 2023.06)
