@<TRIPOS>MOLECULE
NONAME
43 44 1 0 0 
SMALL
USER_CHARGES


@<TRIPOS>ATOM
  1 S        0.5660    -1.0080    -2.5230 S.o2  1 <1>   1.4470 
  2 O        1.2510    -1.9940    -3.3270 O.2   1 <1>  -0.6500 
  3 O        0.5320     0.3750    -2.9360 O.2   1 <1>  -0.6500 
  4 N        1.3700    -1.0230    -1.0270 N.am  1 <1>  -0.8490 
  5 C       -1.0900    -1.5790    -2.0510 C.ar  1 <1>  -0.0090 
  6 C        1.6390    -2.3870    -0.5240 C.3   1 <1>   0.1960 
  7 C        2.6130    -0.2260    -1.0480 C.3   1 <1>   0.1960 
  8 C       -1.6120    -1.2460    -0.8110 C.ar  1 <1>  -0.1500 
  9 C       -1.8670    -2.3730    -2.8800 C.ar  1 <1>  -0.1500 
 10 C        2.1920    -2.3640     0.9240 C.3   1 <1>   0.3430 
 11 C        3.3490    -0.2500     0.3190 C.3   1 <1>   0.3430 
 12 C       -2.8300    -1.7220    -0.3380 C.ar  1 <1>   0.0860 
 13 C       -3.0970    -2.8450    -2.4570 C.ar  1 <1>  -0.1500 
 14 N        2.5510    -0.9710     1.3750 N.4   1 <1>  -0.9590 
 15 C       -3.5790    -2.5420    -1.1930 C.ar  1 <1>  -0.1430 
 16 C       -3.2040    -1.3570     1.0170 C.2   1 <1>   0.5440 
 17 C        3.1830    -0.9420     2.7260 C.3   1 <1>   0.2630 
 18 C       -4.9130    -3.1430    -0.7670 C.3   1 <1>  -0.0970 
 19 O       -2.3800    -1.4500     1.9080 O.2   1 <1>  -0.5700 
 20 N       -4.4470    -0.8650     1.3040 N.am  1 <1>  -0.7300 
 21 C       -4.9310    -0.4550     2.6470 C.3   1 <1>   0.0600 
 22 H        2.3470    -2.8830    -1.1680 H     1 <1>   0.0800 
 23 H        0.7340    -2.9730    -0.5350 H     1 <1>   0.0800 
 24 H        2.3770     0.7970    -1.2910 H     1 <1>   0.0800 
 25 H        3.2730    -0.5920    -1.8180 H     1 <1>   0.0800 
 26 H       -1.0480    -0.5970    -0.1640 H     1 <1>   0.1500 
 27 H       -1.5040    -2.6350    -3.8610 H     1 <1>   0.1500 
 28 H        3.0570    -3.0060     0.9770 H     1 <1>   0.0800 
 29 H        1.4450    -2.7730     1.5850 H     1 <1>   0.0800 
 30 H        3.5380     0.7650     0.6280 H     1 <1>   0.0800 
 31 H        4.3040    -0.7330     0.1910 H     1 <1>   0.0800 
 32 H       -3.6740    -3.4650    -3.1230 H     1 <1>   0.1500 
 33 H        1.6450    -0.4720     1.4080 H     1 <1>   0.4500 
 34 H        4.1250    -1.4660     2.7120 H     1 <1>   0.0800 
 35 H        2.5370    -1.4110     3.4500 H     1 <1>   0.0800 
 36 H        3.3580     0.0760     3.0350 H     1 <1>   0.0800 
 37 H       -5.6930    -2.4070    -0.8430 H     1 <1>   0.0800 
 38 H       -4.8620    -3.4950     0.2490 H     1 <1>   0.0800 
 39 H       -5.1740    -3.9790    -1.3910 H     1 <1>   0.0800 
 40 H       -5.0980    -0.7110     0.5310 H     1 <1>   0.3700 
 41 H       -4.1840    -0.6590     3.3960 H     1 <1>   0.0800 
 42 H       -5.8250    -1.0010     2.8940 H     1 <1>   0.0800 
 43 H       -5.1460     0.5990     2.6510 H     1 <1>   0.0800 
@<TRIPOS>BOND
  1   1   2  2   
  2   1   3  2   
  3   1   4  am  
  4   1   5  1   
  5   4   6  1   
  6   4   7  1   
  7   5   8  ar  
  8   5   9  ar  
  9   6  10  1   
 10   6  22  1   
 11   6  23  1   
 12   7  11  1   
 13   7  24  1   
 14   7  25  1   
 15   8  12  ar  
 16   8  26  1   
 17   9  13  ar  
 18   9  27  1   
 19  10  14  1   
 20  10  28  1   
 21  10  29  1   
 22  11  14  1   
 23  11  30  1   
 24  11  31  1   
 25  12  15  ar  
 26  12  16  1   
 27  13  15  ar  
 28  13  32  1   
 29  14  17  1   
 30  14  33  1   
 31  15  18  1   
 32  16  19  2   
 33  16  20  am  
 34  17  34  1   
 35  17  35  1   
 36  17  36  1   
 37  18  37  1   
 38  18  38  1   
 39  18  39  1   
 40  20  21  1   
 41  20  40  1   
 42  21  41  1   
 43  21  42  1   
 44  21  43  1   
@<TRIPOS>SUBSTRUCTURE
  1 ****   8 GROUP 4 **** **** 0

# MOE 2024.06 (io_trps.svl 2023.06)
