@<TRIPOS>MOLECULE
NONAME
48 49 1 0 0 
SMALL
USER_CHARGES


@<TRIPOS>ATOM
  1 CL      -1.4560     1.2620    -2.7210 Cl    1 <1>  -0.1770 
  2 C       -2.2090     1.3960    -1.1490 C.ar  1 <1>   0.1770 
  3 C       -1.6940     2.2600    -0.1920 C.ar  1 <1>   0.0820 
  4 C       -3.3270     0.6200    -0.8920 C.ar  1 <1>  -0.1500 
  5 O       -0.6250     3.0430    -0.4630 O.3   1 <1>  -0.3630 
  6 C       -2.3320     2.3220     1.0400 C.ar  1 <1>   0.1770 
  7 C       -3.9630     0.6970     0.3420 C.ar  1 <1>  -0.1440 
  8 C        0.6430     2.5070    -0.1650 C.3   1 <1>   0.1200 
  9 CL      -1.7380     3.3840     2.2960 Cl    1 <1>  -0.1770 
 10 C       -3.4500     1.5520     1.3120 C.ar  1 <1>  -0.1500 
 11 C       -5.1970    -0.1350     0.6250 C.3   1 <1>   0.4870 
 12 C        1.6930     3.5450    -0.5450 C.3   1 <1>  -0.2400 
 13 N       -6.3700     0.6810     0.2210 N.4   1 <1>  -0.9060 
 14 C       -7.6750     0.0010     0.4470 C.3   1 <1>   0.3430 
 15 C       -8.8300     0.9100    -0.0020 C.3   1 <1>  -0.1600 
 16 C      -10.1900     0.2230     0.2090 C.3   1 <1>   0.3430 
 17 N      -11.3120     1.0550    -0.3180 N.4   1 <1>  -0.9590 
 18 C      -11.5770     2.3010     0.4980 C.3   1 <1>   0.3430 
 19 C      -12.5810     0.2350    -0.3970 C.3   1 <1>   0.3430 
 20 C      -12.8290     3.0550     0.0080 C.3   1 <1>   0.1200 
 21 C      -13.7870     1.0800    -0.8470 C.3   1 <1>   0.1200 
 22 O      -13.9270     2.1930    -0.0150 O.3   1 <1>  -0.5600 
 23 H       -3.6750    -0.0370    -1.6720 H     1 <1>   0.1500 
 24 H        0.7760     1.6030    -0.7340 H     1 <1>   0.0800 
 25 H        0.6850     2.2890     0.8890 H     1 <1>   0.0800 
 26 H       -3.8970     1.6380     2.2880 H     1 <1>   0.1500 
 27 H       -5.2440    -0.3760     1.6760 H     1 <1>   0.0800 
 28 H       -5.1580    -1.0530     0.0600 H     1 <1>   0.0800 
 29 H        1.6330     3.7640    -1.5960 H     1 <1>   0.0800 
 30 H        2.6760     3.1650    -0.3290 H     1 <1>   0.0800 
 31 H        1.5420     4.4480     0.0200 H     1 <1>   0.0800 
 32 H       -6.2370     0.9270    -0.7700 H     1 <1>   0.4500 
 33 H       -6.3100     1.5680     0.7370 H     1 <1>   0.4500 
 34 H       -7.7830    -0.2350     1.4950 H     1 <1>   0.0800 
 35 H       -7.7020    -0.9230    -0.1110 H     1 <1>   0.0800 
 36 H       -8.7120     1.1350    -1.0470 H     1 <1>   0.0800 
 37 H       -8.7980     1.8200     0.5690 H     1 <1>   0.0800 
 38 H      -10.3500     0.0280     1.2580 H     1 <1>   0.0800 
 39 H      -10.1870    -0.7260    -0.3060 H     1 <1>   0.0800 
 40 H      -11.1080     1.3570    -1.2810 H     1 <1>   0.4500 
 41 H      -10.7310     2.9660     0.4500 H     1 <1>   0.0800 
 42 H      -11.7330     2.0350     1.5310 H     1 <1>   0.0800 
 43 H      -12.8090    -0.1810     0.5710 H     1 <1>   0.0800 
 44 H      -12.4510    -0.5840    -1.0860 H     1 <1>   0.0800 
 45 H      -12.6850     3.4630    -0.9770 H     1 <1>   0.0800 
 46 H      -13.0640     3.8620     0.6810 H     1 <1>   0.0800 
 47 H      -14.6930     0.5030    -0.7740 H     1 <1>   0.0800 
 48 H      -13.6780     1.4160    -1.8640 H     1 <1>   0.0800 
@<TRIPOS>BOND
  1   1   2  1   
  2   2   3  ar  
  3   2   4  ar  
  4   3   5  1   
  5   3   6  ar  
  6   4   7  ar  
  7   4  23  1   
  8   5   8  1   
  9   6   9  1   
 10   6  10  ar  
 11   7  10  ar  
 12   7  11  1   
 13   8  12  1   
 14   8  24  1   
 15   8  25  1   
 16  10  26  1   
 17  11  13  1   
 18  11  27  1   
 19  11  28  1   
 20  12  29  1   
 21  12  30  1   
 22  12  31  1   
 23  13  14  1   
 24  13  32  1   
 25  13  33  1   
 26  14  15  1   
 27  14  34  1   
 28  14  35  1   
 29  15  16  1   
 30  15  36  1   
 31  15  37  1   
 32  16  17  1   
 33  16  38  1   
 34  16  39  1   
 35  17  18  1   
 36  17  19  1   
 37  17  40  1   
 38  18  20  1   
 39  18  41  1   
 40  18  42  1   
 41  19  21  1   
 42  19  43  1   
 43  19  44  1   
 44  20  22  1   
 45  20  45  1   
 46  20  46  1   
 47  21  22  1   
 48  21  47  1   
 49  21  48  1   
@<TRIPOS>SUBSTRUCTURE
  1 ****  13 GROUP 4 **** **** 0

# MOE 2024.06 (io_trps.svl 2023.06)
