@<TRIPOS>MOLECULE
NONAME
44 47 1 0 0 
SMALL
USER_CHARGES


@<TRIPOS>ATOM
  1 O       -1.0000    -0.2520    -0.9930 O.2   1 <1>  -0.5700 
  2 C       -2.0730    -0.3470    -0.4450 C.2   1 <1>   0.5690 
  3 N       -2.8980     0.7350    -0.2170 N.am  1 <1>  -0.2980 
  4 C       -2.5430    -1.7200    -0.0210 C.3   1 <1>  -0.1790 
  5 N       -4.2280     0.7000     0.1380 N.2   1 <1>  -0.5120 
  6 C       -2.4530     2.1100    -0.5410 C.3   1 <1>   0.3640 
  7 C       -4.7220     1.8710     0.0720 C.2   1 <1>   0.3030 
  8 C       -1.3020     2.5710     0.3550 C.ar  1 <1>  -0.1440 
  9 C       -3.7160     2.9370    -0.2850 C.3   1 <1>  -0.0190 
 10 C       -6.0900     2.2860     0.2350 C.ar  1 <1>   0.0860 
 11 C       -0.1940     3.1900    -0.2080 C.ar  1 <1>  -0.1500 
 12 C       -1.3450     2.3890     1.7320 C.ar  1 <1>  -0.1500 
 13 C       -4.2540     3.7530    -1.4660 C.3   1 <1>  -0.1600 
 14 C       -6.5260     3.5080    -0.2970 C.ar  1 <1>  -0.1440 
 15 C       -7.0140     1.4810     0.9000 C.ar  1 <1>  -0.1500 
 16 C        0.8470     3.6280     0.5920 C.ar  1 <1>  -0.1500 
 17 C       -0.3040     2.8270     2.5320 C.ar  1 <1>  -0.1500 
 18 C       -5.5680     4.4370    -1.0500 C.3   1 <1>  -0.0170 
 19 C       -7.8450     3.9010    -0.1450 C.ar  1 <1>  -0.1500 
 20 C       -8.3370     1.8780     1.0490 C.ar  1 <1>   0.0830 
 21 C        0.7920     3.4490     1.9620 C.ar  1 <1>  -0.1500 
 22 C       -8.7440     3.0920     0.5250 C.ar  1 <1>  -0.1500 
 23 O       -9.2800     1.1410     1.6870 O.3   1 <1>  -0.3620 
 24 C       -8.9800    -0.1290     2.2210 C.3   1 <1>   0.0400 
 25 H       -3.4020    -1.9980    -0.6010 H     1 <1>   0.0800 
 26 H       -2.8070    -1.7020     1.0190 H     1 <1>   0.0800 
 27 H       -1.7610    -2.4400    -0.1760 H     1 <1>   0.0800 
 28 H       -2.1720     2.1440    -1.5790 H     1 <1>   0.0800 
 29 H       -3.5720     3.5820     0.5640 H     1 <1>   0.0800 
 30 H       -0.1320     3.3290    -1.2730 H     1 <1>   0.1500 
 31 H       -2.1910     1.9010     2.1860 H     1 <1>   0.1500 
 32 H       -4.4410     3.0980    -2.3010 H     1 <1>   0.0800 
 33 H       -3.5340     4.4930    -1.7700 H     1 <1>   0.0800 
 34 H       -6.6700     0.5440     1.2920 H     1 <1>   0.1500 
 35 H        1.7030     4.1050     0.1470 H     1 <1>   0.1500 
 36 H       -0.3470     2.6810     3.5970 H     1 <1>   0.1500 
 37 H       -6.0560     4.8260    -1.9280 H     1 <1>   0.0800 
 38 H       -5.3400     5.2720    -0.4100 H     1 <1>   0.0800 
 39 H       -8.1830     4.8400    -0.5470 H     1 <1>   0.1500 
 40 H        1.6030     3.7880     2.5840 H     1 <1>   0.1500 
 41 H       -9.7690     3.3960     0.6440 H     1 <1>   0.1500 
 42 H       -9.8770    -0.5270     2.6600 H     1 <1>   0.0800 
 43 H       -8.2210    -0.0210     2.9750 H     1 <1>   0.0800 
 44 H       -8.6460    -0.7720     1.4260 H     1 <1>   0.0800 
@<TRIPOS>BOND
  1   1   2  2   
  2   2   3  am  
  3   2   4  1   
  4   3   5  1   
  5   3   6  1   
  6   4  25  1   
  7   4  26  1   
  8   4  27  1   
  9   5   7  2   
 10   6   8  1   
 11   6   9  1   
 12   6  28  1   
 13   7   9  1   
 14   7  10  1   
 15   8  11  ar  
 16   8  12  ar  
 17   9  13  1   
 18   9  29  1   
 19  10  14  ar  
 20  10  15  ar  
 21  11  16  ar  
 22  11  30  1   
 23  12  17  ar  
 24  12  31  1   
 25  13  18  1   
 26  13  32  1   
 27  13  33  1   
 28  14  18  1   
 29  14  19  ar  
 30  15  20  ar  
 31  15  34  1   
 32  16  21  ar  
 33  16  35  1   
 34  17  21  ar  
 35  17  36  1   
 36  18  37  1   
 37  18  38  1   
 38  19  22  ar  
 39  19  39  1   
 40  20  22  ar  
 41  20  23  1   
 42  21  40  1   
 43  22  41  1   
 44  23  24  1   
 45  24  42  1   
 46  24  43  1   
 47  24  44  1   
@<TRIPOS>SUBSTRUCTURE
  1 ****   7 GROUP 4 **** **** 0

# MOE 2024.06 (io_trps.svl 2023.06)
