@<TRIPOS>MOLECULE
NONAME
41 42 1 0 0 
SMALL
USER_CHARGES


@<TRIPOS>ATOM
  1 S       -0.1700     0.0710    -0.7020 S.o2  1 <1>   1.3330 
  2 O        0.2950    -1.2960    -0.7020 O.2   1 <1>  -0.6500 
  3 O       -0.0400     0.8920    -1.8830 O.2   1 <1>  -0.6500 
  4 N       -1.7990     0.0740    -0.2440 N.am  1 <1>  -0.8490 
  5 C        0.6560     0.9210     0.6310 C.3   1 <1>  -0.1350 
  6 C       -2.4170     1.4030    -0.2940 C.3   1 <1>   0.3340 
  7 C       -2.1020    -0.7150     0.9560 C.3   1 <1>   0.1960 
  8 C       -3.9310     1.3190    -0.2230 C.2   1 <1>  -0.1240 
  9 C       -3.1080    -1.8130     0.6040 C.3   1 <1>  -0.1600 
 10 C       -4.5600     1.6680     1.0120 C.2   1 <1>   0.6160 
 11 C       -4.6770     0.9290    -1.2870 C.2   1 <1>  -0.1780 
 12 C       -3.4530    -2.6680     1.8280 C.3   1 <1>  -0.2400 
 13 O       -3.9500     2.0280     2.0050 O.2   1 <1>  -0.5700 
 14 N       -5.9170     1.5920     1.0820 N.am  1 <1>  -0.5470 
 15 C       -6.1050     0.8520    -1.1970 C.ar  1 <1>   0.0280 
 16 C       -6.7240     1.1930     0.0190 C.ar  1 <1>   0.1170 
 17 C       -6.9000     0.4500    -2.2690 C.ar  1 <1>  -0.1500 
 18 C       -8.1160     1.1260     0.1390 C.ar  1 <1>  -0.1440 
 19 C       -8.2700     0.3860    -2.1440 C.ar  1 <1>  -0.1500 
 20 C       -8.8760     0.7230    -0.9420 C.ar  1 <1>  -0.1500 
 21 C       -8.8070     1.4910     1.4470 C.3   1 <1>  -0.0970 
 22 H        1.7100     0.9590     0.4340 H     1 <1>   0.0800 
 23 H        0.5040     0.4070     1.5590 H     1 <1>   0.0800 
 24 H        0.2930     1.9250     0.7220 H     1 <1>   0.0800 
 25 H       -2.1670     1.8750    -1.2300 H     1 <1>   0.0800 
 26 H       -2.0300     2.0250     0.4940 H     1 <1>   0.0800 
 27 H       -2.4910    -0.0890     1.7400 H     1 <1>   0.0800 
 28 H       -1.2100    -1.1900     1.3320 H     1 <1>   0.0800 
 29 H       -2.6840    -2.4410    -0.1600 H     1 <1>   0.0800 
 30 H       -4.0120    -1.3760     0.2200 H     1 <1>   0.0800 
 31 H       -4.2210     0.6560    -2.2230 H     1 <1>   0.1500 
 32 H       -2.5700    -3.1440     2.2160 H     1 <1>   0.0800 
 33 H       -4.1590    -3.4320     1.5510 H     1 <1>   0.0800 
 34 H       -3.8930    -2.0610     2.6000 H     1 <1>   0.0800 
 35 H       -6.3290     1.8490     1.9760 H     1 <1>   0.3700 
 36 H       -6.4320     0.1860    -3.2010 H     1 <1>   0.1500 
 37 H       -8.8770     0.0740    -2.9770 H     1 <1>   0.1500 
 38 H       -9.9480     0.6660    -0.8670 H     1 <1>   0.1500 
 39 H       -8.4690     0.8440     2.2360 H     1 <1>   0.0800 
 40 H       -9.8740     1.3870     1.3610 H     1 <1>   0.0800 
 41 H       -8.5890     2.5110     1.7070 H     1 <1>   0.0800 
@<TRIPOS>BOND
  1   1   2  2   
  2   1   3  2   
  3   1   4  am  
  4   1   5  1   
  5   4   6  1   
  6   4   7  1   
  7   5  22  1   
  8   5  23  1   
  9   5  24  1   
 10   6   8  1   
 11   6  25  1   
 12   6  26  1   
 13   7   9  1   
 14   7  27  1   
 15   7  28  1   
 16   8  10  1   
 17   8  11  2   
 18   9  12  1   
 19   9  29  1   
 20   9  30  1   
 21  10  13  2   
 22  10  14  am  
 23  11  15  1   
 24  11  31  1   
 25  12  32  1   
 26  12  33  1   
 27  12  34  1   
 28  14  16  1   
 29  14  35  1   
 30  15  16  ar  
 31  15  17  ar  
 32  16  18  ar  
 33  17  19  ar  
 34  17  36  1   
 35  18  20  ar  
 36  18  21  1   
 37  19  20  ar  
 38  19  37  1   
 39  20  38  1   
 40  21  39  1   
 41  21  40  1   
 42  21  41  1   
@<TRIPOS>SUBSTRUCTURE
  1 ****   8 GROUP 4 **** **** 0

# MOE 2024.06 (io_trps.svl 2023.06)
