@<TRIPOS>MOLECULE
NONAME
54 56 1 0 0 
SMALL
USER_CHARGES


@<TRIPOS>ATOM
  1 S        0.5180    -0.2580     0.3630 S.o2  1 <1>   1.5760 
  2 O        1.0470     0.2140     1.6230 O.2   1 <1>  -0.6500 
  3 O       -0.4100     0.5510    -0.3960 O.2   1 <1>  -0.6500 
  4 N        1.8150    -0.6730    -0.6300 N.am  1 <1>  -0.8490 
  5 N       -0.1720    -1.7800     0.5920 N.am  1 <1>  -0.8490 
  6 C        2.4470     0.5310    -1.1940 C.3   1 <1>   0.1960 
  7 C        2.8190    -1.4660     0.1000 C.3   1 <1>   0.1960 
  8 C       -0.8010    -2.2740    -0.6360 C.3   1 <1>   0.1960 
  9 C       -1.1280    -1.7550     1.6990 C.3   1 <1>   0.1960 
 10 C        3.5890     0.1640    -2.1560 C.3   1 <1>   0.1400 
 11 C        3.9800    -1.8920    -0.8140 C.3   1 <1>   0.1400 
 12 C       -1.2940    -3.7110    -0.4370 C.3   1 <1>  -0.1600 
 13 C       -1.6400    -3.1700     1.9870 C.3   1 <1>  -0.1600 
 14 N        4.5950    -0.7060    -1.4770 N.am  1 <1>  -0.6600 
 15 C       -2.2700    -3.8050     0.7420 C.3   1 <1>  -0.1600 
 16 C        5.7650    -0.1720    -1.0010 C.2   1 <1>   0.6900 
 17 O        5.8600     1.0360    -0.8690 O.2   1 <1>  -0.5700 
 18 N        6.8160    -0.9880    -0.6630 N.am  1 <1>  -0.6600 
 19 C        7.2160    -2.1100    -1.5510 C.3   1 <1>   0.1400 
 20 C        7.8210    -0.5430     0.3400 C.3   1 <1>   0.1400 
 21 C        7.4770    -3.4090    -0.7760 C.3   1 <1>  -0.1600 
 22 C        7.7540    -1.4610     1.5640 C.3   1 <1>  -0.1600 
 23 C        8.7610    -3.3630     0.0670 C.3   1 <1>  -0.1600 
 24 C        8.5890    -2.7510     1.4670 C.3   1 <1>  -0.1600 
 25 H        2.8370     1.1510    -0.4030 H     1 <1>   0.0800 
 26 H        1.7130     1.1040    -1.7350 H     1 <1>   0.0800 
 27 H        2.3570    -2.3500     0.5050 H     1 <1>   0.0800 
 28 H        3.2160    -0.8950     0.9230 H     1 <1>   0.0800 
 29 H       -0.0870    -2.2570    -1.4430 H     1 <1>   0.0800 
 30 H       -1.6280    -1.6380    -0.9090 H     1 <1>   0.0800 
 31 H       -1.9520    -1.1030     1.4560 H     1 <1>   0.0800 
 32 H       -0.6480    -1.3740     2.5850 H     1 <1>   0.0800 
 33 H        4.0570     1.0640    -2.5160 H     1 <1>   0.0800 
 34 H        3.1850    -0.3590    -3.0040 H     1 <1>   0.0800 
 35 H        3.6160    -2.5710    -1.5640 H     1 <1>   0.0800 
 36 H        4.7110    -2.4090    -0.2190 H     1 <1>   0.0800 
 37 H       -0.4430    -4.3450    -0.2590 H     1 <1>   0.0800 
 38 H       -1.7770    -4.0500    -1.3350 H     1 <1>   0.0800 
 39 H       -2.3650    -3.1320     2.7810 H     1 <1>   0.0800 
 40 H       -0.8150    -3.7720     2.3250 H     1 <1>   0.0800 
 41 H       -2.5160    -4.8350     0.9360 H     1 <1>   0.0800 
 42 H       -3.1790    -3.2830     0.4950 H     1 <1>   0.0800 
 43 H        8.1000    -1.8250    -2.0940 H     1 <1>   0.0800 
 44 H        6.4420    -2.2870    -2.2780 H     1 <1>   0.0800 
 45 H        7.5970     0.4620     0.6550 H     1 <1>   0.0800 
 46 H        8.8070    -0.5370    -0.0910 H     1 <1>   0.0800 
 47 H        7.5920    -4.1920    -1.5040 H     1 <1>   0.0800 
 48 H        6.6290    -3.6650    -0.1660 H     1 <1>   0.0800 
 49 H        6.7230    -1.7060     1.7520 H     1 <1>   0.0800 
 50 H        8.1000    -0.9080     2.4190 H     1 <1>   0.0800 
 51 H        9.5220    -2.8240    -0.4710 H     1 <1>   0.0800 
 52 H        9.1240    -4.3680     0.1930 H     1 <1>   0.0800 
 53 H        8.1420    -3.4850     2.1150 H     1 <1>   0.0800 
 54 H        9.5720    -2.5510     1.8570 H     1 <1>   0.0800 
@<TRIPOS>BOND
  1   1   2  2   
  2   1   3  2   
  3   1   4  am  
  4   1   5  am  
  5   4   6  1   
  6   4   7  1   
  7   5   8  1   
  8   5   9  1   
  9   6  10  1   
 10   6  25  1   
 11   6  26  1   
 12   7  11  1   
 13   7  27  1   
 14   7  28  1   
 15   8  12  1   
 16   8  29  1   
 17   8  30  1   
 18   9  13  1   
 19   9  31  1   
 20   9  32  1   
 21  10  14  1   
 22  10  33  1   
 23  10  34  1   
 24  11  14  1   
 25  11  35  1   
 26  11  36  1   
 27  12  15  1   
 28  12  37  1   
 29  12  38  1   
 30  13  15  1   
 31  13  39  1   
 32  13  40  1   
 33  14  16  am  
 34  15  41  1   
 35  15  42  1   
 36  16  17  2   
 37  16  18  am  
 38  18  19  1   
 39  18  20  1   
 40  19  21  1   
 41  19  43  1   
 42  19  44  1   
 43  20  22  1   
 44  20  45  1   
 45  20  46  1   
 46  21  23  1   
 47  21  47  1   
 48  21  48  1   
 49  22  24  1   
 50  22  49  1   
 51  22  50  1   
 52  23  24  1   
 53  23  51  1   
 54  23  52  1   
 55  24  53  1   
 56  24  54  1   
@<TRIPOS>SUBSTRUCTURE
  1 ****   7 GROUP 4 **** **** 0

# MOE 2024.06 (io_trps.svl 2023.06)
