@<TRIPOS>MOLECULE
NONAME
35 37 1 0 0 
SMALL
USER_CHARGES


@<TRIPOS>ATOM
  1 S        0.2330     0.5310     0.0720 S.3   1 <1>  -0.3320 
  2 C        2.0210     0.4650     0.0780 C.ar  1 <1>   0.7220 
  3 C       -0.3070    -1.2080    -0.2340 C.3   1 <1>   0.0700 
  4 N        2.5700    -0.7580    -0.1290 N.ar  1 <1>  -0.3100 
  5 N        2.6320     1.6040     0.2820 N.ar  1 <1>  -0.5670 
  6 C       -1.8340    -1.2290    -0.2530 C.3   1 <1>  -0.2400 
  7 N        3.8650    -0.8930    -0.1390 N.ar  1 <1>  -0.2560 
  8 C        3.9580     1.4490     0.2670 C.ar  1 <1>   0.1050 
  9 C        4.5710     0.2260     0.0610 C.ar  1 <1>   0.2560 
 10 N        4.9180     2.4130     0.4420 N.pl3 1 <1>   0.0480 
 11 C        5.9730     0.4460     0.1130 C.ar  1 <1>   0.0000 
 12 C        6.1580     1.8050     0.3490 C.ar  1 <1>  -0.1520 
 13 C        4.6600     3.8480     0.6860 C.3   1 <1>   0.0960 
 14 C        7.0780    -0.3960    -0.0220 C.ar  1 <1>  -0.1500 
 15 C        7.4450     2.3340     0.4510 C.ar  1 <1>  -0.1500 
 16 C        4.7490     4.6400    -0.6210 C.3   1 <1>  -0.2400 
 17 C        8.3510     0.1250     0.0800 C.ar  1 <1>  -0.1430 
 18 C        8.5280     1.4920     0.3160 C.ar  1 <1>  -0.1500 
 19 C        9.5720    -0.7650    -0.0620 C.3   1 <1>  -0.0970 
 20 H        0.0900    -1.8160     0.5600 H     1 <1>   0.0800 
 21 H        0.1070    -1.5140    -1.1800 H     1 <1>   0.0800 
 22 H       -2.2200    -0.8890     0.6920 H     1 <1>   0.0800 
 23 H       -2.1850    -2.2290    -0.4300 H     1 <1>   0.0800 
 24 H       -2.2030    -0.5890    -1.0340 H     1 <1>   0.0800 
 25 H        5.3810     4.2140     1.3950 H     1 <1>   0.0800 
 26 H        3.6790     3.9560     1.1140 H     1 <1>   0.0800 
 27 H        6.9100    -1.4420    -0.2040 H     1 <1>   0.1500 
 28 H        7.5890     3.3840     0.6320 H     1 <1>   0.1500 
 29 H        5.7280     4.5420    -1.0560 H     1 <1>   0.0800 
 30 H        4.5610     5.6810    -0.4300 H     1 <1>   0.0800 
 31 H        4.0120     4.2840    -1.3200 H     1 <1>   0.0800 
 32 H        9.5250     1.8880     0.3930 H     1 <1>   0.1500 
 33 H        9.2840    -1.7860    -0.2410 H     1 <1>   0.0800 
 34 H       10.1590    -0.7270     0.8370 H     1 <1>   0.0800 
 35 H       10.1750    -0.4300    -0.8870 H     1 <1>   0.0800 
@<TRIPOS>BOND
  1   1   2  1   
  2   1   3  1   
  3   2   4  ar  
  4   2   5  ar  
  5   3   6  1   
  6   3  20  1   
  7   3  21  1   
  8   4   7  ar  
  9   5   8  ar  
 10   6  22  1   
 11   6  23  1   
 12   6  24  1   
 13   7   9  ar  
 14   8   9  ar  
 15   8  10  1   
 16   9  11  1   
 17  10  12  1   
 18  10  13  1   
 19  11  12  ar  
 20  11  14  ar  
 21  12  15  ar  
 22  13  16  1   
 23  13  25  1   
 24  13  26  1   
 25  14  17  ar  
 26  14  27  1   
 27  15  18  ar  
 28  15  28  1   
 29  16  29  1   
 30  16  30  1   
 31  16  31  1   
 32  17  18  ar  
 33  17  19  1   
 34  18  32  1   
 35  19  33  1   
 36  19  34  1   
 37  19  35  1   
@<TRIPOS>SUBSTRUCTURE
  1 ****   9 GROUP 4 **** **** 0

# MOE 2024.06 (io_trps.svl 2023.06)
