@<TRIPOS>MOLECULE
NONAME
41 42 1 0 0 
SMALL
USER_CHARGES


@<TRIPOS>ATOM
  1 CL       2.4470     2.1230     2.2050 Cl    1 <1>  -0.1770 
  2 C        1.2510     2.8880     1.1900 C.ar  1 <1>   0.1770 
  3 C       -0.0250     3.0860     1.6810 C.ar  1 <1>  -0.1500 
  4 C        1.6000     3.2800    -0.0870 C.ar  1 <1>  -0.1500 
  5 C       -1.0000     3.6920     0.8940 C.ar  1 <1>  -0.0090 
  6 C        0.6450     3.8850    -0.8830 C.ar  1 <1>  -0.1500 
  7 S       -2.6730     3.9560     1.5360 S.o2  1 <1>   1.4470 
  8 C       -0.6380     4.0910    -0.3920 C.ar  1 <1>   0.0830 
  9 O       -3.0060     5.3630     1.4600 O.2   1 <1>  -0.6500 
 10 O       -2.7930     3.2910     2.8170 O.2   1 <1>  -0.6500 
 11 N       -3.6920     3.1160     0.4710 N.am  1 <1>  -0.8490 
 12 O       -1.5440     4.6710    -1.2030 O.3   1 <1>  -0.3630 
 13 C       -5.0960     3.5140     0.6420 C.3   1 <1>   0.1960 
 14 C       -3.5450     1.6630     0.5880 C.3   1 <1>   0.1960 
 15 C       -1.4630     6.0710    -1.3450 C.3   1 <1>   0.0400 
 16 C       -5.9620     2.8970    -0.4640 C.3   1 <1>  -0.0190 
 17 C       -4.3430     0.9660    -0.5190 C.3   1 <1>  -0.1600 
 18 C       -7.4090     3.3280    -0.2890 C.2   1 <1>   0.5690 
 19 C       -5.8250     1.3630    -0.4740 C.3   1 <1>  -0.1600 
 20 O       -7.9490     3.1630     0.7790 O.2   1 <1>  -0.5700 
 21 N       -8.0580     3.8870    -1.3460 N.am  1 <1>  -0.7300 
 22 C       -9.4650     4.3610    -1.3300 C.3   1 <1>   0.0600 
 23 H       -0.2560     2.7670     2.6830 H     1 <1>   0.1500 
 24 H        2.5990     3.1120    -0.4480 H     1 <1>   0.1500 
 25 H        0.8870     4.1930    -1.8840 H     1 <1>   0.1500 
 26 H       -5.1820     4.5860     0.5840 H     1 <1>   0.0800 
 27 H       -5.4510     3.2030     1.6120 H     1 <1>   0.0800 
 28 H       -3.8930     1.3330     1.5540 H     1 <1>   0.0800 
 29 H       -2.5070     1.3920     0.4920 H     1 <1>   0.0800 
 30 H       -2.2810     6.3930    -1.9640 H     1 <1>   0.0800 
 31 H       -0.5270     6.3250    -1.8090 H     1 <1>   0.0800 
 32 H       -1.5390     6.5280    -0.3740 H     1 <1>   0.0800 
 33 H       -5.6050     3.2820    -1.4020 H     1 <1>   0.0800 
 34 H       -4.2510    -0.1000    -0.4080 H     1 <1>   0.0800 
 35 H       -3.9200     1.2350    -1.4720 H     1 <1>   0.0800 
 36 H       -6.3450     0.9520    -1.3220 H     1 <1>   0.0800 
 37 H       -6.2740     0.9620     0.4190 H     1 <1>   0.0800 
 38 H       -7.5600     4.0050    -2.2300 H     1 <1>   0.3700 
 39 H       -9.9060     4.1940    -0.3620 H     1 <1>   0.0800 
 40 H      -10.0370     3.8260    -2.0680 H     1 <1>   0.0800 
 41 H       -9.4970     5.4140    -1.5490 H     1 <1>   0.0800 
@<TRIPOS>BOND
  1   1   2  1   
  2   2   3  ar  
  3   2   4  ar  
  4   3   5  ar  
  5   3  23  1   
  6   4   6  ar  
  7   4  24  1   
  8   5   7  1   
  9   5   8  ar  
 10   6   8  ar  
 11   6  25  1   
 12   7   9  2   
 13   7  10  2   
 14   7  11  am  
 15   8  12  1   
 16  11  13  1   
 17  11  14  1   
 18  12  15  1   
 19  13  16  1   
 20  13  26  1   
 21  13  27  1   
 22  14  17  1   
 23  14  28  1   
 24  14  29  1   
 25  15  30  1   
 26  15  31  1   
 27  15  32  1   
 28  16  18  1   
 29  16  19  1   
 30  16  33  1   
 31  17  19  1   
 32  17  34  1   
 33  17  35  1   
 34  18  20  2   
 35  18  21  am  
 36  19  36  1   
 37  19  37  1   
 38  21  22  1   
 39  21  38  1   
 40  22  39  1   
 41  22  40  1   
 42  22  41  1   
@<TRIPOS>SUBSTRUCTURE
  1 ****  11 GROUP 4 **** **** 0

# MOE 2024.06 (io_trps.svl 2023.06)
