@<TRIPOS>MOLECULE
NONAME
36 38 1 0 0 
SMALL
USER_CHARGES


@<TRIPOS>ATOM
  1 O        0.1130    -0.6490    -0.9580 O.3   1 <1>  -0.2800 
  2 C       -0.6530    -0.8170     0.0980 C.2   1 <1>  -0.0100 
  3 C       -0.3780    -1.3860    -1.9330 C.2   1 <1>  -0.0100 
  4 C       -1.6690    -1.6640    -0.1820 C.2   1 <1>  -0.1810 
  5 C       -1.4830    -2.0440    -1.5210 C.2   1 <1>  -0.1500 
  6 C       -2.7860    -2.1200     0.7290 C.3   1 <1>   0.5240 
  7 N       -4.0630    -1.5740     0.2060 N.4   1 <1>  -0.9590 
  8 C       -4.0720    -0.0640     0.2090 C.3   1 <1>   0.3430 
  9 C       -5.2580    -2.1160     0.9460 C.3   1 <1>   0.3430 
 10 C       -5.3910     0.5170    -0.3380 C.3   1 <1>   0.2090 
 11 C       -6.5880    -1.5550     0.4020 C.3   1 <1>   0.2090 
 12 N       -6.5790    -0.0620     0.3580 N.pl3 1 <1>  -0.8380 
 13 C       -7.7760     0.4870    -0.0460 C.ar  1 <1>   0.4100 
 14 N       -8.1480     0.2210    -1.2910 N.ar  1 <1>  -0.6200 
 15 C       -8.5160     1.2700     0.8340 C.ar  1 <1>  -0.1500 
 16 C       -9.2990     0.7550    -1.6680 C.ar  1 <1>   0.1600 
 17 C       -9.7100     1.8170     0.4270 C.ar  1 <1>  -0.1500 
 18 C      -10.1050     1.5450    -0.8670 C.ar  1 <1>  -0.1500 
 19 H       -0.3930    -0.2890     1.0010 H     1 <1>   0.1500 
 20 H        0.1250    -1.3860    -2.8860 H     1 <1>   0.1500 
 21 H       -2.0890    -2.7240    -2.0940 H     1 <1>   0.1500 
 22 H       -2.6110    -1.7640     1.7320 H     1 <1>   0.0800 
 23 H       -2.8160    -3.1970     0.7460 H     1 <1>   0.0800 
 24 H       -4.1360    -1.8630    -0.7770 H     1 <1>   0.4500 
 25 H       -3.2550     0.3110    -0.3870 H     1 <1>   0.0800 
 26 H       -3.9390     0.2980     1.2150 H     1 <1>   0.0800 
 27 H       -5.1880    -1.8530     1.9880 H     1 <1>   0.0800 
 28 H       -5.2810    -3.1910     0.8760 H     1 <1>   0.0800 
 29 H       -5.4610     0.3210    -1.3950 H     1 <1>   0.0800 
 30 H       -5.3910     1.5860    -0.2060 H     1 <1>   0.0800 
 31 H       -7.3980    -1.8820     1.0330 H     1 <1>   0.0800 
 32 H       -6.7680    -1.9440    -0.5860 H     1 <1>   0.0800 
 33 H       -8.1420     1.4350     1.8260 H     1 <1>   0.1500 
 34 H       -9.6210     0.5530    -2.6760 H     1 <1>   0.1500 
 35 H      -10.3080     2.4270     1.0830 H     1 <1>   0.1500 
 36 H      -11.0280     1.9420    -1.2500 H     1 <1>   0.1500 
@<TRIPOS>BOND
  1   1   2  1   
  2   1   3  1   
  3   2   4  2   
  4   2  19  1   
  5   3   5  2   
  6   3  20  1   
  7   4   5  1   
  8   4   6  1   
  9   5  21  1   
 10   6   7  1   
 11   6  22  1   
 12   6  23  1   
 13   7   8  1   
 14   7   9  1   
 15   7  24  1   
 16   8  10  1   
 17   8  25  1   
 18   8  26  1   
 19   9  11  1   
 20   9  27  1   
 21   9  28  1   
 22  10  12  1   
 23  10  29  1   
 24  10  30  1   
 25  11  12  1   
 26  11  31  1   
 27  11  32  1   
 28  12  13  1   
 29  13  14  ar  
 30  13  15  ar  
 31  14  16  ar  
 32  15  17  ar  
 33  15  33  1   
 34  16  18  ar  
 35  16  34  1   
 36  17  18  ar  
 37  17  35  1   
 38  18  36  1   
@<TRIPOS>SUBSTRUCTURE
  1 ****  10 GROUP 4 **** **** 0

# MOE 2024.06 (io_trps.svl 2023.06)
