@<TRIPOS>MOLECULE
NONAME
30 30 1 0 0 
SMALL
USER_CHARGES


@<TRIPOS>ATOM
  1 O       -0.6460    -3.1160     1.0640 O.2   1 <1>  -0.5700 
  2 C       -0.5020    -2.1270     0.3880 C.2   1 <1>   0.5690 
  3 N       -1.5240    -1.3380    -0.0510 N.am  1 <1>  -0.5470 
  4 C        0.9070    -1.7250    -0.0110 C.3   1 <1>  -0.0990 
  5 C       -2.9240    -1.3840     0.1060 C.ar  1 <1>   0.1170 
  6 C        1.3690    -0.4190     0.6570 C.3   1 <1>  -0.2400 
  7 C       -3.6800    -0.3420    -0.4440 C.ar  1 <1>   0.0820 
  8 C       -3.5830    -2.4080     0.7750 C.ar  1 <1>  -0.1500 
  9 O       -2.9920     0.6460    -1.0960 O.3   1 <1>  -0.3630 
 10 C       -5.0660    -0.3380    -0.3200 C.ar  1 <1>  -0.1500 
 11 C       -4.9600    -2.4010     0.8970 C.ar  1 <1>  -0.1500 
 12 C       -3.6560     1.7490    -1.6750 C.3   1 <1>   0.0400 
 13 C       -5.7090    -1.3720     0.3540 C.ar  1 <1>   0.0820 
 14 O       -7.0570    -1.4480     0.5230 O.3   1 <1>  -0.3630 
 15 C       -7.9170    -0.4530     0.0130 C.3   1 <1>   0.0400 
 16 H       -1.2410    -0.5180    -0.5880 H     1 <1>   0.3700 
 17 H        0.9480    -1.6240    -1.0800 H     1 <1>   0.0800 
 18 H        1.5790    -2.5190     0.2670 H     1 <1>   0.0800 
 19 H        0.7400     0.4030     0.3660 H     1 <1>   0.0800 
 20 H        2.3820    -0.1960     0.3700 H     1 <1>   0.0800 
 21 H        1.3300    -0.5210     1.7280 H     1 <1>   0.0800 
 22 H       -3.0300    -3.2210     1.2060 H     1 <1>   0.1500 
 23 H       -5.6440     0.4570    -0.7400 H     1 <1>   0.1500 
 24 H       -5.4610    -3.1970     1.4170 H     1 <1>   0.1500 
 25 H       -2.9160     2.3890    -2.1210 H     1 <1>   0.0800 
 26 H       -4.1840     2.2830    -0.9050 H     1 <1>   0.0800 
 27 H       -4.3320     1.3920    -2.4320 H     1 <1>   0.0800 
 28 H       -8.9260    -0.7240     0.2670 H     1 <1>   0.0800 
 29 H       -7.8090    -0.4130    -1.0560 H     1 <1>   0.0800 
 30 H       -7.6670     0.4900     0.4650 H     1 <1>   0.0800 
@<TRIPOS>BOND
  1   1   2  2   
  2   2   3  am  
  3   2   4  1   
  4   3   5  1   
  5   3  16  1   
  6   4   6  1   
  7   4  17  1   
  8   4  18  1   
  9   5   7  ar  
 10   5   8  ar  
 11   6  19  1   
 12   6  20  1   
 13   6  21  1   
 14   7   9  1   
 15   7  10  ar  
 16   8  11  ar  
 17   8  22  1   
 18   9  12  1   
 19  10  13  ar  
 20  10  23  1   
 21  11  13  ar  
 22  11  24  1   
 23  12  25  1   
 24  12  26  1   
 25  12  27  1   
 26  13  14  1   
 27  14  15  1   
 28  15  28  1   
 29  15  29  1   
 30  15  30  1   
@<TRIPOS>SUBSTRUCTURE
  1 ****   5 GROUP 4 **** **** 0

# MOE 2024.06 (io_trps.svl 2023.06)
