@<TRIPOS>MOLECULE
NONAME
48 50 1 0 0 
SMALL
USER_CHARGES


@<TRIPOS>ATOM
  1 O       -0.2330     0.1560     1.6770 O.2   1 <1>  -0.5700 
  2 C       -0.2170     1.3610     1.4950 C.2   1 <1>   0.7160 
  3 N       -1.1860     2.1080     2.1500 N.am  1 <1>  -0.6600 
  4 C        0.7510     1.9480     0.5710 C.2   1 <1>   0.2030 
  5 C       -1.1520     3.5940     2.2330 C.3   1 <1>   0.1400 
  6 C       -2.5440     1.5400     2.3790 C.3   1 <1>   0.1400 
  7 N        0.6110     3.0670    -0.1290 N.2   1 <1>  -0.7070 
  8 C        1.9850     1.3560     0.2800 C.2   1 <1>  -0.1500 
  9 C       -2.1000     4.1800     1.1710 C.3   1 <1>   0.3430 
 10 C       -3.5220     2.1270     1.3400 C.3   1 <1>   0.3430 
 11 N        1.7420     3.1860    -0.8460 N.pl3 1 <1>   0.3140 
 12 C        2.5840     2.1640    -0.6130 C.2   1 <1>  -0.3020 
 13 N       -3.5080     3.6420     1.3110 N.4   1 <1>  -0.9590 
 14 C        1.9880     4.3110    -1.7720 C.3   1 <1>   0.0960 
 15 C       -4.3630     4.1910     0.2130 C.3   1 <1>   0.3430 
 16 C        2.8010     5.4190    -1.0920 C.3   1 <1>  -0.2400 
 17 C       -5.8510     3.9240     0.4450 C.3   1 <1>  -0.0170 
 18 C       -6.6400     4.6120    -0.6510 C.ar  1 <1>  -0.1430 
 19 C       -6.8850     3.9590    -1.8500 C.ar  1 <1>  -0.1500 
 20 C       -7.1140     5.9020    -0.4690 C.ar  1 <1>  -0.1500 
 21 C       -7.5910     4.5930    -2.8580 C.ar  1 <1>  -0.1500 
 22 C       -7.8200     6.5350    -1.4770 C.ar  1 <1>  -0.1500 
 23 C       -8.0580     5.8820    -2.6720 C.ar  1 <1>  -0.1500 
 24 H       -0.1520     3.9620     2.0840 H     1 <1>   0.0800 
 25 H       -1.4610     3.9060     3.2150 H     1 <1>   0.0800 
 26 H       -2.8700     1.7760     3.3770 H     1 <1>   0.0800 
 27 H       -2.5290     0.4670     2.2870 H     1 <1>   0.0800 
 28 H        2.3450     0.4350     0.7070 H     1 <1>   0.1500 
 29 H       -1.7090     3.9310     0.1980 H     1 <1>   0.0800 
 30 H       -2.1050     5.2540     1.2570 H     1 <1>   0.0800 
 31 H       -4.5150     1.7710     1.5590 H     1 <1>   0.0800 
 32 H       -3.2430     1.7470     0.3710 H     1 <1>   0.0800 
 33 H        3.5430     2.0700    -1.0890 H     1 <1>   0.1500 
 34 H       -3.8740     3.9790     2.2110 H     1 <1>   0.4500 
 35 H        1.0390     4.6970    -2.0970 H     1 <1>   0.0800 
 36 H        2.5160     3.9370    -2.6310 H     1 <1>   0.0800 
 37 H       -4.0680     3.7640    -0.7320 H     1 <1>   0.0800 
 38 H       -4.2210     5.2580     0.1470 H     1 <1>   0.0800 
 39 H        2.2720     5.7970    -0.2350 H     1 <1>   0.0800 
 40 H        2.9600     6.2300    -1.7810 H     1 <1>   0.0800 
 41 H        3.7600     5.0440    -0.7810 H     1 <1>   0.0800 
 42 H       -6.1570     4.3130     1.4000 H     1 <1>   0.0800 
 43 H       -6.0620     2.8700     0.4170 H     1 <1>   0.0800 
 44 H       -6.5360     2.9550    -2.0160 H     1 <1>   0.1500 
 45 H       -6.9450     6.4290     0.4540 H     1 <1>   0.1500 
 46 H       -7.7810     4.0840    -3.7880 H     1 <1>   0.1500 
 47 H       -8.1880     7.5370    -1.3330 H     1 <1>   0.1500 
 48 H       -8.6080     6.3740    -3.4560 H     1 <1>   0.1500 
@<TRIPOS>BOND
  1   1   2  2   
  2   2   3  am  
  3   2   4  1   
  4   3   5  1   
  5   3   6  1   
  6   4   7  2   
  7   4   8  1   
  8   5   9  1   
  9   5  24  1   
 10   5  25  1   
 11   6  10  1   
 12   6  26  1   
 13   6  27  1   
 14   7  11  1   
 15   8  12  2   
 16   8  28  1   
 17   9  13  1   
 18   9  29  1   
 19   9  30  1   
 20  10  13  1   
 21  10  31  1   
 22  10  32  1   
 23  11  12  1   
 24  11  14  1   
 25  12  33  1   
 26  13  15  1   
 27  13  34  1   
 28  14  16  1   
 29  14  35  1   
 30  14  36  1   
 31  15  17  1   
 32  15  37  1   
 33  15  38  1   
 34  16  39  1   
 35  16  40  1   
 36  16  41  1   
 37  17  18  1   
 38  17  42  1   
 39  17  43  1   
 40  18  19  ar  
 41  18  20  ar  
 42  19  21  ar  
 43  19  44  1   
 44  20  22  ar  
 45  20  45  1   
 46  21  23  ar  
 47  21  46  1   
 48  22  23  ar  
 49  22  47  1   
 50  23  48  1   
@<TRIPOS>SUBSTRUCTURE
  1 ****   9 GROUP 4 **** **** 0

# MOE 2024.06 (io_trps.svl 2023.06)
