@<TRIPOS>MOLECULE
NONAME
40 42 1 0 0 
SMALL
USER_CHARGES


@<TRIPOS>ATOM
  1 N       -0.3830     0.2540    -0.3920 N.pl3 1 <1>  -0.8400 
  2 C       -1.2920     0.7930    -1.1390 C.cat 1 <1>   1.2010 
  3 C        0.8600     0.8520    -0.0270 C.3   1 <1>   0.6610 
  4 N       -1.1040     1.9900    -1.6230 N.pl3 1 <1>  -0.9130 
  5 N       -2.4000     0.1590    -1.4220 N.pl3 1 <1>  -0.8230 
  6 N        0.9080     2.1490    -0.6340 N.pl3 1 <1>  -0.8400 
  7 C        2.0580     0.0240    -0.4690 C.3   1 <1>  -0.1500 
  8 C        1.0280     0.9730     1.4800 C.3   1 <1>  -0.1500 
  9 C       -0.0170     2.6590    -1.3740 C.cat 1 <1>   1.2010 
 10 C       -2.7760    -1.1170    -0.9890 C.ar  1 <1>   0.3200 
 11 C        3.2030     0.4200     0.4750 C.3   1 <1>  -0.1500 
 12 C        2.5440     1.0290     1.7220 C.3   1 <1>  -0.1500 
 13 N        0.1140     3.8370    -1.8790 N.pl3 1 <1>  -0.9640 
 14 C       -3.3030    -1.3010     0.2820 C.ar  1 <1>  -0.1400 
 15 C       -2.6060    -2.2130    -1.8220 C.ar  1 <1>  -0.1400 
 16 C       -3.6430    -2.5680     0.7280 C.ar  1 <1>  -0.1340 
 17 C       -2.9440    -3.4800    -1.3830 C.ar  1 <1>  -0.1400 
 18 C       -3.4590    -3.6550    -0.1100 C.ar  1 <1>  -0.1400 
 19 C       -4.2260    -2.7820     2.1160 C.3   1 <1>  -0.0860 
 20 H       -0.5420    -0.6840    -0.0290 H     1 <1>   0.4570 
 21 H       -1.8110     2.4150    -2.1960 H     1 <1>   0.4570 
 22 H       -3.0830     0.6020    -2.0310 H     1 <1>   0.4570 
 23 H        1.7620     2.6590    -0.4290 H     1 <1>   0.4570 
 24 H        2.3150     0.1750    -1.5030 H     1 <1>   0.0900 
 25 H        1.8490    -1.0210    -0.3130 H     1 <1>   0.0900 
 26 H        0.6510     0.0840     1.9560 H     1 <1>   0.0900 
 27 H        0.5210     1.8280     1.8930 H     1 <1>   0.0900 
 28 H        3.8460     1.1470     0.0060 H     1 <1>   0.0900 
 29 H        3.8020    -0.4390     0.7320 H     1 <1>   0.0900 
 30 H        2.8110     0.4780     2.6100 H     1 <1>   0.0900 
 31 H        2.8700     2.0480     1.8510 H     1 <1>   0.0900 
 32 H        0.9380     4.4170    -1.7260 H     1 <1>   0.4570 
 33 H       -0.5790     4.2920    -2.4710 H     1 <1>   0.4570 
 34 H       -3.4580    -0.4530     0.9240 H     1 <1>   0.1600 
 35 H       -2.2110    -2.0860    -2.8150 H     1 <1>   0.1600 
 36 H       -2.8130    -4.3340    -2.0290 H     1 <1>   0.1600 
 37 H       -3.7220    -4.6470     0.2230 H     1 <1>   0.1600 
 38 H       -4.1300    -1.8990     2.7220 H     1 <1>   0.0900 
 39 H       -3.7190    -3.5900     2.6120 H     1 <1>   0.0900 
 40 H       -5.2700    -3.0300     2.0390 H     1 <1>   0.0900 
@<TRIPOS>BOND
  1   1   2  ar  
  2   1   3  1   
  3   1  20  1   
  4   2   4  ar  
  5   2   5  ar  
  6   3   6  1   
  7   3   7  1   
  8   3   8  1   
  9   4   9  ar  
 10   4  21  1   
 11   5  10  1   
 12   5  22  1   
 13   6   9  ar  
 14   6  23  1   
 15   7  11  1   
 16   7  24  1   
 17   7  25  1   
 18   8  12  1   
 19   8  26  1   
 20   8  27  1   
 21   9  13  ar  
 22  10  14  ar  
 23  10  15  ar  
 24  11  12  1   
 25  11  28  1   
 26  11  29  1   
 27  12  30  1   
 28  12  31  1   
 29  13  32  1   
 30  13  33  1   
 31  14  16  ar  
 32  14  34  1   
 33  15  17  ar  
 34  15  35  1   
 35  16  18  ar  
 36  16  19  1   
 37  17  18  ar  
 38  17  36  1   
 39  18  37  1   
 40  19  38  1   
 41  19  39  1   
 42  19  40  1   
@<TRIPOS>SUBSTRUCTURE
  1 ****   1 GROUP 4 **** **** 0

# MOE 2024.06 (io_trps.svl 2023.06)
