@<TRIPOS>MOLECULE
NONAME
40 40 1 0 0 
SMALL
USER_CHARGES


@<TRIPOS>ATOM
  1 O       -9.3870     4.4770    -0.1670 O.2   1 <1>  -0.5700 
  2 C       -9.3840     3.2650    -0.1170 C.2   1 <1>   0.6340 
  3 O       -8.1950     2.6460    -0.0820 O.3   1 <1>  -0.4300 
  4 C      -10.5890     2.4580    -0.0940 C.ar  1 <1>   0.0860 
  5 C       -6.9960     3.3920    -0.1060 C.3   1 <1>   0.1200 
  6 C      -11.8520     3.0540    -0.1340 C.ar  1 <1>  -0.1500 
  7 C      -10.5490     1.0610    -0.0300 C.ar  1 <1>  -0.1500 
  8 C       -5.8140     2.4200    -0.0310 C.3   1 <1>   0.3430 
  9 C      -13.0150     2.3060    -0.1120 C.ar  1 <1>  -0.1500 
 10 C      -11.7060     0.3060    -0.0080 C.ar  1 <1>  -0.1500 
 11 N       -4.4850     3.1160    -0.1390 N.4   1 <1>  -0.9590 
 12 C      -12.9480     0.9180    -0.0480 C.ar  1 <1>   0.0830 
 13 C       -3.3960     2.1290    -0.3850 C.3   1 <1>   0.4230 
 14 C       -4.2330     4.0260     1.0320 C.3   1 <1>   0.2630 
 15 O      -14.0300     0.1100    -0.0230 O.3   1 <1>  -0.3630 
 16 C       -3.0740     1.3030     0.8620 C.3   1 <1>  -0.2400 
 17 C       -2.1590     2.8660    -0.8890 C.3   1 <1>  -0.2400 
 18 C      -15.3430     0.6240    -0.0600 C.3   1 <1>   0.0400 
 19 H       -7.0080     4.0600     0.7380 H     1 <1>   0.0800 
 20 H       -6.9770     3.9540    -1.0240 H     1 <1>   0.0800 
 21 H      -11.9220     4.1280    -0.1840 H     1 <1>   0.1500 
 22 H       -9.6020     0.5530     0.0030 H     1 <1>   0.1500 
 23 H       -5.9100     1.7140    -0.8400 H     1 <1>   0.0800 
 24 H       -5.8650     1.8800     0.9000 H     1 <1>   0.0800 
 25 H      -13.9590     2.8150    -0.1450 H     1 <1>   0.1500 
 26 H      -11.6600    -0.7670     0.0420 H     1 <1>   0.1500 
 27 H       -4.5150     3.7040    -0.9840 H     1 <1>   0.4500 
 28 H       -3.7150     1.4530    -1.1640 H     1 <1>   0.0800 
 29 H       -4.2310     3.4630     1.9510 H     1 <1>   0.0800 
 30 H       -4.9980     4.7830     1.0950 H     1 <1>   0.0800 
 31 H       -3.2800     4.5180     0.9290 H     1 <1>   0.0800 
 32 H       -2.6550     1.9080     1.6460 H     1 <1>   0.0800 
 33 H       -2.3430     0.5560     0.6090 H     1 <1>   0.0800 
 34 H       -3.9440     0.7900     1.2280 H     1 <1>   0.0800 
 35 H       -1.7360     3.5020    -0.1330 H     1 <1>   0.0800 
 36 H       -2.3900     3.4480    -1.7630 H     1 <1>   0.0800 
 37 H       -1.4070     2.1480    -1.1660 H     1 <1>   0.0800 
 38 H      -16.0270    -0.2050    -0.0290 H     1 <1>   0.0800 
 39 H      -15.4770     1.1750    -0.9740 H     1 <1>   0.0800 
 40 H      -15.4950     1.2550     0.7980 H     1 <1>   0.0800 
@<TRIPOS>BOND
  1   1   2  2   
  2   2   3  1   
  3   2   4  1   
  4   3   5  1   
  5   4   6  ar  
  6   4   7  ar  
  7   5   8  1   
  8   5  19  1   
  9   5  20  1   
 10   6   9  ar  
 11   6  21  1   
 12   7  10  ar  
 13   7  22  1   
 14   8  11  1   
 15   8  23  1   
 16   8  24  1   
 17   9  12  ar  
 18   9  25  1   
 19  10  12  ar  
 20  10  26  1   
 21  11  13  1   
 22  11  14  1   
 23  11  27  1   
 24  12  15  1   
 25  13  16  1   
 26  13  17  1   
 27  13  28  1   
 28  14  29  1   
 29  14  30  1   
 30  14  31  1   
 31  15  18  1   
 32  16  32  1   
 33  16  33  1   
 34  16  34  1   
 35  17  35  1   
 36  17  36  1   
 37  17  37  1   
 38  18  38  1   
 39  18  39  1   
 40  18  40  1   
@<TRIPOS>SUBSTRUCTURE
  1 ****   3 GROUP 4 **** **** 0

# MOE 2024.06 (io_trps.svl 2023.06)
