@<TRIPOS>MOLECULE
NONAME
57 61 1 0 0 
SMALL
USER_CHARGES


@<TRIPOS>ATOM
  1 O       -2.1330    -0.1020     0.3730 O.2   1 <1>  -0.5700 
  2 C       -3.1010    -0.7580     0.1080 C.2   1 <1>   0.4480 
  3 C       -4.3860    -0.1590    -0.4920 C.3   1 <1>   0.0610 
  4 C       -3.0750    -2.2700     0.3730 C.3   1 <1>   0.4040 
  5 C       -5.5830    -0.3600     0.4730 C.3   1 <1>  -0.1600 
  6 C       -4.2170     1.3630    -0.7370 C.3   1 <1>  -0.1600 
  7 C       -4.7280    -0.8250    -1.8490 C.3   1 <1>  -0.1600 
  8 N       -1.8780    -2.6980     1.1870 N.4   1 <1>  -0.9590 
  9 C       -6.8930     0.2270    -0.1000 C.3   1 <1>   0.1430 
 10 C       -5.4970     1.9710    -1.3310 C.3   1 <1>  -0.0800 
 11 C       -6.0110    -0.2200    -2.4480 C.3   1 <1>  -0.0800 
 12 C       -1.6100    -4.1530     1.2130 C.3   1 <1>   0.3430 
 13 C       -1.9320    -2.2460     2.5990 C.3   1 <1>   0.3430 
 14 C       -8.0490    -0.0560     0.8860 C.ar  1 <1>  -0.1430 
 15 C       -6.6610     1.7370    -0.3530 C.3   1 <1>  -0.1600 
 16 C       -7.1800    -0.4350    -1.4690 C.3   1 <1>  -0.1600 
 17 C       -5.8100     1.2870    -2.6700 C.3   1 <1>  -0.1600 
 18 C       -0.6960    -4.3440     2.4170 C.3   1 <1>  -0.1600 
 19 C       -0.8970    -3.1100     3.3050 C.3   1 <1>  -0.1600 
 20 C       -8.4250    -1.3690     1.1530 C.ar  1 <1>  -0.1500 
 21 C       -8.7470     0.9550     1.5420 C.ar  1 <1>  -0.1500 
 22 C       -9.4500    -1.6630     2.0350 C.ar  1 <1>  -0.1500 
 23 C       -9.7710     0.6640     2.4260 C.ar  1 <1>  -0.1500 
 24 C      -10.1290    -0.6470     2.6810 C.ar  1 <1>  -0.1430 
 25 C      -11.2560    -0.9610     3.6480 C.3   1 <1>  -0.0970 
 26 H       -3.0540    -2.7710    -0.5800 H     1 <1>   0.0800 
 27 H       -3.9770    -2.5570     0.8840 H     1 <1>   0.0800 
 28 H       -5.3750     0.1170     1.4150 H     1 <1>   0.0800 
 29 H       -5.7300    -1.4050     0.6650 H     1 <1>   0.0800 
 30 H       -3.3950     1.5380    -1.4090 H     1 <1>   0.0800 
 31 H       -3.9830     1.8610     0.1890 H     1 <1>   0.0800 
 32 H       -4.8750    -1.8840    -1.7320 H     1 <1>   0.0800 
 33 H       -3.9150    -0.6800    -2.5410 H     1 <1>   0.0800 
 34 H       -1.0610    -2.2120     0.7810 H     1 <1>   0.4500 
 35 H       -5.3600     3.0280    -1.4860 H     1 <1>   0.0800 
 36 H       -6.2360    -0.6940    -3.3890 H     1 <1>   0.0800 
 37 H       -1.1430    -4.4920     0.3020 H     1 <1>   0.0800 
 38 H       -2.5290    -4.6940     1.3720 H     1 <1>   0.0800 
 39 H       -2.9080    -2.4420     3.0120 H     1 <1>   0.0800 
 40 H       -1.7060    -1.1940     2.6880 H     1 <1>   0.0800 
 41 H       -6.4360     2.2350     0.5740 H     1 <1>   0.0800 
 42 H       -7.5550     2.1790    -0.7580 H     1 <1>   0.0800 
 43 H       -8.0810    -0.0150    -1.8830 H     1 <1>   0.0800 
 44 H       -7.3470    -1.4900    -1.3570 H     1 <1>   0.0800 
 45 H       -6.7000     1.7160    -3.0980 H     1 <1>   0.0800 
 46 H       -5.0050     1.4540    -3.3640 H     1 <1>   0.0800 
 47 H        0.3280    -4.4080     2.0920 H     1 <1>   0.0800 
 48 H       -0.9450    -5.2540     2.9360 H     1 <1>   0.0800 
 49 H       -1.2380    -3.3760     4.2910 H     1 <1>   0.0800 
 50 H        0.0260    -2.5630     3.4000 H     1 <1>   0.0800 
 51 H       -7.9280    -2.1910     0.6740 H     1 <1>   0.1500 
 52 H       -8.5180     1.9920     1.3860 H     1 <1>   0.1500 
 53 H       -9.7190    -2.6880     2.2160 H     1 <1>   0.1500 
 54 H      -10.2920     1.4680     2.9150 H     1 <1>   0.1500 
 55 H      -11.1190    -1.9350     4.0830 H     1 <1>   0.0800 
 56 H      -12.1960    -0.9420     3.1280 H     1 <1>   0.0800 
 57 H      -11.2810    -0.2360     4.4410 H     1 <1>   0.0800 
@<TRIPOS>BOND
  1   1   2  2   
  2   2   3  1   
  3   2   4  1   
  4   3   5  1   
  5   3   6  1   
  6   3   7  1   
  7   4   8  1   
  8   4  26  1   
  9   4  27  1   
 10   5   9  1   
 11   5  28  1   
 12   5  29  1   
 13   6  10  1   
 14   6  30  1   
 15   6  31  1   
 16   7  11  1   
 17   7  32  1   
 18   7  33  1   
 19   8  12  1   
 20   8  13  1   
 21   8  34  1   
 22   9  14  1   
 23   9  15  1   
 24   9  16  1   
 25  10  15  1   
 26  10  17  1   
 27  10  35  1   
 28  11  16  1   
 29  11  17  1   
 30  11  36  1   
 31  12  18  1   
 32  12  37  1   
 33  12  38  1   
 34  13  19  1   
 35  13  39  1   
 36  13  40  1   
 37  14  20  ar  
 38  14  21  ar  
 39  15  41  1   
 40  15  42  1   
 41  16  43  1   
 42  16  44  1   
 43  17  45  1   
 44  17  46  1   
 45  18  19  1   
 46  18  47  1   
 47  18  48  1   
 48  19  49  1   
 49  19  50  1   
 50  20  22  ar  
 51  20  51  1   
 52  21  23  ar  
 53  21  52  1   
 54  22  24  ar  
 55  22  53  1   
 56  23  24  ar  
 57  23  54  1   
 58  24  25  1   
 59  25  55  1   
 60  25  56  1   
 61  25  57  1   
@<TRIPOS>SUBSTRUCTURE
  1 ****   5 GROUP 4 **** **** 0

# MOE 2024.06 (io_trps.svl 2023.06)
