@<TRIPOS>MOLECULE
NONAME
34 35 1 0 0 
SMALL
USER_CHARGES


@<TRIPOS>ATOM
  1 I       -1.1450     1.0810    -2.0190 I     1 <1>  -0.0810 
  2 C        0.2790     2.0950    -0.7950 C.ar  1 <1>   0.0810 
  3 C       -0.1190     2.7930     0.3490 C.ar  1 <1>   0.0860 
  4 C        1.6000     1.9900    -1.1950 C.ar  1 <1>  -0.1500 
  5 C       -1.4890     2.9440     0.7760 C.2   1 <1>   0.6340 
  6 C        0.9050     3.3670     1.1050 C.ar  1 <1>  -0.1500 
  7 C        2.5830     2.5870    -0.4280 C.ar  1 <1>  -0.1500 
  8 O       -1.8910     2.5700     1.8580 O.2   1 <1>  -0.5700 
  9 O       -2.3410     3.5680    -0.0450 O.3   1 <1>  -0.4300 
 10 C        2.2330     3.2710     0.7240 C.ar  1 <1>  -0.1500 
 11 C       -3.6910     3.7800     0.2910 C.3   1 <1>   0.2000 
 12 C       -4.4770     2.4890     0.0400 C.3   1 <1>  -0.1600 
 13 C       -4.2120     4.9160    -0.5880 C.3   1 <1>  -0.1600 
 14 C       -5.9700     2.7230     0.2370 C.3   1 <1>   0.3430 
 15 C       -5.7130     5.1070    -0.3890 C.3   1 <1>   0.3430 
 16 N       -6.4290     3.8250    -0.6620 N.4   1 <1>  -0.9590 
 17 C       -7.9090     4.0090    -0.5630 C.3   1 <1>   0.2630 
 18 H        1.8630     1.4480    -2.0870 H     1 <1>   0.1500 
 19 H        0.6520     3.8980     2.0070 H     1 <1>   0.1500 
 20 H        3.6170     2.5170    -0.7220 H     1 <1>   0.1500 
 21 H        3.0000     3.7290     1.3260 H     1 <1>   0.1500 
 22 H       -3.7480     4.0680     1.3290 H     1 <1>   0.0800 
 23 H       -4.1550     1.7310     0.7330 H     1 <1>   0.0800 
 24 H       -4.2980     2.1310    -0.9580 H     1 <1>   0.0800 
 25 H       -4.0120     4.7050    -1.6240 H     1 <1>   0.0800 
 26 H       -3.7050     5.8270    -0.3260 H     1 <1>   0.0800 
 27 H       -6.1600     2.9850     1.2660 H     1 <1>   0.0800 
 28 H       -6.5060     1.8150     0.0140 H     1 <1>   0.0800 
 29 H       -6.0670     5.8780    -1.0550 H     1 <1>   0.0800 
 30 H       -5.9040     5.4220     0.6250 H     1 <1>   0.0800 
 31 H       -6.1990     3.5450    -1.6270 H     1 <1>   0.4500 
 32 H       -8.1850     4.3000     0.4370 H     1 <1>   0.0800 
 33 H       -8.4170     3.0890    -0.8070 H     1 <1>   0.0800 
 34 H       -8.2380     4.7730    -1.2480 H     1 <1>   0.0800 
@<TRIPOS>BOND
  1   1   2  1   
  2   2   3  ar  
  3   2   4  ar  
  4   3   5  1   
  5   3   6  ar  
  6   4   7  ar  
  7   4  18  1   
  8   5   8  2   
  9   5   9  1   
 10   6  10  ar  
 11   6  19  1   
 12   7  10  ar  
 13   7  20  1   
 14   9  11  1   
 15  10  21  1   
 16  11  12  1   
 17  11  13  1   
 18  11  22  1   
 19  12  14  1   
 20  12  23  1   
 21  12  24  1   
 22  13  15  1   
 23  13  25  1   
 24  13  26  1   
 25  14  16  1   
 26  14  27  1   
 27  14  28  1   
 28  15  16  1   
 29  15  29  1   
 30  15  30  1   
 31  16  17  1   
 32  16  31  1   
 33  17  32  1   
 34  17  33  1   
 35  17  34  1   
@<TRIPOS>SUBSTRUCTURE
  1 ****   9 GROUP 4 **** **** 0

# MOE 2024.06 (io_trps.svl 2023.06)
