@<TRIPOS>MOLECULE
NONAME
51 53 1 0 0 
SMALL
USER_CHARGES


@<TRIPOS>ATOM
  1 O        1.1890    -0.6680    -1.7420 O.2   1 <1>  -0.5700 
  2 C        0.9120    -1.5220    -0.9210 C.2   1 <1>   0.6900 
  3 N        1.8150    -2.5160    -0.6750 N.am  1 <1>  -0.6600 
  4 N       -0.2250    -1.4970    -0.1780 N.am  1 <1>  -0.5470 
  5 C        2.7330    -2.9120    -1.7780 C.3   1 <1>   0.1400 
  6 C        2.4810    -2.5260     0.6540 C.3   1 <1>   0.1400 
  7 C       -1.2490    -0.5540     0.0120 C.ar  1 <1>   0.1170 
  8 C        3.9540    -1.9730    -1.8100 C.3   1 <1>   0.3430 
  9 C        3.7070    -1.5890     0.6300 C.3   1 <1>   0.3430 
 10 C       -2.1610    -0.7800     1.0500 C.ar  1 <1>   0.0820 
 11 C       -1.4000     0.5800    -0.7780 C.ar  1 <1>  -0.1500 
 12 N        4.6840    -1.9140    -0.4820 N.4   1 <1>  -0.9590 
 13 O       -1.9810    -1.9090     1.8030 O.3   1 <1>  -0.3620 
 14 C       -3.1940     0.1240     1.2800 C.ar  1 <1>  -0.1500 
 15 C       -2.4280     1.4760    -0.5430 C.ar  1 <1>  -0.1500 
 16 C        5.8370    -0.9570    -0.5200 C.3   1 <1>   0.4230 
 17 C       -2.9030    -2.2680     2.8090 C.3   1 <1>   0.0400 
 18 C       -3.3240     1.2490     0.4850 C.ar  1 <1>  -0.1500 
 19 C        6.8240    -1.3550    -1.6370 C.3   1 <1>  -0.1600 
 20 C        6.5610    -0.9370     0.8410 C.3   1 <1>  -0.1600 
 21 C        8.0760    -0.4670    -1.6510 C.3   1 <1>  -0.1600 
 22 C        7.8150    -0.0500     0.8210 C.3   1 <1>  -0.1600 
 23 C        8.7780    -0.4740    -0.2910 C.3   1 <1>  -0.1600 
 24 H       -0.3690    -2.3330     0.3870 H     1 <1>   0.3700 
 25 H        2.2110    -2.8480    -2.7190 H     1 <1>   0.0800 
 26 H        3.0460    -3.9330    -1.6450 H     1 <1>   0.0800 
 27 H        2.7810    -3.5290     0.9030 H     1 <1>   0.0800 
 28 H        1.7940    -2.1900     1.4140 H     1 <1>   0.0800 
 29 H        3.6100    -0.9860    -2.0770 H     1 <1>   0.0800 
 30 H        4.6200    -2.3110    -2.5850 H     1 <1>   0.0800 
 31 H        4.2000    -1.6540     1.5850 H     1 <1>   0.0800 
 32 H        3.3530    -0.5780     0.5100 H     1 <1>   0.0800 
 33 H       -0.7220     0.7750    -1.5870 H     1 <1>   0.1500 
 34 H        5.0740    -2.8450    -0.2980 H     1 <1>   0.4500 
 35 H       -3.9050    -0.0230     2.0700 H     1 <1>   0.1500 
 36 H       -2.5290     2.3490    -1.1650 H     1 <1>   0.1500 
 37 H        5.4710     0.0360    -0.7270 H     1 <1>   0.0800 
 38 H       -2.5860    -3.2010     3.2380 H     1 <1>   0.0800 
 39 H       -3.8770    -2.3820     2.3660 H     1 <1>   0.0800 
 40 H       -2.9110    -1.5030     3.5660 H     1 <1>   0.0800 
 41 H       -4.1230     1.9480     0.6650 H     1 <1>   0.1500 
 42 H        6.3650    -1.2580    -2.6030 H     1 <1>   0.0800 
 43 H        7.1330    -2.3770    -1.5020 H     1 <1>   0.0800 
 44 H        6.8560    -1.9360     1.1110 H     1 <1>   0.0800 
 45 H        5.9190    -0.5470     1.6090 H     1 <1>   0.0800 
 46 H        7.8030     0.5440    -1.9040 H     1 <1>   0.0800 
 47 H        8.7610    -0.8170    -2.4060 H     1 <1>   0.0800 
 48 H        8.3190    -0.1120     1.7710 H     1 <1>   0.0800 
 49 H        7.5310     0.9790     0.6710 H     1 <1>   0.0800 
 50 H        9.6180     0.2000    -0.3160 H     1 <1>   0.0800 
 51 H        9.1600    -1.4600    -0.0840 H     1 <1>   0.0800 
@<TRIPOS>BOND
  1   1   2  2   
  2   2   3  am  
  3   2   4  am  
  4   3   5  1   
  5   3   6  1   
  6   4   7  1   
  7   4  24  1   
  8   5   8  1   
  9   5  25  1   
 10   5  26  1   
 11   6   9  1   
 12   6  27  1   
 13   6  28  1   
 14   7  10  ar  
 15   7  11  ar  
 16   8  12  1   
 17   8  29  1   
 18   8  30  1   
 19   9  12  1   
 20   9  31  1   
 21   9  32  1   
 22  10  13  1   
 23  10  14  ar  
 24  11  15  ar  
 25  11  33  1   
 26  12  16  1   
 27  12  34  1   
 28  13  17  1   
 29  14  18  ar  
 30  14  35  1   
 31  15  18  ar  
 32  15  36  1   
 33  16  19  1   
 34  16  20  1   
 35  16  37  1   
 36  17  38  1   
 37  17  39  1   
 38  17  40  1   
 39  18  41  1   
 40  19  21  1   
 41  19  42  1   
 42  19  43  1   
 43  20  22  1   
 44  20  44  1   
 45  20  45  1   
 46  21  23  1   
 47  21  46  1   
 48  21  47  1   
 49  22  23  1   
 50  22  48  1   
 51  22  49  1   
 52  23  50  1   
 53  23  51  1   
@<TRIPOS>SUBSTRUCTURE
  1 ****   2 GROUP 4 **** **** 0

# MOE 2024.06 (io_trps.svl 2023.06)
