@<TRIPOS>MOLECULE
NONAME
35 36 1 0 0 
SMALL
USER_CHARGES


@<TRIPOS>ATOM
  1 CL      -0.1790    -0.0370    -0.1080 Cl    1 <1>  -0.1770 
  2 C       -1.6470     0.8890    -0.0160 C.ar  1 <1>   0.1770 
  3 C       -1.6820     2.1600    -0.5200 C.ar  1 <1>  -0.1500 
  4 C       -2.7690     0.3170     0.5730 C.ar  1 <1>  -0.1500 
  5 C       -2.8630     2.9080    -0.4470 C.ar  1 <1>   0.3610 
  6 C       -3.9320     1.0400     0.6510 C.ar  1 <1>  -0.1500 
  7 N       -2.9110     4.1880    -0.9520 N.ar  1 <1>  -0.1790 
  8 C       -4.0230     2.3560     0.1460 C.ar  1 <1>   0.0000 
  9 C       -4.0310     4.9320    -0.9020 C.ar  1 <1>   0.2110 
 10 C       -5.2170     3.1430     0.2100 C.ar  1 <1>   0.1000 
 11 C       -5.1720     4.4290    -0.3360 C.ar  1 <1>  -0.1500 
 12 N       -6.3340     2.6410     0.7870 N.pl3 1 <1>  -0.8690 
 13 C       -7.6580     3.2590     1.0350 C.3   1 <1>   0.2090 
 14 C       -8.6880     2.5470     0.1560 C.3   1 <1>  -0.1600 
 15 C      -10.0890     3.1080     0.3870 C.3   1 <1>   0.3430 
 16 N      -11.0550     2.3840    -0.4780 N.4   1 <1>  -0.9060 
 17 C      -12.4550     2.8810    -0.3160 C.3   1 <1>   0.2630 
 18 H       -0.7930     2.5650    -0.9680 H     1 <1>   0.1500 
 19 H       -2.7010    -0.6870     0.9590 H     1 <1>   0.1500 
 20 H       -4.7890     0.5810     1.1110 H     1 <1>   0.1500 
 21 H       -2.0560     4.5660    -1.3730 H     1 <1>   0.4570 
 22 H       -4.0130     5.9290    -1.3160 H     1 <1>   0.1500 
 23 H       -6.0480     5.0490    -0.3150 H     1 <1>   0.1500 
 24 H       -6.2820     1.6950     1.1850 H     1 <1>   0.4000 
 25 H       -7.6400     4.3120     0.8200 H     1 <1>   0.0800 
 26 H       -7.9060     3.1380     2.0770 H     1 <1>   0.0800 
 27 H       -8.6770     1.4980     0.3950 H     1 <1>   0.0800 
 28 H       -8.4070     2.6820    -0.8740 H     1 <1>   0.0800 
 29 H      -10.1030     4.1610     0.1510 H     1 <1>   0.0800 
 30 H      -10.3640     2.9880     1.4230 H     1 <1>   0.0800 
 31 H      -11.0220     1.3770    -0.2620 H     1 <1>   0.4500 
 32 H      -10.7710     2.4750    -1.4640 H     1 <1>   0.4500 
 33 H      -12.7820     2.7580     0.7050 H     1 <1>   0.0800 
 34 H      -13.1240     2.3300    -0.9580 H     1 <1>   0.0800 
 35 H      -12.5160     3.9260    -0.5740 H     1 <1>   0.0800 
@<TRIPOS>BOND
  1   1   2  1   
  2   2   3  ar  
  3   2   4  ar  
  4   3   5  ar  
  5   3  18  1   
  6   4   6  ar  
  7   4  19  1   
  8   5   7  ar  
  9   5   8  ar  
 10   6   8  ar  
 11   6  20  1   
 12   7   9  ar  
 13   7  21  1   
 14   8  10  ar  
 15   9  11  ar  
 16   9  22  1   
 17  10  11  ar  
 18  10  12  1   
 19  11  23  1   
 20  12  13  1   
 21  12  24  1   
 22  13  14  1   
 23  13  25  1   
 24  13  26  1   
 25  14  15  1   
 26  14  27  1   
 27  14  28  1   
 28  15  16  1   
 29  15  29  1   
 30  15  30  1   
 31  16  17  1   
 32  16  31  1   
 33  16  32  1   
 34  17  33  1   
 35  17  34  1   
 36  17  35  1   
@<TRIPOS>SUBSTRUCTURE
  1 ****  10 GROUP 4 **** **** 0

# MOE 2024.06 (io_trps.svl 2023.06)
