@<TRIPOS>MOLECULE
NONAME
50 52 1 0 0 
SMALL
USER_CHARGES


@<TRIPOS>ATOM
  1 O       -0.5690     2.1960    -0.9270 O.2   1 <1>  -0.5700 
  2 C       -0.2210     2.6670     0.1390 C.2   1 <1>   0.6900 
  3 N       -1.0050     3.6170     0.7200 N.am  1 <1>  -0.6600 
  4 N        0.8770     2.2380     0.8120 N.am  1 <1>  -0.5470 
  5 C       -1.4920     4.7200    -0.1590 C.3   1 <1>   0.1400 
  6 C       -2.0620     3.1110     1.6370 C.3   1 <1>   0.1400 
  7 C        1.7180     1.1590     0.5190 C.ar  1 <1>   0.1170 
  8 C       -2.7180     4.2630    -0.9810 C.3   1 <1>   0.3430 
  9 C       -3.2750     2.6200     0.8190 C.3   1 <1>   0.3430 
 10 C        2.5140     1.1050    -0.6290 C.ar  1 <1>  -0.1440 
 11 C        1.7710     0.1070     1.4260 C.ar  1 <1>  -0.1500 
 12 N       -3.8050     3.6810    -0.1150 N.4   1 <1>  -0.9590 
 13 C        3.3200     0.0000    -0.8510 C.ar  1 <1>  -0.1500 
 14 C        2.5330     2.2320    -1.6540 C.3   1 <1>  -0.0970 
 15 C        2.5820    -0.9890     1.1990 C.ar  1 <1>  -0.1500 
 16 C       -4.9130     3.1430    -0.9470 C.3   1 <1>   0.4860 
 17 C        3.3570    -1.0450     0.0560 C.ar  1 <1>  -0.1500 
 18 C       -6.0600     2.7670    -0.0280 C.ar  1 <1>  -0.1440 
 19 C       -6.9060     3.7250     0.5260 C.ar  1 <1>  -0.1440 
 20 C       -6.2540     1.4240     0.2690 C.ar  1 <1>  -0.1500 
 21 C       -7.9150     3.3200     1.3870 C.ar  1 <1>  -0.1500 
 22 C       -6.7820     5.2130     0.2190 C.3   1 <1>  -0.0970 
 23 C       -7.2650     1.0320     1.1260 C.ar  1 <1>  -0.1500 
 24 C       -8.0930     1.9830     1.6890 C.ar  1 <1>  -0.1500 
 25 H        1.0480     2.7150     1.6930 H     1 <1>   0.3700 
 26 H       -0.7040     5.0110    -0.8340 H     1 <1>   0.0800 
 27 H       -1.7440     5.5770     0.4410 H     1 <1>   0.0800 
 28 H       -2.3600     3.8900     2.3170 H     1 <1>   0.0800 
 29 H       -1.6740     2.2920     2.2200 H     1 <1>   0.0800 
 30 H       -2.3840     3.5180    -1.6850 H     1 <1>   0.0800 
 31 H       -3.1000     5.0990    -1.5430 H     1 <1>   0.0800 
 32 H       -4.0530     2.3060     1.4960 H     1 <1>   0.0800 
 33 H       -2.9660     1.7600     0.2470 H     1 <1>   0.0800 
 34 H        1.1700     0.1420     2.3150 H     1 <1>   0.1500 
 35 H       -4.2150     4.4190     0.4680 H     1 <1>   0.4500 
 36 H        3.9290    -0.0560    -1.7360 H     1 <1>   0.1500 
 37 H        3.4320     2.1980    -2.2410 H     1 <1>   0.0800 
 38 H        1.6900     2.1360    -2.3150 H     1 <1>   0.0800 
 39 H        2.4890     3.1880    -1.1660 H     1 <1>   0.0800 
 40 H        2.6100    -1.7990     1.9080 H     1 <1>   0.1500 
 41 H       -4.5810     2.2780    -1.4970 H     1 <1>   0.0800 
 42 H       -5.2490     3.8860    -1.6520 H     1 <1>   0.0800 
 43 H        3.9880    -1.8970    -0.1280 H     1 <1>   0.1500 
 44 H       -5.6240     0.6640    -0.1630 H     1 <1>   0.1500 
 45 H       -8.5790     4.0430     1.8310 H     1 <1>   0.1500 
 46 H       -5.9750     5.6490     0.7790 H     1 <1>   0.0800 
 47 H       -7.6880     5.7280     0.4910 H     1 <1>   0.0800 
 48 H       -6.6260     5.3790    -0.8310 H     1 <1>   0.0800 
 49 H       -7.4120    -0.0100     1.3540 H     1 <1>   0.1500 
 50 H       -8.8820     1.6820     2.3570 H     1 <1>   0.1500 
@<TRIPOS>BOND
  1   1   2  2   
  2   2   3  am  
  3   2   4  am  
  4   3   5  1   
  5   3   6  1   
  6   4   7  1   
  7   4  25  1   
  8   5   8  1   
  9   5  26  1   
 10   5  27  1   
 11   6   9  1   
 12   6  28  1   
 13   6  29  1   
 14   7  10  ar  
 15   7  11  ar  
 16   8  12  1   
 17   8  30  1   
 18   8  31  1   
 19   9  12  1   
 20   9  32  1   
 21   9  33  1   
 22  10  13  ar  
 23  10  14  1   
 24  11  15  ar  
 25  11  34  1   
 26  12  16  1   
 27  12  35  1   
 28  13  17  ar  
 29  13  36  1   
 30  14  37  1   
 31  14  38  1   
 32  14  39  1   
 33  15  17  ar  
 34  15  40  1   
 35  16  18  1   
 36  16  41  1   
 37  16  42  1   
 38  17  43  1   
 39  18  19  ar  
 40  18  20  ar  
 41  19  21  ar  
 42  19  22  1   
 43  20  23  ar  
 44  20  44  1   
 45  21  24  ar  
 46  21  45  1   
 47  22  46  1   
 48  22  47  1   
 49  22  48  1   
 50  23  24  ar  
 51  23  49  1   
 52  24  50  1   
@<TRIPOS>SUBSTRUCTURE
  1 ****   9 GROUP 4 **** **** 0

# MOE 2024.06 (io_trps.svl 2023.06)
