@<TRIPOS>MOLECULE
NONAME
27 27 1 0 0 
SMALL
USER_CHARGES


@<TRIPOS>ATOM
  1 BR      -0.0570    -0.3090     1.8650 Br    1 <1>  -0.1110 
  2 C       -1.2940     0.6800     0.7620 C.ar  1 <1>   0.1110 
  3 C       -0.9270     1.9150     0.2410 C.ar  1 <1>   0.0820 
  4 C       -2.5350     0.1240     0.5160 C.ar  1 <1>  -0.1500 
  5 O        0.2850     2.4580     0.4840 O.3   1 <1>  -0.3630 
  6 C       -1.8420     2.6120    -0.5330 C.ar  1 <1>  -0.1500 
  7 C       -3.4370     0.8260    -0.2680 C.ar  1 <1>  -0.1500 
  8 C        1.3240     2.0510    -0.3730 C.3   1 <1>   0.1200 
  9 C       -3.0910     2.0660    -0.7880 C.ar  1 <1>  -0.1500 
 10 C        2.6320     2.6410     0.1550 C.3   1 <1>  -0.1600 
 11 C        3.8220     2.2320    -0.7220 C.3   1 <1>  -0.1600 
 12 C        5.1290     2.8130    -0.1800 C.3   1 <1>   0.0700 
 13 S        6.4990     2.2750    -1.2920 S.3   1 <1>  -0.2660 
 14 C        7.9520     3.0090    -0.5150 C.1   1 <1>   0.5930 
 15 N        8.8510     3.4830    -0.0040 N.1   1 <1>  -0.5570 
 16 H       -2.7900    -0.8350     0.9300 H     1 <1>   0.1500 
 17 H       -1.5740     3.5750    -0.9290 H     1 <1>   0.1500 
 18 H       -4.4090     0.4110    -0.4720 H     1 <1>   0.1500 
 19 H        1.1050     2.4120    -1.3630 H     1 <1>   0.0800 
 20 H        1.3650     0.9750    -0.3790 H     1 <1>   0.0800 
 21 H       -3.7980     2.6090    -1.3920 H     1 <1>   0.1500 
 22 H        2.7880     2.2890     1.1610 H     1 <1>   0.0800 
 23 H        2.5480     3.7140     0.1730 H     1 <1>   0.0800 
 24 H        3.6680     2.5860    -1.7280 H     1 <1>   0.0800 
 25 H        3.8980     1.1580    -0.7480 H     1 <1>   0.0800 
 26 H        5.3510     2.4430     0.8060 H     1 <1>   0.0800 
 27 H        5.1180     3.8890    -0.1810 H     1 <1>   0.0800 
@<TRIPOS>BOND
  1   1   2  1   
  2   2   3  ar  
  3   2   4  ar  
  4   3   5  1   
  5   3   6  ar  
  6   4   7  ar  
  7   4  16  1   
  8   5   8  1   
  9   6   9  ar  
 10   6  17  1   
 11   7   9  ar  
 12   7  18  1   
 13   8  10  1   
 14   8  19  1   
 15   8  20  1   
 16   9  21  1   
 17  10  11  1   
 18  10  22  1   
 19  10  23  1   
 20  11  12  1   
 21  11  24  1   
 22  11  25  1   
 23  12  13  1   
 24  12  26  1   
 25  12  27  1   
 26  13  14  1   
 27  14  15  3   
@<TRIPOS>SUBSTRUCTURE
  1 ****   8 GROUP 4 **** **** 0

# MOE 2024.06 (io_trps.svl 2023.06)
