@<TRIPOS>MOLECULE
NONAME
36 38 1 0 0 
SMALL
USER_CHARGES


@<TRIPOS>ATOM
  1 CL       0.2160    -0.1300     2.7290 Cl    1 <1>  -0.1770 
  2 C        1.7420    -0.7840     2.1890 C.ar  1 <1>   0.1770 
  3 C        2.5020    -0.0620     1.2840 C.ar  1 <1>  -0.1500 
  4 C        2.1580    -2.0140     2.6740 C.ar  1 <1>  -0.1500 
  5 C        3.7220    -0.5800     0.8740 C.ar  1 <1>  -0.1440 
  6 C        3.3570    -2.5510     2.2340 C.ar  1 <1>  -0.1500 
  7 C        4.1180    -1.8310     1.3240 C.ar  1 <1>   0.1170 
  8 C        4.7830    -0.0330    -0.0940 C.3   1 <1>   0.7550 
  9 N        5.2880    -2.2340     0.7050 N.am  1 <1>  -0.5470 
 10 O        4.1810     0.3020    -1.2910 O.3   1 <1>  -0.6800 
 11 N        5.4930     1.1940     0.3890 N.3   1 <1>  -0.8100 
 12 C        5.6810    -1.3140    -0.2110 C.2   1 <1>   0.5690 
 13 C        4.6170     2.3520     0.6580 C.3   1 <1>   0.1100 
 14 C        6.6480     1.5730    -0.4560 C.3   1 <1>   0.1100 
 15 O        6.5600    -1.5170    -1.0220 O.2   1 <1>  -0.5700 
 16 C        5.3960     3.4890     1.3250 C.3   1 <1>  -0.1600 
 17 C        7.4690     2.6820     0.2060 C.3   1 <1>  -0.1600 
 18 C        6.6070     3.9150     0.4890 C.3   1 <1>  -0.0800 
 19 C        7.4190     4.9950     1.2130 C.3   1 <1>  -0.2400 
 20 H        2.1340     0.8740     0.9080 H     1 <1>   0.1500 
 21 H        1.5420    -2.5420     3.3800 H     1 <1>   0.1500 
 22 H        3.6920    -3.5110     2.5820 H     1 <1>   0.1500 
 23 H        5.7080    -3.1620     0.7490 H     1 <1>   0.3700 
 24 H        4.9040     0.4480    -1.9230 H     1 <1>   0.4000 
 25 H        3.8360     2.0750     1.3360 H     1 <1>   0.0800 
 26 H        4.1730     2.7000    -0.2600 H     1 <1>   0.0800 
 27 H        6.3040     1.9110    -1.4190 H     1 <1>   0.0800 
 28 H        7.3030     0.7330    -0.6030 H     1 <1>   0.0800 
 29 H        5.7190     3.1570     2.2970 H     1 <1>   0.0800 
 30 H        4.7390     4.3290     1.4670 H     1 <1>   0.0800 
 31 H        8.2840     2.9490    -0.4410 H     1 <1>   0.0800 
 32 H        7.8860     2.3010     1.1230 H     1 <1>   0.0800 
 33 H        6.2570     4.3160    -0.4470 H     1 <1>   0.0800 
 34 H        7.7850     4.6260     2.1550 H     1 <1>   0.0800 
 35 H        6.8070     5.8600     1.3970 H     1 <1>   0.0800 
 36 H        8.2590     5.2950     0.6120 H     1 <1>   0.0800 
@<TRIPOS>BOND
  1   1   2  1   
  2   2   3  ar  
  3   2   4  ar  
  4   3   5  ar  
  5   3  20  1   
  6   4   6  ar  
  7   4  21  1   
  8   5   7  ar  
  9   5   8  1   
 10   6   7  ar  
 11   6  22  1   
 12   7   9  1   
 13   8  10  1   
 14   8  11  1   
 15   8  12  1   
 16   9  12  am  
 17   9  23  1   
 18  10  24  1   
 19  11  13  1   
 20  11  14  1   
 21  12  15  2   
 22  13  16  1   
 23  13  25  1   
 24  13  26  1   
 25  14  17  1   
 26  14  27  1   
 27  14  28  1   
 28  16  18  1   
 29  16  29  1   
 30  16  30  1   
 31  17  18  1   
 32  17  31  1   
 33  17  32  1   
 34  18  19  1   
 35  18  33  1   
 36  19  34  1   
 37  19  35  1   
 38  19  36  1   
@<TRIPOS>SUBSTRUCTURE
  1 ****   8 GROUP 4 **** **** 0

# MOE 2024.06 (io_trps.svl 2023.06)
