@<TRIPOS>MOLECULE
NONAME
46 50 1 0 0 
SMALL
USER_CHARGES


@<TRIPOS>ATOM
  1 S       -0.1870     1.1070    -1.5220 S.o   1 <1>   0.3800 
  2 O        0.5210     2.4520    -1.4580 O.2   1 <1>  -0.5000 
  3 N       -1.5020     1.2520    -0.3690 N.am  1 <1>  -0.5730 
  4 C        0.8880    -0.1710    -0.7710 C.3   1 <1>   0.1940 
  5 C       -2.7880     0.7270    -0.4750 C.ar  1 <1>   0.1000 
  6 C        0.1660    -1.5380    -0.7170 C.3   1 <1>  -0.1600 
  7 C        1.3090     0.2090     0.6700 C.3   1 <1>  -0.1600 
  8 C        2.1720    -0.3400    -1.6150 C.3   1 <1>  -0.1600 
  9 C       -3.7190     1.0030     0.5190 C.ar  1 <1>  -0.1500 
 10 C       -3.1690    -0.0790    -1.5470 C.ar  1 <1>  -0.1500 
 11 C        1.0760    -2.6250    -0.1120 C.3   1 <1>  -0.0800 
 12 C        2.2270    -0.8650     1.2820 C.3   1 <1>  -0.0800 
 13 C        3.0960    -1.4190    -1.0190 C.3   1 <1>  -0.0800 
 14 C       -4.9990     0.4860     0.4490 C.ar  1 <1>   0.0830 
 15 C       -4.4510    -0.5950    -1.6280 C.ar  1 <1>  -0.1500 
 16 C        1.4770    -2.2100     1.3150 C.3   1 <1>  -0.1600 
 17 C        2.3430    -2.7610    -0.9760 C.3   1 <1>  -0.1600 
 18 C        3.4890    -1.0090     0.4120 C.3   1 <1>  -0.1600 
 19 O       -5.8750     0.7660     1.4490 O.3   1 <1>  -0.3630 
 20 C       -5.3720    -0.3110    -0.6350 C.ar  1 <1>   0.0830 
 21 C       -7.0540    -0.0150     1.5040 C.3   1 <1>   0.1200 
 22 O       -6.6310    -0.8170    -0.7410 O.3   1 <1>  -0.3630 
 23 C       -7.6150    -0.2330     0.0920 C.3   1 <1>   0.1200 
 24 H       -1.3390     1.9670     0.3430 H     1 <1>   0.4000 
 25 H       -0.1320    -1.8290    -1.7090 H     1 <1>   0.0800 
 26 H       -0.7270    -1.4520    -0.1230 H     1 <1>   0.0800 
 27 H        0.4370     0.3210     1.2880 H     1 <1>   0.0800 
 28 H        1.8200     1.1570     0.6540 H     1 <1>   0.0800 
 29 H        2.6960     0.5990    -1.6590 H     1 <1>   0.0800 
 30 H        1.9080    -0.6080    -2.6230 H     1 <1>   0.0800 
 31 H       -3.4520     1.6180     1.3570 H     1 <1>   0.1500 
 32 H       -2.4670    -0.3040    -2.3270 H     1 <1>   0.1500 
 33 H        0.5510    -3.5650    -0.0840 H     1 <1>   0.0800 
 34 H        2.5060    -0.5790     2.2820 H     1 <1>   0.0800 
 35 H        3.9810    -1.5160    -1.6250 H     1 <1>   0.0800 
 36 H       -4.7440    -1.2140    -2.4560 H     1 <1>   0.1500 
 37 H        2.1060    -2.9670     1.7510 H     1 <1>   0.0800 
 38 H        0.5980    -2.1220     1.9310 H     1 <1>   0.0800 
 39 H        2.0760    -3.0630    -1.9740 H     1 <1>   0.0800 
 40 H        2.9820    -3.5230    -0.5660 H     1 <1>   0.0800 
 41 H        4.1420    -1.7510     0.8370 H     1 <1>   0.0800 
 42 H        4.0250    -0.0760     0.3900 H     1 <1>   0.0800 
 43 H       -7.7650     0.5010     2.1220 H     1 <1>   0.0800 
 44 H       -6.8090    -0.9590     1.9580 H     1 <1>   0.0800 
 45 H       -7.9080     0.7060    -0.3440 H     1 <1>   0.0800 
 46 H       -8.4640    -0.8920     0.1140 H     1 <1>   0.0800 
@<TRIPOS>BOND
  1   1   2  2   
  2   1   3  am  
  3   1   4  1   
  4   3   5  1   
  5   3  24  1   
  6   4   6  1   
  7   4   7  1   
  8   4   8  1   
  9   5   9  ar  
 10   5  10  ar  
 11   6  11  1   
 12   6  25  1   
 13   6  26  1   
 14   7  12  1   
 15   7  27  1   
 16   7  28  1   
 17   8  13  1   
 18   8  29  1   
 19   8  30  1   
 20   9  14  ar  
 21   9  31  1   
 22  10  15  ar  
 23  10  32  1   
 24  11  16  1   
 25  11  17  1   
 26  11  33  1   
 27  12  16  1   
 28  12  18  1   
 29  12  34  1   
 30  13  17  1   
 31  13  18  1   
 32  13  35  1   
 33  14  19  1   
 34  14  20  ar  
 35  15  20  ar  
 36  15  36  1   
 37  16  37  1   
 38  16  38  1   
 39  17  39  1   
 40  17  40  1   
 41  18  41  1   
 42  18  42  1   
 43  19  21  1   
 44  20  22  1   
 45  21  23  1   
 46  21  43  1   
 47  21  44  1   
 48  22  23  1   
 49  23  45  1   
 50  23  46  1   
@<TRIPOS>SUBSTRUCTURE
  1 ****   3 GROUP 4 **** **** 0

# MOE 2024.06 (io_trps.svl 2023.06)
