@<TRIPOS>MOLECULE
NONAME
46 47 1 0 0 
SMALL
USER_CHARGES


@<TRIPOS>ATOM
  1 CL      -0.3660    -0.0760     2.4500 Cl    1 <1>  -0.1770 
  2 C       -0.2400    -1.7320     1.9090 C.ar  1 <1>   0.1770 
  3 C        0.4360    -2.0130     0.7360 C.ar  1 <1>  -0.1500 
  4 C       -0.8170    -2.7380     2.6610 C.ar  1 <1>  -0.1500 
  5 C        0.5390    -3.3270     0.3140 C.ar  1 <1>  -0.1500 
  6 C       -0.7090    -4.0490     2.2310 C.ar  1 <1>  -0.1500 
  7 C       -0.0250    -4.3600     1.0590 C.ar  1 <1>   0.1990 
  8 N        0.1100    -5.6870     0.6650 N.am  1 <1>  -0.6930 
  9 S       -0.5330    -6.2430    -0.8530 S.o2  1 <1>   1.3330 
 10 C        1.0040    -6.5600     1.4940 C.3   1 <1>   0.3370 
 11 O       -1.1210    -5.0990    -1.5060 O.2   1 <1>  -0.6500 
 12 O       -1.3320    -7.4180    -0.6080 O.2   1 <1>  -0.6500 
 13 C        0.8970    -6.6970    -1.8130 C.3   1 <1>  -0.1350 
 14 C        2.4510    -6.5820     0.9520 C.2   1 <1>   0.5690 
 15 C        0.3910    -7.9440     1.7500 C.3   1 <1>  -0.2400 
 16 O        2.9410    -7.6240     0.5810 O.2   1 <1>  -0.5700 
 17 N        3.1250    -5.3960     0.8830 N.am  1 <1>  -0.7300 
 18 C        4.5040    -5.1420     0.4100 C.3   1 <1>   0.2200 
 19 C        4.6380    -5.4720    -1.0820 C.3   1 <1>  -0.1600 
 20 C        5.5300    -5.9050     1.2560 C.3   1 <1>  -0.1600 
 21 C        6.0670    -5.2000    -1.5760 C.3   1 <1>  -0.1600 
 22 C        6.9590    -5.6300     0.7630 C.3   1 <1>  -0.1600 
 23 C        7.1000    -5.9590    -0.7300 C.3   1 <1>  -0.1600 
 24 H        0.8660    -1.2110     0.1630 H     1 <1>   0.1500 
 25 H       -1.3460    -2.4930     3.5650 H     1 <1>   0.1500 
 26 H        1.0510    -3.5540    -0.6040 H     1 <1>   0.1500 
 27 H       -1.1630    -4.8420     2.7990 H     1 <1>   0.1500 
 28 H        1.0800    -6.1000     2.4630 H     1 <1>   0.0800 
 29 H        1.6060    -5.8950    -1.8340 H     1 <1>   0.0800 
 30 H        0.6010    -6.9190    -2.8190 H     1 <1>   0.0800 
 31 H        1.3640    -7.5710    -1.4050 H     1 <1>   0.0800 
 32 H        0.4230    -8.5520     0.8640 H     1 <1>   0.0800 
 33 H       -0.6260    -7.8500     2.0850 H     1 <1>   0.0800 
 34 H        0.9580    -8.4520     2.5090 H     1 <1>   0.0800 
 35 H        2.6250    -4.5510     1.1660 H     1 <1>   0.3700 
 36 H        4.7000    -4.0890     0.5310 H     1 <1>   0.0800 
 37 H        3.9460    -4.8760    -1.6490 H     1 <1>   0.0800 
 38 H        4.4110    -6.5110    -1.2440 H     1 <1>   0.0800 
 39 H        5.3440    -6.9620     1.1900 H     1 <1>   0.0800 
 40 H        5.4440    -5.6070     2.2860 H     1 <1>   0.0800 
 41 H        6.2710    -4.1440    -1.5230 H     1 <1>   0.0800 
 42 H        6.1550    -5.5020    -2.6060 H     1 <1>   0.0800 
 43 H        7.6560    -6.2240     1.3290 H     1 <1>   0.0800 
 44 H        7.2020    -4.5940     0.9250 H     1 <1>   0.0800 
 45 H        8.0930    -5.7090    -1.0620 H     1 <1>   0.0800 
 46 H        6.9640    -7.0180    -0.8730 H     1 <1>   0.0800 
@<TRIPOS>BOND
  1   1   2  1   
  2   2   3  ar  
  3   2   4  ar  
  4   3   5  ar  
  5   3  24  1   
  6   4   6  ar  
  7   4  25  1   
  8   5   7  ar  
  9   5  26  1   
 10   6   7  ar  
 11   6  27  1   
 12   7   8  1   
 13   8   9  am  
 14   8  10  1   
 15   9  11  2   
 16   9  12  2   
 17   9  13  1   
 18  10  14  1   
 19  10  15  1   
 20  10  28  1   
 21  13  29  1   
 22  13  30  1   
 23  13  31  1   
 24  14  16  2   
 25  14  17  am  
 26  15  32  1   
 27  15  33  1   
 28  15  34  1   
 29  17  18  1   
 30  17  35  1   
 31  18  19  1   
 32  18  20  1   
 33  18  36  1   
 34  19  21  1   
 35  19  37  1   
 36  19  38  1   
 37  20  22  1   
 38  20  39  1   
 39  20  40  1   
 40  21  23  1   
 41  21  41  1   
 42  21  42  1   
 43  22  23  1   
 44  22  43  1   
 45  22  44  1   
 46  23  45  1   
 47  23  46  1   
@<TRIPOS>SUBSTRUCTURE
  1 ****  17 GROUP 4 **** **** 0

# MOE 2024.06 (io_trps.svl 2023.06)
