@<TRIPOS>MOLECULE
NONAME
48 50 1 0 0 
SMALL
USER_CHARGES


@<TRIPOS>ATOM
  1 S       -0.4910     1.1040     1.1450 S.o2  1 <1>   1.5010 
  2 O       -0.9430     1.9310     2.2440 O.2   1 <1>  -0.6500 
  3 O        0.1920    -0.1410     1.4250 O.2   1 <1>  -0.6500 
  4 N       -1.8680     0.7080     0.2420 N.am  1 <1>  -0.8490 
  5 C        0.4780     2.0910    -0.0080 C.2   1 <1>  -0.0630 
  6 C       -2.6820    -0.3130     0.9320 C.3   1 <1>   0.1960 
  7 C       -2.7070     1.8890    -0.0520 C.3   1 <1>   0.1960 
  8 C        0.9470     1.6690    -1.2490 C.2   1 <1>   0.1080 
  9 C        0.9110     3.3750     0.0750 C.2   1 <1>  -0.3020 
 10 C       -3.9180    -0.7290     0.1110 C.3   1 <1>   0.2090 
 11 C       -3.9340     1.5290    -0.9100 C.3   1 <1>   0.2090 
 12 N        1.5970     2.5980    -1.8790 N.2   1 <1>  -0.7070 
 13 C        0.7480     0.2920    -1.8470 C.3   1 <1>  -0.0590 
 14 N        1.5810     3.6530    -1.0560 N.pl3 1 <1>   0.3140 
 15 N       -4.7410     0.4580    -0.2590 N.pl3 1 <1>  -0.8380 
 16 C        2.2390     4.9140    -1.4130 C.3   1 <1>   0.0160 
 17 C       -5.9960     0.2000    -0.8100 C.ar  1 <1>   0.1000 
 18 C       -7.1670     0.4960    -0.1050 C.ar  1 <1>  -0.1430 
 19 C       -6.0870    -0.3620    -2.0780 C.ar  1 <1>  -0.1500 
 20 C       -8.4080     0.2240    -0.6780 C.ar  1 <1>  -0.1430 
 21 C       -7.0280     1.1140     1.2870 C.3   1 <1>  -0.0970 
 22 C       -7.3150    -0.6290    -2.6460 C.ar  1 <1>  -0.1500 
 23 C       -8.4700    -0.3360    -1.9460 C.ar  1 <1>  -0.1500 
 24 C       -9.7200     0.5180     0.0360 C.3   1 <1>  -0.0970 
 25 H       -3.0100     0.0650     1.8860 H     1 <1>   0.0800 
 26 H       -2.0840    -1.1900     1.1120 H     1 <1>   0.0800 
 27 H       -2.1250     2.6240    -0.5810 H     1 <1>   0.0800 
 28 H       -3.0520     2.3350     0.8660 H     1 <1>   0.0800 
 29 H        0.7730     4.0820     0.8730 H     1 <1>   0.1500 
 30 H       -4.5200    -1.4090     0.6870 H     1 <1>   0.0800 
 31 H       -3.5960    -1.2370    -0.7810 H     1 <1>   0.0800 
 32 H       -3.6060     1.1980    -1.8800 H     1 <1>   0.0800 
 33 H       -4.5500     2.4020    -1.0430 H     1 <1>   0.0800 
 34 H        1.0930    -0.4610    -1.1620 H     1 <1>   0.0800 
 35 H        1.3060     0.2070    -2.7620 H     1 <1>   0.0800 
 36 H       -0.2920     0.1300    -2.0590 H     1 <1>   0.0800 
 37 H        2.0160     5.6610    -0.6750 H     1 <1>   0.0800 
 38 H        1.8820     5.2310    -2.3750 H     1 <1>   0.0800 
 39 H        3.2990     4.7500    -1.4610 H     1 <1>   0.0800 
 40 H       -5.1890    -0.5880    -2.6190 H     1 <1>   0.1500 
 41 H       -6.4400     2.0110     1.2220 H     1 <1>   0.0800 
 42 H       -6.5190     0.4220     1.9330 H     1 <1>   0.0800 
 43 H       -7.9670     1.3650     1.7360 H     1 <1>   0.0800 
 44 H       -7.3770    -1.0630    -3.6280 H     1 <1>   0.1500 
 45 H       -9.4220    -0.5500    -2.3990 H     1 <1>   0.1500 
 46 H       -9.7570    -0.0170     0.9680 H     1 <1>   0.0800 
 47 H      -10.5630     0.2150    -0.5580 H     1 <1>   0.0800 
 48 H       -9.8040     1.5720     0.2280 H     1 <1>   0.0800 
@<TRIPOS>BOND
  1   1   2  2   
  2   1   3  2   
  3   1   4  am  
  4   1   5  1   
  5   4   6  1   
  6   4   7  1   
  7   5   8  1   
  8   5   9  2   
  9   6  10  1   
 10   6  25  1   
 11   6  26  1   
 12   7  11  1   
 13   7  27  1   
 14   7  28  1   
 15   8  12  2   
 16   8  13  1   
 17   9  14  1   
 18   9  29  1   
 19  10  15  1   
 20  10  30  1   
 21  10  31  1   
 22  11  15  1   
 23  11  32  1   
 24  11  33  1   
 25  12  14  1   
 26  13  34  1   
 27  13  35  1   
 28  13  36  1   
 29  14  16  1   
 30  15  17  1   
 31  16  37  1   
 32  16  38  1   
 33  16  39  1   
 34  17  18  ar  
 35  17  19  ar  
 36  18  20  ar  
 37  18  21  1   
 38  19  22  ar  
 39  19  40  1   
 40  20  23  ar  
 41  20  24  1   
 42  21  41  1   
 43  21  42  1   
 44  21  43  1   
 45  22  23  ar  
 46  22  44  1   
 47  23  45  1   
 48  24  46  1   
 49  24  47  1   
 50  24  48  1   
@<TRIPOS>SUBSTRUCTURE
  1 ****   7 GROUP 4 **** **** 0

# MOE 2024.06 (io_trps.svl 2023.06)
