@<TRIPOS>MOLECULE
NONAME
26 26 1 0 0 
SMALL
USER_CHARGES


@<TRIPOS>ATOM
  1 F        3.8850    -1.6050     2.0490 F     1 <1>  -0.3400 
  2 C        2.6100    -1.8100     1.7450 C.3   1 <1>   1.0200 
  3 F        1.9200    -1.3150     2.7720 F     1 <1>  -0.3400 
  4 F        2.4390    -3.1280     1.8110 F     1 <1>  -0.3400 
  5 C        2.1800    -1.2100     0.3800 C.3   1 <1>   0.6800 
  6 F        0.8480    -1.3230     0.2330 F     1 <1>  -0.3400 
  7 F        2.3670     0.1190     0.3650 F     1 <1>  -0.3400 
  8 C        2.8880    -1.8780    -0.8160 C.3   1 <1>   0.7410 
  9 F        2.4710    -1.3390    -1.9690 F     1 <1>  -0.3400 
 10 F        2.4980    -3.1550    -0.9360 F     1 <1>  -0.3400 
 11 C        4.4260    -1.8250    -0.7800 C.2   1 <1>   0.5690 
 12 O        4.9840    -0.7920    -0.4650 O.2   1 <1>  -0.5700 
 13 N        5.1600    -2.9350    -1.1010 N.am  1 <1>  -0.4300 
 14 N        6.5840    -3.1060    -0.7730 N.am  1 <1>  -0.4300 
 15 C        7.0580    -3.6580     0.3870 C.2   1 <1>   0.7150 
 16 O        6.2570    -4.2270     1.1160 O.2   1 <1>  -0.5700 
 17 C        8.4660    -3.5660     0.7080 C.2   1 <1>   0.0550 
 18 O        9.0060    -4.3280     1.6550 O.3   1 <1>  -0.2800 
 19 C        9.4510    -2.7800     0.1830 C.2   1 <1>  -0.1500 
 20 C       10.2870    -4.0560     1.7470 C.2   1 <1>  -0.0100 
 21 C       10.6290    -3.1010     0.8570 C.2   1 <1>  -0.1500 
 22 H        4.6680    -3.7960    -1.3810 H     1 <1>   0.3700 
 23 H        7.2550    -2.6530    -1.4000 H     1 <1>   0.3700 
 24 H        9.3760    -2.0400    -0.5930 H     1 <1>   0.1500 
 25 H       10.8830    -4.5850     2.4710 H     1 <1>   0.1500 
 26 H       11.5970    -2.6610     0.6860 H     1 <1>   0.1500 
@<TRIPOS>BOND
  1   1   2  1   
  2   2   3  1   
  3   2   4  1   
  4   2   5  1   
  5   5   6  1   
  6   5   7  1   
  7   5   8  1   
  8   8   9  1   
  9   8  10  1   
 10   8  11  1   
 11  11  12  2   
 12  11  13  am  
 13  13  14  1   
 14  13  22  1   
 15  14  15  am  
 16  14  23  1   
 17  15  16  2   
 18  15  17  1   
 19  17  18  1   
 20  17  19  2   
 21  18  20  1   
 22  19  21  1   
 23  19  24  1   
 24  20  21  2   
 25  20  25  1   
 26  21  26  1   
@<TRIPOS>SUBSTRUCTURE
  1 ****  11 GROUP 4 **** **** 0

# MOE 2024.06 (io_trps.svl 2023.06)
