@<TRIPOS>MOLECULE
NONAME
30 30 1 0 0 
SMALL
USER_CHARGES


@<TRIPOS>ATOM
  1 O       -0.1510    -0.8240    -1.0960 O.3   1 <1>  -0.6500 
  2 N       -1.3260    -1.1530    -1.0100 N.2   1 <1>  -0.8000 
  3 C       -1.5860    -2.2090    -0.2690 C.2   1 <1>   0.3030 
  4 C       -2.9260    -2.6910    -0.1100 C.ar  1 <1>   0.0860 
  5 C       -0.4510    -2.9510     0.4600 C.3   1 <1>  -0.0990 
  6 C       -4.0200    -1.8890    -0.4810 C.ar  1 <1>  -0.1500 
  7 C       -3.2590    -3.9600     0.4050 C.ar  1 <1>  -0.1500 
  8 C        0.1870    -4.0290    -0.4300 C.3   1 <1>  -0.1600 
  9 C       -5.3300    -2.3000    -0.3380 C.ar  1 <1>  -0.1500 
 10 C       -4.5660    -4.3790     0.5530 C.ar  1 <1>  -0.1500 
 11 C        1.2750    -4.8100     0.3180 C.3   1 <1>  -0.1600 
 12 C       -5.6110    -3.5500     0.1840 C.ar  1 <1>  -0.1500 
 13 C        1.9070    -5.8760    -0.5840 C.3   1 <1>  -0.1600 
 14 C        2.9940    -6.6560     0.1600 C.3   1 <1>  -0.2400 
 15 H        0.3040    -2.2430     0.7510 H     1 <1>   0.0800 
 16 H       -0.8180    -3.3770     1.3720 H     1 <1>   0.0800 
 17 H       -3.8070    -0.9150    -0.8920 H     1 <1>   0.1500 
 18 H       -2.4750    -4.6360     0.6860 H     1 <1>   0.1500 
 19 H       -0.5740    -4.7000    -0.7860 H     1 <1>   0.0800 
 20 H        0.6130    -3.5340    -1.2880 H     1 <1>   0.0800 
 21 H       -6.1290    -1.6450    -0.6350 H     1 <1>   0.1500 
 22 H       -4.7760    -5.3550     0.9530 H     1 <1>   0.1500 
 23 H        2.0340    -4.1210     0.6460 H     1 <1>   0.0800 
 24 H        0.8460    -5.2780     1.1870 H     1 <1>   0.0800 
 25 H       -6.6300    -3.8730     0.2980 H     1 <1>   0.1500 
 26 H        1.1460    -6.5580    -0.9240 H     1 <1>   0.0800 
 27 H        2.3370    -5.4000    -1.4490 H     1 <1>   0.0800 
 28 H        2.5790    -7.1540     1.0180 H     1 <1>   0.0800 
 29 H        3.7730    -5.9900     0.4870 H     1 <1>   0.0800 
 30 H        3.4270    -7.3950    -0.4910 H     1 <1>   0.0800 
@<TRIPOS>BOND
  1   1   2  1   
  2   2   3  2   
  3   3   4  1   
  4   3   5  1   
  5   4   6  ar  
  6   4   7  ar  
  7   5   8  1   
  8   5  15  1   
  9   5  16  1   
 10   6   9  ar  
 11   6  17  1   
 12   7  10  ar  
 13   7  18  1   
 14   8  11  1   
 15   8  19  1   
 16   8  20  1   
 17   9  12  ar  
 18   9  21  1   
 19  10  12  ar  
 20  10  22  1   
 21  11  13  1   
 22  11  23  1   
 23  11  24  1   
 24  12  25  1   
 25  13  14  1   
 26  13  26  1   
 27  13  27  1   
 28  14  28  1   
 29  14  29  1   
 30  14  30  1   
@<TRIPOS>SUBSTRUCTURE
  1 ****   3 GROUP 4 **** **** 0

# MOE 2024.06 (io_trps.svl 2023.06)
