@<TRIPOS>MOLECULE
NONAME
43 45 1 0 0 
SMALL
USER_CHARGES


@<TRIPOS>ATOM
  1 CL       0.6610     0.1840    -2.5410 Cl    1 <1>  -0.1770 
  2 C        1.3670    -1.1330    -1.6400 C.ar  1 <1>   0.1770 
  3 C        2.3140    -0.8580    -0.6720 C.ar  1 <1>  -0.1500 
  4 C        0.9740    -2.4300    -1.9120 C.ar  1 <1>  -0.1500 
  5 C        2.8890    -1.8980     0.0430 C.ar  1 <1>  -0.1440 
  6 C        1.5430    -3.4700    -1.1960 C.ar  1 <1>  -0.1500 
  7 C        2.4950    -3.2030    -0.2250 C.ar  1 <1>  -0.1500 
  8 C        3.9400    -1.6030     1.1030 C.3   1 <1>   0.2540 
  9 N        5.0970    -0.9120     0.5010 N.3   1 <1>  -0.8100 
 10 C        6.0670    -0.4660     1.5290 C.3   1 <1>   0.1100 
 11 C        5.7760    -1.7430    -0.5270 C.3   1 <1>   0.1100 
 12 C        7.2640     0.2980     0.9100 C.3   1 <1>   0.3430 
 13 C        7.0010    -1.0300    -1.1490 C.3   1 <1>   0.3430 
 14 N        7.1640     0.3510    -0.5880 N.4   1 <1>  -0.9590 
 15 C        8.1790     1.1630    -1.3150 C.3   1 <1>   0.4230 
 16 C        9.6130     0.7540    -0.9740 C.3   1 <1>  -0.1600 
 17 C        8.0990     2.6320    -0.9050 C.3   1 <1>  -0.1600 
 18 C       10.0800     1.6500     0.1790 C.3   1 <1>  -0.1600 
 19 C        9.1410     2.8610     0.1990 C.3   1 <1>  -0.1600 
 20 H        2.5980     0.1620    -0.4840 H     1 <1>   0.1500 
 21 H        0.2340    -2.6180    -2.6690 H     1 <1>   0.1500 
 22 H        1.2430    -4.4850    -1.3950 H     1 <1>   0.1500 
 23 H        2.9260    -4.0240     0.3230 H     1 <1>   0.1500 
 24 H        4.2590    -2.5160     1.5770 H     1 <1>   0.0800 
 25 H        3.4960    -0.9730     1.8560 H     1 <1>   0.0800 
 26 H        6.4370    -1.3160     2.0770 H     1 <1>   0.0800 
 27 H        5.5710     0.1820     2.2320 H     1 <1>   0.0800 
 28 H        5.0850    -1.9750    -1.3200 H     1 <1>   0.0800 
 29 H        6.0930    -2.6780    -0.0950 H     1 <1>   0.0800 
 30 H        8.1820    -0.1830     1.2020 H     1 <1>   0.0800 
 31 H        7.2770     1.2980     1.3100 H     1 <1>   0.0800 
 32 H        6.8670    -0.9800    -2.2170 H     1 <1>   0.0800 
 33 H        7.8870    -1.6130    -0.9560 H     1 <1>   0.0800 
 34 H        6.2350     0.7720    -0.7430 H     1 <1>   0.4500 
 35 H        8.0080     1.0720    -2.3760 H     1 <1>   0.0800 
 36 H       10.2260     0.9730    -1.8310 H     1 <1>   0.0800 
 37 H        9.7190    -0.2920    -0.7500 H     1 <1>   0.0800 
 38 H        7.1100     2.9330    -0.6070 H     1 <1>   0.0800 
 39 H        8.3840     3.2260    -1.7570 H     1 <1>   0.0800 
 40 H       11.1020     1.9580     0.0320 H     1 <1>   0.0800 
 41 H       10.0220     1.1240     1.1160 H     1 <1>   0.0800 
 42 H        8.6660     2.9490     1.1610 H     1 <1>   0.0800 
 43 H        9.6890     3.7710     0.0140 H     1 <1>   0.0800 
@<TRIPOS>BOND
  1   1   2  1   
  2   2   3  ar  
  3   2   4  ar  
  4   3   5  ar  
  5   3  20  1   
  6   4   6  ar  
  7   4  21  1   
  8   5   7  ar  
  9   5   8  1   
 10   6   7  ar  
 11   6  22  1   
 12   7  23  1   
 13   8   9  1   
 14   8  24  1   
 15   8  25  1   
 16   9  10  1   
 17   9  11  1   
 18  10  12  1   
 19  10  26  1   
 20  10  27  1   
 21  11  13  1   
 22  11  28  1   
 23  11  29  1   
 24  12  14  1   
 25  12  30  1   
 26  12  31  1   
 27  13  14  1   
 28  13  32  1   
 29  13  33  1   
 30  14  15  1   
 31  14  34  1   
 32  15  16  1   
 33  15  17  1   
 34  15  35  1   
 35  16  18  1   
 36  16  36  1   
 37  16  37  1   
 38  17  19  1   
 39  17  38  1   
 40  17  39  1   
 41  18  19  1   
 42  18  40  1   
 43  18  41  1   
 44  19  42  1   
 45  19  43  1   
@<TRIPOS>SUBSTRUCTURE
  1 ****   9 GROUP 4 **** **** 0

# MOE 2024.06 (io_trps.svl 2023.06)
