@<TRIPOS>MOLECULE
NONAME
60 63 1 0 0 
SMALL
USER_CHARGES


@<TRIPOS>ATOM
  1 O       -0.0110    -0.2350     0.6280 O.2   1 <1>  -0.5700 
  2 C        0.0050    -0.7510    -0.4720 C.2   1 <1>   0.6900 
  3 N        1.1440    -1.2150    -1.0310 N.am  1 <1>  -0.7300 
  4 N       -1.1360    -0.8850    -1.1930 N.am  1 <1>  -0.7300 
  5 C        2.5090    -1.1990    -0.4770 C.3   1 <1>   0.3000 
  6 C       -2.5020    -0.4670    -0.8150 C.3   1 <1>   0.2200 
  7 C        2.9860     0.2440    -0.2250 C.3   1 <1>  -0.1600 
  8 C        2.5850    -2.0130     0.8300 C.3   1 <1>  -0.1600 
  9 C        3.4380    -1.8520    -1.5190 C.3   1 <1>  -0.1600 
 10 C       -2.5540     1.0500    -0.6100 C.3   1 <1>  -0.1600 
 11 C       -2.9550    -1.2090     0.4450 C.3   1 <1>  -0.1600 
 12 C        4.4350     0.2360     0.3020 C.3   1 <1>  -0.0800 
 13 C        4.0320    -2.0260     1.3600 C.3   1 <1>  -0.0800 
 14 C        4.8910    -1.8720    -1.0080 C.3   1 <1>  -0.0800 
 15 C       -3.9230     1.5400    -0.1300 C.3   1 <1>   0.5030 
 16 C       -4.3310    -0.7560     0.9420 C.3   1 <1>   0.5030 
 17 C        4.4900    -0.5760     1.6110 C.3   1 <1>  -0.1600 
 18 C        5.3520    -0.4260    -0.7430 C.3   1 <1>  -0.1600 
 19 C        4.9520    -2.6720     0.3070 C.3   1 <1>  -0.1600 
 20 N       -4.4140     0.7120     0.9810 N.4   1 <1>  -0.9060 
 21 C       -4.9500     1.5880    -1.2650 C.3   1 <1>  -0.2400 
 22 C       -3.7890     2.9500     0.4440 C.3   1 <1>  -0.2400 
 23 C       -5.4700    -1.3410     0.1030 C.3   1 <1>  -0.2400 
 24 C       -4.5280    -1.2120     2.3870 C.3   1 <1>  -0.2400 
 25 H        1.0930    -1.6360    -1.9520 H     1 <1>   0.3700 
 26 H       -1.0480    -1.3280    -2.1050 H     1 <1>   0.3700 
 27 H       -3.1560    -0.7300    -1.6290 H     1 <1>   0.0800 
 28 H        2.3550     0.7200     0.5030 H     1 <1>   0.0800 
 29 H        2.9350     0.8120    -1.1370 H     1 <1>   0.0800 
 30 H        1.9470    -1.5740     1.5760 H     1 <1>   0.0800 
 31 H        2.2530    -3.0200     0.6550 H     1 <1>   0.0800 
 32 H        3.3970    -1.3000    -2.4420 H     1 <1>   0.0800 
 33 H        3.1190    -2.8610    -1.7120 H     1 <1>   0.0800 
 34 H       -2.2960     1.5430    -1.5300 H     1 <1>   0.0800 
 35 H       -1.8180     1.3390     0.1180 H     1 <1>   0.0800 
 36 H       -2.2420    -1.0470     1.2320 H     1 <1>   0.0800 
 37 H       -2.9730    -2.2670     0.2490 H     1 <1>   0.0800 
 38 H        4.7600     1.2460     0.4860 H     1 <1>   0.0800 
 39 H        4.0780    -2.5860     2.2780 H     1 <1>   0.0800 
 40 H        5.5320    -2.3290    -1.7420 H     1 <1>   0.0800 
 41 H        3.8560    -0.1170     2.3500 H     1 <1>   0.0800 
 42 H        5.4940    -0.5730     1.9980 H     1 <1>   0.0800 
 43 H        6.3670    -0.4270    -0.3870 H     1 <1>   0.0800 
 44 H        5.3280     0.1390    -1.6580 H     1 <1>   0.0800 
 45 H        4.6470    -3.6890     0.1310 H     1 <1>   0.0800 
 46 H        5.9640    -2.6940     0.6730 H     1 <1>   0.0800 
 47 H       -5.3770     0.9790     1.1890 H     1 <1>   0.4500 
 48 H       -3.8540     0.9900     1.7910 H     1 <1>   0.4500 
 49 H       -4.9680     0.6850    -1.8410 H     1 <1>   0.0800 
 50 H       -4.6910     2.3760    -1.9520 H     1 <1>   0.0800 
 51 H       -5.9370     1.7960    -0.8910 H     1 <1>   0.0800 
 52 H       -3.0970     2.9740     1.2680 H     1 <1>   0.0800 
 53 H       -4.7400     3.3320     0.7710 H     1 <1>   0.0800 
 54 H       -3.4110     3.6190    -0.3110 H     1 <1>   0.0800 
 55 H       -5.3070    -1.2240    -0.9490 H     1 <1>   0.0800 
 56 H       -6.4160    -0.9060     0.3700 H     1 <1>   0.0800 
 57 H       -5.5390    -2.4010     0.2780 H     1 <1>   0.0800 
 58 H       -3.7680    -0.8070     3.0330 H     1 <1>   0.0800 
 59 H       -4.4590    -2.2850     2.4460 H     1 <1>   0.0800 
 60 H       -5.4960    -0.9270     2.7590 H     1 <1>   0.0800 
@<TRIPOS>BOND
  1   1   2  2   
  2   2   3  am  
  3   2   4  am  
  4   3   5  1   
  5   3  25  1   
  6   4   6  1   
  7   4  26  1   
  8   5   7  1   
  9   5   8  1   
 10   5   9  1   
 11   6  10  1   
 12   6  11  1   
 13   6  27  1   
 14   7  12  1   
 15   7  28  1   
 16   7  29  1   
 17   8  13  1   
 18   8  30  1   
 19   8  31  1   
 20   9  14  1   
 21   9  32  1   
 22   9  33  1   
 23  10  15  1   
 24  10  34  1   
 25  10  35  1   
 26  11  16  1   
 27  11  36  1   
 28  11  37  1   
 29  12  17  1   
 30  12  18  1   
 31  12  38  1   
 32  13  17  1   
 33  13  19  1   
 34  13  39  1   
 35  14  18  1   
 36  14  19  1   
 37  14  40  1   
 38  15  20  1   
 39  15  21  1   
 40  15  22  1   
 41  16  20  1   
 42  16  23  1   
 43  16  24  1   
 44  17  41  1   
 45  17  42  1   
 46  18  43  1   
 47  18  44  1   
 48  19  45  1   
 49  19  46  1   
 50  20  47  1   
 51  20  48  1   
 52  21  49  1   
 53  21  50  1   
 54  21  51  1   
 55  22  52  1   
 56  22  53  1   
 57  22  54  1   
 58  23  55  1   
 59  23  56  1   
 60  23  57  1   
 61  24  58  1   
 62  24  59  1   
 63  24  60  1   
@<TRIPOS>SUBSTRUCTURE
  1 ****   2 GROUP 4 **** **** 0

# MOE 2024.06 (io_trps.svl 2023.06)
