@<TRIPOS>MOLECULE
NONAME
42 43 1 0 0 
SMALL
USER_CHARGES


@<TRIPOS>ATOM
  1 S       -0.1330    -0.1040     1.0520 S.3   1 <1>  -0.3220 
  2 C        1.6050    -0.0900     0.7470 C.cat 1 <1>   0.8920 
  3 C       -0.7780     1.5340     0.4890 C.3   1 <1>   0.0700 
  4 N        2.2610     0.9400     0.2330 N.pl3 1 <1>  -0.7000 
  5 N        2.4020    -1.1080     1.0050 N.pl3 1 <1>  -0.7640 
  6 C       -2.2870     1.5520     0.7330 C.3   1 <1>  -0.1600 
  7 C        3.5640     0.5590     0.1390 C.2   1 <1>   0.4260 
  8 C        3.6800    -0.7110     0.6090 C.2   1 <1>   0.2770 
  9 C        2.0290    -2.4480     1.5040 C.3   1 <1>   0.4920 
 10 C       -2.9030     2.8850     0.2920 C.3   1 <1>  -0.1600 
 11 N        4.6350     1.2950    -0.3520 N.am  1 <1>  -0.4360 
 12 C        4.9760    -1.3270     0.5940 C.2   1 <1>   0.7030 
 13 C        1.8400    -3.3400     0.2960 C.2   1 <1>  -0.2880 
 14 C       -4.4140     2.8970     0.5390 C.3   1 <1>  -0.2400 
 15 C        5.8830     0.6870    -0.3670 C.2   1 <1>   0.6900 
 16 C        4.4520     2.6880    -0.8580 C.3   1 <1>   0.0600 
 17 O        5.1900    -2.4540     0.9930 O.2   1 <1>  -0.5700 
 18 N        6.0120    -0.5880     0.1020 N.am  1 <1>  -0.4900 
 19 C        0.6660    -3.7920    -0.1570 C.2   1 <1>  -0.2880 
 20 O        6.8680     1.2500    -0.7840 O.2   1 <1>  -0.5700 
 21 C        0.5020    -4.6920    -1.3680 C.3   1 <1>  -0.1020 
 22 H       -0.2830     2.2980     1.0630 H     1 <1>   0.0800 
 23 H       -0.5530     1.6340    -0.5590 H     1 <1>   0.0800 
 24 H        1.8590     1.8310    -0.0470 H     1 <1>   0.4500 
 25 H       -2.7470     0.7470     0.1850 H     1 <1>   0.0800 
 26 H       -2.4810     1.3990     1.7820 H     1 <1>   0.0800 
 27 H        2.8010    -2.8440     2.1440 H     1 <1>   0.0800 
 28 H        1.1150    -2.3950     2.0710 H     1 <1>   0.0800 
 29 H       -2.4530     3.6970     0.8390 H     1 <1>   0.0800 
 30 H       -2.7200     3.0440    -0.7570 H     1 <1>   0.0800 
 31 H        2.7760    -3.5870    -0.1760 H     1 <1>   0.1500 
 32 H       -4.6280     2.7630     1.5860 H     1 <1>   0.0800 
 33 H       -4.8950     2.1100    -0.0150 H     1 <1>   0.0800 
 34 H       -4.8310     3.8380     0.2250 H     1 <1>   0.0800 
 35 H        3.8370     2.6780    -1.7420 H     1 <1>   0.0800 
 36 H        5.4000     3.1330    -1.1110 H     1 <1>   0.0800 
 37 H        3.9870     3.2970    -0.1030 H     1 <1>   0.0800 
 38 H        6.9420    -1.0030     0.0780 H     1 <1>   0.3700 
 39 H       -0.2800    -3.5550     0.3070 H     1 <1>   0.1500 
 40 H        0.0330    -5.6160    -1.0790 H     1 <1>   0.0800 
 41 H        1.4560    -4.9180    -1.8110 H     1 <1>   0.0800 
 42 H       -0.1140    -4.2100    -2.1060 H     1 <1>   0.0800 
@<TRIPOS>BOND
  1   1   2  1   
  2   1   3  1   
  3   2   4  ar  
  4   2   5  ar  
  5   3   6  1   
  6   3  22  1   
  7   3  23  1   
  8   4   7  1   
  9   4  24  1   
 10   5   8  1   
 11   5   9  1   
 12   6  10  1   
 13   6  25  1   
 14   6  26  1   
 15   7   8  2   
 16   7  11  1   
 17   8  12  1   
 18   9  13  1   
 19   9  27  1   
 20   9  28  1   
 21  10  14  1   
 22  10  29  1   
 23  10  30  1   
 24  11  15  am  
 25  11  16  1   
 26  12  17  2   
 27  12  18  am  
 28  13  19  2   
 29  13  31  1   
 30  14  32  1   
 31  14  33  1   
 32  14  34  1   
 33  15  18  am  
 34  15  20  2   
 35  16  35  1   
 36  16  36  1   
 37  16  37  1   
 38  18  38  1   
 39  19  21  1   
 40  19  39  1   
 41  21  40  1   
 42  21  41  1   
 43  21  42  1   
@<TRIPOS>SUBSTRUCTURE
  1 ****   2 GROUP 4 **** **** 0

# MOE 2024.06 (io_trps.svl 2023.06)
