@<TRIPOS>MOLECULE
NONAME
44 47 1 0 0 
SMALL
USER_CHARGES


@<TRIPOS>ATOM
  1 I       -0.1810     2.9940     0.6630 I     1 <1>  -0.0810 
  2 C       -1.8900     2.1450    -0.2770 C.ar  1 <1>   0.0810 
  3 C       -2.7890     1.4390     0.5000 C.ar  1 <1>  -0.1500 
  4 C       -2.0550     2.3230    -1.6370 C.ar  1 <1>  -0.1500 
  5 C       -3.9070     0.8830    -0.1070 C.ar  1 <1>  -0.1440 
  6 C       -3.1710     1.7660    -2.2370 C.ar  1 <1>  -0.1500 
  7 C       -4.0860     1.0550    -1.4770 C.ar  1 <1>  -0.1500 
  8 C       -4.9120     0.0990     0.7430 C.3   1 <1>   0.3640 
  9 N       -5.4820    -1.0560     0.0040 N.am  1 <1>  -0.2980 
 10 C       -6.1630     0.9020     1.1260 C.3   1 <1>  -0.0190 
 11 N       -6.8210    -0.8540    -0.2490 N.2   1 <1>  -0.5120 
 12 C       -4.7450    -2.1690    -0.3800 C.2   1 <1>   0.5690 
 13 C       -7.2260     0.2180     0.3040 C.2   1 <1>   0.3030 
 14 C       -6.1940     2.4180     0.8650 C.3   1 <1>  -0.1600 
 15 O       -5.2180    -3.0970    -0.9920 O.2   1 <1>  -0.5700 
 16 C       -3.2740    -2.2740    -0.0270 C.3   1 <1>  -0.1790 
 17 C       -8.5250     0.8340     0.2210 C.ar  1 <1>   0.0860 
 18 C       -7.5740     2.9750     1.2450 C.3   1 <1>  -0.0170 
 19 C       -8.7230     2.1530     0.6580 C.ar  1 <1>  -0.1430 
 20 C       -9.6120     0.1420    -0.3110 C.ar  1 <1>  -0.1500 
 21 C       -9.9760     2.7350     0.5680 C.ar  1 <1>  -0.1500 
 22 C      -10.8670     0.7290    -0.4020 C.ar  1 <1>   0.0830 
 23 C      -11.0420     2.0280     0.0420 C.ar  1 <1>  -0.1500 
 24 O      -11.9590     0.1030    -0.9090 O.3   1 <1>  -0.3620 
 25 C      -11.8750    -1.2100    -1.4190 C.3   1 <1>   0.0400 
 26 H       -2.6120     1.3320     1.5560 H     1 <1>   0.1500 
 27 H       -1.3360     2.8770    -2.2130 H     1 <1>   0.1500 
 28 H       -3.3300     1.8840    -3.2960 H     1 <1>   0.1500 
 29 H       -4.9490     0.6300    -1.9660 H     1 <1>   0.1500 
 30 H       -4.4360    -0.2610     1.6370 H     1 <1>   0.0800 
 31 H       -6.3750     0.7190     2.1640 H     1 <1>   0.0800 
 32 H       -6.0220     2.6140    -0.1800 H     1 <1>   0.0800 
 33 H       -5.4270     2.9160     1.4320 H     1 <1>   0.0800 
 34 H       -3.1270    -2.1200     1.0240 H     1 <1>   0.0800 
 35 H       -2.7110    -1.5530    -0.5880 H     1 <1>   0.0800 
 36 H       -2.9150    -3.2540    -0.2800 H     1 <1>   0.0800 
 37 H       -7.6470     3.9940     0.9050 H     1 <1>   0.0800 
 38 H       -7.6730     2.9800     2.3170 H     1 <1>   0.0800 
 39 H       -9.4450    -0.8630    -0.6500 H     1 <1>   0.1500 
 40 H      -10.1340     3.7440     0.9060 H     1 <1>   0.1500 
 41 H      -12.0160     2.4780    -0.0290 H     1 <1>   0.1500 
 42 H      -12.8480    -1.4920    -1.7760 H     1 <1>   0.0800 
 43 H      -11.5680    -1.8730    -0.6300 H     1 <1>   0.0800 
 44 H      -11.1690    -1.2250    -2.2310 H     1 <1>   0.0800 
@<TRIPOS>BOND
  1   1   2  1   
  2   2   3  ar  
  3   2   4  ar  
  4   3   5  ar  
  5   3  26  1   
  6   4   6  ar  
  7   4  27  1   
  8   5   7  ar  
  9   5   8  1   
 10   6   7  ar  
 11   6  28  1   
 12   7  29  1   
 13   8   9  1   
 14   8  10  1   
 15   8  30  1   
 16   9  11  1   
 17   9  12  am  
 18  10  13  1   
 19  10  14  1   
 20  10  31  1   
 21  11  13  2   
 22  12  15  2   
 23  12  16  1   
 24  13  17  1   
 25  14  18  1   
 26  14  32  1   
 27  14  33  1   
 28  16  34  1   
 29  16  35  1   
 30  16  36  1   
 31  17  19  ar  
 32  17  20  ar  
 33  18  19  1   
 34  18  37  1   
 35  18  38  1   
 36  19  21  ar  
 37  20  22  ar  
 38  20  39  1   
 39  21  23  ar  
 40  21  40  1   
 41  22  23  ar  
 42  22  24  1   
 43  23  41  1   
 44  24  25  1   
 45  25  42  1   
 46  25  43  1   
 47  25  44  1   
@<TRIPOS>SUBSTRUCTURE
  1 ****  13 GROUP 4 **** **** 0

# MOE 2024.06 (io_trps.svl 2023.06)
