@<TRIPOS>MOLECULE
NONAME
47 49 1 0 0 
SMALL
USER_CHARGES


@<TRIPOS>ATOM
  1 O       -1.9510     5.7070    -0.8790 O.2   1 <1>  -0.5700 
  2 C       -1.9120     4.6200    -0.3390 C.2   1 <1>   0.6340 
  3 O       -0.7120     4.0980    -0.0600 O.3   1 <1>  -0.4300 
  4 C       -3.0950     3.8580     0.0170 C.ar  1 <1>   0.0860 
  5 C        0.4750     4.7910    -0.3820 C.3   1 <1>   0.1200 
  6 C       -4.3730     4.3450    -0.2650 C.ar  1 <1>  -0.1500 
  7 C       -3.0140     2.6150     0.6510 C.ar  1 <1>  -0.1500 
  8 C        1.6890     3.9400     0.0250 C.3   1 <1>  -0.0800 
  9 C       -5.5170     3.6380     0.0640 C.ar  1 <1>  -0.1440 
 10 C       -4.1490     1.8990     0.9830 C.ar  1 <1>  -0.1500 
 11 C        2.9940     4.7190    -0.2670 C.3   1 <1>   0.4230 
 12 C        1.6840     2.5820    -0.7050 C.3   1 <1>  -0.1600 
 13 C       -5.4000     2.4100     0.6900 C.ar  1 <1>  -0.1500 
 14 C       -6.8930     4.1940    -0.2570 C.3   1 <1>  -0.0960 
 15 N        4.1890     3.8100    -0.4630 N.4   1 <1>  -0.9590 
 16 C        3.2980     5.7800     0.8030 C.3   1 <1>  -0.1600 
 17 C        2.8870     1.7190    -0.2870 C.3   1 <1>  -0.1600 
 18 C        4.0630     2.5230     0.2740 C.3   1 <1>   0.3430 
 19 C        5.5190     4.4360    -0.1680 C.3   1 <1>   0.3430 
 20 C        4.4810     6.6760     0.3940 C.3   1 <1>  -0.1600 
 21 C        5.4980     5.9300    -0.4870 C.3   1 <1>  -0.1600 
 22 H        0.4540     5.7300     0.1450 H     1 <1>   0.0800 
 23 H        0.4720     4.9810    -1.4420 H     1 <1>   0.0800 
 24 H       -4.4630     5.3010    -0.7540 H     1 <1>   0.1500 
 25 H       -2.0520     2.1990     0.8890 H     1 <1>   0.1500 
 26 H        1.6200     3.7660     1.0850 H     1 <1>   0.0800 
 27 H       -4.0640     0.9430     1.4710 H     1 <1>   0.1500 
 28 H        2.8450     5.2490    -1.1940 H     1 <1>   0.0800 
 29 H        1.7180     2.7520    -1.7690 H     1 <1>   0.0800 
 30 H        0.7740     2.0430    -0.4980 H     1 <1>   0.0800 
 31 H       -6.2810     1.8490     0.9500 H     1 <1>   0.1500 
 32 H       -6.8290     5.2190    -0.5760 H     1 <1>   0.0800 
 33 H       -7.5210     4.1480     0.6150 H     1 <1>   0.0800 
 34 H       -7.3450     3.6160    -1.0430 H     1 <1>   0.0800 
 35 H        4.1820     3.5670    -1.4600 H     1 <1>   0.4500 
 36 H        3.5160     5.2880     1.7360 H     1 <1>   0.0800 
 37 H        2.4390     6.4060     0.9700 H     1 <1>   0.0800 
 38 H        3.2180     1.1330    -1.1280 H     1 <1>   0.0800 
 39 H        2.5760     1.0210     0.4720 H     1 <1>   0.0800 
 40 H        3.8910     2.7290     1.3190 H     1 <1>   0.0800 
 41 H        4.9690     1.9450     0.1880 H     1 <1>   0.0800 
 42 H        6.2920     3.9470    -0.7390 H     1 <1>   0.0800 
 43 H        5.7500     4.3170     0.8790 H     1 <1>   0.0800 
 44 H        4.9650     7.0400     1.2850 H     1 <1>   0.0800 
 45 H        4.1200     7.5360    -0.1460 H     1 <1>   0.0800 
 46 H        5.2610     6.0650    -1.5280 H     1 <1>   0.0800 
 47 H        6.4780     6.3450    -0.3260 H     1 <1>   0.0800 
@<TRIPOS>BOND
  1   1   2  2   
  2   2   3  1   
  3   2   4  1   
  4   3   5  1   
  5   4   6  ar  
  6   4   7  ar  
  7   5   8  1   
  8   5  22  1   
  9   5  23  1   
 10   6   9  ar  
 11   6  24  1   
 12   7  10  ar  
 13   7  25  1   
 14   8  11  1   
 15   8  12  1   
 16   8  26  1   
 17   9  13  ar  
 18   9  14  1   
 19  10  13  ar  
 20  10  27  1   
 21  11  15  1   
 22  11  16  1   
 23  11  28  1   
 24  12  17  1   
 25  12  29  1   
 26  12  30  1   
 27  13  31  1   
 28  14  32  1   
 29  14  33  1   
 30  14  34  1   
 31  15  18  1   
 32  15  19  1   
 33  15  35  1   
 34  16  20  1   
 35  16  36  1   
 36  16  37  1   
 37  17  18  1   
 38  17  38  1   
 39  17  39  1   
 40  18  40  1   
 41  18  41  1   
 42  19  21  1   
 43  19  42  1   
 44  19  43  1   
 45  20  21  1   
 46  20  44  1   
 47  20  45  1   
 48  21  46  1   
 49  21  47  1   
@<TRIPOS>SUBSTRUCTURE
  1 ****   3 GROUP 4 **** **** 0

# MOE 2024.06 (io_trps.svl 2023.06)
