@<TRIPOS>MOLECULE
NONAME
30 32 1 0 0 
SMALL
USER_CHARGES


@<TRIPOS>ATOM
  1 O        2.5230    -2.6190    -0.0100 O.3   1 <1>  -0.5600 
  2 C        3.2350    -3.5260    -0.8110 C.3   1 <1>   0.4560 
  3 C        3.0070    -1.3100    -0.1450 C.3   1 <1>   0.2000 
  4 N        3.9140    -4.5000     0.0710 N.pl3 1 <1>   0.0480 
  5 C        4.2360    -2.6920    -1.6090 C.3   1 <1>  -0.1600 
  6 C        4.3900    -1.4400    -0.7690 C.3   1 <1>  -0.1600 
  7 C        2.9950    -0.6000     1.2160 C.3   1 <1>   0.1200 
  8 C        4.4950    -5.6480    -0.3380 C.ar  1 <1>   0.1050 
  9 C        4.1300    -4.4550     1.4160 C.2   1 <1>   0.0360 
 10 O        1.7440    -0.7400     1.7920 O.3   1 <1>  -0.6800 
 11 N        4.5780    -6.1670    -1.5700 N.ar  1 <1>  -0.5670 
 12 C        5.0310    -6.2340     0.7770 C.ar  1 <1>   0.2270 
 13 N        4.7930    -5.4590     1.8840 N.2   1 <1>  -0.5650 
 14 C        5.2290    -7.3090    -1.6180 C.ar  1 <1>   0.4700 
 15 C        5.6960    -7.4570     0.5760 C.ar  1 <1>   0.4100 
 16 N        5.8030    -7.9910    -0.6160 N.ar  1 <1>  -0.6200 
 17 N        6.2740    -8.1530     1.5930 N.pl3 1 <1>  -0.9000 
 18 H        2.5450    -4.0450    -1.4530 H     1 <1>   0.0800 
 19 H        2.3500    -0.7960    -0.8270 H     1 <1>   0.0800 
 20 H        5.1660    -3.2050    -1.7820 H     1 <1>   0.0800 
 21 H        3.7960    -2.4450    -2.5590 H     1 <1>   0.0800 
 22 H        4.6540    -0.5760    -1.3530 H     1 <1>   0.0800 
 23 H        5.1330    -1.5940    -0.0030 H     1 <1>   0.0800 
 24 H        3.2050     0.4500     1.1100 H     1 <1>   0.0800 
 25 H        3.7200    -1.0400     1.8800 H     1 <1>   0.0800 
 26 H        3.7640    -3.6370     2.0120 H     1 <1>   0.1500 
 27 H        1.4280    -1.6540     1.6220 H     1 <1>   0.4000 
 28 H        5.3210    -7.7660    -2.5890 H     1 <1>   0.1500 
 29 H        6.8920    -8.9310     1.3680 H     1 <1>   0.4000 
 30 H        6.3670    -7.7150     2.5130 H     1 <1>   0.4000 
@<TRIPOS>BOND
  1   1   2  1   
  2   1   3  1   
  3   2   4  1   
  4   2   5  1   
  5   2  18  1   
  6   3   6  1   
  7   3   7  1   
  8   3  19  1   
  9   4   8  1   
 10   4   9  1   
 11   5   6  1   
 12   5  20  1   
 13   5  21  1   
 14   6  22  1   
 15   6  23  1   
 16   7  10  1   
 17   7  24  1   
 18   7  25  1   
 19   8  11  ar  
 20   8  12  ar  
 21   9  13  2   
 22   9  26  1   
 23  10  27  1   
 24  11  14  ar  
 25  12  13  1   
 26  12  15  ar  
 27  14  16  ar  
 28  14  28  1   
 29  15  16  ar  
 30  15  17  1   
 31  17  29  1   
 32  17  30  1   
@<TRIPOS>SUBSTRUCTURE
  1 ****   4 GROUP 4 **** **** 0

# MOE 2024.06 (io_trps.svl 2023.06)
