@<TRIPOS>MOLECULE
NONAME
43 45 1 0 0 
SMALL
USER_CHARGES


@<TRIPOS>ATOM
  1 F        0.4960    -0.5590    -1.3960 F     1 <1>  -0.1900 
  2 C       -0.2150    -1.4480    -0.7540 C.ar  1 <1>   0.1900 
  3 C        0.3670    -2.6570    -0.3680 C.ar  1 <1>   0.0540 
  4 C       -1.5280    -1.1150    -0.4790 C.ar  1 <1>  -0.1500 
  5 C        1.7400    -3.0130    -0.6660 C.2   1 <1>   0.4620 
  6 C       -0.4600    -3.5340     0.3400 C.ar  1 <1>  -0.1500 
  7 C       -2.3180    -2.0120     0.2180 C.ar  1 <1>  -0.1500 
  8 N        2.4090    -2.6950    -1.7180 N.2   1 <1>  -0.4100 
  9 N        2.4650    -3.7650     0.1690 N.2   1 <1>  -0.5650 
 10 C       -1.7790    -3.2200     0.6280 C.ar  1 <1>  -0.1500 
 11 O        3.5910    -3.2130    -1.6110 O.3   1 <1>  -0.0190 
 12 C        3.5610    -3.8380    -0.4640 C.2   1 <1>   0.2980 
 13 C        4.8050    -4.5700    -0.0030 C.3   1 <1>   0.0200 
 14 C        5.9210    -3.5860     0.3680 C.3   1 <1>  -0.0990 
 15 C        7.1830    -4.3250     0.7480 C.2   1 <1>   0.5690 
 16 O        7.1620    -5.0480     1.7130 O.2   1 <1>  -0.5700 
 17 N        8.2900    -4.1590    -0.0160 N.am  1 <1>  -0.7300 
 18 C        9.5870    -4.8110     0.2230 C.3   1 <1>   0.2200 
 19 C       10.6480    -3.7310     0.4590 C.3   1 <1>  -0.1600 
 20 C        9.9360    -5.6800    -0.9900 C.3   1 <1>  -0.1600 
 21 C       12.0460    -4.3500     0.6080 C.3   1 <1>  -0.1600 
 22 C       11.3320    -6.3020    -0.8440 C.3   1 <1>  -0.1600 
 23 C       12.3980    -5.2240    -0.6040 C.3   1 <1>  -0.1600 
 24 H       -1.9210    -0.1690    -0.8050 H     1 <1>   0.1500 
 25 H       -0.0610    -4.4780     0.6690 H     1 <1>   0.1500 
 26 H       -3.3430    -1.7710     0.4420 H     1 <1>   0.1500 
 27 H       -2.3890    -3.9190     1.1740 H     1 <1>   0.1500 
 28 H        5.1360    -5.2240    -0.7900 H     1 <1>   0.0800 
 29 H        4.5610    -5.1750     0.8520 H     1 <1>   0.0800 
 30 H        5.6090    -2.9900     1.2070 H     1 <1>   0.0800 
 31 H        6.1200    -2.9270    -0.4570 H     1 <1>   0.0800 
 32 H        8.2720    -3.5290    -0.8170 H     1 <1>   0.3700 
 33 H        9.5250    -5.4390     1.0980 H     1 <1>   0.0800 
 34 H       10.4050    -3.1860     1.3540 H     1 <1>   0.0800 
 35 H       10.6570    -3.0450    -0.3690 H     1 <1>   0.0800 
 36 H        9.9130    -5.0800    -1.8830 H     1 <1>   0.0800 
 37 H        9.2070    -6.4650    -1.0850 H     1 <1>   0.0800 
 38 H       12.0750    -4.9520     1.5000 H     1 <1>   0.0800 
 39 H       12.7780    -3.5680     0.7140 H     1 <1>   0.0800 
 40 H       11.5750    -6.8590    -1.7320 H     1 <1>   0.0800 
 41 H       11.3310    -6.9900    -0.0150 H     1 <1>   0.0800 
 42 H       13.3540    -5.6920    -0.4440 H     1 <1>   0.0800 
 43 H       12.4800    -4.6020    -1.4800 H     1 <1>   0.0800 
@<TRIPOS>BOND
  1   1   2  1   
  2   2   3  ar  
  3   2   4  ar  
  4   3   5  1   
  5   3   6  ar  
  6   4   7  ar  
  7   4  24  1   
  8   5   8  2   
  9   5   9  1   
 10   6  10  ar  
 11   6  25  1   
 12   7  10  ar  
 13   7  26  1   
 14   8  11  1   
 15   9  12  2   
 16  10  27  1   
 17  11  12  1   
 18  12  13  1   
 19  13  14  1   
 20  13  28  1   
 21  13  29  1   
 22  14  15  1   
 23  14  30  1   
 24  14  31  1   
 25  15  16  2   
 26  15  17  am  
 27  17  18  1   
 28  17  32  1   
 29  18  19  1   
 30  18  20  1   
 31  18  33  1   
 32  19  21  1   
 33  19  34  1   
 34  19  35  1   
 35  20  22  1   
 36  20  36  1   
 37  20  37  1   
 38  21  23  1   
 39  21  38  1   
 40  21  39  1   
 41  22  23  1   
 42  22  40  1   
 43  22  41  1   
 44  23  42  1   
 45  23  43  1   
@<TRIPOS>SUBSTRUCTURE
  1 ****  13 GROUP 4 **** **** 0

# MOE 2024.06 (io_trps.svl 2023.06)
