@<TRIPOS>MOLECULE
NONAME
43 44 1 0 0 
SMALL
USER_CHARGES


@<TRIPOS>ATOM
  1 S       -0.5380     0.6080    -0.2810 S.o2  1 <1>   1.4470 
  2 O       -0.0400     1.0940     0.9840 O.2   1 <1>  -0.6500 
  3 O       -0.9980     1.5270    -1.2960 O.2   1 <1>  -0.6500 
  4 N        0.8050    -0.1100    -1.0740 N.am  1 <1>  -0.7570 
  5 C       -1.7130    -0.7620    -0.0920 C.ar  1 <1>  -0.0090 
  6 C        2.0870    -0.1480    -0.5330 C.ar  1 <1>   0.1990 
  7 C       -2.7960    -0.6320     0.7720 C.ar  1 <1>   0.0830 
  8 C       -1.5900    -1.9480    -0.8120 C.ar  1 <1>  -0.1500 
  9 C        3.0500     0.7640    -0.9850 C.ar  1 <1>  -0.1440 
 10 C        2.4280    -1.0960     0.4370 C.ar  1 <1>  -0.1440 
 11 O       -2.9270     0.5430     1.4360 O.3   1 <1>  -0.3630 
 12 C       -3.7050    -1.6770     0.9280 C.ar  1 <1>  -0.1500 
 13 C       -2.4880    -2.9910    -0.6620 C.ar  1 <1>  -0.1430 
 14 C        4.3360     0.7020    -0.4640 C.ar  1 <1>  -0.1500 
 15 C        2.6570     1.8200    -2.0310 C.3   1 <1>  -0.0170 
 16 C        3.7160    -1.1320     0.9410 C.ar  1 <1>  -0.1500 
 17 C        1.4190    -2.1090     0.9650 C.3   1 <1>  -0.0970 
 18 C       -3.9170     0.7550     2.4170 C.3   1 <1>   0.0400 
 19 C       -3.5480    -2.8490     0.2150 C.ar  1 <1>  -0.1500 
 20 C       -2.3170    -4.2730    -1.4560 C.3   1 <1>  -0.0970 
 21 C        4.6680    -0.2390     0.4920 C.ar  1 <1>  -0.1500 
 22 C        3.7440     2.8350    -2.4080 C.3   1 <1>  -0.2400 
 23 H        0.7730     0.2420    -2.0240 H     1 <1>   0.4200 
 24 H       -0.7770    -2.0670    -1.5050 H     1 <1>   0.1500 
 25 H       -4.5430    -1.5940     1.5940 H     1 <1>   0.1500 
 26 H        5.1040     1.3810    -0.7820 H     1 <1>   0.1500 
 27 H        1.8120     2.3710    -1.6560 H     1 <1>   0.0800 
 28 H        2.3470     1.3150    -2.9290 H     1 <1>   0.0800 
 29 H        3.9900    -1.8540     1.6900 H     1 <1>   0.1500 
 30 H        0.6430    -1.6040     1.5100 H     1 <1>   0.0800 
 31 H        1.8880    -2.8130     1.6270 H     1 <1>   0.0800 
 32 H        0.9850    -2.6560     0.1490 H     1 <1>   0.0800 
 33 H       -3.7760     1.7400     2.8220 H     1 <1>   0.0800 
 34 H       -3.8010     0.0210     3.1950 H     1 <1>   0.0800 
 35 H       -4.8870     0.6840     1.9570 H     1 <1>   0.0800 
 36 H       -4.2570    -3.6490     0.3420 H     1 <1>   0.1500 
 37 H       -2.8440    -4.1960    -2.3900 H     1 <1>   0.0800 
 38 H       -2.7070    -5.1110    -0.9060 H     1 <1>   0.0800 
 39 H       -1.2770    -4.4560    -1.6580 H     1 <1>   0.0800 
 40 H        5.6680    -0.2730     0.8890 H     1 <1>   0.1500 
 41 H        4.0610     3.3820    -1.5380 H     1 <1>   0.0800 
 42 H        3.3530     3.5350    -3.1240 H     1 <1>   0.0800 
 43 H        4.5900     2.3370    -2.8480 H     1 <1>   0.0800 
@<TRIPOS>BOND
  1   1   2  2   
  2   1   3  2   
  3   1   4  am  
  4   1   5  1   
  5   4   6  1   
  6   4  23  1   
  7   5   7  ar  
  8   5   8  ar  
  9   6   9  ar  
 10   6  10  ar  
 11   7  11  1   
 12   7  12  ar  
 13   8  13  ar  
 14   8  24  1   
 15   9  14  ar  
 16   9  15  1   
 17  10  16  ar  
 18  10  17  1   
 19  11  18  1   
 20  12  19  ar  
 21  12  25  1   
 22  13  19  ar  
 23  13  20  1   
 24  14  21  ar  
 25  14  26  1   
 26  15  22  1   
 27  15  27  1   
 28  15  28  1   
 29  16  21  ar  
 30  16  29  1   
 31  17  30  1   
 32  17  31  1   
 33  17  32  1   
 34  18  33  1   
 35  18  34  1   
 36  18  35  1   
 37  19  36  1   
 38  20  37  1   
 39  20  38  1   
 40  20  39  1   
 41  21  40  1   
 42  22  41  1   
 43  22  42  1   
 44  22  43  1   
@<TRIPOS>SUBSTRUCTURE
  1 ****   1 GROUP 4 **** **** 0

# MOE 2024.06 (io_trps.svl 2023.06)
