@<TRIPOS>MOLECULE
NONAME
52 52 1 0 0 
SMALL
USER_CHARGES


@<TRIPOS>ATOM
  1 S        0.1480    -0.3180     0.1280 S.o2  1 <1>   1.4470 
  2 O       -0.6240    -0.1340    -1.0840 O.2   1 <1>  -0.6500 
  3 O       -0.4620    -1.0110     1.2420 O.2   1 <1>  -0.6500 
  4 N        0.5740     1.2440     0.6450 N.am  1 <1>  -0.8490 
  5 C        1.7580    -1.1020    -0.2340 C.ar  1 <1>  -0.0090 
  6 C       -0.4300     1.8440     1.5250 C.3   1 <1>   0.1960 
  7 C        0.9450     2.1190    -0.4660 C.3   1 <1>   0.1960 
  8 C        1.9040    -2.1620    -1.1280 C.ar  1 <1>  -0.1440 
  9 C        2.9020    -0.6540     0.4160 C.ar  1 <1>  -0.1500 
 10 C        0.0400     1.6930     2.9670 C.3   1 <1>  -0.2400 
 11 C        1.9040     3.2000     0.0290 C.3   1 <1>  -0.2400 
 12 C        3.1570    -2.7000    -1.3650 C.ar  1 <1>  -0.1500 
 13 C        0.7100    -2.7610    -1.8600 C.3   1 <1>  -0.0970 
 14 C        4.1720    -1.1710     0.1910 C.ar  1 <1>  -0.0090 
 15 C        4.2860    -2.2170    -0.7240 C.ar  1 <1>  -0.1430 
 16 S        5.5920    -0.4430     1.0770 S.o2  1 <1>   1.4470 
 17 C        5.6300    -2.8600    -1.0460 C.3   1 <1>  -0.0970 
 18 O        5.1530     0.6860     1.8720 O.2   1 <1>  -0.6500 
 19 O        6.3580    -1.4870     1.7230 O.2   1 <1>  -0.6500 
 20 N        6.5440     0.2160    -0.1660 N.am  1 <1>  -0.8490 
 21 C        7.9190     0.4720     0.2730 C.3   1 <1>   0.1960 
 22 C        5.9270     1.4000    -0.7630 C.3   1 <1>   0.1960 
 23 C        8.8110    -0.6520    -0.2410 C.3   1 <1>  -0.2400 
 24 C        6.4440     1.5900    -2.1870 C.3   1 <1>  -0.2400 
 25 H       -1.3910     1.3720     1.3900 H     1 <1>   0.0800 
 26 H       -0.5510     2.8930     1.3120 H     1 <1>   0.0800 
 27 H        0.0640     2.5540    -0.9130 H     1 <1>   0.0800 
 28 H        1.4510     1.5480    -1.2270 H     1 <1>   0.0800 
 29 H        2.8030     0.1410     1.1370 H     1 <1>   0.1500 
 30 H        0.1250     0.6530     3.2290 H     1 <1>   0.0800 
 31 H       -0.6690     2.1520     3.6300 H     1 <1>   0.0800 
 32 H        0.9940     2.1710     3.0990 H     1 <1>   0.0800 
 33 H        1.4260     3.8480     0.7390 H     1 <1>   0.0800 
 34 H        2.2340     3.7970    -0.8020 H     1 <1>   0.0800 
 35 H        2.7650     2.7470     0.4880 H     1 <1>   0.0800 
 36 H        3.2560    -3.5140    -2.0640 H     1 <1>   0.1500 
 37 H        0.3580    -2.0800    -2.6160 H     1 <1>   0.0800 
 38 H       -0.0930    -2.9630    -1.1730 H     1 <1>   0.0800 
 39 H        0.9730    -3.6870    -2.3390 H     1 <1>   0.0800 
 40 H        5.5180    -3.6620    -1.7520 H     1 <1>   0.0800 
 41 H        6.0740    -3.2660    -0.1540 H     1 <1>   0.0800 
 42 H        6.3000    -2.1350    -1.4710 H     1 <1>   0.0800 
 43 H        7.9740     0.5300     1.3490 H     1 <1>   0.0800 
 44 H        8.2840     1.4060    -0.1190 H     1 <1>   0.0800 
 45 H        6.1220     2.2720    -0.1580 H     1 <1>   0.0800 
 46 H        4.8590     1.2680    -0.8150 H     1 <1>   0.0800 
 47 H        8.5080    -1.5950     0.1760 H     1 <1>   0.0800 
 48 H        9.8290    -0.4660     0.0490 H     1 <1>   0.0800 
 49 H        8.7630    -0.7020    -1.3140 H     1 <1>   0.0800 
 50 H        7.4990     1.7960    -2.1960 H     1 <1>   0.0800 
 51 H        5.9370     2.4190    -2.6460 H     1 <1>   0.0800 
 52 H        6.2490     0.7070    -2.7680 H     1 <1>   0.0800 
@<TRIPOS>BOND
  1   1   2  2   
  2   1   3  2   
  3   1   4  am  
  4   1   5  1   
  5   4   6  1   
  6   4   7  1   
  7   5   8  ar  
  8   5   9  ar  
  9   6  10  1   
 10   6  25  1   
 11   6  26  1   
 12   7  11  1   
 13   7  27  1   
 14   7  28  1   
 15   8  12  ar  
 16   8  13  1   
 17   9  14  ar  
 18   9  29  1   
 19  10  30  1   
 20  10  31  1   
 21  10  32  1   
 22  11  33  1   
 23  11  34  1   
 24  11  35  1   
 25  12  15  ar  
 26  12  36  1   
 27  13  37  1   
 28  13  38  1   
 29  13  39  1   
 30  14  15  ar  
 31  14  16  1   
 32  15  17  1   
 33  16  18  2   
 34  16  19  2   
 35  16  20  am  
 36  17  40  1   
 37  17  41  1   
 38  17  42  1   
 39  20  21  1   
 40  20  22  1   
 41  21  23  1   
 42  21  43  1   
 43  21  44  1   
 44  22  24  1   
 45  22  45  1   
 46  22  46  1   
 47  23  47  1   
 48  23  48  1   
 49  23  49  1   
 50  24  50  1   
 51  24  51  1   
 52  24  52  1   
@<TRIPOS>SUBSTRUCTURE
  1 ****   9 GROUP 4 **** **** 0

# MOE 2024.06 (io_trps.svl 2023.06)
