@<TRIPOS>MOLECULE
NONAME
42 43 1 0 0 
SMALL
USER_CHARGES


@<TRIPOS>ATOM
  1 O       -0.8470     1.2900    -0.6140 O.3   1 <1>  -0.5600 
  2 C       -0.1530     0.1670    -0.1640 C.3   1 <1>   0.2000 
  3 C       -0.0490     1.9940    -1.5130 C.3   1 <1>   0.1200 
  4 C        0.5860    -0.3300    -1.4040 C.3   1 <1>  -0.1600 
  5 C       -1.1660    -0.8280     0.4340 C.3   1 <1>   0.3430 
  6 C        0.7920     0.9370    -2.2240 C.3   1 <1>  -0.1600 
  7 N       -2.4240    -0.7820    -0.3660 N.4   1 <1>  -0.9060 
  8 C       -3.6570    -1.2070     0.3400 C.3   1 <1>   0.3430 
  9 C       -4.0720    -0.1520     1.3680 C.3   1 <1>  -0.1600 
 10 C       -5.4100    -0.5280     2.0030 C.3   1 <1>   0.1200 
 11 O       -6.3140    -0.8150     0.9620 O.3   1 <1>  -0.3630 
 12 C       -7.5790    -1.2450     1.2130 C.ar  1 <1>   0.0820 
 13 C       -8.3950    -1.5200     0.1190 C.ar  1 <1>  -0.1430 
 14 C       -8.0750    -1.4180     2.5040 C.ar  1 <1>  -0.1500 
 15 C       -9.6890    -1.9710     0.3270 C.ar  1 <1>  -0.1500 
 16 C       -7.8890    -1.3300    -1.3040 C.3   1 <1>  -0.0970 
 17 C       -9.3680    -1.8690     2.6980 C.ar  1 <1>  -0.1500 
 18 C      -10.1750    -2.1460     1.6100 C.ar  1 <1>  -0.1500 
 19 H        0.5550     0.4870     0.5840 H     1 <1>   0.0800 
 20 H        0.5720     2.6740    -0.9530 H     1 <1>   0.0800 
 21 H       -0.6790     2.5460    -2.1910 H     1 <1>   0.0800 
 22 H       -0.0120    -1.0320    -1.9570 H     1 <1>   0.0800 
 23 H        1.5210    -0.7950    -1.1430 H     1 <1>   0.0800 
 24 H       -1.3660    -0.5260     1.4480 H     1 <1>   0.0800 
 25 H       -0.7520    -1.8230     0.4550 H     1 <1>   0.0800 
 26 H        1.8250     1.2390    -2.2390 H     1 <1>   0.0800 
 27 H        0.4570     0.8060    -3.2390 H     1 <1>   0.0800 
 28 H       -2.3040    -1.3030    -1.2410 H     1 <1>   0.4500 
 29 H       -2.5000     0.2130    -0.6510 H     1 <1>   0.4500 
 30 H       -3.5050    -2.1590     0.8230 H     1 <1>   0.0800 
 31 H       -4.4550    -1.3210    -0.3770 H     1 <1>   0.0800 
 32 H       -4.1850     0.8050     0.8900 H     1 <1>   0.0800 
 33 H       -3.3380    -0.0630     2.1480 H     1 <1>   0.0800 
 34 H       -5.8060     0.2870     2.5860 H     1 <1>   0.0800 
 35 H       -5.3110    -1.4080     2.6170 H     1 <1>   0.0800 
 36 H       -7.4800    -1.2100     3.3710 H     1 <1>   0.1500 
 37 H      -10.3300    -2.1890    -0.5100 H     1 <1>   0.1500 
 38 H       -7.5470    -0.3190    -1.4360 H     1 <1>   0.0800 
 39 H       -8.6670    -1.5210    -2.0200 H     1 <1>   0.0800 
 40 H       -7.0750    -2.0040    -1.4940 H     1 <1>   0.0800 
 41 H       -9.7500    -2.0030     3.6950 H     1 <1>   0.1500 
 42 H      -11.1810    -2.4970     1.7610 H     1 <1>   0.1500 
@<TRIPOS>BOND
  1   1   2  1   
  2   1   3  1   
  3   2   4  1   
  4   2   5  1   
  5   2  19  1   
  6   3   6  1   
  7   3  20  1   
  8   3  21  1   
  9   4   6  1   
 10   4  22  1   
 11   4  23  1   
 12   5   7  1   
 13   5  24  1   
 14   5  25  1   
 15   6  26  1   
 16   6  27  1   
 17   7   8  1   
 18   7  28  1   
 19   7  29  1   
 20   8   9  1   
 21   8  30  1   
 22   8  31  1   
 23   9  10  1   
 24   9  32  1   
 25   9  33  1   
 26  10  11  1   
 27  10  34  1   
 28  10  35  1   
 29  11  12  1   
 30  12  13  ar  
 31  12  14  ar  
 32  13  15  ar  
 33  13  16  1   
 34  14  17  ar  
 35  14  36  1   
 36  15  18  ar  
 37  15  37  1   
 38  16  38  1   
 39  16  39  1   
 40  16  40  1   
 41  17  18  ar  
 42  17  41  1   
 43  18  42  1   
@<TRIPOS>SUBSTRUCTURE
  1 ****   8 GROUP 4 **** **** 0

# MOE 2024.06 (io_trps.svl 2023.06)
