@<TRIPOS>MOLECULE
NONAME
36 36 1 0 0 
SMALL
USER_CHARGES


@<TRIPOS>ATOM
  1 S       -0.4000     0.1060     1.8860 S.o2  1 <1>   1.3330 
  2 O       -0.0260    -1.2840     1.8010 O.2   1 <1>  -0.6500 
  3 O        0.0170     0.9360     2.9890 O.2   1 <1>  -0.6500 
  4 N       -2.1110     0.1910     1.9020 N.am  1 <1>  -0.7570 
  5 C       -0.0040     0.9380     0.3460 C.3   1 <1>  -0.0550 
  6 C       -2.9240    -0.2570     0.8670 C.ar  1 <1>   0.1990 
  7 C        1.5050     1.0680     0.0830 C.3   1 <1>  -0.1600 
  8 C       -3.7810     0.6390     0.2190 C.ar  1 <1>   0.0830 
  9 C       -2.8950    -1.5840     0.4600 C.ar  1 <1>  -0.1500 
 10 C        1.7780     1.7800    -1.2470 C.3   1 <1>  -0.1600 
 11 O       -3.7640     1.9370     0.6500 O.3   1 <1>  -0.3630 
 12 C       -4.5900     0.1930    -0.8220 C.ar  1 <1>  -0.1500 
 13 C       -3.6990    -2.0210    -0.5770 C.ar  1 <1>  -0.1500 
 14 C        3.2820     1.9050    -1.5030 C.3   1 <1>  -0.2400 
 15 C       -4.6840     2.8810     0.1520 C.3   1 <1>   0.1200 
 16 C       -4.5460    -1.1340    -1.2170 C.ar  1 <1>  -0.1500 
 17 C       -4.4470     4.1980     0.8850 C.3   1 <1>  -0.2400 
 18 H       -2.4010     1.0800     2.3010 H     1 <1>   0.4200 
 19 H       -0.4400     1.9190     0.3580 H     1 <1>   0.0800 
 20 H       -0.4480     0.3940    -0.4660 H     1 <1>   0.0800 
 21 H        1.9460     0.0850     0.0660 H     1 <1>   0.0800 
 22 H        1.9580     1.6210     0.8900 H     1 <1>   0.0800 
 23 H       -2.2430    -2.2770     0.9630 H     1 <1>   0.1500 
 24 H        1.3400     2.7640    -1.2300 H     1 <1>   0.0800 
 25 H        1.3270     1.2280    -2.0550 H     1 <1>   0.0800 
 26 H       -5.2570     0.8550    -1.3400 H     1 <1>   0.1500 
 27 H       -3.6660    -3.0540    -0.8820 H     1 <1>   0.1500 
 28 H        3.7510     2.4730    -0.7190 H     1 <1>   0.0800 
 29 H        3.4560     2.4050    -2.4390 H     1 <1>   0.0800 
 30 H        3.7380     0.9310    -1.5460 H     1 <1>   0.0800 
 31 H       -5.6810     2.5180     0.3360 H     1 <1>   0.0800 
 32 H       -4.5170     3.0000    -0.9040 H     1 <1>   0.0800 
 33 H       -5.1720    -1.4770    -2.0230 H     1 <1>   0.1500 
 34 H       -4.6020     4.0680     1.9410 H     1 <1>   0.0800 
 35 H       -5.1360     4.9420     0.5280 H     1 <1>   0.0800 
 36 H       -3.4450     4.5470     0.7090 H     1 <1>   0.0800 
@<TRIPOS>BOND
  1   1   2  2   
  2   1   3  2   
  3   1   4  am  
  4   1   5  1   
  5   4   6  1   
  6   4  18  1   
  7   5   7  1   
  8   5  19  1   
  9   5  20  1   
 10   6   8  ar  
 11   6   9  ar  
 12   7  10  1   
 13   7  21  1   
 14   7  22  1   
 15   8  11  1   
 16   8  12  ar  
 17   9  13  ar  
 18   9  23  1   
 19  10  14  1   
 20  10  24  1   
 21  10  25  1   
 22  11  15  1   
 23  12  16  ar  
 24  12  26  1   
 25  13  16  ar  
 26  13  27  1   
 27  14  28  1   
 28  14  29  1   
 29  14  30  1   
 30  15  17  1   
 31  15  31  1   
 32  15  32  1   
 33  16  33  1   
 34  17  34  1   
 35  17  35  1   
 36  17  36  1   
@<TRIPOS>SUBSTRUCTURE
  1 ****   6 GROUP 4 **** **** 0

# MOE 2024.06 (io_trps.svl 2023.06)
