@<TRIPOS>MOLECULE
NONAME
41 41 1 0 0 
SMALL
USER_CHARGES


@<TRIPOS>ATOM
  1 O       -1.6110     0.6670     1.8520 O.2   1 <1>  -0.5700 
  2 C       -2.1210     0.8980     0.7840 C.2   1 <1>   0.5690 
  3 N       -2.6700    -0.0990     0.0140 N.am  1 <1>  -0.6600 
  4 C       -2.1470     2.3380     0.3260 C.3   1 <1>  -0.1790 
  5 C       -2.5340    -1.5240     0.4170 C.3   1 <1>   0.1400 
  6 C       -3.4630     0.1160    -1.2220 C.3   1 <1>   0.1400 
  7 C       -3.9280    -2.0830     0.6950 C.3   1 <1>  -0.1600 
  8 C       -4.8770    -0.4180    -0.9830 C.3   1 <1>  -0.1600 
  9 C       -4.8330    -1.8840    -0.5310 C.3   1 <1>   0.4230 
 10 N       -6.2200    -2.3940    -0.3040 N.4   1 <1>  -0.9590 
 11 C       -6.8890    -1.8090     0.8890 C.3   1 <1>   0.4810 
 12 C       -6.3080    -3.8810    -0.2580 C.3   1 <1>   0.3430 
 13 C       -8.3820    -2.0630     0.7640 C.2   1 <1>  -0.2760 
 14 C       -6.0340    -4.4640    -1.6400 C.3   1 <1>  -0.2400 
 15 C       -9.0440    -2.9170     1.5530 C.2   1 <1>  -0.3000 
 16 C       -9.0900    -1.2510    -0.3150 C.3   1 <1>  -0.1020 
 17 H       -1.6910     2.4240    -0.6420 H     1 <1>   0.0800 
 18 H       -1.5950     2.9460     1.0190 H     1 <1>   0.0800 
 19 H       -3.1590     2.6940     0.2900 H     1 <1>   0.0800 
 20 H       -1.9200    -1.6190     1.2980 H     1 <1>   0.0800 
 21 H       -2.0530    -2.0720    -0.3760 H     1 <1>   0.0800 
 22 H       -2.9930    -0.4080    -2.0380 H     1 <1>   0.0800 
 23 H       -3.5080     1.1590    -1.4840 H     1 <1>   0.0800 
 24 H       -4.3130    -1.5710     1.5580 H     1 <1>   0.0800 
 25 H       -3.8300    -3.1270     0.9280 H     1 <1>   0.0800 
 26 H       -5.4340    -0.3320    -1.8980 H     1 <1>   0.0800 
 27 H       -5.3390     0.2060    -0.2390 H     1 <1>   0.0800 
 28 H       -4.3930    -2.4400    -1.3430 H     1 <1>   0.0800 
 29 H       -6.7950    -2.1000    -1.0980 H     1 <1>   0.4500 
 30 H       -6.7120    -0.7490     0.9520 H     1 <1>   0.0800 
 31 H       -6.5110    -2.2700     1.7870 H     1 <1>   0.0800 
 32 H       -7.3010    -4.1760     0.0440 H     1 <1>   0.0800 
 33 H       -5.6110    -4.2790     0.4610 H     1 <1>   0.0800 
 34 H       -6.7030    -4.0480    -2.3710 H     1 <1>   0.0800 
 35 H       -6.2010    -5.5260    -1.6080 H     1 <1>   0.0800 
 36 H       -5.0150    -4.3080    -1.9430 H     1 <1>   0.0800 
 37 H      -10.1050    -3.1030     1.4870 H     1 <1>   0.1500 
 38 H       -8.6000    -3.5040     2.3410 H     1 <1>   0.1500 
 39 H       -8.7330    -1.5070    -1.2960 H     1 <1>   0.0800 
 40 H       -8.9410    -0.1980    -0.1510 H     1 <1>   0.0800 
 41 H      -10.1500    -1.4400    -0.2920 H     1 <1>   0.0800 
@<TRIPOS>BOND
  1   1   2  2   
  2   2   3  am  
  3   2   4  1   
  4   3   5  1   
  5   3   6  1   
  6   4  17  1   
  7   4  18  1   
  8   4  19  1   
  9   5   7  1   
 10   5  20  1   
 11   5  21  1   
 12   6   8  1   
 13   6  22  1   
 14   6  23  1   
 15   7   9  1   
 16   7  24  1   
 17   7  25  1   
 18   8   9  1   
 19   8  26  1   
 20   8  27  1   
 21   9  10  1   
 22   9  28  1   
 23  10  11  1   
 24  10  12  1   
 25  10  29  1   
 26  11  13  1   
 27  11  30  1   
 28  11  31  1   
 29  12  14  1   
 30  12  32  1   
 31  12  33  1   
 32  13  15  2   
 33  13  16  1   
 34  14  34  1   
 35  14  35  1   
 36  14  36  1   
 37  15  37  1   
 38  15  38  1   
 39  16  39  1   
 40  16  40  1   
 41  16  41  1   
@<TRIPOS>SUBSTRUCTURE
  1 ****   9 GROUP 4 **** **** 0

# MOE 2024.06 (io_trps.svl 2023.06)
