@<TRIPOS>MOLECULE
NONAME
47 50 1 0 0 
SMALL
USER_CHARGES


@<TRIPOS>ATOM
  1 O        0.1680     0.0260    -0.0320 O.2   1 <1>  -0.5700 
  2 C        0.0670     1.2230    -0.2190 C.2   1 <1>   0.5440 
  3 N       -1.1550     1.8390    -0.1300 N.am  1 <1>  -0.5470 
  4 C        1.2390     2.0240    -0.5170 C.ar  1 <1>   0.0860 
  5 C       -2.4740     1.4100     0.0810 C.ar  1 <1>   0.1170 
  6 C        2.4980     1.6560    -0.0380 C.ar  1 <1>  -0.1500 
  7 C        1.1580     3.1920    -1.2850 C.ar  1 <1>  -0.1500 
  8 C       -3.4400     2.4210     0.1950 C.ar  1 <1>   0.1000 
  9 C       -2.8580     0.0790     0.1740 C.ar  1 <1>  -0.1500 
 10 C        3.6180     2.4210    -0.2970 C.ar  1 <1>   0.0830 
 11 C        2.2750     3.9620    -1.5560 C.ar  1 <1>  -0.1500 
 12 N       -3.0600     3.7750     0.0980 N.pl3 1 <1>  -0.8380 
 13 C       -4.7650     2.0660     0.4060 C.ar  1 <1>  -0.1500 
 14 C       -4.1850    -0.2580     0.3820 C.ar  1 <1>  -0.1500 
 15 O        4.8130     2.0310     0.2150 O.3   1 <1>  -0.3630 
 16 C        3.5110     3.5800    -1.0680 C.ar  1 <1>   0.0830 
 17 C       -3.4660     4.5400    -1.1140 C.3   1 <1>   0.2090 
 18 C       -2.9220     4.5470     1.3640 C.3   1 <1>   0.2090 
 19 C       -5.1390     0.7370     0.4990 C.ar  1 <1>  -0.1500 
 20 C        5.8550     2.9900     0.2160 C.3   1 <1>   0.1200 
 21 O        4.5950     4.3360    -1.3550 O.3   1 <1>  -0.3630 
 22 C       -4.6830     5.4290    -0.8390 C.3   1 <1>  -0.1600 
 23 C       -4.1570     5.4180     1.6180 C.3   1 <1>  -0.1600 
 24 C        5.8670     3.7650    -1.1080 C.3   1 <1>   0.1200 
 25 C       -4.4930     6.3000     0.4100 C.3   1 <1>  -0.1600 
 26 H       -1.1530     2.8610    -0.1700 H     1 <1>   0.3700 
 27 H        2.5990     0.7600     0.5490 H     1 <1>   0.1500 
 28 H        0.2090     3.5000    -1.6870 H     1 <1>   0.1500 
 29 H       -2.1260    -0.7010     0.0840 H     1 <1>   0.1500 
 30 H        2.2000     4.8560    -2.1490 H     1 <1>   0.1500 
 31 H       -5.5060     2.8340     0.5000 H     1 <1>   0.1500 
 32 H       -4.4690    -1.2930     0.4530 H     1 <1>   0.1500 
 33 H       -3.6910     3.8530    -1.9130 H     1 <1>   0.0800 
 34 H       -2.6380     5.1530    -1.4260 H     1 <1>   0.0800 
 35 H       -2.0480     5.1710     1.2950 H     1 <1>   0.0800 
 36 H       -2.7830     3.8660     2.1870 H     1 <1>   0.0800 
 37 H       -6.1700     0.4770     0.6620 H     1 <1>   0.1500 
 38 H        6.7840     2.4690     0.3630 H     1 <1>   0.0800 
 39 H        5.6910     3.6600     1.0410 H     1 <1>   0.0800 
 40 H       -5.5500     4.8060    -0.7180 H     1 <1>   0.0800 
 41 H       -4.8580     6.0580    -1.6930 H     1 <1>   0.0800 
 42 H       -3.9780     6.0370     2.4790 H     1 <1>   0.0800 
 43 H       -4.9910     4.7790     1.8480 H     1 <1>   0.0800 
 44 H        6.1010     3.1060    -1.9250 H     1 <1>   0.0800 
 45 H        6.5880     4.5620    -1.0800 H     1 <1>   0.0800 
 46 H       -5.3920     6.8590     0.6050 H     1 <1>   0.0800 
 47 H       -3.6920     7.0000     0.2420 H     1 <1>   0.0800 
@<TRIPOS>BOND
  1   1   2  2   
  2   2   3  am  
  3   2   4  1   
  4   3   5  1   
  5   3  26  1   
  6   4   6  ar  
  7   4   7  ar  
  8   5   8  ar  
  9   5   9  ar  
 10   6  10  ar  
 11   6  27  1   
 12   7  11  ar  
 13   7  28  1   
 14   8  12  1   
 15   8  13  ar  
 16   9  14  ar  
 17   9  29  1   
 18  10  15  1   
 19  10  16  ar  
 20  11  16  ar  
 21  11  30  1   
 22  12  17  1   
 23  12  18  1   
 24  13  19  ar  
 25  13  31  1   
 26  14  19  ar  
 27  14  32  1   
 28  15  20  1   
 29  16  21  1   
 30  17  22  1   
 31  17  33  1   
 32  17  34  1   
 33  18  23  1   
 34  18  35  1   
 35  18  36  1   
 36  19  37  1   
 37  20  24  1   
 38  20  38  1   
 39  20  39  1   
 40  21  24  1   
 41  22  25  1   
 42  22  40  1   
 43  22  41  1   
 44  23  25  1   
 45  23  42  1   
 46  23  43  1   
 47  24  44  1   
 48  24  45  1   
 49  25  46  1   
 50  25  47  1   
@<TRIPOS>SUBSTRUCTURE
  1 ****   3 GROUP 4 **** **** 0

# MOE 2024.06 (io_trps.svl 2023.06)
