@<TRIPOS>MOLECULE
NONAME
43 44 1 0 0 
SMALL
USER_CHARGES


@<TRIPOS>ATOM
  1 BR       0.1730     0.4620     0.9680 Br    1 <1>  -0.1110 
  2 C        1.9460     1.1080     0.5830 C.ar  1 <1>   0.1110 
  3 C        2.0860     2.2720    -0.1480 C.ar  1 <1>  -0.1500 
  4 C        3.0320     0.3900     1.0480 C.ar  1 <1>  -0.1500 
  5 C        3.3640     2.7290    -0.4210 C.ar  1 <1>  -0.1500 
  6 C        4.3070     0.8560     0.7700 C.ar  1 <1>  -0.1500 
  7 C        4.4760     2.0290     0.0320 C.ar  1 <1>   0.0830 
  8 O        5.6880     2.5520    -0.2830 O.3   1 <1>  -0.3630 
  9 C        6.8830     1.9140     0.0980 C.3   1 <1>   0.1200 
 10 C        8.0400     2.7580    -0.4390 C.3   1 <1>  -0.1600 
 11 C        9.4070     2.1540    -0.0720 C.3   1 <1>  -0.1600 
 12 C       10.6040     2.8670    -0.7140 C.3   1 <1>   0.3430 
 13 N       10.6650     4.2840    -0.2760 N.4   1 <1>  -0.9590 
 14 C       10.0430     5.2600    -1.2320 C.3   1 <1>   0.3430 
 15 C       12.0410     4.7450     0.1050 C.3   1 <1>   0.3430 
 16 C        9.9750     6.6760    -0.6070 C.3   1 <1>   0.1100 
 17 C       12.0160     6.1980     0.6430 C.3   1 <1>   0.1100 
 18 N       10.6390     6.7410     0.7170 N.3   1 <1>  -0.8100 
 19 C       10.6270     8.1080     1.2560 C.3   1 <1>   0.0300 
 20 H        1.2190     2.8050    -0.4940 H     1 <1>   0.1500 
 21 H        2.8790    -0.5110     1.6130 H     1 <1>   0.1500 
 22 H        3.5080     3.6320    -0.9870 H     1 <1>   0.1500 
 23 H        5.1460     0.2960     1.1340 H     1 <1>   0.1500 
 24 H        6.8920     0.9260    -0.3310 H     1 <1>   0.0800 
 25 H        6.9090     1.8570     1.1730 H     1 <1>   0.0800 
 26 H        7.9470     3.7450    -0.0210 H     1 <1>   0.0800 
 27 H        7.9460     2.8180    -1.5100 H     1 <1>   0.0800 
 28 H        9.4290     1.1300    -0.4020 H     1 <1>   0.0800 
 29 H        9.5290     2.1440     0.9970 H     1 <1>   0.0800 
 30 H       10.5340     2.8140    -1.7880 H     1 <1>   0.0800 
 31 H       11.5050     2.3570    -0.4140 H     1 <1>   0.0800 
 32 H       10.1190     4.4130     0.5920 H     1 <1>   0.4500 
 33 H        9.0460     4.9470    -1.4940 H     1 <1>   0.0800 
 34 H       10.6210     5.3020    -2.1400 H     1 <1>   0.0800 
 35 H       12.6990     4.6940    -0.7460 H     1 <1>   0.0800 
 36 H       12.4420     4.1010     0.8700 H     1 <1>   0.0800 
 37 H        8.9420     6.9570    -0.4950 H     1 <1>   0.0800 
 38 H       10.4300     7.3810    -1.2830 H     1 <1>   0.0800 
 39 H       12.6210     6.8220     0.0060 H     1 <1>   0.0800 
 40 H       12.4590     6.2140     1.6250 H     1 <1>   0.0800 
 41 H        9.6130     8.4610     1.3400 H     1 <1>   0.0800 
 42 H       11.1780     8.7770     0.6160 H     1 <1>   0.0800 
 43 H       11.0690     8.1210     2.2380 H     1 <1>   0.0800 
@<TRIPOS>BOND
  1   1   2  1   
  2   2   3  ar  
  3   2   4  ar  
  4   3   5  ar  
  5   3  20  1   
  6   4   6  ar  
  7   4  21  1   
  8   5   7  ar  
  9   5  22  1   
 10   6   7  ar  
 11   6  23  1   
 12   7   8  1   
 13   8   9  1   
 14   9  10  1   
 15   9  24  1   
 16   9  25  1   
 17  10  11  1   
 18  10  26  1   
 19  10  27  1   
 20  11  12  1   
 21  11  28  1   
 22  11  29  1   
 23  12  13  1   
 24  12  30  1   
 25  12  31  1   
 26  13  14  1   
 27  13  15  1   
 28  13  32  1   
 29  14  16  1   
 30  14  33  1   
 31  14  34  1   
 32  15  17  1   
 33  15  35  1   
 34  15  36  1   
 35  16  18  1   
 36  16  37  1   
 37  16  38  1   
 38  17  18  1   
 39  17  39  1   
 40  17  40  1   
 41  18  19  1   
 42  19  41  1   
 43  19  42  1   
 44  19  43  1   
@<TRIPOS>SUBSTRUCTURE
  1 ****  10 GROUP 4 **** **** 0

# MOE 2024.06 (io_trps.svl 2023.06)
