@<TRIPOS>MOLECULE
NONAME
40 40 1 0 0 
SMALL
USER_CHARGES


@<TRIPOS>ATOM
  1 S        0.4780     0.9860     1.9100 S.3   1 <1>  -0.3320 
  2 C       -0.9710     1.5540     1.0210 C.ar  1 <1>   0.4120 
  3 C        1.7630     0.7830     0.5870 C.3   1 <1>   0.1310 
  4 N       -1.9500     0.6760     1.0510 N.ar  1 <1>  -0.6200 
  5 C       -0.9830     2.7850     0.3660 C.ar  1 <1>   0.0860 
  6 C        2.3600    -0.6200     0.5860 C.2   1 <1>   0.6590 
  7 C       -3.0530     1.0250     0.4190 C.ar  1 <1>   0.1660 
  8 C       -2.1670     3.1460    -0.2820 C.ar  1 <1>  -0.1440 
  9 C        0.1980     3.6150     0.3560 C.2   1 <1>   0.5440 
 10 O        3.5130    -0.7780     0.8870 O.2   1 <1>  -0.5700 
 11 O        1.6360    -1.6600     0.1770 O.3   1 <1>  -0.4300 
 12 C       -3.2200     2.2350    -0.2600 C.ar  1 <1>  -0.1440 
 13 C       -4.1490    -0.0270     0.4890 C.3   1 <1>  -0.0970 
 14 C       -2.2770     4.5060    -0.9800 C.3   1 <1>  -0.0970 
 15 O        0.5790     4.2120     1.3360 O.2   1 <1>  -0.5700 
 16 N        0.9320     3.7780    -0.7700 N.am  1 <1>  -0.8000 
 17 C        0.2310    -1.6970     0.0640 C.3   1 <1>   0.1200 
 18 C       -4.5440     2.5470    -0.9720 C.3   1 <1>  -0.0170 
 19 C       -0.1540    -3.0340    -0.5580 C.3   1 <1>  -0.2400 
 20 C       -5.5250     3.2620    -0.0340 C.3   1 <1>  -0.2400 
 21 H        2.5270     1.5100     0.7880 H     1 <1>   0.0800 
 22 H        1.3020     0.9910    -0.3590 H     1 <1>   0.0800 
 23 H       -3.9010    -0.7810     1.2160 H     1 <1>   0.0800 
 24 H       -4.2590    -0.5040    -0.4670 H     1 <1>   0.0800 
 25 H       -5.0830     0.4120     0.7810 H     1 <1>   0.0800 
 26 H       -2.0850     4.3970    -2.0320 H     1 <1>   0.0800 
 27 H       -1.5820     5.2210    -0.5770 H     1 <1>   0.0800 
 28 H       -3.2540     4.9330    -0.8510 H     1 <1>   0.0800 
 29 H        1.7140     4.4360    -0.7430 H     1 <1>   0.3700 
 30 H        0.6260     3.4720    -1.6940 H     1 <1>   0.3700 
 31 H       -0.0990    -0.8840    -0.5590 H     1 <1>   0.0800 
 32 H       -0.1960    -1.6030     1.0490 H     1 <1>   0.0800 
 33 H       -4.9990     1.6460    -1.3390 H     1 <1>   0.0800 
 34 H       -4.3710     3.1570    -1.8400 H     1 <1>   0.0800 
 35 H        0.2820    -3.1300    -1.5360 H     1 <1>   0.0800 
 36 H       -1.2230    -3.0960    -0.6490 H     1 <1>   0.0800 
 37 H        0.1830    -3.8420     0.0670 H     1 <1>   0.0800 
 38 H       -5.7530     2.6470     0.8180 H     1 <1>   0.0800 
 39 H       -6.4400     3.4790    -0.5550 H     1 <1>   0.0800 
 40 H       -5.1060     4.1850     0.3230 H     1 <1>   0.0800 
@<TRIPOS>BOND
  1   1   2  1   
  2   1   3  1   
  3   2   4  ar  
  4   2   5  ar  
  5   3   6  1   
  6   3  21  1   
  7   3  22  1   
  8   4   7  ar  
  9   5   8  ar  
 10   5   9  1   
 11   6  10  2   
 12   6  11  1   
 13   7  12  ar  
 14   7  13  1   
 15   8  12  ar  
 16   8  14  1   
 17   9  15  2   
 18   9  16  am  
 19  11  17  1   
 20  12  18  1   
 21  13  23  1   
 22  13  24  1   
 23  13  25  1   
 24  14  26  1   
 25  14  27  1   
 26  14  28  1   
 27  16  29  1   
 28  16  30  1   
 29  17  19  1   
 30  17  31  1   
 31  17  32  1   
 32  18  20  1   
 33  18  33  1   
 34  18  34  1   
 35  19  35  1   
 36  19  36  1   
 37  19  37  1   
 38  20  38  1   
 39  20  39  1   
 40  20  40  1   
@<TRIPOS>SUBSTRUCTURE
  1 ****   2 GROUP 4 **** **** 0

# MOE 2024.06 (io_trps.svl 2023.06)
