@<TRIPOS>MOLECULE
Structure2489
26 27 1 0 0 
SMALL
USER_CHARGES


@<TRIPOS>ATOM
  1 O       -0.2350     0.4090    -0.7130 O.3   1 <1>  -0.3400 
  2 C       -1.4180     1.0400    -0.5240 C.ar  1 <1>   0.0830 
  3 C        0.9630     1.1570    -0.7040 C.3   1 <1>   0.2580 
  4 C       -2.4290     0.3180     0.0910 C.ar  1 <1>  -0.1500 
  5 C       -1.6450     2.3590    -0.9060 C.ar  1 <1>  -0.1500 
  6 C        2.1830     0.2350    -0.4880 C.3   1 <1>   0.4720 
  7 C        1.2720     1.7360     0.6990 C.3   1 <1>   0.4720 
  8 C       -3.6550     0.9060     0.3510 C.ar  1 <1>  -0.1440 
  9 C       -2.8700     2.9460    -0.6480 C.ar  1 <1>  -0.1500 
 10 N        2.6550     1.1530     0.6060 N.4   1 <1>  -0.8440 
 11 C       -3.8690     2.2240    -0.0190 C.ar  1 <1>  -0.1500 
 12 C       -4.7640     0.1200     1.0270 C.3   1 <1>  -0.0970 
 13 H        1.0440     1.8340    -1.5360 H     1 <1>   0.0000 
 14 H       -2.2520    -0.7060     0.3660 H     1 <1>   0.1500 
 15 H       -0.8990     2.9380    -1.4150 H     1 <1>   0.1500 
 16 H        2.8750     0.2150    -1.3110 H     1 <1>   0.0000 
 17 H        1.9230    -0.7310    -0.0930 H     1 <1>   0.0000 
 18 H        0.7090     1.2680     1.4860 H     1 <1>   0.0000 
 19 H        1.2990     2.8100     0.7380 H     1 <1>   0.0000 
 20 H       -3.0560     3.9660    -0.9400 H     1 <1>   0.1500 
 21 H        3.3550     1.8310     0.2860 H     1 <1>   0.4500 
 22 H        2.9370     0.6530     1.4570 H     1 <1>   0.4500 
 23 H       -4.8200     2.6900     0.1760 H     1 <1>   0.1500 
 24 H       -4.3740    -0.7580     1.5100 H     1 <1>   0.0800 
 25 H       -5.4920    -0.1840     0.2960 H     1 <1>   0.0800 
 26 H       -5.2510     0.7270     1.7690 H     1 <1>   0.0800 
@<TRIPOS>BOND
  1   1   2  1   
  2   1   3  1   
  3   2   4  ar  
  4   2   5  ar  
  5   3   6  1   
  6   3   7  1   
  7   3  13  1   
  8   4   8  ar  
  9   4  14  1   
 10   5   9  ar  
 11   5  15  1   
 12   6  10  1   
 13   6  16  1   
 14   6  17  1   
 15   7  10  1   
 16   7  18  1   
 17   7  19  1   
 18   8  11  ar  
 19   8  12  1   
 20   9  11  ar  
 21   9  20  1   
 22  10  21  1   
 23  10  22  1   
 24  11  23  1   
 25  12  24  1   
 26  12  25  1   
 27  12  26  1   
@<TRIPOS>SUBSTRUCTURE
  1 ****   2 GROUP 4 **** **** 0

# MOE 2024.06 (io_trps.svl 2023.06)
