@<TRIPOS>MOLECULE
NONAME
45 47 1 0 0 
SMALL
USER_CHARGES


@<TRIPOS>ATOM
  1 S        2.8780     0.9110    -0.1270 S.3   1 <1>  -0.0800 
  2 C        4.0400    -0.0740     0.7500 C.2   1 <1>  -0.1400 
  3 C        2.7870     2.0610     1.1950 C.2   1 <1>  -0.1100 
  4 C        4.3090     0.4740     1.9500 C.2   1 <1>  -0.1500 
  5 C        4.5570    -1.3280     0.0750 C.3   1 <1>   0.3200 
  6 C        3.5950     1.6880     2.2050 C.2   1 <1>  -0.1500 
  7 N        3.4240    -2.2420    -0.1680 N.am  1 <1>  -0.7300 
  8 C        3.3620    -3.2520    -1.0680 C.2   1 <1>   0.5690 
  9 O        2.3810    -3.9520    -1.1130 O.2   1 <1>  -0.5700 
 10 C        4.5160    -3.5340    -2.0440 C.3   1 <1>   0.1710 
 11 N        5.8500    -3.7090    -1.4040 N.3   1 <1>  -0.8100 
 12 C        6.9420    -3.6500    -2.3840 C.3   1 <1>   0.1100 
 13 C        5.9120    -4.9050    -0.5620 C.3   1 <1>   0.1100 
 14 C        8.2810    -4.0810    -1.7620 C.3   1 <1>  -0.1600 
 15 C        7.1460    -4.8210     0.3470 C.3   1 <1>  -0.1600 
 16 C        8.3050    -3.9600    -0.2190 C.3   1 <1>   0.3430 
 17 C        8.1140    -2.5110     0.1580 C.1   1 <1>   0.3570 
 18 C        9.6270    -4.4500     0.4150 C.ar  1 <1>  -0.1430 
 19 N        7.9540    -1.4220     0.4560 N.1   1 <1>  -0.5570 
 20 C        9.7890    -4.3440     1.7940 C.ar  1 <1>  -0.1500 
 21 C       10.6730    -5.0030    -0.3220 C.ar  1 <1>  -0.1500 
 22 C       10.9460    -4.7730     2.4170 C.ar  1 <1>  -0.1500 
 23 C       11.8320    -5.4340     0.3000 C.ar  1 <1>  -0.1500 
 24 C       11.9710    -5.3210     1.6700 C.ar  1 <1>  -0.1500 
 25 H        2.1310     2.9040     1.0730 H     1 <1>   0.1500 
 26 H        4.9930     0.0740     2.6790 H     1 <1>   0.1500 
 27 H        5.2720    -1.8150     0.7140 H     1 <1>   0.0800 
 28 H        5.0420    -1.0730    -0.8510 H     1 <1>   0.0800 
 29 H        3.7250     2.2200     3.1310 H     1 <1>   0.1500 
 30 H        2.6090    -2.0870     0.4260 H     1 <1>   0.3700 
 31 H        4.5600    -2.7060    -2.7280 H     1 <1>   0.0800 
 32 H        4.2740    -4.4150    -2.6120 H     1 <1>   0.0800 
 33 H        7.0240    -2.6340    -2.7370 H     1 <1>   0.0800 
 34 H        6.7190    -4.2810    -3.2290 H     1 <1>   0.0800 
 35 H        5.9680    -5.7810    -1.1890 H     1 <1>   0.0800 
 36 H        5.0290    -4.9870     0.0490 H     1 <1>   0.0800 
 37 H        9.0720    -3.4950    -2.1960 H     1 <1>   0.0800 
 38 H        8.4480    -5.1080    -2.0330 H     1 <1>   0.0800 
 39 H        7.4930    -5.8250     0.5130 H     1 <1>   0.0800 
 40 H        6.8440    -4.4360     1.3050 H     1 <1>   0.0800 
 41 H        9.0110    -3.9180     2.4060 H     1 <1>   0.1500 
 42 H       10.6210    -5.1130    -1.3880 H     1 <1>   0.1500 
 43 H       11.0500    -4.6800     3.4840 H     1 <1>   0.1500 
 44 H       12.6310    -5.8580    -0.2840 H     1 <1>   0.1500 
 45 H       12.8730    -5.6550     2.1530 H     1 <1>   0.1500 
@<TRIPOS>BOND
  1   1   2  1   
  2   1   3  1   
  3   2   4  2   
  4   2   5  1   
  5   3   6  2   
  6   3  25  1   
  7   4   6  1   
  8   4  26  1   
  9   5   7  1   
 10   5  27  1   
 11   5  28  1   
 12   6  29  1   
 13   7   8  am  
 14   7  30  1   
 15   8   9  2   
 16   8  10  1   
 17  10  11  1   
 18  10  31  1   
 19  10  32  1   
 20  11  12  1   
 21  11  13  1   
 22  12  14  1   
 23  12  33  1   
 24  12  34  1   
 25  13  15  1   
 26  13  35  1   
 27  13  36  1   
 28  14  16  1   
 29  14  37  1   
 30  14  38  1   
 31  15  16  1   
 32  15  39  1   
 33  15  40  1   
 34  16  17  1   
 35  16  18  1   
 36  17  19  3   
 37  18  20  ar  
 38  18  21  ar  
 39  20  22  ar  
 40  20  41  1   
 41  21  23  ar  
 42  21  42  1   
 43  22  24  ar  
 44  22  43  1   
 45  23  24  ar  
 46  23  44  1   
 47  24  45  1   
@<TRIPOS>SUBSTRUCTURE
  1 ****  17 GROUP 4 **** **** 0

# MOE 2024.06 (io_trps.svl 2023.06)
