@<TRIPOS>MOLECULE
NONAME
44 44 1 0 0 
SMALL
USER_CHARGES


@<TRIPOS>ATOM
  1 O       -1.7090     0.9720     1.3940 O.3   1 <1>  -0.3630 
  2 C       -0.9030     1.8860     0.7880 C.ar  1 <1>   0.0830 
  3 C       -1.2560     0.1900     2.4800 C.3   1 <1>   0.0400 
  4 C       -1.3830     2.5090    -0.3720 C.ar  1 <1>   0.0280 
  5 C        0.3540     2.2180     1.2880 C.ar  1 <1>  -0.1500 
  6 C       -0.5760     3.4560    -0.9970 C.ar  1 <1>  -0.1500 
  7 C       -2.6840     2.1790    -0.9080 C.2   1 <1>  -0.1780 
  8 C        1.1350     3.1630     0.6500 C.ar  1 <1>  -0.1500 
  9 C        0.6690     3.7830    -0.4950 C.ar  1 <1>  -0.1500 
 10 C       -3.5390     3.0060    -1.5310 C.2   1 <1>  -0.2880 
 11 C       -4.9020     2.5910    -2.0070 C.3   1 <1>   0.4810 
 12 N       -5.7910     2.8760    -0.8530 N.4   1 <1>  -0.9590 
 13 C       -6.9210     1.8830    -0.7710 C.3   1 <1>   0.3430 
 14 C       -6.2200     4.3150    -0.8750 C.3   1 <1>   0.2630 
 15 C       -7.6940     1.9160     0.5800 C.3   1 <1>   0.3430 
 16 N       -8.7250     0.8230     0.7450 N.4   1 <1>  -0.9590 
 17 C       -9.8680     0.9170    -0.2270 C.3   1 <1>   0.2630 
 18 C       -9.2770     0.8390     2.1430 C.3   1 <1>   0.2630 
 19 H       -1.0420     0.8370     3.3130 H     1 <1>   0.0800 
 20 H       -0.3770    -0.3520     2.1780 H     1 <1>   0.0800 
 21 H       -2.0350    -0.5010     2.7470 H     1 <1>   0.0800 
 22 H        0.7460     1.7570     2.1750 H     1 <1>   0.1500 
 23 H       -0.9170     3.9410    -1.8940 H     1 <1>   0.1500 
 24 H       -2.9450     1.1460    -0.7450 H     1 <1>   0.1500 
 25 H        2.1050     3.4170     1.0410 H     1 <1>   0.1500 
 26 H        1.2790     4.5180    -0.9930 H     1 <1>   0.1500 
 27 H       -3.3140     4.0440    -1.7120 H     1 <1>   0.1500 
 28 H       -4.8900     1.5340    -2.2210 H     1 <1>   0.0800 
 29 H       -5.1970     3.1300    -2.8950 H     1 <1>   0.0800 
 30 H       -5.1430     2.7520    -0.0540 H     1 <1>   0.4500 
 31 H       -7.6110     2.0680    -1.5780 H     1 <1>   0.0800 
 32 H       -6.5150     0.8930    -0.8980 H     1 <1>   0.0800 
 33 H       -6.8370     4.5150    -1.7360 H     1 <1>   0.0800 
 34 H       -5.3560     4.9600    -0.9210 H     1 <1>   0.0800 
 35 H       -6.7740     4.5640     0.0160 H     1 <1>   0.0800 
 36 H       -8.1800     2.8720     0.6810 H     1 <1>   0.0800 
 37 H       -6.9740     1.8250     1.3780 H     1 <1>   0.0800 
 38 H       -8.2800    -0.1040     0.6260 H     1 <1>   0.4500 
 39 H      -10.3830     1.8590    -0.1160 H     1 <1>   0.0800 
 40 H      -10.5760     0.1230    -0.0470 H     1 <1>   0.0800 
 41 H       -9.5180     0.8300    -1.2420 H     1 <1>   0.0800 
 42 H       -9.7810     1.7720     2.3410 H     1 <1>   0.0800 
 43 H       -8.4850     0.7160     2.8650 H     1 <1>   0.0800 
 44 H       -9.9830     0.0350     2.2770 H     1 <1>   0.0800 
@<TRIPOS>BOND
  1   1   2  1   
  2   1   3  1   
  3   2   4  ar  
  4   2   5  ar  
  5   3  19  1   
  6   3  20  1   
  7   3  21  1   
  8   4   6  ar  
  9   4   7  1   
 10   5   8  ar  
 11   5  22  1   
 12   6   9  ar  
 13   6  23  1   
 14   7  10  2   
 15   7  24  1   
 16   8   9  ar  
 17   8  25  1   
 18   9  26  1   
 19  10  11  1   
 20  10  27  1   
 21  11  12  1   
 22  11  28  1   
 23  11  29  1   
 24  12  13  1   
 25  12  14  1   
 26  12  30  1   
 27  13  15  1   
 28  13  31  1   
 29  13  32  1   
 30  14  33  1   
 31  14  34  1   
 32  14  35  1   
 33  15  16  1   
 34  15  36  1   
 35  15  37  1   
 36  16  17  1   
 37  16  18  1   
 38  16  38  1   
 39  17  39  1   
 40  17  40  1   
 41  17  41  1   
 42  18  42  1   
 43  18  43  1   
 44  18  44  1   
@<TRIPOS>SUBSTRUCTURE
  1 ****   7 GROUP 4 **** **** 0

# MOE 2024.06 (io_trps.svl 2023.06)
