@<TRIPOS>MOLECULE
NONAME
41 43 1 0 0 
SMALL
USER_CHARGES


@<TRIPOS>ATOM
  1 S        0.2040    -0.1960     0.8400 S.o2  1 <1>   1.4470 
  2 O       -0.1400     1.0990     0.2930 O.2   1 <1>  -0.6500 
  3 O        0.0030    -0.4430     2.2530 O.2   1 <1>  -0.6500 
  4 N       -0.7120    -1.3550     0.0070 N.am  1 <1>  -0.8490 
  5 C        1.9080    -0.6050     0.3680 C.ar  1 <1>  -0.0090 
  6 C       -2.1250    -0.9720    -0.0560 C.3   1 <1>   0.1960 
  7 C       -0.5570    -2.6940     0.5840 C.3   1 <1>   0.1960 
  8 C        2.2590    -0.7680    -0.9660 C.ar  1 <1>  -0.1500 
  9 C        2.9060    -0.7630     1.3220 C.ar  1 <1>  -0.1500 
 10 C       -2.9030    -1.9510    -0.9430 C.3   1 <1>  -0.1600 
 11 C       -1.2650    -3.7330    -0.2910 C.3   1 <1>  -0.1600 
 12 C        3.5550    -1.0790    -1.3380 C.ar  1 <1>  -0.1500 
 13 C        4.2040    -1.0740     0.9580 C.ar  1 <1>  -0.1500 
 14 C       -2.7520    -3.3970    -0.4560 C.3   1 <1>  -0.1600 
 15 C        4.5420    -1.2360    -0.3770 C.ar  1 <1>  -0.1430 
 16 C        5.9730    -1.5710    -0.7950 C.3   1 <1>   0.0630 
 17 C        6.4600    -2.8810    -0.1400 C.3   1 <1>   0.1400 
 18 C        6.9560    -0.4710    -0.3420 C.3   1 <1>  -0.0990 
 19 N        7.4660    -2.4330     0.8320 N.am  1 <1>  -0.7300 
 20 C        7.7440    -1.1260     0.7550 C.2   1 <1>   0.5690 
 21 O        8.5220    -0.5480     1.4680 O.2   1 <1>  -0.5700 
 22 H       -2.2180     0.0170    -0.4750 H     1 <1>   0.0800 
 23 H       -2.5440    -0.9560     0.9380 H     1 <1>   0.0800 
 24 H       -0.9690    -2.7160     1.5810 H     1 <1>   0.0800 
 25 H        0.4880    -2.9470     0.6470 H     1 <1>   0.0800 
 26 H        1.5010    -0.6470    -1.7230 H     1 <1>   0.1500 
 27 H        2.6640    -0.6380     2.3650 H     1 <1>   0.1500 
 28 H       -2.5370    -1.8660    -1.9510 H     1 <1>   0.0800 
 29 H       -3.9430    -1.6770    -0.9480 H     1 <1>   0.0800 
 30 H       -1.1620    -4.7060     0.1550 H     1 <1>   0.0800 
 31 H       -0.7870    -3.7580    -1.2550 H     1 <1>   0.0800 
 32 H        3.7850    -1.1950    -2.3830 H     1 <1>   0.1500 
 33 H        4.9510    -1.1850     1.7270 H     1 <1>   0.1500 
 34 H       -3.2080    -4.0730    -1.1590 H     1 <1>   0.0800 
 35 H       -3.2520    -3.5100     0.4910 H     1 <1>   0.0800 
 36 H        6.0170    -1.6770    -1.8650 H     1 <1>   0.0800 
 37 H        6.9210    -3.5260    -0.8680 H     1 <1>   0.0800 
 38 H        5.6570    -3.4020     0.3550 H     1 <1>   0.0800 
 39 H        6.4550     0.4060     0.0260 H     1 <1>   0.0800 
 40 H        7.6250    -0.1990    -1.1360 H     1 <1>   0.0800 
 41 H        7.9210    -3.0510     1.5080 H     1 <1>   0.3700 
@<TRIPOS>BOND
  1   1   2  2   
  2   1   3  2   
  3   1   4  am  
  4   1   5  1   
  5   4   6  1   
  6   4   7  1   
  7   5   8  ar  
  8   5   9  ar  
  9   6  10  1   
 10   6  22  1   
 11   6  23  1   
 12   7  11  1   
 13   7  24  1   
 14   7  25  1   
 15   8  12  ar  
 16   8  26  1   
 17   9  13  ar  
 18   9  27  1   
 19  10  14  1   
 20  10  28  1   
 21  10  29  1   
 22  11  14  1   
 23  11  30  1   
 24  11  31  1   
 25  12  15  ar  
 26  12  32  1   
 27  13  15  ar  
 28  13  33  1   
 29  14  34  1   
 30  14  35  1   
 31  15  16  1   
 32  16  17  1   
 33  16  18  1   
 34  16  36  1   
 35  17  19  1   
 36  17  37  1   
 37  17  38  1   
 38  18  20  1   
 39  18  39  1   
 40  18  40  1   
 41  19  20  am  
 42  19  41  1   
 43  20  21  2   
@<TRIPOS>SUBSTRUCTURE
  1 ****   5 GROUP 4 **** **** 0

# MOE 2024.06 (io_trps.svl 2023.06)
