@<TRIPOS>MOLECULE
NONAME
46 48 1 0 0 
SMALL
USER_CHARGES


@<TRIPOS>ATOM
  1 O        0.9420    -2.3690     2.1560 O.2   1 <1>  -0.5700 
  2 C        0.9150    -2.6090     0.9630 C.2   1 <1>   0.5440 
  3 N        2.0690    -2.4320     0.2290 N.am  1 <1>  -0.6600 
  4 C       -0.3090    -3.1170     0.3690 C.ar  1 <1>   0.0860 
  5 C        2.2140    -1.4980    -0.9310 C.3   1 <1>   0.2200 
  6 C        3.3670    -2.8110     0.8520 C.3   1 <1>   0.1400 
  7 C       -1.5460    -2.5800     0.7110 C.ar  1 <1>  -0.1500 
  8 C       -0.2910    -4.1630    -0.5530 C.ar  1 <1>  -0.1500 
  9 C        2.9500    -0.2310    -0.4650 C.3   1 <1>  -0.1600 
 10 C        0.8890    -1.1050    -1.5900 C.3   1 <1>  -0.2400 
 11 C        4.1140    -1.5610     1.3240 C.3   1 <1>  -0.1600 
 12 C       -2.7290    -3.0410     0.1500 C.ar  1 <1>   0.1170 
 13 C       -1.4600    -4.6450    -1.1140 C.ar  1 <1>  -0.1500 
 14 C        4.3030    -0.5560     0.1820 C.3   1 <1>  -0.1600 
 15 N       -3.9650    -2.4860     0.4920 N.am  1 <1>  -0.5470 
 16 C       -2.6740    -4.0850    -0.7620 C.ar  1 <1>  -0.1500 
 17 C       -4.3190    -1.1870     0.7270 C.2   1 <1>   0.5440 
 18 O       -5.3910    -1.0180     1.2690 O.2   1 <1>  -0.5700 
 19 C       -3.4860    -0.0600     0.3480 C.ar  1 <1>   0.0860 
 20 C       -3.2930     1.0080     1.2230 C.ar  1 <1>  -0.1500 
 21 C       -2.8540     0.0060    -0.8950 C.ar  1 <1>  -0.1500 
 22 C       -2.4960     2.0860     0.8830 C.ar  1 <1>  -0.1500 
 23 C       -2.0580     1.0830    -1.2440 C.ar  1 <1>  -0.1500 
 24 C       -1.8750     2.1240    -0.3520 C.ar  1 <1>  -0.1500 
 25 H        2.8200    -1.9890    -1.6740 H     1 <1>   0.0800 
 26 H        3.9620    -3.3440     0.1290 H     1 <1>   0.0800 
 27 H        3.1940    -3.4660     1.6900 H     1 <1>   0.0800 
 28 H       -1.5730    -1.7870     1.4380 H     1 <1>   0.1500 
 29 H        0.6540    -4.5990    -0.8270 H     1 <1>   0.1500 
 30 H        2.3310     0.2910     0.2440 H     1 <1>   0.0800 
 31 H        3.1110     0.4220    -1.3040 H     1 <1>   0.0800 
 32 H        0.2380    -0.6270    -0.8800 H     1 <1>   0.0800 
 33 H        0.4060    -1.9660    -2.0130 H     1 <1>   0.0800 
 34 H        1.0740    -0.4130    -2.3910 H     1 <1>   0.0800 
 35 H        5.0710    -1.8450     1.7220 H     1 <1>   0.0800 
 36 H        3.5500    -1.1060     2.1210 H     1 <1>   0.0800 
 37 H       -1.4240    -5.4550    -1.8220 H     1 <1>   0.1500 
 38 H        4.7510     0.3460     0.5620 H     1 <1>   0.0800 
 39 H        4.9640    -0.9730    -0.5570 H     1 <1>   0.0800 
 40 H       -4.7220    -3.1370     0.7040 H     1 <1>   0.3700 
 41 H       -3.5830    -4.4580    -1.2000 H     1 <1>   0.1500 
 42 H       -3.7790     0.9850     2.1840 H     1 <1>   0.1500 
 43 H       -2.9910    -0.7980    -1.5960 H     1 <1>   0.1500 
 44 H       -2.3600     2.8960     1.5790 H     1 <1>   0.1500 
 45 H       -1.5820     1.1120    -2.2080 H     1 <1>   0.1500 
 46 H       -1.2550     2.9630    -0.6190 H     1 <1>   0.1500 
@<TRIPOS>BOND
  1   1   2  2   
  2   2   3  am  
  3   2   4  1   
  4   3   5  1   
  5   3   6  1   
  6   4   7  ar  
  7   4   8  ar  
  8   5   9  1   
  9   5  10  1   
 10   5  25  1   
 11   6  11  1   
 12   6  26  1   
 13   6  27  1   
 14   7  12  ar  
 15   7  28  1   
 16   8  13  ar  
 17   8  29  1   
 18   9  14  1   
 19   9  30  1   
 20   9  31  1   
 21  10  32  1   
 22  10  33  1   
 23  10  34  1   
 24  11  14  1   
 25  11  35  1   
 26  11  36  1   
 27  12  15  1   
 28  12  16  ar  
 29  13  16  ar  
 30  13  37  1   
 31  14  38  1   
 32  14  39  1   
 33  15  17  am  
 34  15  40  1   
 35  16  41  1   
 36  17  18  2   
 37  17  19  1   
 38  19  20  ar  
 39  19  21  ar  
 40  20  22  ar  
 41  20  42  1   
 42  21  23  ar  
 43  21  43  1   
 44  22  24  ar  
 45  22  44  1   
 46  23  24  ar  
 47  23  45  1   
 48  24  46  1   
@<TRIPOS>SUBSTRUCTURE
  1 ****   7 GROUP 4 **** **** 0

# MOE 2024.06 (io_trps.svl 2023.06)
