@<TRIPOS>MOLECULE
NONAME
44 45 1 0 0 
SMALL
USER_CHARGES


@<TRIPOS>ATOM
  1 S        0.0320     0.2990     0.8340 S.o2  1 <1>   1.4470 
  2 O        0.5450     0.1110     2.1710 O.2   1 <1>  -0.6500 
  3 O       -0.1100     1.6250     0.2800 O.2   1 <1>  -0.6500 
  4 N        1.0660    -0.4780    -0.2330 N.am  1 <1>  -0.9140 
  5 C       -1.5220    -0.6150     0.6430 C.ar  1 <1>  -0.0090 
  6 C        2.4640    -0.4720     0.1430 C.3   1 <1>   0.2760 
  7 C       -2.7310     0.0530     0.4990 C.ar  1 <1>  -0.1500 
  8 C       -1.5450    -2.0040     0.6540 C.ar  1 <1>  -0.1500 
  9 C        3.0640     0.9360    -0.0050 C.3   1 <1>  -0.1600 
 10 C        3.1870    -1.4670    -0.7720 C.3   1 <1>  -0.1600 
 11 C       -3.9350    -0.6230     0.3440 C.ar  1 <1>   0.1170 
 12 C       -2.7320    -2.7040     0.5240 C.ar  1 <1>  -0.1500 
 13 C        4.5780     0.9300     0.2540 C.3   1 <1>  -0.1600 
 14 C        4.7000    -1.4800    -0.5080 C.3   1 <1>  -0.1600 
 15 N       -5.1550     0.0590     0.1890 N.am  1 <1>  -0.5470 
 16 C       -3.9330    -2.0210     0.3740 C.ar  1 <1>   0.0830 
 17 C        5.2970    -0.0750    -0.6550 C.3   1 <1>  -0.1600 
 18 C       -5.5250     1.1810    -0.4820 C.2   1 <1>   0.5690 
 19 O       -5.1360    -2.6530     0.2560 O.3   1 <1>  -0.3630 
 20 O       -6.6710     1.5470    -0.4480 O.2   1 <1>  -0.5700 
 21 C       -4.5410     1.9780    -1.3060 C.3   1 <1>  -0.1790 
 22 C       -5.2330    -4.0610     0.2400 C.3   1 <1>   0.0400 
 23 H        0.9940     0.0720    -1.0850 H     1 <1>   0.4200 
 24 H        2.5760    -0.8100     1.1620 H     1 <1>   0.0800 
 25 H       -2.7280     1.1270     0.5200 H     1 <1>   0.1500 
 26 H       -0.6190    -2.5430     0.7700 H     1 <1>   0.1500 
 27 H        2.6060     1.6080     0.6990 H     1 <1>   0.0800 
 28 H        2.8830     1.3060    -0.9980 H     1 <1>   0.0800 
 29 H        3.0160    -1.2020    -1.8000 H     1 <1>   0.0800 
 30 H        2.7920    -2.4530    -0.6050 H     1 <1>   0.0800 
 31 H       -2.6960    -3.7770     0.5460 H     1 <1>   0.1500 
 32 H        4.7610     0.6730     1.2840 H     1 <1>   0.0800 
 33 H        4.9760     1.9160     0.0870 H     1 <1>   0.0800 
 34 H        5.1810    -2.1500    -1.2000 H     1 <1>   0.0800 
 35 H        4.8870    -1.8450     0.4880 H     1 <1>   0.0800 
 36 H       -5.9640    -0.4740     0.5160 H     1 <1>   0.3700 
 37 H        6.3440    -0.1000    -0.4070 H     1 <1>   0.0800 
 38 H        5.2100     0.2450    -1.6800 H     1 <1>   0.0800 
 39 H       -3.8450     1.3250    -1.7960 H     1 <1>   0.0800 
 40 H       -4.0150     2.6690    -0.6750 H     1 <1>   0.0800 
 41 H       -5.0730     2.5350    -2.0550 H     1 <1>   0.0800 
 42 H       -6.2690    -4.3220     0.1240 H     1 <1>   0.0800 
 43 H       -4.8610    -4.4490     1.1720 H     1 <1>   0.0800 
 44 H       -4.6660    -4.4420    -0.5920 H     1 <1>   0.0800 
@<TRIPOS>BOND
  1   1   2  2   
  2   1   3  2   
  3   1   4  am  
  4   1   5  1   
  5   4   6  1   
  6   4  23  1   
  7   5   7  ar  
  8   5   8  ar  
  9   6   9  1   
 10   6  10  1   
 11   6  24  1   
 12   7  11  ar  
 13   7  25  1   
 14   8  12  ar  
 15   8  26  1   
 16   9  13  1   
 17   9  27  1   
 18   9  28  1   
 19  10  14  1   
 20  10  29  1   
 21  10  30  1   
 22  11  15  1   
 23  11  16  ar  
 24  12  16  ar  
 25  12  31  1   
 26  13  17  1   
 27  13  32  1   
 28  13  33  1   
 29  14  17  1   
 30  14  34  1   
 31  14  35  1   
 32  15  18  am  
 33  15  36  1   
 34  16  19  1   
 35  17  37  1   
 36  17  38  1   
 37  18  20  2   
 38  18  21  1   
 39  19  22  1   
 40  21  39  1   
 41  21  40  1   
 42  21  41  1   
 43  22  42  1   
 44  22  43  1   
 45  22  44  1   
@<TRIPOS>SUBSTRUCTURE
  1 ****   5 GROUP 4 **** **** 0

# MOE 2024.06 (io_trps.svl 2023.06)
