@<TRIPOS>MOLECULE
NONAME
46 48 1 0 0 
SMALL
USER_CHARGES


@<TRIPOS>ATOM
  1 O        0.6770     4.1370    -1.5020 O.2   1 <1>  -0.5700 
  2 C        0.0930     3.3280    -0.8160 C.2   1 <1>   0.5690 
  3 N       -1.2320     3.5490    -0.4920 N.am  1 <1>  -0.6600 
  4 C        0.8690     2.0620    -0.3700 C.3   1 <1>   0.2610 
  5 C       -1.8400     4.9060    -0.6630 C.3   1 <1>   0.1400 
  6 C       -2.1450     2.5200     0.0990 C.3   1 <1>   0.1400 
  7 O        0.5050     1.6020     0.9130 O.3   1 <1>  -0.5600 
  8 C        2.3860     2.2310    -0.3040 C.3   1 <1>  -0.1600 
  9 C       -3.1810     4.8250    -1.4110 C.3   1 <1>   0.3430 
 10 C       -3.5060     2.4890    -0.6220 C.3   1 <1>   0.3430 
 11 C        1.5960     1.0830     1.6150 C.3   1 <1>   0.1200 
 12 C        2.7970     1.1590     0.6820 C.3   1 <1>  -0.1600 
 13 N       -4.1230     3.8570    -0.7550 N.4   1 <1>  -0.9590 
 14 C       -5.4380     3.8040    -1.4480 C.3   1 <1>   0.4860 
 15 C       -6.3880     2.9780    -0.6020 C.ar  1 <1>  -0.1440 
 16 C       -6.9630     3.4800     0.5640 C.ar  1 <1>  -0.1440 
 17 C       -6.6750     1.6810    -1.0080 C.ar  1 <1>  -0.1500 
 18 C       -7.7960     2.6620     1.3130 C.ar  1 <1>  -0.1500 
 19 C       -6.7280     4.9030     1.0580 C.3   1 <1>  -0.0970 
 20 C       -7.5090     0.8770    -0.2540 C.ar  1 <1>  -0.1500 
 21 C       -8.0670     1.3680     0.9100 C.ar  1 <1>  -0.1500 
 22 H        0.6410     1.2670    -1.0570 H     1 <1>   0.0800 
 23 H       -1.1780     5.5560    -1.2110 H     1 <1>   0.0800 
 24 H       -1.9890     5.3470     0.3070 H     1 <1>   0.0800 
 25 H       -2.2850     2.7290     1.1450 H     1 <1>   0.0800 
 26 H       -1.7120     1.5390     0.0190 H     1 <1>   0.0800 
 27 H        2.6240     3.2060     0.0850 H     1 <1>   0.0800 
 28 H        2.8470     2.1150    -1.2690 H     1 <1>   0.0800 
 29 H       -2.9850     4.5160    -2.4240 H     1 <1>   0.0800 
 30 H       -3.6230     5.8080    -1.4430 H     1 <1>   0.0800 
 31 H       -4.1710     1.8380    -0.0780 H     1 <1>   0.0800 
 32 H       -3.3600     2.0640    -1.6010 H     1 <1>   0.0800 
 33 H        1.3770     0.0730     1.9140 H     1 <1>   0.0800 
 34 H        1.7460     1.6990     2.4850 H     1 <1>   0.0800 
 35 H        3.7020     1.4050     1.2090 H     1 <1>   0.0800 
 36 H        2.9220     0.2140     0.1830 H     1 <1>   0.0800 
 37 H       -4.3220     4.1780     0.2010 H     1 <1>   0.4500 
 38 H       -5.3300     3.3580    -2.4230 H     1 <1>   0.0800 
 39 H       -5.8390     4.7960    -1.5690 H     1 <1>   0.0800 
 40 H       -6.2570     1.2760    -1.9140 H     1 <1>   0.1500 
 41 H       -8.2480     3.0260     2.2200 H     1 <1>   0.1500 
 42 H       -5.7830     4.9740     1.5650 H     1 <1>   0.0800 
 43 H       -7.4970     5.1880     1.7550 H     1 <1>   0.0800 
 44 H       -6.7580     5.6060     0.2460 H     1 <1>   0.0800 
 45 H       -7.7310    -0.1290    -0.5700 H     1 <1>   0.1500 
 46 H       -8.7180     0.7450     1.5010 H     1 <1>   0.1500 
@<TRIPOS>BOND
  1   1   2  2   
  2   2   3  am  
  3   2   4  1   
  4   3   5  1   
  5   3   6  1   
  6   4   7  1   
  7   4   8  1   
  8   4  22  1   
  9   5   9  1   
 10   5  23  1   
 11   5  24  1   
 12   6  10  1   
 13   6  25  1   
 14   6  26  1   
 15   7  11  1   
 16   8  12  1   
 17   8  27  1   
 18   8  28  1   
 19   9  13  1   
 20   9  29  1   
 21   9  30  1   
 22  10  13  1   
 23  10  31  1   
 24  10  32  1   
 25  11  12  1   
 26  11  33  1   
 27  11  34  1   
 28  12  35  1   
 29  12  36  1   
 30  13  14  1   
 31  13  37  1   
 32  14  15  1   
 33  14  38  1   
 34  14  39  1   
 35  15  16  ar  
 36  15  17  ar  
 37  16  18  ar  
 38  16  19  1   
 39  17  20  ar  
 40  17  40  1   
 41  18  21  ar  
 42  18  41  1   
 43  19  42  1   
 44  19  43  1   
 45  19  44  1   
 46  20  21  ar  
 47  20  45  1   
 48  21  46  1   
@<TRIPOS>SUBSTRUCTURE
  1 ****  10 GROUP 4 **** **** 0

# MOE 2024.06 (io_trps.svl 2023.06)
