@<TRIPOS>MOLECULE
NONAME
43 45 1 0 0 
SMALL
USER_CHARGES


@<TRIPOS>ATOM
  1 O        0.4330     0.5240     1.9430 O.2   1 <1>  -0.5700 
  2 C        0.8340     1.2200     1.0310 C.2   1 <1>   0.5440 
  3 N       -0.0660     1.9860     0.3470 N.am  1 <1>  -0.7300 
  4 C        2.2400     1.2260     0.6600 C.ar  1 <1>   0.0860 
  5 C       -1.5090     2.0780     0.6220 C.3   1 <1>   0.2200 
  6 C        3.0570     0.1280     0.9320 C.ar  1 <1>  -0.1500 
  7 C        2.8340     2.3170     0.0240 C.ar  1 <1>  -0.1500 
  8 C       -2.2710     1.6300    -0.6190 C.3   1 <1>  -0.1600 
  9 C       -1.8870     3.5470     0.7540 C.3   1 <1>  -0.1600 
 10 C        4.3940     0.1110     0.5770 C.ar  1 <1>  -0.1500 
 11 C        4.1690     2.3050    -0.3350 C.ar  1 <1>  -0.1500 
 12 C       -2.2830     2.8390    -1.5620 C.3   1 <1>  -0.1600 
 13 C       -2.0380     4.0710    -0.6800 C.3   1 <1>  -0.1600 
 14 C        4.9600     1.2010    -0.0640 C.ar  1 <1>  -0.1430 
 15 C        6.4280     1.1910    -0.4640 C.3   1 <1>   0.2630 
 16 O        7.0580     2.3320     0.0750 O.3   1 <1>  -0.3630 
 17 C        8.3730     2.5790    -0.1410 C.ar  1 <1>   0.0820 
 18 C        8.8960     3.7160     0.4530 C.ar  1 <1>  -0.1500 
 19 C        9.2020     1.7660    -0.9110 C.ar  1 <1>  -0.1500 
 20 C       10.2290     4.0470     0.2860 C.ar  1 <1>  -0.1500 
 21 C       10.5360     2.0990    -1.0770 C.ar  1 <1>  -0.1500 
 22 C       11.0500     3.2370    -0.4800 C.ar  1 <1>  -0.1500 
 23 H        0.2300     2.4920    -0.4850 H     1 <1>   0.3700 
 24 H       -1.7740     1.5050     1.4960 H     1 <1>   0.0800 
 25 H        2.6290    -0.7240     1.4330 H     1 <1>   0.1500 
 26 H        2.2490     3.1950    -0.1860 H     1 <1>   0.1500 
 27 H       -3.2830     1.4030    -0.3300 H     1 <1>   0.0800 
 28 H       -1.8380     0.7530    -1.0670 H     1 <1>   0.0800 
 29 H       -1.1670     4.1020     1.3290 H     1 <1>   0.0800 
 30 H       -2.8400     3.6080     1.2490 H     1 <1>   0.0800 
 31 H        4.9890    -0.7550     0.8070 H     1 <1>   0.1500 
 32 H        4.6010     3.1640    -0.8220 H     1 <1>   0.1500 
 33 H       -3.2220     2.9090    -2.0830 H     1 <1>   0.0800 
 34 H       -1.4910     2.7470    -2.2850 H     1 <1>   0.0800 
 35 H       -1.1310     4.5640    -0.9870 H     1 <1>   0.0800 
 36 H       -2.8520     4.7720    -0.7470 H     1 <1>   0.0800 
 37 H        6.5190     1.2270    -1.5350 H     1 <1>   0.0800 
 38 H        6.9260     0.3190    -0.0780 H     1 <1>   0.0800 
 39 H        8.2520     4.3390     1.0470 H     1 <1>   0.1500 
 40 H        8.8350     0.8770    -1.3870 H     1 <1>   0.1500 
 41 H       10.6270     4.9320     0.7510 H     1 <1>   0.1500 
 42 H       11.1770     1.4720    -1.6720 H     1 <1>   0.1500 
 43 H       12.0870     3.4940    -0.6120 H     1 <1>   0.1500 
@<TRIPOS>BOND
  1   1   2  2   
  2   2   3  am  
  3   2   4  1   
  4   3   5  1   
  5   3  23  1   
  6   4   6  ar  
  7   4   7  ar  
  8   5   8  1   
  9   5   9  1   
 10   5  24  1   
 11   6  10  ar  
 12   6  25  1   
 13   7  11  ar  
 14   7  26  1   
 15   8  12  1   
 16   8  27  1   
 17   8  28  1   
 18   9  13  1   
 19   9  29  1   
 20   9  30  1   
 21  10  14  ar  
 22  10  31  1   
 23  11  14  ar  
 24  11  32  1   
 25  12  13  1   
 26  12  33  1   
 27  12  34  1   
 28  13  35  1   
 29  13  36  1   
 30  14  15  1   
 31  15  16  1   
 32  15  37  1   
 33  15  38  1   
 34  16  17  1   
 35  17  18  ar  
 36  17  19  ar  
 37  18  20  ar  
 38  18  39  1   
 39  19  21  ar  
 40  19  40  1   
 41  20  22  ar  
 42  20  41  1   
 43  21  22  ar  
 44  21  42  1   
 45  22  43  1   
@<TRIPOS>SUBSTRUCTURE
  1 ****  11 GROUP 4 **** **** 0

# MOE 2024.06 (io_trps.svl 2023.06)
