@<TRIPOS>MOLECULE
NONAME
50 52 1 0 0 
SMALL
USER_CHARGES


@<TRIPOS>ATOM
  1 S       -0.6050     0.4790     0.8150 S.o2  1 <1>   1.4470 
  2 O       -1.1950     0.6130     2.1310 O.2   1 <1>  -0.6500 
  3 O       -0.1230    -0.8330     0.4350 O.2   1 <1>  -0.6500 
  4 N       -1.8160     0.8710    -0.3060 N.am  1 <1>  -0.8490 
  5 C        0.7220     1.6790     0.5120 C.ar  1 <1>  -0.0090 
  6 C       -2.8130    -0.2140    -0.3900 C.3   1 <1>   0.1960 
  7 C       -2.4960     2.1420     0.0200 C.3   1 <1>   0.1960 
  8 C        0.7500     2.9360     1.1130 C.ar  1 <1>   0.0820 
  9 C        1.7570     1.3670    -0.3620 C.ar  1 <1>  -0.1500 
 10 C       -3.9310     0.0670    -1.4130 C.3   1 <1>   0.2090 
 11 C       -3.6080     2.5090    -0.9840 C.3   1 <1>   0.2090 
 12 O       -0.2380     3.3250     1.9460 O.3   1 <1>  -0.3630 
 13 C        1.7710     3.8380     0.8510 C.ar  1 <1>  -0.1500 
 14 C        2.7870     2.2530    -0.6280 C.ar  1 <1>   0.0820 
 15 N       -4.5760     1.3960    -1.2040 N.pl3 1 <1>  -0.8380 
 16 C        0.0540     3.2820     3.3260 C.3   1 <1>   0.0400 
 17 C        2.7930     3.5010    -0.0150 C.ar  1 <1>  -0.1500 
 18 O        3.7450     1.8330    -1.4930 O.3   1 <1>  -0.3630 
 19 C       -5.7990     1.4390    -0.5330 C.ar  1 <1>   0.1000 
 20 C        4.8520     2.6460    -1.8130 C.3   1 <1>   0.0400 
 21 C       -6.9830     1.6990    -1.2240 C.ar  1 <1>  -0.1430 
 22 C       -5.8570     1.2220     0.8410 C.ar  1 <1>  -0.1500 
 23 C       -8.1890     1.7380    -0.5420 C.ar  1 <1>  -0.1500 
 24 C       -6.9600     1.9420    -2.7260 C.3   1 <1>  -0.0970 
 25 C       -7.0620     1.2620     1.5170 C.ar  1 <1>  -0.1500 
 26 C       -8.2320     1.5210     0.8250 C.ar  1 <1>  -0.1500 
 27 H       -3.2580    -0.3750     0.5780 H     1 <1>   0.0800 
 28 H       -2.3240    -1.1290    -0.6770 H     1 <1>   0.0800 
 29 H       -1.7800     2.9420     0.0160 H     1 <1>   0.0800 
 30 H       -2.9240     2.0900     1.0070 H     1 <1>   0.0800 
 31 H        1.7700     0.4070    -0.8510 H     1 <1>   0.1500 
 32 H       -4.6770    -0.7060    -1.3470 H     1 <1>   0.0800 
 33 H       -3.5130     0.0370    -2.4040 H     1 <1>   0.0800 
 34 H       -3.1570     2.7650    -1.9260 H     1 <1>   0.0800 
 35 H       -4.1370     3.3760    -0.6270 H     1 <1>   0.0800 
 36 H        1.7590     4.8040     1.3230 H     1 <1>   0.1500 
 37 H       -0.8310     3.5660     3.8660 H     1 <1>   0.0800 
 38 H        0.8550     3.9670     3.5410 H     1 <1>   0.0800 
 39 H        0.3350     2.2770     3.5920 H     1 <1>   0.0800 
 40 H        3.5730     4.2140    -0.2010 H     1 <1>   0.1500 
 41 H        5.4760     2.1050    -2.5010 H     1 <1>   0.0800 
 42 H        5.4010     2.8590    -0.9130 H     1 <1>   0.0800 
 43 H        4.5000     3.5510    -2.2750 H     1 <1>   0.0800 
 44 H       -4.9540     1.0210     1.3820 H     1 <1>   0.1500 
 45 H       -9.1040     1.9390    -1.0700 H     1 <1>   0.1500 
 46 H       -6.5520     1.0810    -3.2240 H     1 <1>   0.0800 
 47 H       -6.3390     2.7910    -2.9440 H     1 <1>   0.0800 
 48 H       -7.9470     2.1280    -3.1080 H     1 <1>   0.0800 
 49 H       -7.0910     1.0930     2.5790 H     1 <1>   0.1500 
 50 H       -9.1720     1.5530     1.3460 H     1 <1>   0.1500 
@<TRIPOS>BOND
  1   1   2  2   
  2   1   3  2   
  3   1   4  am  
  4   1   5  1   
  5   4   6  1   
  6   4   7  1   
  7   5   8  ar  
  8   5   9  ar  
  9   6  10  1   
 10   6  27  1   
 11   6  28  1   
 12   7  11  1   
 13   7  29  1   
 14   7  30  1   
 15   8  12  1   
 16   8  13  ar  
 17   9  14  ar  
 18   9  31  1   
 19  10  15  1   
 20  10  32  1   
 21  10  33  1   
 22  11  15  1   
 23  11  34  1   
 24  11  35  1   
 25  12  16  1   
 26  13  17  ar  
 27  13  36  1   
 28  14  17  ar  
 29  14  18  1   
 30  15  19  1   
 31  16  37  1   
 32  16  38  1   
 33  16  39  1   
 34  17  40  1   
 35  18  20  1   
 36  19  21  ar  
 37  19  22  ar  
 38  20  41  1   
 39  20  42  1   
 40  20  43  1   
 41  21  23  ar  
 42  21  24  1   
 43  22  25  ar  
 44  22  44  1   
 45  23  26  ar  
 46  23  45  1   
 47  24  46  1   
 48  24  47  1   
 49  24  48  1   
 50  25  26  ar  
 51  25  49  1   
 52  26  50  1   
@<TRIPOS>SUBSTRUCTURE
  1 ****   7 GROUP 4 **** **** 0

# MOE 2024.06 (io_trps.svl 2023.06)
