@<TRIPOS>MOLECULE
NONAME
38 40 1 0 0 
SMALL
USER_CHARGES


@<TRIPOS>ATOM
  1 CL       0.7190    -0.7790     1.8120 Cl    1 <1>  -0.1770 
  2 C        2.3260    -0.6300     1.1500 C.ar  1 <1>   0.1770 
  3 C        3.2140     0.2670     1.7100 C.ar  1 <1>  -0.1500 
  4 C        2.6930    -1.4110     0.0720 C.ar  1 <1>  -0.1500 
  5 C        4.4870     0.3800     1.1800 C.ar  1 <1>  -0.1500 
  6 C        3.9690    -1.2890    -0.4500 C.ar  1 <1>  -0.1500 
  7 C        4.8990    -0.3930     0.0890 C.ar  1 <1>   0.0540 
  8 C        6.2370    -0.2750    -0.4680 C.2   1 <1>   0.4620 
  9 N        6.6950    -0.9400    -1.4690 N.2   1 <1>  -0.4100 
 10 N        7.1530     0.5640     0.0270 N.2   1 <1>  -0.5650 
 11 O        7.9180    -0.5630    -1.6730 O.3   1 <1>  -0.0190 
 12 C        8.1310     0.3350    -0.7470 C.2   1 <1>   0.2980 
 13 C        9.4920     0.9990    -0.6760 C.3   1 <1>   0.0200 
 14 C       10.5650     0.0080    -0.1940 C.3   1 <1>  -0.0990 
 15 C       11.9520     0.6230    -0.0900 C.2   1 <1>   0.5690 
 16 O       12.1140     1.7410    -0.5190 O.2   1 <1>  -0.5700 
 17 N       12.9810    -0.0860     0.4730 N.am  1 <1>  -0.6600 
 18 C       14.3420     0.5140     0.6330 C.3   1 <1>   0.1400 
 19 C       12.9110    -1.4960     0.9670 C.3   1 <1>   0.1400 
 20 C       15.4240    -0.4340     0.0890 C.3   1 <1>   0.1200 
 21 C       14.0770    -2.3280     0.4030 C.3   1 <1>   0.1200 
 22 O       15.3020    -1.7050     0.6630 O.3   1 <1>  -0.5600 
 23 H        2.9090     0.8660     2.5490 H     1 <1>   0.1500 
 24 H        1.9870    -2.1040    -0.3510 H     1 <1>   0.1500 
 25 H        5.1760     1.0810     1.6200 H     1 <1>   0.1500 
 26 H        4.2510    -1.9000    -1.2910 H     1 <1>   0.1500 
 27 H        9.4410     1.8320     0.0020 H     1 <1>   0.0800 
 28 H        9.7470     1.3770    -1.6500 H     1 <1>   0.0800 
 29 H       10.6130    -0.8200    -0.8770 H     1 <1>   0.0800 
 30 H       10.2790    -0.3590     0.7750 H     1 <1>   0.0800 
 31 H       14.5270     0.6980     1.6770 H     1 <1>   0.0800 
 32 H       14.4080     1.4550     0.1160 H     1 <1>   0.0800 
 33 H       11.9860    -1.9630     0.6850 H     1 <1>   0.0800 
 34 H       12.9710    -1.4960     2.0410 H     1 <1>   0.0800 
 35 H       16.4020    -0.0570     0.3290 H     1 <1>   0.0800 
 36 H       15.3410    -0.5260    -0.9800 H     1 <1>   0.0800 
 37 H       13.9740    -2.4550    -0.6610 H     1 <1>   0.0800 
 38 H       14.0990    -3.2990     0.8660 H     1 <1>   0.0800 
@<TRIPOS>BOND
  1   1   2  1   
  2   2   3  ar  
  3   2   4  ar  
  4   3   5  ar  
  5   3  23  1   
  6   4   6  ar  
  7   4  24  1   
  8   5   7  ar  
  9   5  25  1   
 10   6   7  ar  
 11   6  26  1   
 12   7   8  1   
 13   8   9  2   
 14   8  10  1   
 15   9  11  1   
 16  10  12  2   
 17  11  12  1   
 18  12  13  1   
 19  13  14  1   
 20  13  27  1   
 21  13  28  1   
 22  14  15  1   
 23  14  29  1   
 24  14  30  1   
 25  15  16  2   
 26  15  17  am  
 27  17  18  1   
 28  17  19  1   
 29  18  20  1   
 30  18  31  1   
 31  18  32  1   
 32  19  21  1   
 33  19  33  1   
 34  19  34  1   
 35  20  22  1   
 36  20  35  1   
 37  20  36  1   
 38  21  22  1   
 39  21  37  1   
 40  21  38  1   
@<TRIPOS>SUBSTRUCTURE
  1 ****  12 GROUP 4 **** **** 0

# MOE 2024.06 (io_trps.svl 2023.06)
