@<TRIPOS>MOLECULE
NONAME
29 29 1 0 0 
SMALL
USER_CHARGES


@<TRIPOS>ATOM
  1 F        0.4460     0.2010     0.0790 F     1 <1>  -0.1900 
  2 C        1.6470     0.7160     0.0700 C.ar  1 <1>   0.1900 
  3 C        1.7830     2.0910     0.0970 C.ar  1 <1>  -0.1500 
  4 C        2.7360    -0.1340     0.0350 C.ar  1 <1>  -0.1500 
  5 C        3.0590     2.6290     0.0870 C.ar  1 <1>  -0.1500 
  6 C        4.0100     0.4120     0.0250 C.ar  1 <1>  -0.1500 
  7 C        4.1730     1.7990     0.0510 C.ar  1 <1>   0.0830 
  8 O        5.3820     2.4150     0.0440 O.3   1 <1>  -0.3630 
  9 C        6.5810     1.6820     0.0100 C.3   1 <1>   0.1200 
 10 C        7.7270     2.6970     0.0120 C.3   1 <1>   0.3430 
 11 N        9.0660     2.0320    -0.0240 N.4   1 <1>  -0.9060 
 12 C       10.1680     3.0430    -0.0200 C.3   1 <1>   0.3430 
 13 C       11.5530     2.3830    -0.0570 C.3   1 <1>   0.1200 
 14 O       12.4910     3.3960    -0.0510 O.3   1 <1>  -0.6800 
 15 H        0.9100     2.7190     0.1240 H     1 <1>   0.1500 
 16 H        2.5820    -1.1980     0.0150 H     1 <1>   0.1500 
 17 H        3.1920     3.6960     0.1070 H     1 <1>   0.1500 
 18 H        4.8470    -0.2580    -0.0020 H     1 <1>   0.1500 
 19 H        6.5840     1.0930    -0.8910 H     1 <1>   0.0800 
 20 H        6.6130     1.0560     0.8840 H     1 <1>   0.0800 
 21 H        7.6470     3.3030     0.9010 H     1 <1>   0.0800 
 22 H        7.6190     3.3390    -0.8480 H     1 <1>   0.0800 
 23 H        9.1430     1.4500    -0.8680 H     1 <1>   0.4500 
 24 H        9.1700     1.4160     0.7930 H     1 <1>   0.4500 
 25 H       10.1020     3.6500     0.8680 H     1 <1>   0.0800 
 26 H       10.0740     3.6870    -0.8800 H     1 <1>   0.0800 
 27 H       11.6910     1.8080    -0.9570 H     1 <1>   0.0800 
 28 H       11.7190     1.7710     0.8140 H     1 <1>   0.0800 
 29 H       13.4090     3.0490    -0.0730 H     1 <1>   0.4000 
@<TRIPOS>BOND
  1   1   2  1   
  2   2   3  ar  
  3   2   4  ar  
  4   3   5  ar  
  5   3  15  1   
  6   4   6  ar  
  7   4  16  1   
  8   5   7  ar  
  9   5  17  1   
 10   6   7  ar  
 11   6  18  1   
 12   7   8  1   
 13   8   9  1   
 14   9  10  1   
 15   9  19  1   
 16   9  20  1   
 17  10  11  1   
 18  10  21  1   
 19  10  22  1   
 20  11  12  1   
 21  11  23  1   
 22  11  24  1   
 23  12  13  1   
 24  12  25  1   
 25  12  26  1   
 26  13  14  1   
 27  13  27  1   
 28  13  28  1   
 29  14  29  1   
@<TRIPOS>SUBSTRUCTURE
  1 ****   8 GROUP 4 **** **** 0

# MOE 2024.06 (io_trps.svl 2023.06)
