@<TRIPOS>MOLECULE
NONAME
47 49 1 0 0 
SMALL
USER_CHARGES


@<TRIPOS>ATOM
  1 CL      -0.2770     0.6400     1.1190 Cl    1 <1>  -0.1770 
  2 C       -1.7050    -0.2710     0.7050 C.ar  1 <1>   0.1770 
  3 C       -2.2800    -0.1030    -0.5400 C.ar  1 <1>  -0.1500 
  4 C       -2.2400    -1.1490     1.6280 C.ar  1 <1>  -0.1500 
  5 C       -3.4170    -0.8240    -0.8660 C.ar  1 <1>  -0.1500 
  6 C       -3.3770    -1.8690     1.3000 C.ar  1 <1>  -0.1500 
  7 C       -3.9730    -1.7050     0.0550 C.ar  1 <1>  -0.1430 
  8 C       -5.2280    -2.4850    -0.2960 C.3   1 <1>   0.4870 
  9 N       -6.3920    -1.5620    -0.2420 N.4   1 <1>  -0.9590 
 10 C       -6.6120    -1.0070     1.1460 C.3   1 <1>   0.3430 
 11 C       -7.6510    -2.2110    -0.7600 C.3   1 <1>   0.3430 
 12 C       -7.8140    -0.0460     1.2110 C.3   1 <1>   0.2090 
 13 C       -8.8630    -1.2580    -0.7140 C.3   1 <1>   0.2090 
 14 N       -9.0440    -0.6830     0.6520 N.pl3 1 <1>  -0.8380 
 15 C      -10.2070     0.0860     0.8010 C.ar  1 <1>   0.1000 
 16 C      -10.4270     1.3130     0.1470 C.ar  1 <1>   0.0830 
 17 C      -11.1910    -0.4060     1.6460 C.ar  1 <1>  -0.1500 
 18 O       -9.4460     1.7890    -0.6840 O.3   1 <1>  -0.3630 
 19 C      -11.6180     2.0010     0.3600 C.ar  1 <1>  -0.1500 
 20 C      -12.3710     0.2840     1.8520 C.ar  1 <1>  -0.1500 
 21 C       -9.5840     3.0270    -1.3430 C.3   1 <1>   0.1200 
 22 C      -12.5840     1.4880     1.2090 C.ar  1 <1>  -0.1500 
 23 C       -8.3200     3.2690    -2.1620 C.3   1 <1>  -0.2400 
 24 H       -1.8360     0.5840    -1.2390 H     1 <1>   0.1500 
 25 H       -1.7650    -1.2640     2.5870 H     1 <1>   0.1500 
 26 H       -3.8510    -0.6890    -1.8430 H     1 <1>   0.1500 
 27 H       -3.7810    -2.5560     2.0250 H     1 <1>   0.1500 
 28 H       -5.3640    -3.2970     0.3990 H     1 <1>   0.0800 
 29 H       -5.1250    -2.8960    -1.2870 H     1 <1>   0.0800 
 30 H       -6.1780    -0.7580    -0.8440 H     1 <1>   0.4500 
 31 H       -5.7310    -0.4820     1.4760 H     1 <1>   0.0800 
 32 H       -6.7940    -1.8150     1.8350 H     1 <1>   0.0800 
 33 H       -7.8860    -3.0740    -0.1600 H     1 <1>   0.0800 
 34 H       -7.5070    -2.5400    -1.7750 H     1 <1>   0.0800 
 35 H       -7.5840     0.8540     0.6670 H     1 <1>   0.0800 
 36 H       -7.9970     0.2290     2.2350 H     1 <1>   0.0800 
 37 H       -9.7540    -1.7990    -0.9850 H     1 <1>   0.0800 
 38 H       -8.7290    -0.4690    -1.4320 H     1 <1>   0.0800 
 39 H      -11.0260    -1.3420     2.1460 H     1 <1>   0.1500 
 40 H      -11.8230     2.9380    -0.1200 H     1 <1>   0.1500 
 41 H      -13.1220    -0.1150     2.5120 H     1 <1>   0.1500 
 42 H       -9.7090     3.7980    -0.6010 H     1 <1>   0.0800 
 43 H      -10.4480     2.9810    -1.9830 H     1 <1>   0.0800 
 44 H      -13.5030     2.0270     1.3680 H     1 <1>   0.1500 
 45 H       -7.4610     3.3040    -1.5170 H     1 <1>   0.0800 
 46 H       -8.3990     4.2100    -2.6770 H     1 <1>   0.0800 
 47 H       -8.1970     2.4900    -2.8930 H     1 <1>   0.0800 
@<TRIPOS>BOND
  1   1   2  1   
  2   2   3  ar  
  3   2   4  ar  
  4   3   5  ar  
  5   3  24  1   
  6   4   6  ar  
  7   4  25  1   
  8   5   7  ar  
  9   5  26  1   
 10   6   7  ar  
 11   6  27  1   
 12   7   8  1   
 13   8   9  1   
 14   8  28  1   
 15   8  29  1   
 16   9  10  1   
 17   9  11  1   
 18   9  30  1   
 19  10  12  1   
 20  10  31  1   
 21  10  32  1   
 22  11  13  1   
 23  11  33  1   
 24  11  34  1   
 25  12  14  1   
 26  12  35  1   
 27  12  36  1   
 28  13  14  1   
 29  13  37  1   
 30  13  38  1   
 31  14  15  1   
 32  15  16  ar  
 33  15  17  ar  
 34  16  18  1   
 35  16  19  ar  
 36  17  20  ar  
 37  17  39  1   
 38  18  21  1   
 39  19  22  ar  
 40  19  40  1   
 41  20  22  ar  
 42  20  41  1   
 43  21  23  1   
 44  21  42  1   
 45  21  43  1   
 46  22  44  1   
 47  23  45  1   
 48  23  46  1   
 49  23  47  1   
@<TRIPOS>SUBSTRUCTURE
  1 ****  12 GROUP 4 **** **** 0

# MOE 2024.06 (io_trps.svl 2023.06)
