@<TRIPOS>MOLECULE
NONAME
37 38 1 0 0 
SMALL
USER_CHARGES


@<TRIPOS>ATOM
  1 CL      -0.2920     0.0850    -0.2730 Cl    1 <1>  -0.1770 
  2 C       -1.8090     0.9270    -0.3190 C.ar  1 <1>   0.7970 
  3 N       -2.8640     0.1790    -0.4380 N.ar  1 <1>  -0.6200 
  4 N       -1.7380     2.2210    -0.2300 N.ar  1 <1>  -0.6200 
  5 C       -3.9790     0.8670    -0.4690 C.ar  1 <1>   0.7200 
  6 C       -2.9120     2.7820    -0.2700 C.ar  1 <1>   0.7200 
  7 N       -4.0560     2.1710    -0.3930 N.ar  1 <1>  -0.6200 
  8 N       -5.1560     0.1690    -0.5940 N.pl3 1 <1>  -0.8380 
  9 N       -2.8790     4.1300    -0.1920 N.pl3 1 <1>  -0.8690 
 10 C       -6.5070     0.8220    -0.5560 C.3   1 <1>   0.2090 
 11 C       -5.2150    -1.2740    -0.9960 C.3   1 <1>   0.2090 
 12 C       -3.8840     5.0940     0.3020 C.3   1 <1>   0.3690 
 13 C       -7.5370    -0.0620     0.1700 C.3   1 <1>   0.1200 
 14 C       -6.3170    -2.0200    -0.2240 C.3   1 <1>   0.1200 
 15 C       -5.0230     5.3270    -0.7290 C.3   1 <1>   0.1200 
 16 C       -4.4080     4.6390     1.6700 C.3   1 <1>  -0.2400 
 17 C       -3.1190     6.4050     0.4890 C.3   1 <1>  -0.2400 
 18 O       -7.5480    -1.3640    -0.3460 O.3   1 <1>  -0.5600 
 19 O       -5.8300     4.2080    -0.8950 O.3   1 <1>  -0.6800 
 20 H       -1.9270     4.4770    -0.1090 H     1 <1>   0.4000 
 21 H       -6.8420     1.0030    -1.5630 H     1 <1>   0.0800 
 22 H       -6.4640     1.7680    -0.0460 H     1 <1>   0.0800 
 23 H       -4.2780    -1.7690    -0.8150 H     1 <1>   0.0800 
 24 H       -5.4230    -1.3370    -2.0500 H     1 <1>   0.0800 
 25 H       -8.5240     0.3480     0.0490 H     1 <1>   0.0800 
 26 H       -7.3110    -0.1100     1.2210 H     1 <1>   0.0800 
 27 H       -6.0630    -2.0880     0.8200 H     1 <1>   0.0800 
 28 H       -6.4350    -3.0140    -0.6160 H     1 <1>   0.0800 
 29 H       -4.6010     5.5760    -1.6870 H     1 <1>   0.0800 
 30 H       -5.6580     6.1340    -0.4110 H     1 <1>   0.0800 
 31 H       -3.5950     4.4840     2.3550 H     1 <1>   0.0800 
 32 H       -4.9690     3.7270     1.5850 H     1 <1>   0.0800 
 33 H       -5.0640     5.3860     2.0780 H     1 <1>   0.0800 
 34 H       -2.3200     6.2820     1.1980 H     1 <1>   0.0800 
 35 H       -3.7800     7.1680     0.8590 H     1 <1>   0.0800 
 36 H       -2.7120     6.7400    -0.4490 H     1 <1>   0.0800 
 37 H       -5.2410     3.4090    -0.8610 H     1 <1>   0.4000 
@<TRIPOS>BOND
  1   1   2  1   
  2   2   3  ar  
  3   2   4  ar  
  4   3   5  ar  
  5   4   6  ar  
  6   5   7  ar  
  7   5   8  1   
  8   6   7  ar  
  9   6   9  1   
 10   8  10  1   
 11   8  11  1   
 12   9  12  1   
 13   9  20  1   
 14  10  13  1   
 15  10  21  1   
 16  10  22  1   
 17  11  14  1   
 18  11  23  1   
 19  11  24  1   
 20  12  15  1   
 21  12  16  1   
 22  12  17  1   
 23  13  18  1   
 24  13  25  1   
 25  13  26  1   
 26  14  18  1   
 27  14  27  1   
 28  14  28  1   
 29  15  19  1   
 30  15  29  1   
 31  15  30  1   
 32  16  31  1   
 33  16  32  1   
 34  16  33  1   
 35  17  34  1   
 36  17  35  1   
 37  17  36  1   
 38  19  37  1   
@<TRIPOS>SUBSTRUCTURE
  1 ****   7 GROUP 4 **** **** 0

# MOE 2024.06 (io_trps.svl 2023.06)
