@<TRIPOS>MOLECULE
NONAME
39 41 1 0 0 
SMALL
USER_CHARGES


@<TRIPOS>ATOM
  1 O       -0.3940     0.0970    -0.9200 O.3   1 <1>  -0.5600 
  2 C        0.4210    -0.7740    -0.1860 C.3   1 <1>   0.4800 
  3 C       -1.6690     0.2770    -0.3800 C.3   1 <1>   0.2000 
  4 O        1.6780    -0.7850    -0.8330 O.3   1 <1>  -0.3630 
  5 C       -0.1650    -2.2040    -0.1860 C.3   1 <1>   0.2000 
  6 C       -2.4130    -1.0720    -0.3810 C.3   1 <1>  -0.1600 
  7 C       -2.3780     1.3470    -1.2190 C.3   1 <1>   0.1200 
  8 C        2.5690     0.2220    -0.6630 C.ar  1 <1>   0.0820 
  9 O       -0.1660    -2.7450    -1.4780 O.3   1 <1>  -0.6800 
 10 C       -1.6050    -2.1540     0.3420 C.3   1 <1>   0.2000 
 11 O       -3.6400     1.6120    -0.6920 O.3   1 <1>  -0.6800 
 12 C        2.2750     1.4380    -0.0930 C.ar  1 <1>  -0.1500 
 13 C        3.8720    -0.0320    -1.1080 C.ar  1 <1>  -0.1500 
 14 O       -1.5730    -1.8300     1.6930 O.3   1 <1>  -0.6800 
 15 C        3.2610     2.4320     0.0620 C.ar  1 <1>   0.0000 
 16 C        4.8480     0.9150    -0.9720 C.ar  1 <1>  -0.1500 
 17 C        4.5740     2.1670    -0.3850 C.ar  1 <1>   0.0000 
 18 C        2.9860     3.6860     0.6460 C.ar  1 <1>  -0.1500 
 19 C        5.5580     3.1630    -0.2280 C.ar  1 <1>  -0.1500 
 20 C        3.9610     4.6350     0.7850 C.ar  1 <1>  -0.1500 
 21 C        5.2620     4.3700     0.3430 C.ar  1 <1>  -0.1500 
 22 H        0.5370    -0.4060     0.8190 H     1 <1>   0.0800 
 23 H       -1.5530     0.6460     0.6260 H     1 <1>   0.0800 
 24 H        0.4320    -2.8470     0.4350 H     1 <1>   0.0800 
 25 H       -2.5720    -1.3750    -1.4010 H     1 <1>   0.0800 
 26 H       -3.3810    -0.9650     0.0750 H     1 <1>   0.0800 
 27 H       -2.5000     1.0060    -2.2320 H     1 <1>   0.0800 
 28 H       -1.8110     2.2620    -1.2060 H     1 <1>   0.0800 
 29 H        0.5130    -2.2700    -2.0040 H     1 <1>   0.4000 
 30 H       -2.0680    -3.1220     0.2460 H     1 <1>   0.0800 
 31 H       -4.1010     2.2860    -1.2300 H     1 <1>   0.4000 
 32 H        1.2840     1.6740     0.2420 H     1 <1>   0.1500 
 33 H        4.0810    -0.9860    -1.5570 H     1 <1>   0.1500 
 34 H       -2.4800    -1.8390     2.0590 H     1 <1>   0.4000 
 35 H        5.8480     0.7180    -1.3140 H     1 <1>   0.1500 
 36 H        1.9850     3.8850     0.9830 H     1 <1>   0.1500 
 37 H        6.5560     2.9560    -0.5700 H     1 <1>   0.1500 
 38 H        3.7450     5.5900     1.2310 H     1 <1>   0.1500 
 39 H        6.0190     5.1270     0.4600 H     1 <1>   0.1500 
@<TRIPOS>BOND
  1   1   2  1   
  2   1   3  1   
  3   2   4  1   
  4   2   5  1   
  5   2  22  1   
  6   3   6  1   
  7   3   7  1   
  8   3  23  1   
  9   4   8  1   
 10   5   9  1   
 11   5  10  1   
 12   5  24  1   
 13   6  10  1   
 14   6  25  1   
 15   6  26  1   
 16   7  11  1   
 17   7  27  1   
 18   7  28  1   
 19   8  12  ar  
 20   8  13  ar  
 21   9  29  1   
 22  10  14  1   
 23  10  30  1   
 24  11  31  1   
 25  12  15  ar  
 26  12  32  1   
 27  13  16  ar  
 28  13  33  1   
 29  14  34  1   
 30  15  17  ar  
 31  15  18  ar  
 32  16  17  ar  
 33  16  35  1   
 34  17  19  ar  
 35  18  20  ar  
 36  18  36  1   
 37  19  21  ar  
 38  19  37  1   
 39  20  21  ar  
 40  20  38  1   
 41  21  39  1   
@<TRIPOS>SUBSTRUCTURE
  1 ****  12 GROUP 4 **** **** 0

# MOE 2024.06 (io_trps.svl 2023.06)
