@<TRIPOS>MOLECULE
NONAME
35 36 1 0 0 
SMALL
USER_CHARGES


@<TRIPOS>ATOM
  1 S       -0.2880    -0.6870     0.5910 S.3   1 <1>  -0.2860 
  2 C        1.3300    -0.1790    -0.0040 C.2   1 <1>   0.2420 
  3 C       -0.9080    -1.7530    -0.8030 C.3   1 <1>   0.1310 
  4 N        1.7930    -0.5040    -1.1570 N.2   1 <1>  -0.3380 
  5 N        2.1620     0.5710     0.7160 N.pl3 1 <1>   0.0480 
  6 C       -2.3240    -2.2460    -0.5470 C.2   1 <1>   0.5690 
  7 N        3.0050     0.0540    -1.2260 N.2   1 <1>  -0.3380 
  8 C        3.2110     0.6840    -0.1140 C.2   1 <1>   0.0060 
  9 C        1.9560     1.1100     2.0760 C.3   1 <1>   0.0160 
 10 O       -2.6920    -3.2330    -1.1360 O.2   1 <1>  -0.5700 
 11 N       -3.1140    -1.5530     0.3320 N.am  1 <1>  -0.5470 
 12 C        4.4770     1.4610     0.2350 C.3   1 <1>   0.0200 
 13 C       -4.4440    -1.7450     0.7390 C.ar  1 <1>   0.1170 
 14 C        5.5660     1.3630    -0.8400 C.3   1 <1>  -0.2400 
 15 C       -4.8520    -1.1900     1.9500 C.ar  1 <1>  -0.1500 
 16 C       -5.3730    -2.4530    -0.0240 C.ar  1 <1>  -0.1500 
 17 C       -6.1540    -1.3370     2.3990 C.ar  1 <1>  -0.1500 
 18 C       -6.6780    -2.6100     0.4110 C.ar  1 <1>  -0.1500 
 19 C       -7.0450    -2.0470     1.6180 C.ar  1 <1>   0.1900 
 20 F       -8.2750    -2.1910     2.0350 F     1 <1>  -0.1900 
 21 H       -0.2320    -2.5830    -0.8930 H     1 <1>   0.0800 
 22 H       -0.8750    -1.1620    -1.6990 H     1 <1>   0.0800 
 23 H        0.9640     1.5170     2.1520 H     1 <1>   0.0800 
 24 H        2.6720     1.8850     2.2780 H     1 <1>   0.0800 
 25 H        2.0730     0.3160     2.7910 H     1 <1>   0.0800 
 26 H       -2.6210    -0.8030     0.8180 H     1 <1>   0.3700 
 27 H        4.8730     1.0840     1.1610 H     1 <1>   0.0800 
 28 H        4.2210     2.4960     0.3760 H     1 <1>   0.0800 
 29 H        5.8470     0.3360    -0.9910 H     1 <1>   0.0800 
 30 H        6.4360     1.9210    -0.5440 H     1 <1>   0.0800 
 31 H        5.2020     1.7580    -1.7730 H     1 <1>   0.0800 
 32 H       -4.1480    -0.6420     2.5490 H     1 <1>   0.1500 
 33 H       -5.0830    -2.8830    -0.9650 H     1 <1>   0.1500 
 34 H       -6.4770    -0.9140     3.3330 H     1 <1>   0.1500 
 35 H       -7.3970    -3.1560    -0.1720 H     1 <1>   0.1500 
@<TRIPOS>BOND
  1   1   2  1   
  2   1   3  1   
  3   2   4  2   
  4   2   5  1   
  5   3   6  1   
  6   3  21  1   
  7   3  22  1   
  8   4   7  1   
  9   5   8  1   
 10   5   9  1   
 11   6  10  2   
 12   6  11  am  
 13   7   8  2   
 14   8  12  1   
 15   9  23  1   
 16   9  24  1   
 17   9  25  1   
 18  11  13  1   
 19  11  26  1   
 20  12  14  1   
 21  12  27  1   
 22  12  28  1   
 23  13  15  ar  
 24  13  16  ar  
 25  14  29  1   
 26  14  30  1   
 27  14  31  1   
 28  15  17  ar  
 29  15  32  1   
 30  16  18  ar  
 31  16  33  1   
 32  17  19  ar  
 33  17  34  1   
 34  18  19  ar  
 35  18  35  1   
 36  19  20  1   
@<TRIPOS>SUBSTRUCTURE
  1 ****   1 GROUP 4 **** **** 0

# MOE 2024.06 (io_trps.svl 2023.06)
