@<TRIPOS>MOLECULE
NONAME
32 34 1 0 0 
SMALL
USER_CHARGES


@<TRIPOS>ATOM
  1 S        0.0030    -0.4810     0.1730 S.3   1 <1>  -0.2860 
  2 C        1.4850     0.4210    -0.2890 C.2   1 <1>   0.2420 
  3 C       -1.3420     0.6270    -0.4360 C.3   1 <1>   0.2140 
  4 N        1.4720     1.5540    -0.8950 N.2   1 <1>  -0.3380 
  5 N        2.7080    -0.0330    -0.0250 N.pl3 1 <1>   0.0480 
  6 C       -2.6760    -0.0180    -0.0960 C.ar  1 <1>  -0.1440 
  7 N        2.7570     1.8910    -1.0510 N.2   1 <1>  -0.3380 
  8 C        3.4710     0.9470    -0.5300 C.2   1 <1>   0.1020 
  9 C        3.0940    -1.2840     0.6580 C.3   1 <1>   0.0160 
 10 C       -3.3040    -0.8450    -1.0200 C.ar  1 <1>  -0.1500 
 11 C       -3.2660     0.2190     1.1390 C.ar  1 <1>  -0.1500 
 12 C        4.9910     0.9340    -0.4910 C.3   1 <1>  -0.0150 
 13 C       -4.5210    -1.4320    -0.7160 C.ar  1 <1>  -0.1500 
 14 C       -4.4830    -0.3620     1.4550 C.ar  1 <1>  -0.1500 
 15 C        5.7120     1.0830     0.8140 C.3   1 <1>  -0.2000 
 16 C        5.7470     2.1920    -0.1910 C.3   1 <1>  -0.2000 
 17 C       -5.0880    -1.1780     0.5180 C.ar  1 <1>   0.1900 
 18 F       -6.2360    -1.7280     0.8090 F     1 <1>  -0.1900 
 19 H       -1.2070     0.7410    -1.4970 H     1 <1>   0.0800 
 20 H       -1.2190     1.5770     0.0520 H     1 <1>   0.0800 
 21 H        2.4820    -2.0910     0.2980 H     1 <1>   0.0800 
 22 H        2.9470    -1.1690     1.7160 H     1 <1>   0.0800 
 23 H        4.1260    -1.5070     0.4600 H     1 <1>   0.0800 
 24 H       -2.8470    -1.0350    -1.9760 H     1 <1>   0.1500 
 25 H       -2.7780     0.8540     1.8590 H     1 <1>   0.1500 
 26 H        5.4140     0.2830    -1.2370 H     1 <1>   0.1000 
 27 H       -5.0220    -2.0740    -1.4180 H     1 <1>   0.1500 
 28 H       -4.9540    -0.1900     2.4050 H     1 <1>   0.1500 
 29 H        6.6100     0.5140     0.9820 H     1 <1>   0.1000 
 30 H        5.1440     1.2390     1.7150 H     1 <1>   0.1000 
 31 H        5.1830     3.0890    -0.0030 H     1 <1>   0.1000 
 32 H        6.6560     2.3830    -0.7330 H     1 <1>   0.1000 
@<TRIPOS>BOND
  1   1   2  1   
  2   1   3  1   
  3   2   4  2   
  4   2   5  1   
  5   3   6  1   
  6   3  19  1   
  7   3  20  1   
  8   4   7  1   
  9   5   8  1   
 10   5   9  1   
 11   6  10  ar  
 12   6  11  ar  
 13   7   8  2   
 14   8  12  1   
 15   9  21  1   
 16   9  22  1   
 17   9  23  1   
 18  10  13  ar  
 19  10  24  1   
 20  11  14  ar  
 21  11  25  1   
 22  12  15  1   
 23  12  16  1   
 24  12  26  1   
 25  13  17  ar  
 26  13  27  1   
 27  14  17  ar  
 28  14  28  1   
 29  15  16  1   
 30  15  29  1   
 31  15  30  1   
 32  16  31  1   
 33  16  32  1   
 34  17  18  1   
@<TRIPOS>SUBSTRUCTURE
  1 ****   1 GROUP 4 **** **** 0

# MOE 2024.06 (io_trps.svl 2023.06)
