@<TRIPOS>MOLECULE
NONAME
45 47 1 0 0 
SMALL
USER_CHARGES


@<TRIPOS>ATOM
  1 O        0.3800    -0.1360    -0.0720 O.2   1 <1>  -0.5700 
  2 C        0.5940    -1.3150     0.0650 C.2   1 <1>   0.5690 
  3 N       -0.3550    -2.2850    -0.0140 N.am  1 <1>  -0.5470 
  4 C        2.0070    -1.7600     0.3450 C.3   1 <1>  -0.1790 
  5 C       -1.7420    -2.2750    -0.2520 C.ar  1 <1>   0.1170 
  6 C       -2.3850    -3.5210    -0.2550 C.ar  1 <1>   0.1000 
  7 C       -2.4820    -1.1230    -0.4780 C.ar  1 <1>  -0.1500 
  8 N       -1.6400    -4.6960    -0.0270 N.pl3 1 <1>  -0.8380 
  9 C       -3.7530    -3.5750    -0.4850 C.ar  1 <1>  -0.1500 
 10 C       -3.8450    -1.1990    -0.7050 C.ar  1 <1>  -0.1500 
 11 C       -1.9860    -5.4260     1.2310 C.3   1 <1>   0.2090 
 12 C       -1.5720    -5.6350    -1.1880 C.3   1 <1>   0.2090 
 13 C       -4.4940    -2.4230    -0.7110 C.ar  1 <1>   0.1000 
 14 C       -1.0630    -6.6410     1.4340 C.3   1 <1>   0.1200 
 15 C       -0.6680    -6.8400    -0.8700 C.3   1 <1>   0.1200 
 16 N       -5.8680    -2.4640    -0.9430 N.pl3 1 <1>  -0.8380 
 17 O       -1.0770    -7.4770     0.3090 O.3   1 <1>  -0.5600 
 18 C       -6.7030    -2.9150     0.2090 C.3   1 <1>   0.2090 
 19 C       -6.2880    -3.1240    -2.2140 C.3   1 <1>   0.2090 
 20 C       -8.2020    -2.8030    -0.1220 C.3   1 <1>   0.1200 
 21 C       -7.8080    -3.0010    -2.4220 C.3   1 <1>   0.1200 
 22 O       -8.5090    -3.4850    -1.3080 O.3   1 <1>  -0.5600 
 23 H       -0.0520    -3.2530     0.1210 H     1 <1>   0.3700 
 24 H        2.3410    -2.4160    -0.4350 H     1 <1>   0.0800 
 25 H        2.0460    -2.2690     1.2890 H     1 <1>   0.0800 
 26 H        2.6550    -0.9040     0.3830 H     1 <1>   0.0800 
 27 H       -2.0040    -0.1610    -0.4790 H     1 <1>   0.1500 
 28 H       -4.2520    -4.5220    -0.4890 H     1 <1>   0.1500 
 29 H       -4.4180    -0.3070    -0.8800 H     1 <1>   0.1500 
 30 H       -3.0070    -5.7640     1.1900 H     1 <1>   0.0800 
 31 H       -1.8900    -4.7560     2.0680 H     1 <1>   0.0800 
 32 H       -1.1860    -5.1110    -2.0450 H     1 <1>   0.0800 
 33 H       -2.5590    -5.9900    -1.4310 H     1 <1>   0.0800 
 34 H       -1.3940    -7.2210     2.2780 H     1 <1>   0.0800 
 35 H       -0.0520    -6.3180     1.6110 H     1 <1>   0.0800 
 36 H        0.3530    -6.5220    -0.7540 H     1 <1>   0.0800 
 37 H       -0.7180    -7.5600    -1.6670 H     1 <1>   0.0800 
 38 H       -6.4780    -2.3060     1.0670 H     1 <1>   0.0800 
 39 H       -6.4700    -3.9370     0.4510 H     1 <1>   0.0800 
 40 H       -6.0170    -4.1650    -2.1920 H     1 <1>   0.0800 
 41 H       -5.7740    -2.6610    -3.0390 H     1 <1>   0.0800 
 42 H       -8.4820    -1.7700    -0.2370 H     1 <1>   0.0800 
 43 H       -8.7900    -3.2360     0.6680 H     1 <1>   0.0800 
 44 H       -8.1130    -3.5760    -3.2770 H     1 <1>   0.0800 
 45 H       -8.0800    -1.9720    -2.5790 H     1 <1>   0.0800 
@<TRIPOS>BOND
  1   1   2  2   
  2   2   3  am  
  3   2   4  1   
  4   3   5  1   
  5   3  23  1   
  6   4  24  1   
  7   4  25  1   
  8   4  26  1   
  9   5   6  ar  
 10   5   7  ar  
 11   6   8  1   
 12   6   9  ar  
 13   7  10  ar  
 14   7  27  1   
 15   8  11  1   
 16   8  12  1   
 17   9  13  ar  
 18   9  28  1   
 19  10  13  ar  
 20  10  29  1   
 21  11  14  1   
 22  11  30  1   
 23  11  31  1   
 24  12  15  1   
 25  12  32  1   
 26  12  33  1   
 27  13  16  1   
 28  14  17  1   
 29  14  34  1   
 30  14  35  1   
 31  15  17  1   
 32  15  36  1   
 33  15  37  1   
 34  16  18  1   
 35  16  19  1   
 36  18  20  1   
 37  18  38  1   
 38  18  39  1   
 39  19  21  1   
 40  19  40  1   
 41  19  41  1   
 42  20  22  1   
 43  20  42  1   
 44  20  43  1   
 45  21  22  1   
 46  21  44  1   
 47  21  45  1   
@<TRIPOS>SUBSTRUCTURE
  1 ****   6 GROUP 4 **** **** 0

# MOE 2024.06 (io_trps.svl 2023.06)
