@<TRIPOS>MOLECULE
NONAME
30 31 1 0 0 
SMALL
USER_CHARGES


@<TRIPOS>ATOM
  1 CL       0.7890     1.7280    -0.1300 Cl    1 <1>  -0.1770 
  2 C       -0.9030     2.1490    -0.0880 C.ar  1 <1>   0.1770 
  3 C       -1.3260     3.2060     0.6930 C.ar  1 <1>  -0.1500 
  4 C       -1.8030     1.4160    -0.8370 C.ar  1 <1>  -0.1500 
  5 C       -2.6720     3.5270     0.7250 C.ar  1 <1>  -0.1500 
  6 C       -3.1460     1.7550    -0.8000 C.ar  1 <1>  -0.1500 
  7 C       -3.6070     2.8160    -0.0240 C.ar  1 <1>  -0.0090 
  8 S       -5.3820     3.2140     0.0060 S.o2  1 <1>   1.4470 
  9 O       -5.9020     3.2300    -1.3460 O.2   1 <1>  -0.6500 
 10 O       -6.0350     2.3480     0.9660 O.2   1 <1>  -0.6500 
 11 N       -5.5020     4.7910     0.6030 N.am  1 <1>  -0.8490 
 12 C       -4.9750     5.8410    -0.3260 C.3   1 <1>   0.1700 
 13 C       -6.8720     5.1750     0.9800 C.3   1 <1>   0.1960 
 14 C       -3.9630     6.8210     0.3240 C.2   1 <1>   0.9060 
 15 C       -6.2170     6.5600    -0.8660 C.3   1 <1>  -0.1600 
 16 C       -7.2060     6.4950     0.2810 C.3   1 <1>   0.2000 
 17 O       -4.3730     7.7080     1.0920 O.co2 1 <1>  -0.9000 
 18 O       -2.7620     6.6980     0.0540 O.co2 1 <1>  -0.9000 
 19 O       -6.9660     7.5610     1.1310 O.3   1 <1>  -0.6800 
 20 H       -0.6170     3.7790     1.2640 H     1 <1>   0.1500 
 21 H       -1.4540     0.5970    -1.4390 H     1 <1>   0.1500 
 22 H       -2.9910     4.3570     1.3380 H     1 <1>   0.1500 
 23 H       -3.8520     1.1890    -1.3850 H     1 <1>   0.1500 
 24 H       -4.4480     5.3880    -1.1460 H     1 <1>   0.0800 
 25 H       -6.9530     5.2730     2.0490 H     1 <1>   0.0800 
 26 H       -7.5700     4.4260     0.6480 H     1 <1>   0.0800 
 27 H       -6.5990     6.0020    -1.7020 H     1 <1>   0.0800 
 28 H       -6.0100     7.5670    -1.1830 H     1 <1>   0.0800 
 29 H       -8.2330     6.5450    -0.0350 H     1 <1>   0.0800 
 30 H       -5.9650     7.6770     1.2370 H     1 <1>   0.4000 
@<TRIPOS>BOND
  1   1   2  1   
  2   2   3  ar  
  3   2   4  ar  
  4   3   5  ar  
  5   3  20  1   
  6   4   6  ar  
  7   4  21  1   
  8   5   7  ar  
  9   5  22  1   
 10   6   7  ar  
 11   6  23  1   
 12   7   8  1   
 13   8   9  2   
 14   8  10  2   
 15   8  11  am  
 16  11  12  1   
 17  11  13  1   
 18  12  14  1   
 19  12  15  1   
 20  12  24  1   
 21  13  16  1   
 22  13  25  1   
 23  13  26  1   
 24  14  17  ar  
 25  14  18  ar  
 26  15  16  1   
 27  15  27  1   
 28  15  28  1   
 29  16  19  1   
 30  16  29  1   
 31  19  30  1   
@<TRIPOS>SUBSTRUCTURE
  1 ****  11 GROUP 4 **** **** 0

# MOE 2024.06 (io_trps.svl 2023.06)
