@<TRIPOS>MOLECULE
NONAME
40 41 1 0 0 
SMALL
USER_CHARGES


@<TRIPOS>ATOM
  1 CL      -2.3500     0.6560     3.4490 Cl    1 <1>  -0.1770 
  2 C       -2.7400     1.0660     1.7970 C.ar  1 <1>   0.1770 
  3 C       -1.9340     1.9200     1.0640 C.ar  1 <1>   0.1770 
  4 C       -3.8800     0.5200     1.2330 C.ar  1 <1>  -0.1500 
  5 CL      -0.4950     2.6190     1.7650 Cl    1 <1>  -0.1770 
  6 C       -2.2630     2.2340    -0.2420 C.ar  1 <1>  -0.1500 
  7 C       -4.2230     0.8370    -0.0770 C.ar  1 <1>  -0.1440 
  8 C       -3.4060     1.6910    -0.8100 C.ar  1 <1>  -0.1500 
  9 C       -5.4790     0.2510    -0.7010 C.3   1 <1>   0.4870 
 10 N       -6.6700     0.9300    -0.1180 N.4   1 <1>  -0.9590 
 11 C       -7.9290     0.2160    -0.5070 C.3   1 <1>   0.3430 
 12 C       -6.7110     2.3790    -0.4850 C.3   1 <1>   0.3430 
 13 C       -9.1620     0.8510     0.1460 C.3   1 <1>  -0.0190 
 14 C       -7.9040     3.0510     0.1990 C.3   1 <1>  -0.1600 
 15 C      -10.3990     0.1230    -0.3510 C.2   1 <1>   0.6590 
 16 C       -9.2300     2.3610    -0.1540 C.3   1 <1>  -0.1600 
 17 O      -10.3360    -0.6560    -1.2660 O.2   1 <1>  -0.5700 
 18 O      -11.5270     0.3970     0.2830 O.3   1 <1>  -0.4300 
 19 C      -12.7470    -0.2080    -0.0840 C.3   1 <1>   0.1200 
 20 C      -13.8360     0.3310     0.8370 C.3   1 <1>  -0.2400 
 21 H       -4.4750    -0.1480     1.8310 H     1 <1>   0.1500 
 22 H       -1.6250     2.8960    -0.8040 H     1 <1>   0.1500 
 23 H       -3.6430     1.9420    -1.8320 H     1 <1>   0.1500 
 24 H       -5.5170    -0.8060    -0.4920 H     1 <1>   0.0800 
 25 H       -5.4590     0.3850    -1.7700 H     1 <1>   0.0800 
 26 H       -6.5680     0.8840     0.9030 H     1 <1>   0.4500 
 27 H       -7.8740    -0.8220    -0.2180 H     1 <1>   0.0800 
 28 H       -8.0490     0.2520    -1.5790 H     1 <1>   0.0800 
 29 H       -6.8050     2.4840    -1.5540 H     1 <1>   0.0800 
 30 H       -5.8010     2.8680    -0.1740 H     1 <1>   0.0800 
 31 H       -9.1080     0.6980     1.2090 H     1 <1>   0.0800 
 32 H       -7.9490     4.0810    -0.1100 H     1 <1>   0.0800 
 33 H       -7.7560     3.0450     1.2660 H     1 <1>   0.0800 
 34 H      -10.0340     2.8090     0.4080 H     1 <1>   0.0800 
 35 H       -9.4440     2.5110    -1.2000 H     1 <1>   0.0800 
 36 H      -12.6460    -1.2750     0.0200 H     1 <1>   0.0800 
 37 H      -12.9550     0.0360    -1.1120 H     1 <1>   0.0800 
 38 H      -13.6140     0.0880     1.8610 H     1 <1>   0.0800 
 39 H      -14.7800    -0.1140     0.5790 H     1 <1>   0.0800 
 40 H      -13.9220     1.3980     0.7290 H     1 <1>   0.0800 
@<TRIPOS>BOND
  1   1   2  1   
  2   2   3  ar  
  3   2   4  ar  
  4   3   5  1   
  5   3   6  ar  
  6   4   7  ar  
  7   4  21  1   
  8   6   8  ar  
  9   6  22  1   
 10   7   8  ar  
 11   7   9  1   
 12   8  23  1   
 13   9  10  1   
 14   9  24  1   
 15   9  25  1   
 16  10  11  1   
 17  10  12  1   
 18  10  26  1   
 19  11  13  1   
 20  11  27  1   
 21  11  28  1   
 22  12  14  1   
 23  12  29  1   
 24  12  30  1   
 25  13  15  1   
 26  13  16  1   
 27  13  31  1   
 28  14  16  1   
 29  14  32  1   
 30  14  33  1   
 31  15  17  2   
 32  15  18  1   
 33  16  34  1   
 34  16  35  1   
 35  18  19  1   
 36  19  20  1   
 37  19  36  1   
 38  19  37  1   
 39  20  38  1   
 40  20  39  1   
 41  20  40  1   
@<TRIPOS>SUBSTRUCTURE
  1 ****  10 GROUP 4 **** **** 0

# MOE 2024.06 (io_trps.svl 2023.06)
