@<TRIPOS>MOLECULE
NONAME
49 50 1 0 0 
SMALL
USER_CHARGES


@<TRIPOS>ATOM
  1 O       -0.6390    -2.0580    -0.6230 O.2   1 <1>  -0.5700 
  2 C       -1.0300    -3.1740    -0.3870 C.2   1 <1>   0.5690 
  3 N       -0.2190    -4.2430    -0.1520 N.am  1 <1>  -0.5470 
  4 C       -2.5240    -3.4040    -0.3500 C.3   1 <1>  -0.0990 
  5 C        1.1800    -4.3970    -0.0930 C.ar  1 <1>   0.1170 
  6 C       -3.2360    -2.0620    -0.1720 C.3   1 <1>   0.3430 
  7 C        1.6780    -5.6670     0.2170 C.ar  1 <1>   0.0830 
  8 C        2.0800    -3.3620    -0.3250 C.ar  1 <1>  -0.1500 
  9 N       -4.7200    -2.2270    -0.1230 N.4   1 <1>  -0.9590 
 10 O        0.7600    -6.6580     0.4370 O.3   1 <1>  -0.3630 
 11 C        3.0500    -5.8790     0.2900 C.ar  1 <1>  -0.1500 
 12 C        3.4440    -3.5760    -0.2510 C.ar  1 <1>  -0.1500 
 13 C       -5.2960    -2.5380    -1.4590 C.3   1 <1>   0.3430 
 14 C       -5.3530    -0.9950     0.4210 C.3   1 <1>   0.3430 
 15 C        1.1740    -7.9700     0.7570 C.3   1 <1>   0.0400 
 16 C        3.9350    -4.8400     0.0580 C.ar  1 <1>   0.0830 
 17 C       -6.3690    -3.6200    -1.3330 C.3   1 <1>  -0.1600 
 18 C       -6.7060    -1.3090     1.0660 C.3   1 <1>  -0.1600 
 19 O        5.2590    -5.1370     0.1510 O.3   1 <1>  -0.3620 
 20 C       -7.3470    -3.4760    -0.1520 C.3   1 <1>  -0.1600 
 21 C       -7.7360    -2.0260     0.1730 C.3   1 <1>  -0.1600 
 22 C        6.2400    -4.1470    -0.0660 C.3   1 <1>   0.0400 
 23 H       -0.6730    -5.1420     0.0280 H     1 <1>   0.3700 
 24 H       -2.7570    -4.0540     0.4730 H     1 <1>   0.0800 
 25 H       -2.8090    -3.8710    -1.2730 H     1 <1>   0.0800 
 26 H       -2.9630    -1.4000    -0.9800 H     1 <1>   0.0800 
 27 H       -2.8890    -1.6140     0.7450 H     1 <1>   0.0800 
 28 H        1.7280    -2.3770    -0.5670 H     1 <1>   0.1500 
 29 H       -4.9620    -2.9980     0.5110 H     1 <1>   0.4500 
 30 H        3.4670    -6.8380     0.5250 H     1 <1>   0.1500 
 31 H        4.1030    -2.7490    -0.4370 H     1 <1>   0.1500 
 32 H       -4.5290    -2.8810    -2.1350 H     1 <1>   0.0800 
 33 H       -5.7330    -1.6480    -1.8820 H     1 <1>   0.0800 
 34 H       -5.4820    -0.2690    -0.3660 H     1 <1>   0.0800 
 35 H       -4.7140    -0.5580     1.1720 H     1 <1>   0.0800 
 36 H        0.2970    -8.5780     0.8860 H     1 <1>   0.0800 
 37 H        1.7390    -7.9460     1.6720 H     1 <1>   0.0800 
 38 H        1.7690    -8.3570    -0.0520 H     1 <1>   0.0800 
 39 H       -5.8950    -4.5850    -1.2810 H     1 <1>   0.0800 
 40 H       -6.9370    -3.6100    -2.2480 H     1 <1>   0.0800 
 41 H       -7.1350    -0.3730     1.3780 H     1 <1>   0.0800 
 42 H       -6.5450    -1.8820     1.9630 H     1 <1>   0.0800 
 43 H       -6.9390    -3.9450     0.7270 H     1 <1>   0.0800 
 44 H       -8.2430    -4.0240    -0.3990 H     1 <1>   0.0800 
 45 H       -7.9180    -1.4680    -0.7310 H     1 <1>   0.0800 
 46 H       -8.6690    -2.0510     0.7130 H     1 <1>   0.0800 
 47 H        7.2060    -4.6020     0.0590 H     1 <1>   0.0800 
 48 H        6.1100    -3.3610     0.6570 H     1 <1>   0.0800 
 49 H        6.1410    -3.7700    -1.0680 H     1 <1>   0.0800 
@<TRIPOS>BOND
  1   1   2  2   
  2   2   3  am  
  3   2   4  1   
  4   3   5  1   
  5   3  23  1   
  6   4   6  1   
  7   4  24  1   
  8   4  25  1   
  9   5   7  ar  
 10   5   8  ar  
 11   6   9  1   
 12   6  26  1   
 13   6  27  1   
 14   7  10  1   
 15   7  11  ar  
 16   8  12  ar  
 17   8  28  1   
 18   9  13  1   
 19   9  14  1   
 20   9  29  1   
 21  10  15  1   
 22  11  16  ar  
 23  11  30  1   
 24  12  16  ar  
 25  12  31  1   
 26  13  17  1   
 27  13  32  1   
 28  13  33  1   
 29  14  18  1   
 30  14  34  1   
 31  14  35  1   
 32  15  36  1   
 33  15  37  1   
 34  15  38  1   
 35  16  19  1   
 36  17  20  1   
 37  17  39  1   
 38  17  40  1   
 39  18  21  1   
 40  18  41  1   
 41  18  42  1   
 42  19  22  1   
 43  20  21  1   
 44  20  43  1   
 45  20  44  1   
 46  21  45  1   
 47  21  46  1   
 48  22  47  1   
 49  22  48  1   
 50  22  49  1   
@<TRIPOS>SUBSTRUCTURE
  1 ****   2 GROUP 4 **** **** 0

# MOE 2024.06 (io_trps.svl 2023.06)
