@<TRIPOS>MOLECULE
NONAME
48 50 1 0 0 
SMALL
USER_CHARGES


@<TRIPOS>ATOM
  1 I       -2.2670    -0.9040    -4.3790 I     1 <1>  -0.0810 
  2 C       -1.6140    -2.1590    -2.7760 C.ar  1 <1>   0.0810 
  3 C       -0.8380    -3.2820    -3.0240 C.ar  1 <1>   0.0820 
  4 C       -2.0040    -1.8040    -1.4980 C.ar  1 <1>  -0.1500 
  5 O       -0.4590    -3.6350    -4.2700 O.3   1 <1>  -0.5330 
  6 C       -0.4340    -4.0710    -1.9510 C.ar  1 <1>   0.0820 
  7 C       -1.6130    -2.5990    -0.4290 C.ar  1 <1>  -0.1430 
  8 O        0.3370    -5.1600    -2.2360 O.3   1 <1>  -0.3630 
  9 C       -0.8260    -3.7240    -0.6590 C.ar  1 <1>  -0.1500 
 10 C       -2.0550    -2.2480     0.9810 C.3   1 <1>   0.4860 
 11 C        0.9800    -5.9000    -1.2210 C.3   1 <1>   0.0400 
 12 N       -3.5280    -2.4100     1.0780 N.4   1 <1>  -0.9590 
 13 C       -4.1230    -1.9490     2.3740 C.3   1 <1>   0.3430 
 14 C       -4.0350    -3.7740     0.7100 C.3   1 <1>   0.3430 
 15 C       -5.6690    -2.0600     2.3490 C.3   1 <1>   0.1100 
 16 C       -5.5790    -3.7670     0.6050 C.3   1 <1>   0.1100 
 17 N       -6.1710    -2.4650     1.0170 N.3   1 <1>  -0.8100 
 18 C       -7.6470    -2.4860     0.9650 C.3   1 <1>   0.2530 
 19 C       -8.1300    -2.8020    -0.4430 C.ar  1 <1>  -0.1430 
 20 C       -7.8160    -1.9530    -1.4930 C.ar  1 <1>  -0.1500 
 21 C       -8.8810    -3.9410    -0.6920 C.ar  1 <1>  -0.1500 
 22 C       -8.2420    -2.2400    -2.7790 C.ar  1 <1>  -0.1500 
 23 C       -9.3070    -4.2300    -1.9770 C.ar  1 <1>  -0.1500 
 24 C       -8.9870    -3.3800    -3.0210 C.ar  1 <1>  -0.1500 
 25 H       -2.6010    -0.9190    -1.3590 H     1 <1>   0.1500 
 26 H        0.0860    -4.4470    -4.2350 H     1 <1>   0.4500 
 27 H       -0.5220    -4.3320     0.1730 H     1 <1>   0.1500 
 28 H       -1.7810    -1.2280     1.1960 H     1 <1>   0.0800 
 29 H       -1.5640    -2.8920     1.6920 H     1 <1>   0.0800 
 30 H        1.5980    -6.6450    -1.6900 H     1 <1>   0.0800 
 31 H        0.2360    -6.3810    -0.6100 H     1 <1>   0.0800 
 32 H        1.5930    -5.2360    -0.6370 H     1 <1>   0.0800 
 33 H       -3.9780    -1.8110     0.3680 H     1 <1>   0.4500 
 34 H       -3.8540    -0.9210     2.5530 H     1 <1>   0.0800 
 35 H       -3.7390    -2.5360     3.1920 H     1 <1>   0.0800 
 36 H       -3.7300    -4.4960     1.4500 H     1 <1>   0.0800 
 37 H       -3.6280    -4.0820    -0.2400 H     1 <1>   0.0800 
 38 H       -6.0900    -1.1050     2.6170 H     1 <1>   0.0800 
 39 H       -5.9860    -2.7730     3.0910 H     1 <1>   0.0800 
 40 H       -5.9800    -4.5640     1.2080 H     1 <1>   0.0800 
 41 H       -5.8440    -3.9750    -0.4180 H     1 <1>   0.0800 
 42 H       -8.0300    -1.5190     1.2480 H     1 <1>   0.0800 
 43 H       -8.0310    -3.2140     1.6600 H     1 <1>   0.0800 
 44 H       -7.2360    -1.0650    -1.3110 H     1 <1>   0.1500 
 45 H       -9.1400    -4.6110     0.1080 H     1 <1>   0.1500 
 46 H       -7.9950    -1.5770    -3.5900 H     1 <1>   0.1500 
 47 H       -9.8900    -5.1150    -2.1670 H     1 <1>   0.1500 
 48 H       -9.3180    -3.6040    -4.0200 H     1 <1>   0.1500 
@<TRIPOS>BOND
  1   1   2  1   
  2   2   3  ar  
  3   2   4  ar  
  4   3   5  1   
  5   3   6  ar  
  6   4   7  ar  
  7   4  25  1   
  8   5  26  1   
  9   6   8  1   
 10   6   9  ar  
 11   7   9  ar  
 12   7  10  1   
 13   8  11  1   
 14   9  27  1   
 15  10  12  1   
 16  10  28  1   
 17  10  29  1   
 18  11  30  1   
 19  11  31  1   
 20  11  32  1   
 21  12  13  1   
 22  12  14  1   
 23  12  33  1   
 24  13  15  1   
 25  13  34  1   
 26  13  35  1   
 27  14  16  1   
 28  14  36  1   
 29  14  37  1   
 30  15  17  1   
 31  15  38  1   
 32  15  39  1   
 33  16  17  1   
 34  16  40  1   
 35  16  41  1   
 36  17  18  1   
 37  18  19  1   
 38  18  42  1   
 39  18  43  1   
 40  19  20  ar  
 41  19  21  ar  
 42  20  22  ar  
 43  20  44  1   
 44  21  23  ar  
 45  21  45  1   
 46  22  24  ar  
 47  22  46  1   
 48  23  24  ar  
 49  23  47  1   
 50  24  48  1   
@<TRIPOS>SUBSTRUCTURE
  1 ****  14 GROUP 4 **** **** 0

# MOE 2024.06 (io_trps.svl 2023.06)
