@<TRIPOS>MOLECULE
NONAME
44 45 1 0 0 
SMALL
USER_CHARGES


@<TRIPOS>ATOM
  1 CL      -0.3390     0.6480    -0.8460 Cl    1 <1>  -0.1770 
  2 C       -2.0490     0.4690    -0.5570 C.ar  1 <1>   0.1770 
  3 C       -2.6810    -0.7060    -0.9130 C.ar  1 <1>  -0.1500 
  4 C       -2.7530     1.5040     0.0270 C.ar  1 <1>  -0.1500 
  5 C       -4.0390    -0.8390    -0.6820 C.ar  1 <1>  -0.1500 
  6 C       -4.1100     1.3590     0.2540 C.ar  1 <1>  -0.1500 
  7 C       -4.7900     0.1860    -0.0980 C.ar  1 <1>   0.0860 
  8 C       -6.2180     0.0240     0.1290 C.2   1 <1>   0.5440 
  9 O       -6.7380    -1.0750     0.1140 O.2   1 <1>  -0.5700 
 10 N       -7.0270     1.0980     0.3540 N.am  1 <1>  -0.7300 
 11 C       -8.5050     1.0260     0.5330 C.3   1 <1>   0.2010 
 12 C       -9.1890     2.3980     0.4590 C.2   1 <1>   0.5690 
 13 O       -8.4840     3.3740     0.3160 O.2   1 <1>  -0.5700 
 14 N      -10.5550     2.5100     0.5540 N.am  1 <1>  -0.6600 
 15 C      -11.5120     1.3650     0.6940 C.3   1 <1>   0.1400 
 16 C      -11.2350     3.8430     0.4740 C.3   1 <1>   0.1400 
 17 C      -12.5550     1.3780    -0.4370 C.3   1 <1>   0.1400 
 18 C      -12.2760     3.8630    -0.6560 C.3   1 <1>   0.1400 
 19 N      -13.2190     2.7110    -0.5280 N.am  1 <1>  -0.6600 
 20 C      -14.5720     2.8940    -0.4270 C.2   1 <1>   0.7800 
 21 O      -15.0890     3.9940    -0.4570 O.2   1 <1>  -0.5700 
 22 O      -15.3360     1.8100    -0.2820 O.3   1 <1>  -0.4300 
 23 C      -16.7360     1.9220    -0.1740 C.3   1 <1>   0.1200 
 24 C      -17.3130     0.5190    -0.0150 C.3   1 <1>  -0.2400 
 25 H       -2.1160    -1.5020    -1.3640 H     1 <1>   0.1500 
 26 H       -2.2400     2.4100     0.2990 H     1 <1>   0.1500 
 27 H       -4.5350    -1.7550    -0.9570 H     1 <1>   0.1500 
 28 H       -4.6450     2.1680     0.7180 H     1 <1>   0.1500 
 29 H       -6.6890     2.0600     0.2430 H     1 <1>   0.3700 
 30 H       -8.7140     0.5830     1.4890 H     1 <1>   0.0800 
 31 H       -8.9120     0.3920    -0.2340 H     1 <1>   0.0800 
 32 H      -12.0230     1.4510     1.6380 H     1 <1>   0.0800 
 33 H      -10.9990     0.4210     0.6850 H     1 <1>   0.0800 
 34 H      -10.5200     4.6280     0.3040 H     1 <1>   0.0800 
 35 H      -11.7260     4.0450     1.4100 H     1 <1>   0.0800 
 36 H      -13.2770     0.6010    -0.2590 H     1 <1>   0.0800 
 37 H      -12.0680     1.1650    -1.3730 H     1 <1>   0.0800 
 38 H      -11.7720     3.8030    -1.6040 H     1 <1>   0.0800 
 39 H      -12.8110     4.7960    -0.6260 H     1 <1>   0.0800 
 40 H      -17.1100     2.3960    -1.0670 H     1 <1>   0.0800 
 41 H      -16.9650     2.5340     0.6830 H     1 <1>   0.0800 
 42 H      -17.0700    -0.0810    -0.8740 H     1 <1>   0.0800 
 43 H      -18.3830     0.5750     0.0700 H     1 <1>   0.0800 
 44 H      -16.9220     0.0550     0.8730 H     1 <1>   0.0800 
@<TRIPOS>BOND
  1   1   2  1   
  2   2   3  ar  
  3   2   4  ar  
  4   3   5  ar  
  5   3  25  1   
  6   4   6  ar  
  7   4  26  1   
  8   5   7  ar  
  9   5  27  1   
 10   6   7  ar  
 11   6  28  1   
 12   7   8  1   
 13   8   9  2   
 14   8  10  am  
 15  10  11  1   
 16  10  29  1   
 17  11  12  1   
 18  11  30  1   
 19  11  31  1   
 20  12  13  2   
 21  12  14  am  
 22  14  15  1   
 23  14  16  1   
 24  15  17  1   
 25  15  32  1   
 26  15  33  1   
 27  16  18  1   
 28  16  34  1   
 29  16  35  1   
 30  17  19  1   
 31  17  36  1   
 32  17  37  1   
 33  18  19  1   
 34  18  38  1   
 35  18  39  1   
 36  19  20  am  
 37  20  21  2   
 38  20  22  1   
 39  22  23  1   
 40  23  24  1   
 41  23  40  1   
 42  23  41  1   
 43  24  42  1   
 44  24  43  1   
 45  24  44  1   
@<TRIPOS>SUBSTRUCTURE
  1 ****  11 GROUP 4 **** **** 0

# MOE 2024.06 (io_trps.svl 2023.06)
