@<TRIPOS>MOLECULE
NONAME
37 37 1 0 0 
SMALL
USER_CHARGES


@<TRIPOS>ATOM
  1 CL      -0.2200    -0.7770    -0.0030 Cl    1 <1>  -0.1770 
  2 C       -1.3330     0.5820    -0.0010 C.ar  1 <1>   0.1770 
  3 C       -0.9360     1.9280     0.0020 C.ar  1 <1>   0.0830 
  4 C       -2.6740     0.2410    -0.0010 C.ar  1 <1>  -0.1500 
  5 O        0.3340     2.4270     0.0030 O.3   1 <1>  -0.3630 
  6 C       -1.9270     2.9000     0.0040 C.ar  1 <1>  -0.1500 
  7 C       -3.6450     1.2270     0.0010 C.ar  1 <1>  -0.1500 
  8 C        1.4910     1.6350     0.0000 C.3   1 <1>   0.1200 
  9 C       -3.2690     2.5580     0.0030 C.ar  1 <1>  -0.1500 
 10 C        2.6920     2.5800     0.0000 C.3   1 <1>  -0.1600 
 11 C        3.9930     1.7880    -0.0030 C.3   1 <1>   0.3430 
 12 N        5.1310     2.7370    -0.0020 N.4   1 <1>  -0.9060 
 13 C        6.4460     2.0540    -0.0050 C.3   1 <1>   0.3430 
 14 C        7.5500     3.1070    -0.0040 C.3   1 <1>  -0.1600 
 15 C        8.9340     2.4460    -0.0070 C.3   1 <1>  -0.1600 
 16 C       10.0440     3.5000    -0.0060 C.3   1 <1>  -0.2400 
 17 H       -2.9570    -0.7970    -0.0030 H     1 <1>   0.1500 
 18 H       -1.6430     3.9370     0.0060 H     1 <1>   0.1500 
 19 H       -4.6880     0.9600     0.0000 H     1 <1>   0.1500 
 20 H        1.4800     1.0270    -0.8890 H     1 <1>   0.0800 
 21 H        1.4820     1.0230     0.8860 H     1 <1>   0.0800 
 22 H       -4.0200     3.3290     0.0050 H     1 <1>   0.1500 
 23 H        2.6390     3.1960     0.8820 H     1 <1>   0.0800 
 24 H        2.6370     3.2000    -0.8780 H     1 <1>   0.0800 
 25 H        4.0340     1.1610    -0.8800 H     1 <1>   0.0800 
 26 H        4.0360     1.1570     0.8720 H     1 <1>   0.0800 
 27 H        5.0690     3.3470     0.8230 H     1 <1>   0.4500 
 28 H        5.0670     3.3510    -0.8240 H     1 <1>   0.4500 
 29 H        6.5400     1.4320    -0.8820 H     1 <1>   0.0800 
 30 H        6.5420     1.4290     0.8690 H     1 <1>   0.0800 
 31 H        7.4650     3.7250     0.8740 H     1 <1>   0.0800 
 32 H        7.4630     3.7290    -0.8780 H     1 <1>   0.0800 
 33 H        9.0470     1.8240    -0.8800 H     1 <1>   0.0800 
 34 H        9.0490     1.8210     0.8640 H     1 <1>   0.0800 
 35 H        9.9790     4.1250    -0.8800 H     1 <1>   0.0800 
 36 H       11.0080     3.0190    -0.0080 H     1 <1>   0.0800 
 37 H        9.9810     4.1220     0.8700 H     1 <1>   0.0800 
@<TRIPOS>BOND
  1   1   2  1   
  2   2   3  ar  
  3   2   4  ar  
  4   3   5  1   
  5   3   6  ar  
  6   4   7  ar  
  7   4  17  1   
  8   5   8  1   
  9   6   9  ar  
 10   6  18  1   
 11   7   9  ar  
 12   7  19  1   
 13   8  10  1   
 14   8  20  1   
 15   8  21  1   
 16   9  22  1   
 17  10  11  1   
 18  10  23  1   
 19  10  24  1   
 20  11  12  1   
 21  11  25  1   
 22  11  26  1   
 23  12  13  1   
 24  12  27  1   
 25  12  28  1   
 26  13  14  1   
 27  13  29  1   
 28  13  30  1   
 29  14  15  1   
 30  14  31  1   
 31  14  32  1   
 32  15  16  1   
 33  15  33  1   
 34  15  34  1   
 35  16  35  1   
 36  16  36  1   
 37  16  37  1   
@<TRIPOS>SUBSTRUCTURE
  1 ****   8 GROUP 4 **** **** 0

# MOE 2024.06 (io_trps.svl 2023.06)
