@<TRIPOS>MOLECULE
NONAME
23 23 1 0 0 
SMALL
USER_CHARGES


@<TRIPOS>ATOM
  1 O       -5.7350     2.4040     0.1750 O.3   1 <1>  -0.5320 
  2 C       -4.5570     1.7540     0.0490 C.ar  1 <1>   0.0830 
  3 C       -3.3880     2.4810    -0.1210 C.ar  1 <1>  -0.1430 
  4 C       -4.5130     0.3580     0.0870 C.ar  1 <1>   0.1670 
  5 C       -2.2230     1.7360    -0.2550 C.ar  1 <1>  -0.1440 
  6 C       -3.4080     4.0090    -0.1590 C.3   1 <1>   0.2640 
  7 N       -3.4050    -0.3500    -0.0320 N.ar  1 <1>  -0.6200 
  8 C       -5.7820    -0.4570     0.2730 C.3   1 <1>  -0.0970 
  9 C       -2.2960     0.3520    -0.1920 C.ar  1 <1>   0.1600 
 10 C       -0.8570     2.3700    -0.4650 C.3   1 <1>   0.2640 
 11 O       -2.6990     4.5070     0.9280 O.3   1 <1>  -0.6800 
 12 O       -0.4510     2.9160     0.7310 O.3   1 <1>  -0.6800 
 13 H       -6.4830     1.8040     0.3460 H     1 <1>   0.4500 
 14 H       -4.4100     4.3970    -0.1050 H     1 <1>   0.0800 
 15 H       -2.9470     4.3710    -1.0610 H     1 <1>   0.0800 
 16 H       -6.4870    -0.2270    -0.5040 H     1 <1>   0.0800 
 17 H       -6.2130    -0.2470     1.2340 H     1 <1>   0.0800 
 18 H       -5.5600    -1.5080     0.2260 H     1 <1>   0.0800 
 19 H       -1.3860    -0.2160    -0.2790 H     1 <1>   0.1500 
 20 H       -0.9030     3.1570    -1.1980 H     1 <1>   0.0800 
 21 H       -0.1200     1.6470    -0.7680 H     1 <1>   0.0800 
 22 H       -2.9060     5.4540     1.0560 H     1 <1>   0.4000 
 23 H       -1.2060     3.4580     1.0750 H     1 <1>   0.4000 
@<TRIPOS>BOND
  1   1   2  1   
  2   1  13  1   
  3   2   3  ar  
  4   2   4  ar  
  5   3   5  ar  
  6   3   6  1   
  7   4   7  ar  
  8   4   8  1   
  9   5   9  ar  
 10   5  10  1   
 11   6  11  1   
 12   6  14  1   
 13   6  15  1   
 14   7   9  ar  
 15   8  16  1   
 16   8  17  1   
 17   8  18  1   
 18   9  19  1   
 19  10  12  1   
 20  10  20  1   
 21  10  21  1   
 22  11  22  1   
 23  12  23  1   
@<TRIPOS>SUBSTRUCTURE
  1 ****   3 GROUP 4 **** **** 0

# MOE 2024.06 (io_trps.svl 2023.06)
