@<TRIPOS>MOLECULE
NONAME
36 36 1 0 0 
SMALL
USER_CHARGES


@<TRIPOS>ATOM
  1 S       -0.0900    -0.2390    -0.0940 S.o2  1 <1>   1.4470 
  2 O       -0.3580    -1.0860     1.0480 O.2   1 <1>  -0.6500 
  3 O       -0.1940    -0.7720    -1.4330 O.2   1 <1>  -0.6500 
  4 N       -1.2820     0.9430    -0.1320 N.am  1 <1>  -0.9140 
  5 C        1.4420     0.6990     0.1550 C.ar  1 <1>  -0.0090 
  6 C       -2.5880     0.4750     0.2630 C.3   1 <1>   0.2760 
  7 C        2.6740     0.1050    -0.1050 C.ar  1 <1>   0.0830 
  8 C        1.4340     2.0070     0.6280 C.ar  1 <1>  -0.1500 
  9 C       -3.6130     1.1370    -0.6690 C.3   1 <1>  -0.1600 
 10 C       -2.8020     0.8670     1.7260 C.3   1 <1>  -0.2400 
 11 O        2.6640    -1.1800    -0.5390 O.3   1 <1>  -0.3630 
 12 C        3.8570     0.8180     0.0850 C.ar  1 <1>  -0.1500 
 13 C        2.6080     2.7140     0.8190 C.ar  1 <1>  -0.1500 
 14 C       -5.0520     0.6520    -0.4410 C.3   1 <1>  -0.2400 
 15 C        3.8450    -1.8860    -0.8470 C.3   1 <1>   0.0400 
 16 C        3.8270     2.1220     0.5460 C.ar  1 <1>  -0.1430 
 17 C        5.1140     2.9010     0.7530 C.3   1 <1>  -0.0970 
 18 H       -1.3470     1.1180    -1.1320 H     1 <1>   0.4200 
 19 H       -2.6590    -0.5970     0.1510 H     1 <1>   0.0800 
 20 H        0.4980     2.4890     0.8580 H     1 <1>   0.1500 
 21 H       -3.3500     0.9090    -1.6880 H     1 <1>   0.0800 
 22 H       -3.5780     2.2060    -0.5430 H     1 <1>   0.0800 
 23 H       -2.7920     1.9360     1.8350 H     1 <1>   0.0800 
 24 H       -2.0320     0.4430     2.3440 H     1 <1>   0.0800 
 25 H       -3.7440     0.4920     2.0800 H     1 <1>   0.0800 
 26 H        4.8090     0.3690    -0.1210 H     1 <1>   0.1500 
 27 H        2.5670     3.7260     1.1820 H     1 <1>   0.1500 
 28 H       -5.1060    -0.4200    -0.5200 H     1 <1>   0.0800 
 29 H       -5.7030     1.0800    -1.1830 H     1 <1>   0.0800 
 30 H       -5.4110     0.9490     0.5290 H     1 <1>   0.0800 
 31 H        3.5670    -2.8730    -1.1710 H     1 <1>   0.0800 
 32 H        4.4550    -1.9500     0.0370 H     1 <1>   0.0800 
 33 H        4.3610    -1.3740    -1.6390 H     1 <1>   0.0800 
 34 H        5.9440     2.2330     0.8980 H     1 <1>   0.0800 
 35 H        5.0330     3.5320     1.6190 H     1 <1>   0.0800 
 36 H        5.3100     3.5150    -0.1080 H     1 <1>   0.0800 
@<TRIPOS>BOND
  1   1   2  2   
  2   1   3  2   
  3   1   4  am  
  4   1   5  1   
  5   4   6  1   
  6   4  18  1   
  7   5   7  ar  
  8   5   8  ar  
  9   6   9  1   
 10   6  10  1   
 11   6  19  1   
 12   7  11  1   
 13   7  12  ar  
 14   8  13  ar  
 15   8  20  1   
 16   9  14  1   
 17   9  21  1   
 18   9  22  1   
 19  10  23  1   
 20  10  24  1   
 21  10  25  1   
 22  11  15  1   
 23  12  16  ar  
 24  12  26  1   
 25  13  16  ar  
 26  13  27  1   
 27  14  28  1   
 28  14  29  1   
 29  14  30  1   
 30  15  31  1   
 31  15  32  1   
 32  15  33  1   
 33  16  17  1   
 34  17  34  1   
 35  17  35  1   
 36  17  36  1   
@<TRIPOS>SUBSTRUCTURE
  1 ****   5 GROUP 4 **** **** 0

# MOE 2024.06 (io_trps.svl 2023.06)
