@<TRIPOS>MOLECULE
NONAME
46 47 1 0 0 
SMALL
USER_CHARGES


@<TRIPOS>ATOM
  1 F        1.2920    -0.6050    -1.3030 F     1 <1>  -0.1900 
  2 C        2.1160     0.3790    -1.0700 C.ar  1 <1>   0.1900 
  3 C        2.6690     1.0540    -2.1390 C.ar  1 <1>  -0.1500 
  4 C        2.4060     0.7110     0.2380 C.ar  1 <1>  -0.1500 
  5 C        3.5450     2.0970    -1.8860 C.ar  1 <1>  -0.1500 
  6 C        3.2830     1.7550     0.4820 C.ar  1 <1>  -0.1500 
  7 C        3.8620     2.4530    -0.5780 C.ar  1 <1>  -0.1430 
  8 C        4.8430     3.5920    -0.3510 C.3   1 <1>   0.5670 
  9 N        6.0710     2.9750     0.1820 N.4   1 <1>  -0.9060 
 10 C        4.3120     4.6400     0.6230 C.3   1 <1>  -0.2400 
 11 C        7.2750     3.8360     0.2730 C.3   1 <1>   0.4230 
 12 C        7.8070     4.1800    -1.1230 C.3   1 <1>  -0.1600 
 13 C        8.3450     3.0970     1.0780 C.3   1 <1>  -0.1600 
 14 C        9.1140     4.9730    -1.0360 C.3   1 <1>   0.3430 
 15 C        9.6440     3.9030     1.1470 C.3   1 <1>   0.3430 
 16 N       10.1210     4.2230    -0.2320 N.4   1 <1>  -0.9590 
 17 C       11.4050     4.9930    -0.1960 C.3   1 <1>   0.3430 
 18 C       12.5600     4.0910     0.2440 C.3   1 <1>  -0.1600 
 19 C       13.8940     4.8410     0.1630 C.3   1 <1>  -0.2400 
 20 H        2.4110     0.7660    -3.1430 H     1 <1>   0.1500 
 21 H        1.9460     0.1610     1.0410 H     1 <1>   0.1500 
 22 H        3.9660     2.6220    -2.7280 H     1 <1>   0.1500 
 23 H        3.4900     2.0050     1.5080 H     1 <1>   0.1500 
 24 H        5.0440     4.0610    -1.3010 H     1 <1>   0.0800 
 25 H        6.2440     2.1440    -0.3970 H     1 <1>   0.4500 
 26 H        5.8180     2.6090     1.1050 H     1 <1>   0.4500 
 27 H        4.1850     4.2420     1.6130 H     1 <1>   0.0800 
 28 H        3.3500     4.9790     0.2800 H     1 <1>   0.0800 
 29 H        4.9580     5.4970     0.6610 H     1 <1>   0.0800 
 30 H        7.0250     4.7500     0.7920 H     1 <1>   0.0800 
 31 H        7.0930     4.7850    -1.6530 H     1 <1>   0.0800 
 32 H        7.9820     3.2860    -1.6950 H     1 <1>   0.0800 
 33 H        8.5580     2.1360     0.6420 H     1 <1>   0.0800 
 34 H        7.9970     2.9390     2.0840 H     1 <1>   0.0800 
 35 H        8.9290     5.9340    -0.5810 H     1 <1>   0.0800 
 36 H        9.4970     5.1470    -2.0310 H     1 <1>   0.0800 
 37 H       10.3910     3.3290     1.6740 H     1 <1>   0.0800 
 38 H        9.4800     4.8170     1.6970 H     1 <1>   0.0800 
 39 H       10.3440     3.3420    -0.7190 H     1 <1>   0.4500 
 40 H       11.3220     5.8350     0.4730 H     1 <1>   0.0800 
 41 H       11.6280     5.3710    -1.1820 H     1 <1>   0.0800 
 42 H       12.6190     3.2280    -0.3970 H     1 <1>   0.0800 
 43 H       12.4230     3.7630     1.2590 H     1 <1>   0.0800 
 44 H       14.0950     5.1640    -0.8440 H     1 <1>   0.0800 
 45 H       14.6990     4.1950     0.4730 H     1 <1>   0.0800 
 46 H       13.8920     5.7030     0.8090 H     1 <1>   0.0800 
@<TRIPOS>BOND
  1   1   2  1   
  2   2   3  ar  
  3   2   4  ar  
  4   3   5  ar  
  5   3  20  1   
  6   4   6  ar  
  7   4  21  1   
  8   5   7  ar  
  9   5  22  1   
 10   6   7  ar  
 11   6  23  1   
 12   7   8  1   
 13   8   9  1   
 14   8  10  1   
 15   8  24  1   
 16   9  11  1   
 17   9  25  1   
 18   9  26  1   
 19  10  27  1   
 20  10  28  1   
 21  10  29  1   
 22  11  12  1   
 23  11  13  1   
 24  11  30  1   
 25  12  14  1   
 26  12  31  1   
 27  12  32  1   
 28  13  15  1   
 29  13  33  1   
 30  13  34  1   
 31  14  16  1   
 32  14  35  1   
 33  14  36  1   
 34  15  16  1   
 35  15  37  1   
 36  15  38  1   
 37  16  17  1   
 38  16  39  1   
 39  17  18  1   
 40  17  40  1   
 41  17  41  1   
 42  18  19  1   
 43  18  42  1   
 44  18  43  1   
 45  19  44  1   
 46  19  45  1   
 47  19  46  1   
@<TRIPOS>SUBSTRUCTURE
  1 ****   9 GROUP 4 **** **** 0

# MOE 2024.06 (io_trps.svl 2023.06)
