@<TRIPOS>MOLECULE
NONAME
34 35 1 0 0 
SMALL
USER_CHARGES


@<TRIPOS>ATOM
  1 CL      -0.4780     0.1090    -1.4790 Cl    1 <1>  -0.1770 
  2 C       -1.9330     0.8900    -0.9100 C.ar  1 <1>   0.1770 
  3 C       -2.0220     1.2790     0.4130 C.ar  1 <1>  -0.1500 
  4 C       -2.9760     1.1100    -1.7900 C.ar  1 <1>  -0.1500 
  5 C       -3.1770     1.8980     0.8590 C.ar  1 <1>  -0.1500 
  6 C       -4.1270     1.7280    -1.3340 C.ar  1 <1>  -0.1500 
  7 C       -4.2440     2.1340    -0.0050 C.ar  1 <1>   0.1170 
  8 N       -5.3930     2.7550     0.5060 N.am  1 <1>  -0.5470 
  9 C       -6.4020     3.4330    -0.1040 C.2   1 <1>   0.6900 
 10 O       -6.4320     3.6580    -1.2990 O.2   1 <1>  -0.5700 
 11 N       -7.4480     3.8460     0.6640 N.am  1 <1>  -0.6600 
 12 C       -8.0110     5.1990     0.3790 C.3   1 <1>   0.1400 
 13 C       -8.4970     2.8300     0.9590 C.3   1 <1>   0.1400 
 14 C       -9.0290     5.1310    -0.7780 C.3   1 <1>   0.3430 
 15 C       -9.5110     2.7590    -0.2040 C.3   1 <1>   0.3430 
 16 N      -10.1090     4.1060    -0.5280 N.4   1 <1>  -0.9590 
 17 C      -11.0140     4.0070    -1.7130 C.3   1 <1>   0.2630 
 18 H       -1.1970     1.0970     1.0780 H     1 <1>   0.1500 
 19 H       -2.8840     0.7990    -2.8150 H     1 <1>   0.1500 
 20 H       -3.2450     2.2020     1.8880 H     1 <1>   0.1500 
 21 H       -4.9340     1.8910    -2.0240 H     1 <1>   0.1500 
 22 H       -5.4360     2.8220     1.5190 H     1 <1>   0.3700 
 23 H       -7.2110     5.8670     0.1050 H     1 <1>   0.0800 
 24 H       -8.4780     5.5920     1.2650 H     1 <1>   0.0800 
 25 H       -8.9990     3.0830     1.8770 H     1 <1>   0.0800 
 26 H       -8.0390     1.8630     1.0880 H     1 <1>   0.0800 
 27 H       -8.4930     4.8780    -1.6790 H     1 <1>   0.0800 
 28 H       -9.4700     6.1050    -0.9200 H     1 <1>   0.0800 
 29 H      -10.2930     2.0620     0.0500 H     1 <1>   0.0800 
 30 H       -8.9970     2.3770    -1.0720 H     1 <1>   0.0800 
 31 H      -10.6560     4.4170     0.2870 H     1 <1>   0.4500 
 32 H      -10.4600     3.6880    -2.5810 H     1 <1>   0.0800 
 33 H      -11.4620     4.9650    -1.9240 H     1 <1>   0.0800 
 34 H      -11.8020     3.2950    -1.5260 H     1 <1>   0.0800 
@<TRIPOS>BOND
  1   1   2  1   
  2   2   3  ar  
  3   2   4  ar  
  4   3   5  ar  
  5   3  18  1   
  6   4   6  ar  
  7   4  19  1   
  8   5   7  ar  
  9   5  20  1   
 10   6   7  ar  
 11   6  21  1   
 12   7   8  1   
 13   8   9  am  
 14   8  22  1   
 15   9  10  2   
 16   9  11  am  
 17  11  12  1   
 18  11  13  1   
 19  12  14  1   
 20  12  23  1   
 21  12  24  1   
 22  13  15  1   
 23  13  25  1   
 24  13  26  1   
 25  14  16  1   
 26  14  27  1   
 27  14  28  1   
 28  15  16  1   
 29  15  29  1   
 30  15  30  1   
 31  16  17  1   
 32  16  31  1   
 33  17  32  1   
 34  17  33  1   
 35  17  34  1   
@<TRIPOS>SUBSTRUCTURE
  1 ****   9 GROUP 4 **** **** 0

# MOE 2024.06 (io_trps.svl 2023.06)
