@<TRIPOS>MOLECULE
NONAME
56 58 1 0 0 
SMALL
USER_CHARGES


@<TRIPOS>ATOM
  1 S       -0.2480     0.5050    -0.6710 S.3   1 <1>  -0.0800 
  2 C        0.3830    -1.1360    -0.4810 C.2   1 <1>   0.1040 
  3 C        1.3570     1.1620    -0.4740 C.2   1 <1>  -0.1400 
  4 N       -0.4650    -2.2330    -0.5350 N.am  1 <1>  -0.4940 
  5 C        1.7420    -1.1280    -0.2780 C.2   1 <1>  -0.0860 
  6 C        2.2610     0.2160    -0.2830 C.2   1 <1>  -0.1810 
  7 C        1.8380     2.5760    -0.4900 C.3   1 <1>   0.0200 
  8 C       -1.8100    -2.3670    -0.7800 C.2   1 <1>   0.5690 
  9 C        2.5390    -2.3060    -0.0830 C.2   1 <1>   0.8060 
 10 C        3.6270     0.8340    -0.1200 C.3   1 <1>   0.0210 
 11 C        3.3550     2.3610    -0.2510 C.3   1 <1>  -0.1600 
 12 O       -2.5310    -1.4430    -1.0700 O.2   1 <1>  -0.5700 
 13 C       -2.4000    -3.7870    -0.6640 C.3   1 <1>   0.1710 
 14 O        2.0580    -3.4280    -0.0540 O.2   1 <1>  -0.5700 
 15 O        3.8600    -2.1710     0.0770 O.3   1 <1>  -0.4300 
 16 N       -3.8630    -3.8700    -0.3720 N.3   1 <1>  -0.8100 
 17 C        4.7010    -3.2850     0.2730 C.3   1 <1>   0.1200 
 18 C       -4.4000    -5.2460    -0.4280 C.3   1 <1>   0.1100 
 19 C       -4.2490    -3.2000     0.8950 C.3   1 <1>   0.1100 
 20 C        6.1310    -2.7740     0.4160 C.3   1 <1>  -0.2400 
 21 C       -5.9320    -5.2770    -0.1860 C.3   1 <1>   0.3430 
 22 C       -5.7860    -3.1660     1.0820 C.3   1 <1>   0.3430 
 23 N       -6.4860    -3.8900    -0.0340 N.4   1 <1>  -0.9590 
 24 C       -7.9690    -3.8500     0.0230 C.3   1 <1>   0.3430 
 25 C       -8.4750    -2.4250    -0.2070 C.3   1 <1>  -0.1600 
 26 C      -10.0060    -2.3910    -0.2770 C.3   1 <1>  -0.2400 
 27 H        0.0370    -3.1130    -0.3740 H     1 <1>   0.3700 
 28 H        1.3830     3.1420     0.3040 H     1 <1>   0.0800 
 29 H        1.6430     3.0340    -1.4430 H     1 <1>   0.0800 
 30 H        4.2910     0.4900    -0.8940 H     1 <1>   0.0800 
 31 H        4.0370     0.5940     0.8460 H     1 <1>   0.0800 
 32 H        3.6580     2.8650     0.6500 H     1 <1>   0.0800 
 33 H        3.9160     2.7640    -1.0750 H     1 <1>   0.0800 
 34 H       -1.8610    -4.3180     0.1000 H     1 <1>   0.0800 
 35 H       -2.2110    -4.2790    -1.6020 H     1 <1>   0.0800 
 36 H        4.6080    -3.9390    -0.5770 H     1 <1>   0.0800 
 37 H        4.3840    -3.8000     1.1650 H     1 <1>   0.0800 
 38 H       -3.9110    -5.8640     0.3060 H     1 <1>   0.0800 
 39 H       -4.1950    -5.6680    -1.3980 H     1 <1>   0.0800 
 40 H       -3.8920    -2.1840     0.9010 H     1 <1>   0.0800 
 41 H       -3.7970    -3.7050     1.7320 H     1 <1>   0.0800 
 42 H        6.4310    -2.2530    -0.4750 H     1 <1>   0.0800 
 43 H        6.7980    -3.6040     0.5680 H     1 <1>   0.0800 
 44 H        6.2080    -2.1160     1.2630 H     1 <1>   0.0800 
 45 H       -6.1390    -5.8530     0.7000 H     1 <1>   0.0800 
 46 H       -6.4050    -5.7720    -1.0180 H     1 <1>   0.0800 
 47 H       -6.1020    -2.1360     1.1050 H     1 <1>   0.0800 
 48 H       -6.0400    -3.6080     2.0300 H     1 <1>   0.0800 
 49 H       -6.1490    -3.3980    -0.8800 H     1 <1>   0.4500 
 50 H       -8.3140    -4.2130     0.9780 H     1 <1>   0.0800 
 51 H       -8.3750    -4.4880    -0.7460 H     1 <1>   0.0800 
 52 H       -8.0810    -2.0450    -1.1340 H     1 <1>   0.0800 
 53 H       -8.1590    -1.7800     0.5930 H     1 <1>   0.0800 
 54 H      -10.3670    -3.0010    -1.0870 H     1 <1>   0.0800 
 55 H      -10.3440    -1.3820    -0.4420 H     1 <1>   0.0800 
 56 H      -10.4400    -2.7440     0.6430 H     1 <1>   0.0800 
@<TRIPOS>BOND
  1   1   2  1   
  2   1   3  1   
  3   2   4  1   
  4   2   5  2   
  5   3   6  2   
  6   3   7  1   
  7   4   8  am  
  8   4  27  1   
  9   5   6  1   
 10   5   9  1   
 11   6  10  1   
 12   7  11  1   
 13   7  28  1   
 14   7  29  1   
 15   8  12  2   
 16   8  13  1   
 17   9  14  2   
 18   9  15  1   
 19  10  11  1   
 20  10  30  1   
 21  10  31  1   
 22  11  32  1   
 23  11  33  1   
 24  13  16  1   
 25  13  34  1   
 26  13  35  1   
 27  15  17  1   
 28  16  18  1   
 29  16  19  1   
 30  17  20  1   
 31  17  36  1   
 32  17  37  1   
 33  18  21  1   
 34  18  38  1   
 35  18  39  1   
 36  19  22  1   
 37  19  40  1   
 38  19  41  1   
 39  20  42  1   
 40  20  43  1   
 41  20  44  1   
 42  21  23  1   
 43  21  45  1   
 44  21  46  1   
 45  22  23  1   
 46  22  47  1   
 47  22  48  1   
 48  23  24  1   
 49  23  49  1   
 50  24  25  1   
 51  24  50  1   
 52  24  51  1   
 53  25  26  1   
 54  25  52  1   
 55  25  53  1   
 56  26  54  1   
 57  26  55  1   
 58  26  56  1   
@<TRIPOS>SUBSTRUCTURE
  1 ****   4 GROUP 4 **** **** 0

# MOE 2024.06 (io_trps.svl 2023.06)
