@<TRIPOS>MOLECULE
NONAME
38 40 1 0 0 
SMALL
USER_CHARGES


@<TRIPOS>ATOM
  1 CL      -0.2420     2.3560    -1.7410 Cl    1 <1>  -0.1770 
  2 C        1.2440     2.2190    -0.8320 C.ar  1 <1>   0.1770 
  3 C        1.4260     2.8940     0.3820 C.ar  1 <1>  -0.1440 
  4 C        2.2280     1.4080    -1.3800 C.ar  1 <1>  -0.1500 
  5 C        2.6370     2.7390     1.0570 C.ar  1 <1>  -0.1500 
  6 C        0.3640     3.8000     1.0070 C.3   1 <1>   0.5020 
  7 C        3.4100     1.2820    -0.6830 C.ar  1 <1>   0.0830 
  8 C        3.6080     1.9290     0.5010 C.ar  1 <1>   0.0830 
  9 N       -0.7430     2.9640     1.4690 N.am  1 <1>  -0.7300 
 10 C       -0.0900     4.9420     0.1010 C.2   1 <1>  -0.1240 
 11 O        4.4930     0.5670    -1.0030 O.3   1 <1>  -0.3630 
 12 O        4.8250     1.6520     0.9800 O.3   1 <1>  -0.3630 
 13 C       -2.0230     3.1190     1.0980 C.2   1 <1>   0.6900 
 14 C       -1.4130     5.0760    -0.2100 C.2   1 <1>  -0.0290 
 15 C        1.0100     5.7580    -0.3200 C.2   1 <1>   0.7060 
 16 C        5.4410     0.7690     0.0430 C.3   1 <1>   0.4000 
 17 O       -2.8350     2.3290     1.5370 O.2   1 <1>  -0.5700 
 18 N       -2.3680     4.1570     0.2460 N.am  1 <1>  -0.4690 
 19 C       -1.9430     6.2340    -1.0590 C.3   1 <1>  -0.1020 
 20 O        1.0620     6.3440    -1.3830 O.2   1 <1>  -0.5700 
 21 O        2.0570     5.8740     0.5090 O.3   1 <1>  -0.4300 
 22 C       -3.7830     4.2080    -0.2380 C.3   1 <1>   0.0600 
 23 C        3.2100     6.6150     0.1550 C.3   1 <1>   0.0400 
 24 H        2.0760     0.8970    -2.3120 H     1 <1>   0.1500 
 25 H        2.8400     3.2320     1.9920 H     1 <1>   0.1500 
 26 H        0.7830     4.2500     1.8910 H     1 <1>   0.0800 
 27 H       -0.5170     2.1190     1.9860 H     1 <1>   0.3700 
 28 H        6.3280     1.2280    -0.3570 H     1 <1>   0.0800 
 29 H        5.6590    -0.1700     0.5200 H     1 <1>   0.0800 
 30 H       -2.1920     5.8820    -2.0440 H     1 <1>   0.0800 
 31 H       -1.2330     7.0310    -1.1600 H     1 <1>   0.0800 
 32 H       -2.8160     6.6660    -0.6060 H     1 <1>   0.0800 
 33 H       -4.3020     3.2880    -0.0300 H     1 <1>   0.0800 
 34 H       -3.8050     4.3570    -1.3020 H     1 <1>   0.0800 
 35 H       -4.3030     5.0110     0.2520 H     1 <1>   0.0800 
 36 H        3.9140     6.5620     0.9660 H     1 <1>   0.0800 
 37 H        2.9260     7.6380    -0.0250 H     1 <1>   0.0800 
 38 H        3.6380     6.1870    -0.7350 H     1 <1>   0.0800 
@<TRIPOS>BOND
  1   1   2  1   
  2   2   3  ar  
  3   2   4  ar  
  4   3   5  ar  
  5   3   6  1   
  6   4   7  ar  
  7   4  24  1   
  8   5   8  ar  
  9   5  25  1   
 10   6   9  1   
 11   6  10  1   
 12   6  26  1   
 13   7   8  ar  
 14   7  11  1   
 15   8  12  1   
 16   9  13  am  
 17   9  27  1   
 18  10  14  2   
 19  10  15  1   
 20  11  16  1   
 21  12  16  1   
 22  13  17  2   
 23  13  18  am  
 24  14  18  1   
 25  14  19  1   
 26  15  20  2   
 27  15  21  1   
 28  16  28  1   
 29  16  29  1   
 30  18  22  1   
 31  19  30  1   
 32  19  31  1   
 33  19  32  1   
 34  21  23  1   
 35  22  33  1   
 36  22  34  1   
 37  22  35  1   
 38  23  36  1   
 39  23  37  1   
 40  23  38  1   
@<TRIPOS>SUBSTRUCTURE
  1 ****   3 GROUP 4 **** **** 0

# MOE 2024.06 (io_trps.svl 2023.06)
