@<TRIPOS>MOLECULE
NONAME
41 42 1 0 0 
SMALL
USER_CHARGES


@<TRIPOS>ATOM
  1 CL       0.3640    -0.4980     0.2590 Cl    1 <1>  -0.1770 
  2 C       -1.2430    -1.1730     0.2360 C.ar  1 <1>   0.1770 
  3 C       -2.3140    -0.3710    -0.1030 C.ar  1 <1>  -0.1500 
  4 C       -1.4280    -2.5040     0.5560 C.ar  1 <1>  -0.1500 
  5 C       -3.5880    -0.9130    -0.1200 C.ar  1 <1>  -0.1500 
  6 C       -2.7060    -3.0340     0.5360 C.ar  1 <1>  -0.1500 
  7 C       -3.8210    -2.2560     0.1990 C.ar  1 <1>   0.0000 
  8 C       -5.1630    -2.8190     0.1810 C.ar  1 <1>   0.6200 
  9 N       -6.1780    -2.0130     0.4620 N.ar  1 <1>  -0.6200 
 10 N       -5.2860    -4.1160    -0.1160 N.ar  1 <1>  -0.6200 
 11 C       -7.3870    -2.5260     0.4080 C.ar  1 <1>   0.4270 
 12 C       -6.4890    -4.6300    -0.1170 C.ar  1 <1>   0.1670 
 13 N       -8.3770    -1.6060     0.6500 N.am  1 <1>  -0.5470 
 14 C       -7.6220    -3.8760     0.1460 C.ar  1 <1>   0.0860 
 15 C       -6.5580    -6.1220    -0.4050 C.3   1 <1>  -0.0970 
 16 C       -9.5030    -1.3740    -0.0830 C.2   1 <1>   0.5690 
 17 C       -8.9380    -4.4440     0.2040 C.2   1 <1>   0.4230 
 18 O       -9.6910    -1.9130    -1.1460 O.2   1 <1>  -0.5700 
 19 C      -10.5350    -0.3860     0.4670 C.3   1 <1>  -0.0190 
 20 O       -9.5760    -4.5070     1.2230 O.2   1 <1>  -0.5700 
 21 C       -9.5720    -5.0110    -1.0500 C.3   1 <1>  -0.1790 
 22 C      -11.8840    -1.0790     0.7200 C.3   1 <1>  -0.2400 
 23 C      -10.7260     0.8150    -0.4730 C.3   1 <1>  -0.2400 
 24 H       -2.1490     0.6620    -0.3500 H     1 <1>   0.1500 
 25 H       -0.5800    -3.1120     0.8160 H     1 <1>   0.1500 
 26 H       -4.4190    -0.2820    -0.3880 H     1 <1>   0.1500 
 27 H       -2.8430    -4.0720     0.7870 H     1 <1>   0.1500 
 28 H       -8.1360    -0.9130     1.3520 H     1 <1>   0.3700 
 29 H       -6.7830    -6.2830    -1.4440 H     1 <1>   0.0800 
 30 H       -7.3050    -6.6000     0.2020 H     1 <1>   0.0800 
 31 H       -5.6110    -6.5850    -0.1880 H     1 <1>   0.0800 
 32 H      -10.1790    -0.0140     1.4110 H     1 <1>   0.0800 
 33 H       -9.6430    -6.0800    -0.9740 H     1 <1>   0.0800 
 34 H      -10.5600    -4.6040    -1.1590 H     1 <1>   0.0800 
 35 H       -8.9980    -4.7470    -1.9190 H     1 <1>   0.0800 
 36 H      -12.2910    -1.4520    -0.2040 H     1 <1>   0.0800 
 37 H      -12.5870    -0.3940     1.1580 H     1 <1>   0.0800 
 38 H      -11.7510    -1.9120     1.3900 H     1 <1>   0.0800 
 39 H      -11.1000     0.4860    -1.4270 H     1 <1>   0.0800 
 40 H       -9.7880     1.3170    -0.6310 H     1 <1>   0.0800 
 41 H      -11.4250     1.5170    -0.0520 H     1 <1>   0.0800 
@<TRIPOS>BOND
  1   1   2  1   
  2   2   3  ar  
  3   2   4  ar  
  4   3   5  ar  
  5   3  24  1   
  6   4   6  ar  
  7   4  25  1   
  8   5   7  ar  
  9   5  26  1   
 10   6   7  ar  
 11   6  27  1   
 12   7   8  1   
 13   8   9  ar  
 14   8  10  ar  
 15   9  11  ar  
 16  10  12  ar  
 17  11  13  1   
 18  11  14  ar  
 19  12  14  ar  
 20  12  15  1   
 21  13  16  am  
 22  13  28  1   
 23  14  17  1   
 24  15  29  1   
 25  15  30  1   
 26  15  31  1   
 27  16  18  2   
 28  16  19  1   
 29  17  20  2   
 30  17  21  1   
 31  19  22  1   
 32  19  23  1   
 33  19  32  1   
 34  21  33  1   
 35  21  34  1   
 36  21  35  1   
 37  22  36  1   
 38  22  37  1   
 39  22  38  1   
 40  23  39  1   
 41  23  40  1   
 42  23  41  1   
@<TRIPOS>SUBSTRUCTURE
  1 ****   9 GROUP 4 **** **** 0

# MOE 2024.06 (io_trps.svl 2023.06)
