@<TRIPOS>MOLECULE
NONAME
49 51 1 0 0 
SMALL
USER_CHARGES


@<TRIPOS>ATOM
  1 O        0.7130    -0.0510     0.3560 O.3   1 <1>  -0.3630 
  2 C        1.7760     0.8060     0.3360 C.ar  1 <1>   0.0830 
  3 C       -0.5580     0.2880     0.8620 C.3   1 <1>   0.0400 
  4 C        1.8340     2.1020     0.8770 C.ar  1 <1>   0.0830 
  5 C        2.8900     0.2880    -0.3000 C.ar  1 <1>  -0.1500 
  6 O        0.7510     2.6350     1.5150 O.3   1 <1>  -0.3630 
  7 C        3.0190     2.8260     0.7530 C.ar  1 <1>  -0.1500 
  8 C        4.0640     1.0120    -0.4200 C.ar  1 <1>  -0.1430 
  9 C        0.7480     3.9310     2.0720 C.3   1 <1>   0.0400 
 10 C        4.1270     2.2930     0.1130 C.ar  1 <1>  -0.1430 
 11 C        5.2410     0.3790    -1.1410 C.3   1 <1>   0.4860 
 12 C        5.4030     3.1200     0.0210 C.3   1 <1>  -0.0160 
 13 N        6.5060     1.0280    -0.7100 N.4   1 <1>  -0.9590 
 14 C        6.4410     2.5050    -0.9210 C.3   1 <1>   0.3430 
 15 C        7.7030     0.4060    -1.3290 C.3   1 <1>   0.4860 
 16 C        8.9350     0.9800    -0.6590 C.ar  1 <1>  -0.1430 
 17 C        9.3080     0.6200     0.6340 C.ar  1 <1>  -0.1430 
 18 C        9.6990     1.9010    -1.3620 C.ar  1 <1>  -0.1500 
 19 C       10.4250     1.2110     1.2040 C.ar  1 <1>  -0.1500 
 20 C        8.5450    -0.4070     1.4630 C.3   1 <1>  -0.0970 
 21 C       10.8130     2.4790    -0.7830 C.ar  1 <1>  -0.1500 
 22 C       11.1780     2.1400     0.5070 C.ar  1 <1>  -0.1430 
 23 C       12.4010     2.7710     1.1500 C.3   1 <1>  -0.0970 
 24 H       -1.2160    -0.5460     0.7040 H     1 <1>   0.0800 
 25 H       -0.9260     1.1500     0.3340 H     1 <1>   0.0800 
 26 H       -0.4710     0.4900     1.9150 H     1 <1>   0.0800 
 27 H        2.8120    -0.7070    -0.7050 H     1 <1>   0.1500 
 28 H        3.0970     3.8170     1.1570 H     1 <1>   0.1500 
 29 H       -0.2200     4.1040     2.5080 H     1 <1>   0.0800 
 30 H        0.9280     4.6490     1.2920 H     1 <1>   0.0800 
 31 H        1.5040     3.9870     2.8350 H     1 <1>   0.0800 
 32 H        5.1070     0.4960    -2.2040 H     1 <1>   0.0800 
 33 H        5.2710    -0.6740    -0.9140 H     1 <1>   0.0800 
 34 H        5.8330     3.2100     1.0030 H     1 <1>   0.0800 
 35 H        5.1700     4.1140    -0.3200 H     1 <1>   0.0800 
 36 H        6.5920     0.8870     0.3030 H     1 <1>   0.4500 
 37 H        7.4000     2.9580    -0.7280 H     1 <1>   0.0800 
 38 H        6.1650     2.7130    -1.9420 H     1 <1>   0.0800 
 39 H        7.7280     0.6110    -2.3870 H     1 <1>   0.0800 
 40 H        7.6860    -0.6630    -1.1880 H     1 <1>   0.0800 
 41 H        9.4440     2.1830    -2.3700 H     1 <1>   0.1500 
 42 H       10.7240     0.9460     2.2040 H     1 <1>   0.1500 
 43 H        7.6910     0.0470     1.9320 H     1 <1>   0.0800 
 44 H        9.1770    -0.8010     2.2410 H     1 <1>   0.0800 
 45 H        8.2280    -1.2380     0.8610 H     1 <1>   0.0800 
 46 H       11.3990     3.1910    -1.3380 H     1 <1>   0.1500 
 47 H       13.2560     2.1360     1.0040 H     1 <1>   0.0800 
 48 H       12.2440     2.9030     2.2060 H     1 <1>   0.0800 
 49 H       12.6050     3.7330     0.7150 H     1 <1>   0.0800 
@<TRIPOS>BOND
  1   1   2  1   
  2   1   3  1   
  3   2   4  ar  
  4   2   5  ar  
  5   3  24  1   
  6   3  25  1   
  7   3  26  1   
  8   4   6  1   
  9   4   7  ar  
 10   5   8  ar  
 11   5  27  1   
 12   6   9  1   
 13   7  10  ar  
 14   7  28  1   
 15   8  10  ar  
 16   8  11  1   
 17   9  29  1   
 18   9  30  1   
 19   9  31  1   
 20  10  12  1   
 21  11  13  1   
 22  11  32  1   
 23  11  33  1   
 24  12  14  1   
 25  12  34  1   
 26  12  35  1   
 27  13  14  1   
 28  13  15  1   
 29  13  36  1   
 30  14  37  1   
 31  14  38  1   
 32  15  16  1   
 33  15  39  1   
 34  15  40  1   
 35  16  17  ar  
 36  16  18  ar  
 37  17  19  ar  
 38  17  20  1   
 39  18  21  ar  
 40  18  41  1   
 41  19  22  ar  
 42  19  42  1   
 43  20  43  1   
 44  20  44  1   
 45  20  45  1   
 46  21  22  ar  
 47  21  46  1   
 48  22  23  1   
 49  23  47  1   
 50  23  48  1   
 51  23  49  1   
@<TRIPOS>SUBSTRUCTURE
  1 ****  13 GROUP 4 **** **** 0

# MOE 2024.06 (io_trps.svl 2023.06)
