@<TRIPOS>MOLECULE
NONAME
24 24 1 0 0 
SMALL
USER_CHARGES


@<TRIPOS>ATOM
  1 S       -0.0510    -0.3030    -0.0530 S.3   1 <1>  -0.3710 
  2 C       -1.5040     0.7480    -0.0610 C.2   1 <1>   0.6510 
  3 C        1.3420     0.9090     0.0010 C.3   1 <1>   0.0700 
  4 N       -1.3040     2.0120    -0.0310 N.2   1 <1>  -0.6210 
  5 N       -2.7250     0.1060    -0.0990 N.am  1 <1>  -0.4200 
  6 C        2.6560     0.1250     0.0120 C.3   1 <1>  -0.1600 
  7 C       -2.4030     2.8240    -0.0370 C.2   1 <1>   0.0210 
  8 C       -3.8530     0.9170    -0.1060 C.2   1 <1>   0.6160 
  9 C       -2.8350    -1.3790    -0.1320 C.3   1 <1>   0.0600 
 10 C        3.8630     1.0680     0.0560 C.3   1 <1>  -0.2400 
 11 O       -2.2080     4.0410    -0.0080 O.3   1 <1>  -0.8500 
 12 C       -3.6740     2.2870    -0.0740 C.2   1 <1>  -0.1360 
 13 O       -4.9790     0.3860    -0.1400 O.2   1 <1>  -0.5700 
 14 H        1.2150     1.5010     0.8910 H     1 <1>   0.0800 
 15 H        1.2510     1.5370    -0.8680 H     1 <1>   0.0800 
 16 H        2.7100    -0.4850    -0.8730 H     1 <1>   0.0800 
 17 H        2.6740    -0.5210     0.8720 H     1 <1>   0.0800 
 18 H       -2.3370    -1.7570    -1.0070 H     1 <1>   0.0800 
 19 H       -3.8620    -1.6950    -0.1590 H     1 <1>   0.0800 
 20 H       -2.3730    -1.7920     0.7470 H     1 <1>   0.0800 
 21 H        3.8650     1.7130    -0.8060 H     1 <1>   0.0800 
 22 H        4.7760     0.5000     0.0630 H     1 <1>   0.0800 
 23 H        3.8290     1.6770     0.9430 H     1 <1>   0.0800 
 24 H       -4.5170     2.9440    -0.0780 H     1 <1>   0.1500 
@<TRIPOS>BOND
  1   1   2  1   
  2   1   3  1   
  3   2   4  2   
  4   2   5  1   
  5   3   6  1   
  6   3  14  1   
  7   3  15  1   
  8   4   7  1   
  9   5   8  am  
 10   5   9  1   
 11   6  10  1   
 12   6  16  1   
 13   6  17  1   
 14   7  11  1   
 15   7  12  2   
 16   8  12  1   
 17   8  13  2   
 18   9  18  1   
 19   9  19  1   
 20   9  20  1   
 21  10  21  1   
 22  10  22  1   
 23  10  23  1   
 24  12  24  1   
@<TRIPOS>SUBSTRUCTURE
  1 ****   2 GROUP 4 **** **** 0

# MOE 2024.06 (io_trps.svl 2023.06)
