@<TRIPOS>MOLECULE
NONAME
53 54 1 0 0 
SMALL
USER_CHARGES


@<TRIPOS>ATOM
  1 S        1.1900    -0.8380     0.7530 S.o2  1 <1>   1.4470 
  2 O        2.3420    -1.5530     1.2610 O.2   1 <1>  -0.6500 
  3 O        0.6830     0.2930     1.4990 O.2   1 <1>  -0.6500 
  4 N        1.6330    -0.2980    -0.7950 N.am  1 <1>  -0.8490 
  5 C       -0.1520    -2.0180     0.4620 C.ar  1 <1>  -0.0090 
  6 C        2.2750     1.0460    -0.7530 C.3   1 <1>   0.2570 
  7 C        2.2970    -1.3370    -1.5830 C.3   1 <1>   0.1960 
  8 C       -1.3190    -1.6410    -0.1940 C.ar  1 <1>   0.0830 
  9 C       -0.0510    -3.3370     0.8940 C.ar  1 <1>  -0.1500 
 10 C        3.6580     1.1700    -0.0910 C.2   1 <1>   0.5690 
 11 C        2.4270    -0.9240    -3.0470 C.3   1 <1>  -0.2400 
 12 O       -1.4730    -0.3790    -0.6410 O.3   1 <1>  -0.3630 
 13 C       -2.3390    -2.5520    -0.4220 C.ar  1 <1>  -0.1500 
 14 C       -1.0650    -4.2560     0.6770 C.ar  1 <1>  -0.1440 
 15 O        3.7820     1.8980     0.8640 O.2   1 <1>  -0.5700 
 16 N        4.7210     0.5120    -0.6480 N.am  1 <1>  -0.5470 
 17 C       -2.3030     0.4640     0.1260 C.3   1 <1>   0.0400 
 18 C       -2.2140    -3.8570     0.0150 C.ar  1 <1>  -0.1500 
 19 C       -0.9260    -5.6880     1.1630 C.3   1 <1>  -0.0970 
 20 C        6.0680     0.5800    -0.2750 C.ar  1 <1>   0.1170 
 21 C        6.5740    -0.0720     0.8530 C.ar  1 <1>  -0.1430 
 22 C        6.9360     1.3060    -1.0820 C.ar  1 <1>  -0.1500 
 23 C        7.9280     0.0140     1.1400 C.ar  1 <1>  -0.1500 
 24 C        5.6870    -0.8900     1.7870 C.3   1 <1>  -0.0170 
 25 C        8.2830     1.3880    -0.7880 C.ar  1 <1>  -0.1500 
 26 C        8.7810     0.7390     0.3270 C.ar  1 <1>  -0.1500 
 27 C        5.5600    -2.3320     1.2910 C.3   1 <1>  -0.2400 
 28 H        1.6150     1.7230    -0.2390 H     1 <1>   0.0800 
 29 H        2.3560     1.4280    -1.7520 H     1 <1>   0.0800 
 30 H        1.6980    -2.2330    -1.5470 H     1 <1>   0.0800 
 31 H        3.2580    -1.5800    -1.1630 H     1 <1>   0.0800 
 32 H        0.8410    -3.6480     1.4130 H     1 <1>   0.1500 
 33 H        3.1280    -0.1210    -3.1750 H     1 <1>   0.0800 
 34 H        1.4660    -0.6290    -3.4310 H     1 <1>   0.0800 
 35 H        2.7750    -1.7620    -3.6230 H     1 <1>   0.0800 
 36 H       -3.2250    -2.2370    -0.9440 H     1 <1>   0.1500 
 37 H        4.5220    -0.0790    -1.4500 H     1 <1>   0.3700 
 38 H       -2.2870     1.4430    -0.3170 H     1 <1>   0.0800 
 39 H       -1.9210     0.5110     1.1310 H     1 <1>   0.0800 
 40 H       -3.3040     0.0720     0.1220 H     1 <1>   0.0800 
 41 H       -3.0110    -4.5590    -0.1620 H     1 <1>   0.1500 
 42 H        0.1100    -5.9510     1.2810 H     1 <1>   0.0800 
 43 H       -1.3690    -6.3670     0.4570 H     1 <1>   0.0800 
 44 H       -1.4220    -5.8000     2.1100 H     1 <1>   0.0800 
 45 H        6.5500     1.8160    -1.9450 H     1 <1>   0.1500 
 46 H        8.3270    -0.4850     2.0050 H     1 <1>   0.1500 
 47 H        4.7130    -0.4440     1.8710 H     1 <1>   0.0800 
 48 H        6.1090    -0.8920     2.7770 H     1 <1>   0.0800 
 49 H        8.9440     1.9560    -1.4200 H     1 <1>   0.1500 
 50 H        9.8290     0.7980     0.5630 H     1 <1>   0.1500 
 51 H        5.1200    -2.3470     0.3120 H     1 <1>   0.0800 
 52 H        4.9280    -2.8910     1.9580 H     1 <1>   0.0800 
 53 H        6.5270    -2.7990     1.2480 H     1 <1>   0.0800 
@<TRIPOS>BOND
  1   1   2  2   
  2   1   3  2   
  3   1   4  am  
  4   1   5  1   
  5   4   6  1   
  6   4   7  1   
  7   5   8  ar  
  8   5   9  ar  
  9   6  10  1   
 10   6  28  1   
 11   6  29  1   
 12   7  11  1   
 13   7  30  1   
 14   7  31  1   
 15   8  12  1   
 16   8  13  ar  
 17   9  14  ar  
 18   9  32  1   
 19  10  15  2   
 20  10  16  am  
 21  11  33  1   
 22  11  34  1   
 23  11  35  1   
 24  12  17  1   
 25  13  18  ar  
 26  13  36  1   
 27  14  18  ar  
 28  14  19  1   
 29  16  20  1   
 30  16  37  1   
 31  17  38  1   
 32  17  39  1   
 33  17  40  1   
 34  18  41  1   
 35  19  42  1   
 36  19  43  1   
 37  19  44  1   
 38  20  21  ar  
 39  20  22  ar  
 40  21  23  ar  
 41  21  24  1   
 42  22  25  ar  
 43  22  45  1   
 44  23  26  ar  
 45  23  46  1   
 46  24  27  1   
 47  24  47  1   
 48  24  48  1   
 49  25  26  ar  
 50  25  49  1   
 51  26  50  1   
 52  27  51  1   
 53  27  52  1   
 54  27  53  1   
@<TRIPOS>SUBSTRUCTURE
  1 ****   2 GROUP 4 **** **** 0

# MOE 2024.06 (io_trps.svl 2023.06)
