@<TRIPOS>MOLECULE
NONAME
40 41 1 0 0 
SMALL
USER_CHARGES


@<TRIPOS>ATOM
  1 O       -0.4430    -0.0110     0.0890 O.2   1 <1>  -0.5700 
  2 C       -0.9950    -1.0880     0.2130 C.2   1 <1>   0.6900 
  3 N       -2.3490    -1.1590     0.4430 N.am  1 <1>  -0.6600 
  4 N       -0.2920    -2.2550     0.1130 N.am  1 <1>  -0.5470 
  5 C       -3.1690     0.0890     0.4680 C.3   1 <1>   0.2350 
  6 C       -3.0000    -2.3770     1.0020 C.3   1 <1>   0.1400 
  7 C        1.0740    -2.5380    -0.0340 C.ar  1 <1>   0.1170 
  8 C       -4.3790    -0.0270    -0.4660 C.3   1 <1>  -0.1950 
  9 C       -3.4310    -3.3240    -0.1250 C.3   1 <1>  -0.1600 
 10 C        1.4670    -3.7640    -0.5790 C.ar  1 <1>  -0.1440 
 11 C        2.0590    -1.6410     0.3700 C.ar  1 <1>  -0.1500 
 12 C       -5.5310     0.9190    -0.3260 C.3   1 <1>  -0.2000 
 13 C       -5.7100    -0.5360    -0.0010 C.3   1 <1>  -0.2000 
 14 C       -4.0050    -4.6290     0.4370 C.3   1 <1>  -0.2400 
 15 C        2.8150    -4.0630    -0.7100 C.ar  1 <1>  -0.1500 
 16 C        0.4390    -4.7890    -1.0440 C.3   1 <1>  -0.0970 
 17 C        3.4000    -1.9450     0.2350 C.ar  1 <1>  -0.1500 
 18 C        3.7800    -3.1580    -0.3060 C.ar  1 <1>  -0.1500 
 19 H       -0.9010    -3.0570     0.0290 H     1 <1>   0.3700 
 20 H       -2.5830     0.9340     0.1500 H     1 <1>   0.0800 
 21 H       -3.4940     0.2800     1.4750 H     1 <1>   0.0800 
 22 H       -3.8580    -2.0940     1.5880 H     1 <1>   0.0800 
 23 H       -2.3130    -2.8780     1.6630 H     1 <1>   0.0800 
 24 H       -4.0760    -0.2490    -1.4750 H     1 <1>   0.1000 
 25 H       -2.5950    -3.5540    -0.7590 H     1 <1>   0.0800 
 26 H       -4.1810    -2.8450    -0.7290 H     1 <1>   0.0800 
 27 H        1.7780    -0.6970     0.7980 H     1 <1>   0.1500 
 28 H       -5.9890     1.3090    -1.2190 H     1 <1>   0.1000 
 29 H       -5.5340     1.6300     0.4820 H     1 <1>   0.1000 
 30 H       -5.8440    -0.8120     1.0300 H     1 <1>   0.1000 
 31 H       -6.2900    -1.1480    -0.6700 H     1 <1>   0.1000 
 32 H       -3.2700    -5.1440     1.0300 H     1 <1>   0.0800 
 33 H       -4.3070    -5.2740    -0.3700 H     1 <1>   0.0800 
 34 H       -4.8660    -4.4270     1.0500 H     1 <1>   0.0800 
 35 H        3.1260    -5.0030    -1.1300 H     1 <1>   0.1500 
 36 H       -0.1520    -5.1240    -0.2110 H     1 <1>   0.0800 
 37 H        0.9200    -5.6450    -1.4820 H     1 <1>   0.0800 
 38 H       -0.2060    -4.3520    -1.7860 H     1 <1>   0.0800 
 39 H        4.1450    -1.2360     0.5510 H     1 <1>   0.1500 
 40 H        4.8240    -3.3980    -0.4130 H     1 <1>   0.1500 
@<TRIPOS>BOND
  1   1   2  2   
  2   2   3  am  
  3   2   4  am  
  4   3   5  1   
  5   3   6  1   
  6   4   7  1   
  7   4  19  1   
  8   5   8  1   
  9   5  20  1   
 10   5  21  1   
 11   6   9  1   
 12   6  22  1   
 13   6  23  1   
 14   7  10  ar  
 15   7  11  ar  
 16   8  12  1   
 17   8  13  1   
 18   8  24  1   
 19   9  14  1   
 20   9  25  1   
 21   9  26  1   
 22  10  15  ar  
 23  10  16  1   
 24  11  17  ar  
 25  11  27  1   
 26  12  13  1   
 27  12  28  1   
 28  12  29  1   
 29  13  30  1   
 30  13  31  1   
 31  14  32  1   
 32  14  33  1   
 33  14  34  1   
 34  15  18  ar  
 35  15  35  1   
 36  16  36  1   
 37  16  37  1   
 38  16  38  1   
 39  17  18  ar  
 40  17  39  1   
 41  18  40  1   
@<TRIPOS>SUBSTRUCTURE
  1 ****   4 GROUP 4 **** **** 0

# MOE 2024.06 (io_trps.svl 2023.06)
