@<TRIPOS>MOLECULE
Structure1952
28 29 1 0 0 
SMALL
USER_CHARGES


@<TRIPOS>ATOM
  1 O        0.1790     0.4510     1.1750 O.2   1 <1>  -0.5700 
  2 C        0.4710     1.4510     0.5490 C.2   1 <1>   0.8060 
  3 O        1.7240     1.5740     0.1000 O.3   1 <1>  -0.4300 
  4 C       -0.4510     2.5220     0.2590 C.2   1 <1>  -0.0860 
  5 C        2.6960     0.5790     0.3290 C.3   1 <1>   0.1200 
  6 C       -1.8480     2.3980     0.2130 C.2   1 <1>   0.2030 
  7 C       -0.2470     3.8450    -0.0340 C.2   1 <1>  -0.3320 
  8 C        4.0030     1.0420    -0.3060 C.3   1 <1>  -0.2400 
  9 N       -2.4430     3.5130    -0.0720 N.2   1 <1>  -0.7070 
 10 C       -2.6250     1.1120     0.4530 C.3   1 <1>  -0.0140 
 11 N       -1.4530     4.4010    -0.2260 N.pl3 1 <1>   0.3000 
 12 C        1.0420     4.6470    -0.1410 C.3   1 <1>  -0.0600 
 13 C       -2.5710     0.0140    -0.5680 C.3   1 <1>  -0.2000 
 14 C       -3.8410     0.7780    -0.3600 C.3   1 <1>  -0.2000 
 15 H        2.3540    -0.3410    -0.1160 H     1 <1>   0.0800 
 16 H        2.8080     0.4480     1.3930 H     1 <1>   0.0800 
 17 H        3.8730     1.1800    -1.3640 H     1 <1>   0.0800 
 18 H        4.7650     0.2990    -0.1490 H     1 <1>   0.0800 
 19 H        4.3270     1.9640     0.1420 H     1 <1>   0.0800 
 20 H       -2.6330     0.8310     1.4910 H     1 <1>   0.1000 
 21 H       -1.6410     5.3840    -0.4610 H     1 <1>   0.2700 
 22 H        1.8810     4.0870     0.2300 H     1 <1>   0.0800 
 23 H        0.9660     5.5510     0.4370 H     1 <1>   0.0800 
 24 H        1.2330     4.9040    -1.1670 H     1 <1>   0.0800 
 25 H       -2.4970    -0.9990    -0.2140 H     1 <1>   0.1000 
 26 H       -2.0140     0.1800    -1.4730 H     1 <1>   0.1000 
 27 H       -4.1560     1.4890    -1.1050 H     1 <1>   0.1000 
 28 H       -4.6680     0.3010     0.1340 H     1 <1>   0.1000 
@<TRIPOS>BOND
  1   1   2  2   
  2   2   3  1   
  3   2   4  1   
  4   3   5  1   
  5   4   6  1   
  6   4   7  2   
  7   5   8  1   
  8   5  15  1   
  9   5  16  1   
 10   6   9  2   
 11   6  10  1   
 12   7  11  1   
 13   7  12  1   
 14   8  17  1   
 15   8  18  1   
 16   8  19  1   
 17   9  11  1   
 18  10  13  1   
 19  10  14  1   
 20  10  20  1   
 21  11  21  1   
 22  12  22  1   
 23  12  23  1   
 24  12  24  1   
 25  13  14  1   
 26  13  25  1   
 27  13  26  1   
 28  14  27  1   
 29  14  28  1   
@<TRIPOS>SUBSTRUCTURE
  1 ****   4 GROUP 4 **** **** 0

# MOE 2024.06 (io_trps.svl 2023.06)
