@<TRIPOS>MOLECULE
NONAME
34 35 1 0 0 
SMALL
USER_CHARGES


@<TRIPOS>ATOM
  1 BR       0.9580     0.1260     1.5720 Br    1 <1>  -0.1110 
  2 C        0.2960    -1.5680     0.9400 C.ar  1 <1>   0.1110 
  3 C       -0.9760    -1.9600     1.2940 C.ar  1 <1>  -0.1500 
  4 C        1.1160    -2.3460     0.1470 C.ar  1 <1>  -0.1500 
  5 C       -1.4810    -3.1800     0.8430 C.ar  1 <1>   0.0860 
  6 C        0.6350    -3.5630    -0.3000 C.ar  1 <1>  -0.1500 
  7 C       -0.6520    -3.9840     0.0440 C.ar  1 <1>   0.0830 
  8 C       -2.8230    -3.5690     1.2280 C.2   1 <1>   0.5440 
  9 O       -1.1460    -5.1760    -0.3740 O.3   1 <1>  -0.3630 
 10 O       -3.0880    -3.6520     2.4140 O.2   1 <1>  -0.5700 
 11 N       -3.8300    -3.7920     0.3100 N.am  1 <1>  -0.6600 
 12 C       -0.3680    -6.1400    -1.0420 C.3   1 <1>   0.1200 
 13 C       -3.6960    -3.5690    -1.1600 C.3   1 <1>   0.1400 
 14 C       -5.1660    -4.3290     0.7040 C.3   1 <1>   0.1400 
 15 C       -1.2470    -7.3640    -1.2790 C.3   1 <1>  -0.2400 
 16 C       -4.9120    -2.8040    -1.7080 C.3   1 <1>   0.1200 
 17 C       -6.2940    -3.5150     0.0490 C.3   1 <1>   0.1200 
 18 O       -6.1070    -3.4320    -1.3370 O.3   1 <1>  -0.5600 
 19 H       -1.5830    -1.3320     1.9220 H     1 <1>   0.1500 
 20 H        2.1040    -2.0060    -0.1080 H     1 <1>   0.1500 
 21 H        1.2760    -4.1670    -0.9140 H     1 <1>   0.1500 
 22 H        0.4740    -6.3910    -0.4200 H     1 <1>   0.0800 
 23 H       -0.0350    -5.7260    -1.9780 H     1 <1>   0.0800 
 24 H       -3.6240    -4.5230    -1.6540 H     1 <1>   0.0800 
 25 H       -2.8050    -3.0110    -1.3800 H     1 <1>   0.0800 
 26 H       -5.2880    -4.3020     1.7730 H     1 <1>   0.0800 
 27 H       -5.2390    -5.3550     0.3900 H     1 <1>   0.0800 
 28 H       -1.5900    -7.7590    -0.3380 H     1 <1>   0.0800 
 29 H       -0.6840    -8.1260    -1.7860 H     1 <1>   0.0800 
 30 H       -2.0950    -7.1000    -1.8860 H     1 <1>   0.0800 
 31 H       -4.8780    -2.7730    -2.7820 H     1 <1>   0.0800 
 32 H       -4.9230    -1.7950    -1.3330 H     1 <1>   0.0800 
 33 H       -6.3230    -2.5200     0.4550 H     1 <1>   0.0800 
 34 H       -7.2420    -3.9900     0.2250 H     1 <1>   0.0800 
@<TRIPOS>BOND
  1   1   2  1   
  2   2   3  ar  
  3   2   4  ar  
  4   3   5  ar  
  5   3  19  1   
  6   4   6  ar  
  7   4  20  1   
  8   5   7  ar  
  9   5   8  1   
 10   6   7  ar  
 11   6  21  1   
 12   7   9  1   
 13   8  10  2   
 14   8  11  am  
 15   9  12  1   
 16  11  13  1   
 17  11  14  1   
 18  12  15  1   
 19  12  22  1   
 20  12  23  1   
 21  13  16  1   
 22  13  24  1   
 23  13  25  1   
 24  14  17  1   
 25  14  26  1   
 26  14  27  1   
 27  15  28  1   
 28  15  29  1   
 29  15  30  1   
 30  16  18  1   
 31  16  31  1   
 32  16  32  1   
 33  17  18  1   
 34  17  33  1   
 35  17  34  1   
@<TRIPOS>SUBSTRUCTURE
  1 ****   5 GROUP 4 **** **** 0

# MOE 2024.06 (io_trps.svl 2023.06)
