@<TRIPOS>MOLECULE
NONAME
48 51 1 0 0 
SMALL
USER_CHARGES


@<TRIPOS>ATOM
  1 O        0.0940     1.9640     1.4450 O.2   1 <1>  -0.5700 
  2 C        0.2030     0.8570     0.9880 C.2   1 <1>   0.4950 
  3 C        1.3170     0.3760     0.2190 C.2   1 <1>  -0.1240 
  4 C       -0.9600    -0.0930     1.2340 C.3   1 <1>  -0.0990 
  5 C        1.3810    -0.9030    -0.2120 C.2   1 <1>  -0.0620 
  6 C        2.4510     1.3490    -0.1460 C.3   1 <1>   0.4810 
  7 C       -0.5070    -1.5570     1.3210 C.3   1 <1>  -0.1600 
  8 O        2.3770    -1.3790    -0.9570 O.3   1 <1>  -0.1530 
  9 C        0.3260    -1.9550     0.0960 C.3   1 <1>  -0.0220 
 10 C        3.6190     0.6420    -0.8600 C.2   1 <1>  -0.1240 
 11 C        2.9350     2.1610     1.0720 C.2   1 <1>   0.5690 
 12 C        1.8800     2.4820    -1.0020 C.ar  1 <1>  -0.1440 
 13 C        3.4750    -0.6680    -1.2310 C.2   1 <1>   0.1770 
 14 C        4.7950     1.4190    -1.0770 C.2   1 <1>   0.7060 
 15 O        3.5130     1.7030     2.0320 O.2   1 <1>  -0.5700 
 16 N        2.6470     3.4750     0.8940 N.am  1 <1>  -0.5470 
 17 C        2.0230     3.6810    -0.3270 C.ar  1 <1>   0.1170 
 18 C        1.2900     2.4390    -2.2520 C.ar  1 <1>  -0.1500 
 19 N        4.3940    -1.4130    -1.9070 N.pl3 1 <1>  -0.9000 
 20 O        4.8330     2.6360    -1.0460 O.2   1 <1>  -0.5700 
 21 O        5.9580     0.7880    -1.3170 O.3   1 <1>  -0.4300 
 22 C        1.5710     4.8640    -0.8870 C.ar  1 <1>  -0.1500 
 23 C        0.8370     3.6230    -2.8170 C.ar  1 <1>  -0.1500 
 24 C        7.1940     1.4750    -1.4420 C.3   1 <1>   0.1200 
 25 C        0.9760     4.8270    -2.1380 C.ar  1 <1>  -0.1500 
 26 C        7.6830     1.9260    -0.0600 C.3   1 <1>   0.1200 
 27 O        9.0220     2.3180    -0.1430 O.3   1 <1>  -0.5600 
 28 C        9.9490     1.3060     0.0940 C.3   1 <1>   0.0400 
 29 H       -1.6660     0.0270     0.4330 H     1 <1>   0.0800 
 30 H       -1.4500     0.1850     2.1510 H     1 <1>   0.0800 
 31 H       -1.3610    -2.2060     1.4110 H     1 <1>   0.0800 
 32 H        0.0970    -1.6800     2.2050 H     1 <1>   0.0800 
 33 H        0.8030    -2.9000     0.2900 H     1 <1>   0.0800 
 34 H       -0.3100    -2.0730    -0.7640 H     1 <1>   0.0800 
 35 H        2.8630     4.1860     1.5910 H     1 <1>   0.3700 
 36 H        1.1820     1.5070    -2.7790 H     1 <1>   0.1500 
 37 H        5.3390    -1.0580    -2.1000 H     1 <1>   0.4000 
 38 H        4.2440    -2.4030    -2.1180 H     1 <1>   0.4000 
 39 H        1.6850     5.7900    -0.3540 H     1 <1>   0.1500 
 40 H        0.3740     3.6090    -3.7890 H     1 <1>   0.1500 
 41 H        7.0650     2.3190    -2.0980 H     1 <1>   0.0800 
 42 H        7.8950     0.7870    -1.8790 H     1 <1>   0.0800 
 43 H        0.6190     5.7380    -2.5870 H     1 <1>   0.1500 
 44 H        7.5840     1.1390     0.6680 H     1 <1>   0.0800 
 45 H        7.1180     2.7830     0.2640 H     1 <1>   0.0800 
 46 H       10.9340     1.7230    -0.0200 H     1 <1>   0.0800 
 47 H        9.8070     0.5120    -0.6180 H     1 <1>   0.0800 
 48 H        9.8250     0.9410     1.0990 H     1 <1>   0.0800 
@<TRIPOS>BOND
  1   1   2  2   
  2   2   3  1   
  3   2   4  1   
  4   3   5  2   
  5   3   6  1   
  6   4   7  1   
  7   4  29  1   
  8   4  30  1   
  9   5   8  1   
 10   5   9  1   
 11   6  10  1   
 12   6  11  1   
 13   6  12  1   
 14   7   9  1   
 15   7  31  1   
 16   7  32  1   
 17   8  13  1   
 18   9  33  1   
 19   9  34  1   
 20  10  13  2   
 21  10  14  1   
 22  11  15  2   
 23  11  16  am  
 24  12  17  ar  
 25  12  18  ar  
 26  13  19  1   
 27  14  20  2   
 28  14  21  1   
 29  16  17  1   
 30  16  35  1   
 31  17  22  ar  
 32  18  23  ar  
 33  18  36  1   
 34  19  37  1   
 35  19  38  1   
 36  21  24  1   
 37  22  25  ar  
 38  22  39  1   
 39  23  25  ar  
 40  23  40  1   
 41  24  26  1   
 42  24  41  1   
 43  24  42  1   
 44  25  43  1   
 45  26  27  1   
 46  26  44  1   
 47  26  45  1   
 48  27  28  1   
 49  28  46  1   
 50  28  47  1   
 51  28  48  1   
@<TRIPOS>SUBSTRUCTURE
  1 ****   6 GROUP 4 **** **** 0

# MOE 2024.06 (io_trps.svl 2023.06)
