@<TRIPOS>MOLECULE
NONAME
36 36 1 0 0 
SMALL
USER_CHARGES


@<TRIPOS>ATOM
  1 S       -0.1600     0.4540    -0.8190 S.o2  1 <1>   1.4470 
  2 O       -1.0400     1.4130    -1.4530 O.2   1 <1>  -0.6500 
  3 O       -0.2740    -0.9450    -1.1690 O.2   1 <1>  -0.6500 
  4 N       -0.4250     0.5800     0.8550 N.am  1 <1>  -0.8490 
  5 C        1.5680     0.9750    -1.0270 C.ar  1 <1>  -0.0090 
  6 C       -1.6250    -0.1460     1.2770 C.3   1 <1>   0.1160 
  7 C       -0.4820     1.9670     1.3280 C.3   1 <1>   0.1160 
  8 C        2.5510     0.5860    -0.1280 C.ar  1 <1>  -0.1500 
  9 C        1.9500     1.7650    -2.1040 C.ar  1 <1>  -0.1500 
 10 C        3.8880     0.9610    -0.2620 C.ar  1 <1>   0.0860 
 11 C        3.2650     2.1590    -2.2680 C.ar  1 <1>  -0.1500 
 12 C        4.8810     0.5310     0.7050 C.2   1 <1>   0.5440 
 13 C        4.2220     1.7630    -1.3530 C.ar  1 <1>  -0.1500 
 14 O        4.5830     0.3950     1.8750 O.2   1 <1>  -0.5700 
 15 N        6.1620     0.2650     0.3090 N.am  1 <1>  -0.7300 
 16 C        7.2560    -0.1710     1.1840 C.3   1 <1>   0.2200 
 17 C        8.4120     0.8080     1.0220 C.3   1 <1>  -0.2400 
 18 C        7.6610    -1.5820     0.7720 C.3   1 <1>  -0.2400 
 19 H       -1.5340    -1.1880     1.0200 H     1 <1>   0.0800 
 20 H       -2.4980     0.2560     0.7890 H     1 <1>   0.0800 
 21 H       -1.7480    -0.0730     2.3440 H     1 <1>   0.0800 
 22 H        0.4220     2.4870     1.0590 H     1 <1>   0.0800 
 23 H       -0.5740     1.9870     2.4000 H     1 <1>   0.0800 
 24 H       -1.3230     2.4820     0.8920 H     1 <1>   0.0800 
 25 H        2.2750    -0.0320     0.7110 H     1 <1>   0.1500 
 26 H        1.2070     2.0770    -2.8210 H     1 <1>   0.1500 
 27 H        3.5410     2.7770    -3.1060 H     1 <1>   0.1500 
 28 H        5.2390     2.0870    -1.4820 H     1 <1>   0.1500 
 29 H        6.3860     0.2680    -0.6840 H     1 <1>   0.3700 
 30 H        6.9280    -0.1760     2.2120 H     1 <1>   0.0800 
 31 H        8.7620     0.8270     0.0060 H     1 <1>   0.0800 
 32 H        9.2270     0.5170     1.6600 H     1 <1>   0.0800 
 33 H        8.0970     1.7950     1.3110 H     1 <1>   0.0800 
 34 H        7.9980    -1.6040    -0.2480 H     1 <1>   0.0800 
 35 H        6.8240    -2.2480     0.8870 H     1 <1>   0.0800 
 36 H        8.4560    -1.9310     1.4040 H     1 <1>   0.0800 
@<TRIPOS>BOND
  1   1   2  2   
  2   1   3  2   
  3   1   4  am  
  4   1   5  1   
  5   4   6  1   
  6   4   7  1   
  7   5   8  ar  
  8   5   9  ar  
  9   6  19  1   
 10   6  20  1   
 11   6  21  1   
 12   7  22  1   
 13   7  23  1   
 14   7  24  1   
 15   8  10  ar  
 16   8  25  1   
 17   9  11  ar  
 18   9  26  1   
 19  10  12  1   
 20  10  13  ar  
 21  11  13  ar  
 22  11  27  1   
 23  12  14  2   
 24  12  15  am  
 25  13  28  1   
 26  15  16  1   
 27  15  29  1   
 28  16  17  1   
 29  16  18  1   
 30  16  30  1   
 31  17  31  1   
 32  17  32  1   
 33  17  33  1   
 34  18  34  1   
 35  18  35  1   
 36  18  36  1   
@<TRIPOS>SUBSTRUCTURE
  1 ****   8 GROUP 4 **** **** 0

# MOE 2024.06 (io_trps.svl 2023.06)
