@<TRIPOS>MOLECULE
NONAME
59 61 1 0 0 
SMALL
USER_CHARGES


@<TRIPOS>ATOM
  1 S       -0.4380     0.0280    -2.4160 S.o2  1 <1>   1.3330 
  2 O        0.1910     0.0130    -3.7150 O.2   1 <1>  -0.6500 
  3 O       -0.0630    -0.9380    -1.4130 O.2   1 <1>  -0.6500 
  4 N       -0.2160     1.6160    -1.7740 N.am  1 <1>  -0.6930 
  5 C       -2.2000    -0.0260    -2.6610 C.3   1 <1>  -0.1350 
  6 C       -0.8610     2.0200    -0.6120 C.ar  1 <1>   0.1990 
  7 C        1.0750     2.2610    -2.0900 C.3   1 <1>   0.3390 
  8 C       -0.6140     1.4060     0.6090 C.ar  1 <1>  -0.1500 
  9 C       -1.7720     3.0650    -0.6560 C.ar  1 <1>  -0.1500 
 10 C        2.1630     1.7930    -1.1310 C.ar  1 <1>  -0.1430 
 11 C       -1.2560     1.8150     1.7660 C.ar  1 <1>  -0.1430 
 12 C       -2.4220     3.4800     0.4910 C.ar  1 <1>  -0.1500 
 13 C        2.8640     0.6220    -1.3740 C.ar  1 <1>  -0.1500 
 14 C        2.4540     2.5260     0.0100 C.ar  1 <1>  -0.1500 
 15 C       -2.1720     2.8610     1.7070 C.ar  1 <1>  -0.1430 
 16 C       -0.9320     1.1060     3.0730 C.3   1 <1>  -0.0970 
 17 C        3.8380     0.1960    -0.4900 C.ar  1 <1>  -0.1500 
 18 C        3.4320     2.0960     0.8870 C.ar  1 <1>  -0.1500 
 19 C       -2.9050     3.3440     2.9500 C.3   1 <1>  -0.0970 
 20 C        4.1530     0.9260     0.6550 C.ar  1 <1>   0.0860 
 21 C        5.1820     0.4900     1.5810 C.2   1 <1>   0.5440 
 22 O        4.9050     0.3860     2.7620 O.2   1 <1>  -0.5700 
 23 N        6.4670     0.1990     1.1650 N.am  1 <1>  -0.6600 
 24 C        7.0340     0.6410    -0.1400 C.3   1 <1>   0.1400 
 25 C        7.4520    -0.4590     2.0680 C.3   1 <1>   0.1400 
 26 C        8.2160     1.5860     0.1030 C.3   1 <1>  -0.1600 
 27 C        8.6300     0.4840     2.3260 C.3   1 <1>  -0.1600 
 28 C        9.2780     0.9500     1.0130 C.3   1 <1>  -0.0800 
 29 C       10.4140     1.9400     1.2920 C.3   1 <1>  -0.2400 
 30 H       -2.4810    -0.9640    -3.0960 H     1 <1>   0.0800 
 31 H       -2.5070     0.7650    -3.3170 H     1 <1>   0.0800 
 32 H       -2.7080     0.0840    -1.7230 H     1 <1>   0.0800 
 33 H        0.9600     3.3280    -2.0060 H     1 <1>   0.0800 
 34 H        1.3630     2.0480    -3.1050 H     1 <1>   0.0800 
 35 H        0.1000     0.6020     0.6440 H     1 <1>   0.1500 
 36 H       -1.9700     3.5500    -1.5930 H     1 <1>   0.1500 
 37 H       -3.1260     4.2910     0.4320 H     1 <1>   0.1500 
 38 H        2.6440     0.0300    -2.2470 H     1 <1>   0.1500 
 39 H        1.9090     3.4290     0.2260 H     1 <1>   0.1500 
 40 H       -0.1750     0.3560     2.9270 H     1 <1>   0.0800 
 41 H       -1.8120     0.6270     3.4610 H     1 <1>   0.0800 
 42 H       -0.5660     1.8130     3.7960 H     1 <1>   0.0800 
 43 H        4.3630    -0.7240    -0.6820 H     1 <1>   0.1500 
 44 H        3.6450     2.6650     1.7760 H     1 <1>   0.1500 
 45 H       -3.4580     2.5340     3.3900 H     1 <1>   0.0800 
 46 H       -3.5950     4.1330     2.7110 H     1 <1>   0.0800 
 47 H       -2.2000     3.7190     3.6700 H     1 <1>   0.0800 
 48 H        6.2960     1.1530    -0.7300 H     1 <1>   0.0800 
 49 H        7.3640    -0.2240    -0.6890 H     1 <1>   0.0800 
 50 H        7.8010    -1.3640     1.6020 H     1 <1>   0.0800 
 51 H        6.9920    -0.7280     3.0050 H     1 <1>   0.0800 
 52 H        7.8440     2.4910     0.5510 H     1 <1>   0.0800 
 53 H        8.6570     1.8450    -0.8430 H     1 <1>   0.0800 
 54 H        9.3590    -0.0250     2.9320 H     1 <1>   0.0800 
 55 H        8.2730     1.3310     2.8840 H     1 <1>   0.0800 
 56 H        9.6910     0.0900     0.5110 H     1 <1>   0.0800 
 57 H       10.0390     2.8140     1.7970 H     1 <1>   0.0800 
 58 H       10.8760     2.2480     0.3710 H     1 <1>   0.0800 
 59 H       11.1640     1.4820     1.9120 H     1 <1>   0.0800 
@<TRIPOS>BOND
  1   1   2  2   
  2   1   3  2   
  3   1   4  am  
  4   1   5  1   
  5   4   6  1   
  6   4   7  1   
  7   5  30  1   
  8   5  31  1   
  9   5  32  1   
 10   6   8  ar  
 11   6   9  ar  
 12   7  10  1   
 13   7  33  1   
 14   7  34  1   
 15   8  11  ar  
 16   8  35  1   
 17   9  12  ar  
 18   9  36  1   
 19  10  13  ar  
 20  10  14  ar  
 21  11  15  ar  
 22  11  16  1   
 23  12  15  ar  
 24  12  37  1   
 25  13  17  ar  
 26  13  38  1   
 27  14  18  ar  
 28  14  39  1   
 29  15  19  1   
 30  16  40  1   
 31  16  41  1   
 32  16  42  1   
 33  17  20  ar  
 34  17  43  1   
 35  18  20  ar  
 36  18  44  1   
 37  19  45  1   
 38  19  46  1   
 39  19  47  1   
 40  20  21  1   
 41  21  22  2   
 42  21  23  am  
 43  23  24  1   
 44  23  25  1   
 45  24  26  1   
 46  24  48  1   
 47  24  49  1   
 48  25  27  1   
 49  25  50  1   
 50  25  51  1   
 51  26  28  1   
 52  26  52  1   
 53  26  53  1   
 54  27  28  1   
 55  27  54  1   
 56  27  55  1   
 57  28  29  1   
 58  28  56  1   
 59  29  57  1   
 60  29  58  1   
 61  29  59  1   
@<TRIPOS>SUBSTRUCTURE
  1 ****  14 GROUP 4 **** **** 0

# MOE 2024.06 (io_trps.svl 2023.06)
