@<TRIPOS>MOLECULE
NONAME
42 43 1 0 0 
SMALL
USER_CHARGES


@<TRIPOS>ATOM
  1 O       -0.2680    -0.3560    -0.7580 O.2   1 <1>  -0.5700 
  2 C       -0.9150    -1.2690    -0.3000 C.2   1 <1>   0.5690 
  3 N       -2.2340    -1.0640    -0.0590 N.am  1 <1>  -0.7300 
  4 C       -0.2610    -2.6440    -0.0170 C.3   1 <1>   0.3500 
  5 C       -3.2430    -2.0510     0.3700 C.3   1 <1>   0.1400 
  6 N        1.2270    -2.6420    -0.1610 N.pl3 1 <1>  -0.8690 
  7 C       -0.8190    -3.7340    -0.9440 C.3   1 <1>  -0.1600 
  8 C       -3.3430    -3.1960    -0.6440 C.3   1 <1>  -0.1600 
  9 C        2.1160    -3.4310     0.4900 C.2   1 <1>  -0.0500 
 10 C       -2.2170    -4.2390    -0.5420 C.3   1 <1>  -0.1600 
 11 C        3.4910    -3.4040     0.3750 C.2   1 <1>   0.0290 
 12 C        4.2690    -4.3120     1.1650 C.2   1 <1>   0.4950 
 13 C        4.1830    -2.5050    -0.5070 C.2   1 <1>   0.4950 
 14 O        3.7830    -5.1160     1.9260 O.2   1 <1>  -0.5700 
 15 C        5.7880    -4.3130     1.1120 C.3   1 <1>  -0.0990 
 16 O        3.6450    -1.7240    -1.2600 O.2   1 <1>  -0.5700 
 17 C        5.7020    -2.4680    -0.5460 C.3   1 <1>  -0.0990 
 18 C        6.3470    -3.8240    -0.2300 C.3   1 <1>   0.0000 
 19 C        6.0450    -4.8410    -1.3460 C.3   1 <1>  -0.2400 
 20 C        7.8700    -3.6580    -0.1240 C.3   1 <1>  -0.2400 
 21 H       -2.5750    -0.1300    -0.2960 H     1 <1>   0.3700 
 22 H       -0.4840    -2.9080     1.0010 H     1 <1>   0.0800 
 23 H       -2.9940    -2.4300     1.3470 H     1 <1>   0.0800 
 24 H       -4.1960    -1.5530     0.4380 H     1 <1>   0.0800 
 25 H        1.5620    -1.8950    -0.8040 H     1 <1>   0.4000 
 26 H       -0.8400    -3.3610    -1.9540 H     1 <1>   0.0800 
 27 H       -0.1520    -4.5770    -0.9210 H     1 <1>   0.0800 
 28 H       -4.2720    -3.7070    -0.4610 H     1 <1>   0.0800 
 29 H       -3.3960    -2.7960    -1.6420 H     1 <1>   0.0800 
 30 H        1.6820    -4.1520     1.1680 H     1 <1>   0.1500 
 31 H       -2.4670    -5.0610    -1.1920 H     1 <1>   0.0800 
 32 H       -2.1790    -4.6320     0.4600 H     1 <1>   0.0800 
 33 H        6.1410    -3.6850     1.9110 H     1 <1>   0.0800 
 34 H        6.1420    -5.3110     1.3090 H     1 <1>   0.0800 
 35 H        6.0160    -2.1390    -1.5210 H     1 <1>   0.0800 
 36 H        6.0280    -1.7270     0.1620 H     1 <1>   0.0800 
 37 H        4.9890    -5.0030    -1.4700 H     1 <1>   0.0800 
 38 H        6.5020    -5.7900    -1.1240 H     1 <1>   0.0800 
 39 H        6.4390    -4.4950    -2.2860 H     1 <1>   0.0800 
 40 H        8.3380    -4.5980     0.1120 H     1 <1>   0.0800 
 41 H        8.1290    -2.9510     0.6450 H     1 <1>   0.0800 
 42 H        8.2780    -3.3040    -1.0550 H     1 <1>   0.0800 
@<TRIPOS>BOND
  1   1   2  2   
  2   2   3  am  
  3   2   4  1   
  4   3   5  1   
  5   3  21  1   
  6   4   6  1   
  7   4   7  1   
  8   4  22  1   
  9   5   8  1   
 10   5  23  1   
 11   5  24  1   
 12   6   9  1   
 13   6  25  1   
 14   7  10  1   
 15   7  26  1   
 16   7  27  1   
 17   8  10  1   
 18   8  28  1   
 19   8  29  1   
 20   9  11  2   
 21   9  30  1   
 22  10  31  1   
 23  10  32  1   
 24  11  12  1   
 25  11  13  1   
 26  12  14  2   
 27  12  15  1   
 28  13  16  2   
 29  13  17  1   
 30  15  18  1   
 31  15  33  1   
 32  15  34  1   
 33  17  18  1   
 34  17  35  1   
 35  17  36  1   
 36  18  19  1   
 37  18  20  1   
 38  19  37  1   
 39  19  38  1   
 40  19  39  1   
 41  20  40  1   
 42  20  41  1   
 43  20  42  1   
@<TRIPOS>SUBSTRUCTURE
  1 ****   9 GROUP 4 **** **** 0

# MOE 2024.06 (io_trps.svl 2023.06)
