@<TRIPOS>MOLECULE
NONAME
52 55 1 0 0 
SMALL
USER_CHARGES


@<TRIPOS>ATOM
  1 O       -1.8630    -4.8210    -2.1010 O.co2 1 <1>  -0.9000 
  2 C       -1.4180    -4.0660    -1.2290 C.2   1 <1>   0.9060 
  3 O       -2.1890    -3.4160    -0.5200 O.co2 1 <1>  -0.9000 
  4 C        0.0800    -4.0620    -0.9870 C.3   1 <1>  -0.1860 
  5 C        0.6060    -4.5300     0.5830 C.3   1 <1>  -0.0190 
  6 C        0.7930    -2.6110    -1.3210 C.3   1 <1>   0.0580 
  7 C       -0.5120    -4.8760     1.5930 C.2   1 <1>   0.5690 
  8 C        1.6620    -3.3350     1.0790 C.3   1 <1>   0.0580 
  9 C        1.9520    -1.6430    -0.7520 C.2   1 <1>  -0.2880 
 10 C        1.1420    -3.0650    -0.1150 C.3   1 <1>  -0.1600 
 11 O       -0.6180    -4.2040     2.5930 O.2   1 <1>  -0.5700 
 12 N       -1.3570    -5.9530     1.4180 N.am  1 <1>  -0.6600 
 13 C        2.4090    -2.0200     0.5040 C.2   1 <1>  -0.2880 
 14 C       -2.6350    -5.9880     2.1730 C.3   1 <1>   0.1400 
 15 C       -1.3440    -6.9150     0.2740 C.3   1 <1>   0.1400 
 16 C       -3.7220    -5.4640     1.2380 C.3   1 <1>   0.3430 
 17 C       -2.6890    -7.0500    -0.4990 C.3   1 <1>   0.3430 
 18 N       -3.9220    -6.3440     0.0320 N.4   1 <1>  -0.9590 
 19 C       -4.4700    -5.4780    -1.0530 C.3   1 <1>   0.4860 
 20 C       -5.9160    -5.1730    -0.7140 C.ar  1 <1>  -0.1440 
 21 C       -6.2500    -3.9240    -0.2130 C.ar  1 <1>  -0.1500 
 22 C       -6.9090    -6.1250    -0.8890 C.ar  1 <1>  -0.1500 
 23 C       -7.5610    -3.6360     0.1230 C.ar  1 <1>  -0.1500 
 24 C       -8.2190    -5.8340    -0.5520 C.ar  1 <1>  -0.1500 
 25 C       -8.5510    -4.5900    -0.0400 C.ar  1 <1>  -0.1440 
 26 C       -9.9890    -4.2690     0.3260 C.3   1 <1>  -0.0970 
 27 H        0.4680    -4.7820    -1.6910 H     1 <1>   0.0800 
 28 H        1.1810    -5.4380     0.4870 H     1 <1>   0.0800 
 29 H       -0.0460    -1.9340    -1.4260 H     1 <1>   0.0800 
 30 H        1.2290    -2.9290     1.9800 H     1 <1>   0.0800 
 31 H        2.2640    -0.8120    -1.3610 H     1 <1>   0.1500 
 32 H        0.3040    -2.4240     0.3840 H     1 <1>   0.0800 
 33 H        2.0590    -3.6880    -0.6200 H     1 <1>   0.0800 
 34 H        3.1640    -1.5550     1.1140 H     1 <1>   0.1500 
 35 H       -2.5890    -5.3610     3.0460 H     1 <1>   0.0800 
 36 H       -2.8550    -6.9900     2.4960 H     1 <1>   0.0800 
 37 H       -1.0810    -7.8840     0.6580 H     1 <1>   0.0800 
 38 H       -0.5800    -6.6510    -0.4340 H     1 <1>   0.0800 
 39 H       -3.4300    -4.4750     0.9260 H     1 <1>   0.0800 
 40 H       -4.6510    -5.3700     1.7740 H     1 <1>   0.0800 
 41 H       -2.9070    -8.1010    -0.5690 H     1 <1>   0.0800 
 42 H       -2.5120    -6.7370    -1.5120 H     1 <1>   0.0800 
 43 H       -4.6520    -7.0240     0.2470 H     1 <1>   0.4500 
 44 H       -4.4140    -5.9800    -2.0040 H     1 <1>   0.0800 
 45 H       -3.9120    -4.5620    -1.1320 H     1 <1>   0.0800 
 46 H       -5.4890    -3.1690    -0.0870 H     1 <1>   0.1500 
 47 H       -6.6770    -7.0950    -1.2930 H     1 <1>   0.1500 
 48 H       -7.8060    -2.6620     0.5090 H     1 <1>   0.1500 
 49 H       -8.9850    -6.5780    -0.6930 H     1 <1>   0.1500 
 50 H      -10.0220    -3.5800     1.1510 H     1 <1>   0.0800 
 51 H      -10.5160    -5.1620     0.6100 H     1 <1>   0.0800 
 52 H      -10.4880    -3.8250    -0.5170 H     1 <1>   0.0800 
@<TRIPOS>BOND
  1   1   2  ar  
  2   2   3  ar  
  3   2   4  1   
  4   4   5  1   
  5   4   6  1   
  6   4  27  1   
  7   5   7  1   
  8   5   8  1   
  9   5  28  1   
 10   6   9  1   
 11   6  10  1   
 12   6  29  1   
 13   7  11  2   
 14   7  12  am  
 15   8  10  1   
 16   8  13  1   
 17   8  30  1   
 18   9  13  2   
 19   9  31  1   
 20  10  32  1   
 21  10  33  1   
 22  12  14  1   
 23  12  15  1   
 24  13  34  1   
 25  14  16  1   
 26  14  35  1   
 27  14  36  1   
 28  15  17  1   
 29  15  37  1   
 30  15  38  1   
 31  16  18  1   
 32  16  39  1   
 33  16  40  1   
 34  17  18  1   
 35  17  41  1   
 36  17  42  1   
 37  18  19  1   
 38  18  43  1   
 39  19  20  1   
 40  19  44  1   
 41  19  45  1   
 42  20  21  ar  
 43  20  22  ar  
 44  21  23  ar  
 45  21  46  1   
 46  22  24  ar  
 47  22  47  1   
 48  23  25  ar  
 49  23  48  1   
 50  24  25  ar  
 51  24  49  1   
 52  25  26  1   
 53  26  50  1   
 54  26  51  1   
 55  26  52  1   
@<TRIPOS>SUBSTRUCTURE
  1 ****   3 GROUP 4 **** **** 0

# MOE 2024.06 (io_trps.svl 2023.06)
