@<TRIPOS>MOLECULE
NONAME
25 25 1 0 0 
SMALL
USER_CHARGES


@<TRIPOS>ATOM
  1 S       -0.0150     0.0100    -1.0640 S.3   1 <1>  -0.3320 
  2 C       -1.4740     1.0040    -0.7160 C.ar  1 <1>   0.4120 
  3 C        1.2610     0.5370     0.1680 C.3   1 <1>  -0.0100 
  4 N       -2.5360     0.2670    -0.4610 N.ar  1 <1>  -0.6200 
  5 C       -1.4290     2.3950    -0.7310 C.ar  1 <1>   0.0730 
  6 C       -3.6430     0.9290    -0.1930 C.ar  1 <1>   0.1660 
  7 C       -0.2130     3.0700    -1.0700 C.1   1 <1>   0.4840 
  8 C       -2.6040     3.0820    -0.4300 C.ar  1 <1>  -0.1440 
  9 C       -3.7410     2.3220    -0.1750 C.ar  1 <1>  -0.1440 
 10 C       -4.8330     0.0330     0.1070 C.3   1 <1>  -0.0970 
 11 N        0.7470     3.6390    -1.3110 N.1   1 <1>  -0.5570 
 12 C       -2.6450     4.6150    -0.3890 C.3   1 <1>  -0.0970 
 13 C       -5.0790     3.0100     0.1170 C.3   1 <1>  -0.0970 
 14 H        1.8860    -0.3150     0.3680 H     1 <1>   0.0800 
 15 H        0.7540     0.8560     1.0600 H     1 <1>   0.0800 
 16 H        1.8390     1.3340    -0.2630 H     1 <1>   0.0800 
 17 H       -4.5090    -0.9810     0.2670 H     1 <1>   0.0800 
 18 H       -5.5140     0.0420    -0.7230 H     1 <1>   0.0800 
 19 H       -5.3390     0.3620     0.9950 H     1 <1>   0.0800 
 20 H       -1.6720     5.0520    -0.2550 H     1 <1>   0.0800 
 21 H       -3.2490     4.9570     0.4310 H     1 <1>   0.0800 
 22 H       -3.0600     4.9930    -1.3070 H     1 <1>   0.0800 
 23 H       -5.9170     2.3820    -0.1200 H     1 <1>   0.0800 
 24 H       -5.1930     3.9000    -0.4740 H     1 <1>   0.0800 
 25 H       -5.1320     3.2750     1.1580 H     1 <1>   0.0800 
@<TRIPOS>BOND
  1   1   2  1   
  2   1   3  1   
  3   2   4  ar  
  4   2   5  ar  
  5   3  14  1   
  6   3  15  1   
  7   3  16  1   
  8   4   6  ar  
  9   5   7  1   
 10   5   8  ar  
 11   6   9  ar  
 12   6  10  1   
 13   7  11  3   
 14   8   9  ar  
 15   8  12  1   
 16   9  13  1   
 17  10  17  1   
 18  10  18  1   
 19  10  19  1   
 20  12  20  1   
 21  12  21  1   
 22  12  22  1   
 23  13  23  1   
 24  13  24  1   
 25  13  25  1   
@<TRIPOS>SUBSTRUCTURE
  1 ****   5 GROUP 4 **** **** 0

# MOE 2024.06 (io_trps.svl 2023.06)
