@<TRIPOS>MOLECULE
NONAME
35 36 1 0 0 
SMALL
USER_CHARGES


@<TRIPOS>ATOM
  1 CL      -0.1230     0.0330     1.2430 Cl    1 <1>  -0.1770 
  2 C       -1.5820    -0.6870     0.6180 C.ar  1 <1>   0.1770 
  3 C       -2.1670    -0.1590    -0.5160 C.ar  1 <1>  -0.1500 
  4 C       -2.1320    -1.7770     1.2660 C.ar  1 <1>  -0.1500 
  5 C       -3.3280    -0.7300    -1.0100 C.ar  1 <1>  -0.1500 
  6 C       -3.2930    -2.3460     0.7700 C.ar  1 <1>  -0.1500 
  7 C       -3.9000    -1.8220    -0.3660 C.ar  1 <1>  -0.1430 
  8 C       -5.1800    -2.4380    -0.9030 C.3   1 <1>   0.4870 
  9 N       -6.3140    -2.0360    -0.0260 N.4   1 <1>  -0.9590 
 10 C       -7.5520    -2.8010    -0.3850 C.3   1 <1>   0.3430 
 11 C       -6.5380    -0.5600    -0.0630 C.3   1 <1>   0.3430 
 12 C       -8.7260    -2.4570     0.5440 C.3   1 <1>  -0.0190 
 13 C       -7.6630    -0.1830     0.9030 C.3   1 <1>  -0.1600 
 14 C       -9.9590    -3.2000     0.0550 C.2   1 <1>   0.5690 
 15 C       -8.9640    -0.9350     0.5860 C.3   1 <1>  -0.1600 
 16 O       -9.9700    -3.6550    -1.0580 O.2   1 <1>  -0.5700 
 17 N      -11.0240    -3.3510     0.8610 N.am  1 <1>  -0.8000 
 18 H       -1.7120     0.6860    -1.0020 H     1 <1>   0.1500 
 19 H       -1.6480    -2.1700     2.1430 H     1 <1>   0.1500 
 20 H       -3.7720    -0.3140    -1.8990 H     1 <1>   0.1500 
 21 H       -3.7060    -3.2010     1.2790 H     1 <1>   0.1500 
 22 H       -5.0790    -3.5110    -0.9100 H     1 <1>   0.0800 
 23 H       -5.3530    -2.1070    -1.9140 H     1 <1>   0.0800 
 24 H       -6.0400    -2.2740     0.9350 H     1 <1>   0.4500 
 25 H       -7.3650    -3.8620    -0.3330 H     1 <1>   0.0800 
 26 H       -7.8390    -2.5690    -1.3990 H     1 <1>   0.0800 
 27 H       -6.8050    -0.2540    -1.0620 H     1 <1>   0.0800 
 28 H       -5.6350    -0.0400     0.2210 H     1 <1>   0.0800 
 29 H       -8.4970    -2.8140     1.5310 H     1 <1>   0.0800 
 30 H       -7.8420     0.8770     0.8320 H     1 <1>   0.0800 
 31 H       -7.3520    -0.3870     1.9130 H     1 <1>   0.0800 
 32 H       -9.7100    -0.7000     1.3280 H     1 <1>   0.0800 
 33 H       -9.3420    -0.6070    -0.3690 H     1 <1>   0.0800 
 34 H      -11.8470    -3.8470     0.5070 H     1 <1>   0.3700 
 35 H      -11.1090    -2.9810     1.8080 H     1 <1>   0.3700 
@<TRIPOS>BOND
  1   1   2  1   
  2   2   3  ar  
  3   2   4  ar  
  4   3   5  ar  
  5   3  18  1   
  6   4   6  ar  
  7   4  19  1   
  8   5   7  ar  
  9   5  20  1   
 10   6   7  ar  
 11   6  21  1   
 12   7   8  1   
 13   8   9  1   
 14   8  22  1   
 15   8  23  1   
 16   9  10  1   
 17   9  11  1   
 18   9  24  1   
 19  10  12  1   
 20  10  25  1   
 21  10  26  1   
 22  11  13  1   
 23  11  27  1   
 24  11  28  1   
 25  12  14  1   
 26  12  15  1   
 27  12  29  1   
 28  13  15  1   
 29  13  30  1   
 30  13  31  1   
 31  14  16  2   
 32  14  17  am  
 33  15  32  1   
 34  15  33  1   
 35  17  34  1   
 36  17  35  1   
@<TRIPOS>SUBSTRUCTURE
  1 ****   9 GROUP 4 **** **** 0

# MOE 2024.06 (io_trps.svl 2023.06)
