@<TRIPOS>MOLECULE
NONAME
32 33 1 0 0 
SMALL
USER_CHARGES


@<TRIPOS>ATOM
  1 O        0.4840     0.3690     1.0240 O.2   1 <1>  -0.5700 
  2 C        1.0270     1.3860     0.6330 C.2   1 <1>   0.5440 
  3 N        0.2660     2.5200     0.4540 N.am  1 <1>  -0.6600 
  4 C        2.4490     1.3780     0.3550 C.ar  1 <1>   0.0860 
  5 C        0.6920     3.7010    -0.3310 C.3   1 <1>   0.1400 
  6 C       -1.1940     2.5450     0.6950 C.3   1 <1>   0.1400 
  7 C        2.9950     0.4660    -0.5470 C.ar  1 <1>  -0.1500 
  8 C        3.3230     2.2700     0.9780 C.ar  1 <1>  -0.1500 
  9 C       -0.5440     4.5890    -0.4100 C.3   1 <1>  -0.1600 
 10 C       -1.7220     3.6360    -0.2290 C.3   1 <1>  -0.1600 
 11 C        4.3480     0.4580    -0.8290 C.ar  1 <1>  -0.1500 
 12 C        4.6780     2.2700     0.7020 C.ar  1 <1>  -0.1500 
 13 C        5.2010     1.3590    -0.2130 C.ar  1 <1>   0.0830 
 14 O        6.5080     1.2870    -0.5460 O.3   1 <1>  -0.3630 
 15 C        7.4750     2.1190     0.0550 C.3   1 <1>   0.3200 
 16 C        8.8110     1.7850    -0.5160 C.1   1 <1>  -0.2000 
 17 C        9.8770     1.5190    -0.9710 C.1   1 <1>  -0.1770 
 18 H        0.9900     3.3810    -1.3160 H     1 <1>   0.0800 
 19 H        1.5070     4.2140     0.1480 H     1 <1>   0.0800 
 20 H       -1.3720     2.8000     1.7260 H     1 <1>   0.0800 
 21 H       -1.6440     1.5910     0.4770 H     1 <1>   0.0800 
 22 H        2.3410    -0.2440    -1.0240 H     1 <1>   0.1500 
 23 H        2.9220     2.9680     1.6920 H     1 <1>   0.1500 
 24 H       -0.5920     5.1280    -1.3400 H     1 <1>   0.0800 
 25 H       -0.5200     5.2950     0.4020 H     1 <1>   0.0800 
 26 H       -2.5880     4.1230     0.1820 H     1 <1>   0.0800 
 27 H       -1.9830     3.1930    -1.1740 H     1 <1>   0.0800 
 28 H        4.7540    -0.2500    -1.5300 H     1 <1>   0.1500 
 29 H        5.3050     2.9790     1.2080 H     1 <1>   0.1500 
 30 H        7.4660     1.9410     1.1150 H     1 <1>   0.0800 
 31 H        7.2240     3.1430    -0.1590 H     1 <1>   0.0800 
 32 H       10.8370     1.2720    -1.3880 H     1 <1>   0.1770 
@<TRIPOS>BOND
  1   1   2  2   
  2   2   3  am  
  3   2   4  1   
  4   3   5  1   
  5   3   6  1   
  6   4   7  ar  
  7   4   8  ar  
  8   5   9  1   
  9   5  18  1   
 10   5  19  1   
 11   6  10  1   
 12   6  20  1   
 13   6  21  1   
 14   7  11  ar  
 15   7  22  1   
 16   8  12  ar  
 17   8  23  1   
 18   9  10  1   
 19   9  24  1   
 20   9  25  1   
 21  10  26  1   
 22  10  27  1   
 23  11  13  ar  
 24  11  28  1   
 25  12  13  ar  
 26  12  29  1   
 27  13  14  1   
 28  14  15  1   
 29  15  16  1   
 30  15  30  1   
 31  15  31  1   
 32  16  17  3   
 33  17  32  1   
@<TRIPOS>SUBSTRUCTURE
  1 ****   8 GROUP 4 **** **** 0

# MOE 2024.06 (io_trps.svl 2023.06)
