@<TRIPOS>MOLECULE
NONAME
56 58 1 0 0 
SMALL
USER_CHARGES


@<TRIPOS>ATOM
  1 O        0.2730     0.0550    -1.9090 O.2   1 <1>  -0.5700 
  2 C       -0.5340     0.8860    -1.5330 C.2   1 <1>   0.5440 
  3 N       -1.7640     0.4450    -1.0740 N.am  1 <1>  -0.6600 
  4 C       -0.1870     2.2890    -1.5610 C.ar  1 <1>   0.0860 
  5 C       -2.0040    -1.0130    -0.8780 C.3   1 <1>   0.1400 
  6 C       -2.6790     1.2920    -0.2490 C.3   1 <1>   0.1400 
  7 C        0.9070     2.8090    -0.8460 C.ar  1 <1>   0.1170 
  8 C       -0.9470     3.1670    -2.3370 C.ar  1 <1>  -0.1500 
  9 C       -1.7770    -1.3550     0.6030 C.3   1 <1>   0.3430 
 10 C       -2.5760     0.9230     1.2460 C.3   1 <1>   0.3430 
 11 N        1.7850     2.0280    -0.0850 N.am  1 <1>  -0.5470 
 12 C        1.1850     4.1690    -0.9210 C.ar  1 <1>  -0.1500 
 13 C       -0.6620     4.5170    -2.3950 C.ar  1 <1>  -0.1500 
 14 N       -2.6850    -0.5610     1.5120 N.4   1 <1>  -0.9590 
 15 C        1.5750     1.0960     0.8960 C.2   1 <1>   0.5690 
 16 C        0.4090     5.0210    -1.6810 C.ar  1 <1>  -0.1500 
 17 C       -2.3410    -0.8400     2.9370 C.3   1 <1>   0.2630 
 18 O        0.4790     0.8730     1.3610 O.2   1 <1>  -0.5700 
 19 C        2.7710     0.3350     1.4750 C.3   1 <1>   0.1810 
 20 O        3.8070     0.1050     0.5260 O.3   1 <1>  -0.3630 
 21 C        4.5670     1.1400     0.0970 C.ar  1 <1>   0.0820 
 22 C        4.6940     1.3460    -1.2720 C.ar  1 <1>  -0.1430 
 23 C        5.1770     2.0060     0.9970 C.ar  1 <1>  -0.1500 
 24 C        5.4110     2.4410    -1.7240 C.ar  1 <1>  -0.1500 
 25 C        4.0500     0.3920    -2.2700 C.3   1 <1>  -0.0970 
 26 C        5.8890     3.1010     0.5380 C.ar  1 <1>  -0.1430 
 27 C        6.0000     3.3140    -0.8260 C.ar  1 <1>  -0.1500 
 28 C        6.5540     4.0540     1.5150 C.3   1 <1>  -0.0970 
 29 H       -1.3370    -1.5990    -1.4880 H     1 <1>   0.0800 
 30 H       -3.0090    -1.2610    -1.1710 H     1 <1>   0.0800 
 31 H       -3.6910     1.1500    -0.5880 H     1 <1>   0.0800 
 32 H       -2.4470     2.3350    -0.3600 H     1 <1>   0.0800 
 33 H       -1.7720     2.7770    -2.9080 H     1 <1>   0.1500 
 34 H       -0.7470    -1.1380     0.8390 H     1 <1>   0.0800 
 35 H       -1.9370    -2.4100     0.7520 H     1 <1>   0.0800 
 36 H       -3.3460     1.4460     1.7880 H     1 <1>   0.0800 
 37 H       -1.6320     1.2850     1.6140 H     1 <1>   0.0800 
 38 H        2.7700     2.1090    -0.3660 H     1 <1>   0.3700 
 39 H        2.0250     4.5650    -0.3760 H     1 <1>   0.1500 
 40 H       -1.2630     5.1760    -2.9990 H     1 <1>   0.1500 
 41 H       -3.6540    -0.8520     1.3260 H     1 <1>   0.4500 
 42 H        0.6400     6.0720    -1.7240 H     1 <1>   0.1500 
 43 H       -1.3270    -0.5310     3.1370 H     1 <1>   0.0800 
 44 H       -2.4300    -1.8930     3.1460 H     1 <1>   0.0800 
 45 H       -3.0030    -0.3000     3.5950 H     1 <1>   0.0800 
 46 H        2.4370    -0.6290     1.8100 H     1 <1>   0.0800 
 47 H        3.1710     0.8650     2.3180 H     1 <1>   0.0800 
 48 H        5.1070     1.8250     2.0530 H     1 <1>   0.1500 
 49 H        5.5170     2.6210    -2.7800 H     1 <1>   0.1500 
 50 H        4.3920    -0.6110    -2.0870 H     1 <1>   0.0800 
 51 H        4.3020     0.6580    -3.2800 H     1 <1>   0.0800 
 52 H        2.9800     0.4110    -2.1700 H     1 <1>   0.0800 
 53 H        6.5540     4.1600    -1.1960 H     1 <1>   0.1500 
 54 H        6.0620     4.0240     2.4700 H     1 <1>   0.0800 
 55 H        6.5100     5.0620     1.1420 H     1 <1>   0.0800 
 56 H        7.5840     3.7780     1.6460 H     1 <1>   0.0800 
@<TRIPOS>BOND
  1   1   2  2   
  2   2   3  am  
  3   2   4  1   
  4   3   5  1   
  5   3   6  1   
  6   4   7  ar  
  7   4   8  ar  
  8   5   9  1   
  9   5  29  1   
 10   5  30  1   
 11   6  10  1   
 12   6  31  1   
 13   6  32  1   
 14   7  11  1   
 15   7  12  ar  
 16   8  13  ar  
 17   8  33  1   
 18   9  14  1   
 19   9  34  1   
 20   9  35  1   
 21  10  14  1   
 22  10  36  1   
 23  10  37  1   
 24  11  15  am  
 25  11  38  1   
 26  12  16  ar  
 27  12  39  1   
 28  13  16  ar  
 29  13  40  1   
 30  14  17  1   
 31  14  41  1   
 32  15  18  2   
 33  15  19  1   
 34  16  42  1   
 35  17  43  1   
 36  17  44  1   
 37  17  45  1   
 38  19  20  1   
 39  19  46  1   
 40  19  47  1   
 41  20  21  1   
 42  21  22  ar  
 43  21  23  ar  
 44  22  24  ar  
 45  22  25  1   
 46  23  26  ar  
 47  23  48  1   
 48  24  27  ar  
 49  24  49  1   
 50  25  50  1   
 51  25  51  1   
 52  25  52  1   
 53  26  27  ar  
 54  26  28  1   
 55  27  53  1   
 56  28  54  1   
 57  28  55  1   
 58  28  56  1   
@<TRIPOS>SUBSTRUCTURE
  1 ****  11 GROUP 4 **** **** 0

# MOE 2024.06 (io_trps.svl 2023.06)
