@<TRIPOS>MOLECULE
NONAME
53 55 1 0 0 
SMALL
USER_CHARGES


@<TRIPOS>ATOM
  1 S        0.3840    -0.3920    -1.1390 S.o2  1 <1>   1.4470 
  2 O       -0.5040    -0.9080    -2.1620 O.2   1 <1>  -0.6500 
  3 O        1.8030    -0.4730    -1.4080 O.2   1 <1>  -0.6500 
  4 N        0.0840    -1.2770     0.2770 N.am  1 <1>  -0.8490 
  5 C       -0.0270     1.3160    -0.6840 C.ar  1 <1>  -0.0090 
  6 C       -1.2710    -1.8180     0.3580 C.3   1 <1>   0.3390 
  7 C        1.1330    -2.2730     0.5980 C.3   1 <1>   0.2570 
  8 C        0.6050     1.9330     0.3890 C.ar  1 <1>  -0.1500 
  9 C       -0.9810     2.0460    -1.3810 C.ar  1 <1>  -0.1500 
 10 C       -2.2950    -0.6940     0.4300 C.ar  1 <1>  -0.1440 
 11 C        2.4120    -1.6850     1.2310 C.2   1 <1>   0.5690 
 12 C        0.2970     3.2330     0.7540 C.ar  1 <1>  -0.1500 
 13 C       -1.2950     3.3460    -1.0220 C.ar  1 <1>  -0.1500 
 14 C       -2.2710     0.2020     1.4880 C.ar  1 <1>  -0.1500 
 15 C       -3.2530    -0.5450    -0.5610 C.ar  1 <1>  -0.1500 
 16 O        2.2860    -0.9690     2.2010 O.2   1 <1>  -0.5700 
 17 N        3.6590    -2.0010     0.7530 N.am  1 <1>  -0.6600 
 18 C       -0.6580     3.9460     0.0500 C.ar  1 <1>  -0.1430 
 19 C       -3.1890     1.2350     1.5510 C.ar  1 <1>  -0.1500 
 20 C       -4.1740     0.4860    -0.4940 C.ar  1 <1>  -0.1500 
 21 C        4.8850    -1.3890     1.3100 C.3   1 <1>   0.1400 
 22 C        3.9660    -2.7610    -0.4810 C.3   1 <1>   0.1400 
 23 C       -1.0050     5.3690     0.4470 C.3   1 <1>  -0.0970 
 24 C       -4.1460     1.3830     0.5610 C.ar  1 <1>  -0.1430 
 25 C        5.9480    -1.5910     0.2370 C.3   1 <1>  -0.1600 
 26 C        5.4880    -2.8260    -0.5310 C.3   1 <1>  -0.1600 
 27 C       -5.1400     2.5260     0.6360 C.3   1 <1>  -0.0970 
 28 H       -1.3710    -2.4040     1.2550 H     1 <1>   0.0800 
 29 H       -1.4690    -2.4610    -0.4830 H     1 <1>   0.0800 
 30 H        1.3740    -2.8310    -0.2880 H     1 <1>   0.0800 
 31 H        0.7490    -2.9690     1.3210 H     1 <1>   0.0800 
 32 H        1.3450     1.3840     0.9490 H     1 <1>   0.1500 
 33 H       -1.4920     1.5880    -2.2100 H     1 <1>   0.1500 
 34 H        0.8050     3.6800     1.5900 H     1 <1>   0.1500 
 35 H       -2.0420     3.8830    -1.5790 H     1 <1>   0.1500 
 36 H       -1.5240     0.1050     2.2580 H     1 <1>   0.1500 
 37 H       -3.2810    -1.2240    -1.3950 H     1 <1>   0.1500 
 38 H       -3.1480     1.9280     2.3720 H     1 <1>   0.1500 
 39 H       -4.9080     0.5900    -1.2730 H     1 <1>   0.1500 
 40 H        5.1540    -1.9070     2.2150 H     1 <1>   0.0800 
 41 H        4.7310    -0.3450     1.5240 H     1 <1>   0.0800 
 42 H        3.5940    -2.2200    -1.3350 H     1 <1>   0.0800 
 43 H        3.5340    -3.7460    -0.4520 H     1 <1>   0.0800 
 44 H       -0.8000     5.5300     1.4900 H     1 <1>   0.0800 
 45 H       -2.0480     5.5630     0.2720 H     1 <1>   0.0800 
 46 H       -0.4200     6.0610    -0.1320 H     1 <1>   0.0800 
 47 H        6.9290    -1.7090     0.6610 H     1 <1>   0.0800 
 48 H        5.9470    -0.7350    -0.4160 H     1 <1>   0.0800 
 49 H        5.8540    -2.8400    -1.5420 H     1 <1>   0.0800 
 50 H        5.8190    -3.7160    -0.0240 H     1 <1>   0.0800 
 51 H       -5.5210     2.6190     1.6370 H     1 <1>   0.0800 
 52 H       -5.9670     2.3570    -0.0290 H     1 <1>   0.0800 
 53 H       -4.6540     3.4450     0.3610 H     1 <1>   0.0800 
@<TRIPOS>BOND
  1   1   2  2   
  2   1   3  2   
  3   1   4  am  
  4   1   5  1   
  5   4   6  1   
  6   4   7  1   
  7   5   8  ar  
  8   5   9  ar  
  9   6  10  1   
 10   6  28  1   
 11   6  29  1   
 12   7  11  1   
 13   7  30  1   
 14   7  31  1   
 15   8  12  ar  
 16   8  32  1   
 17   9  13  ar  
 18   9  33  1   
 19  10  14  ar  
 20  10  15  ar  
 21  11  16  2   
 22  11  17  am  
 23  12  18  ar  
 24  12  34  1   
 25  13  18  ar  
 26  13  35  1   
 27  14  19  ar  
 28  14  36  1   
 29  15  20  ar  
 30  15  37  1   
 31  17  21  1   
 32  17  22  1   
 33  18  23  1   
 34  19  24  ar  
 35  19  38  1   
 36  20  24  ar  
 37  20  39  1   
 38  21  25  1   
 39  21  40  1   
 40  21  41  1   
 41  22  26  1   
 42  22  42  1   
 43  22  43  1   
 44  23  44  1   
 45  23  45  1   
 46  23  46  1   
 47  24  27  1   
 48  25  26  1   
 49  25  47  1   
 50  25  48  1   
 51  26  49  1   
 52  26  50  1   
 53  27  51  1   
 54  27  52  1   
 55  27  53  1   
@<TRIPOS>SUBSTRUCTURE
  1 ****   5 GROUP 4 **** **** 0

# MOE 2024.06 (io_trps.svl 2023.06)
