@<TRIPOS>MOLECULE
NONAME
39 40 1 0 0 
SMALL
USER_CHARGES


@<TRIPOS>ATOM
  1 S        0.2990    -0.8990    -1.5470 S.3   1 <1>  -0.4600 
  2 C        1.9170    -0.1450    -1.8550 C.3   1 <1>   0.0700 
  3 C        0.7370    -2.4590    -0.7380 C.3   1 <1>   0.0700 
  4 C        2.7120    -0.1080    -0.5430 C.3   1 <1>   0.3430 
  5 C        1.6590    -2.1620     0.4530 C.3   1 <1>   0.3430 
  6 N        2.9330    -1.4800     0.0410 N.4   1 <1>  -0.9590 
  7 C        3.8980    -1.4270     1.1740 C.3   1 <1>   0.4860 
  8 C        5.2470    -1.0000     0.6300 C.ar  1 <1>  -0.1430 
  9 C        6.0670    -1.8730    -0.0800 C.ar  1 <1>  -0.1430 
 10 C        5.6580     0.3080     0.8450 C.ar  1 <1>  -0.1500 
 11 C        7.2710    -1.4090    -0.5850 C.ar  1 <1>  -0.1500 
 12 C        5.7030    -3.3340    -0.3230 C.3   1 <1>  -0.0970 
 13 C        6.8610     0.7690     0.3420 C.ar  1 <1>  -0.1430 
 14 C        7.6750    -0.0920    -0.3840 C.ar  1 <1>   0.0830 
 15 C        7.2900     2.2100     0.5890 C.3   1 <1>  -0.0970 
 16 O        8.8440     0.4050    -0.8660 O.3   1 <1>  -0.3630 
 17 C        9.7920    -0.4090    -1.5200 C.3   1 <1>   0.0400 
 18 H        1.7360     0.8490    -2.2260 H     1 <1>   0.0800 
 19 H        2.4170    -0.7240    -2.6110 H     1 <1>   0.0800 
 20 H        1.2100    -3.0890    -1.4690 H     1 <1>   0.0800 
 21 H       -0.1840    -2.9120    -0.4130 H     1 <1>   0.0800 
 22 H        2.1840     0.5100     0.1650 H     1 <1>   0.0800 
 23 H        3.6630     0.3590    -0.7440 H     1 <1>   0.0800 
 24 H        1.8900    -3.0940     0.9430 H     1 <1>   0.0800 
 25 H        1.1260    -1.5420     1.1550 H     1 <1>   0.0800 
 26 H        3.3990    -2.0370    -0.6860 H     1 <1>   0.4500 
 27 H        3.9910    -2.3970     1.6340 H     1 <1>   0.0800 
 28 H        3.5620    -0.7270     1.9210 H     1 <1>   0.0800 
 29 H        5.0430     0.9860     1.4110 H     1 <1>   0.1500 
 30 H        7.8980    -2.0830    -1.1380 H     1 <1>   0.1500 
 31 H        5.3050    -3.7860     0.5680 H     1 <1>   0.0800 
 32 H        6.5770    -3.8980    -0.6010 H     1 <1>   0.0800 
 33 H        4.9890    -3.4180    -1.1210 H     1 <1>   0.0800 
 34 H        6.5620     2.7460     1.1690 H     1 <1>   0.0800 
 35 H        7.4240     2.7160    -0.3500 H     1 <1>   0.0800 
 36 H        8.2260     2.2230     1.1190 H     1 <1>   0.0800 
 37 H       10.6430     0.2010    -1.7650 H     1 <1>   0.0800 
 38 H        9.3550    -0.8020    -2.4200 H     1 <1>   0.0800 
 39 H       10.0910    -1.2010    -0.8560 H     1 <1>   0.0800 
@<TRIPOS>BOND
  1   1   2  1   
  2   1   3  1   
  3   2   4  1   
  4   2  18  1   
  5   2  19  1   
  6   3   5  1   
  7   3  20  1   
  8   3  21  1   
  9   4   6  1   
 10   4  22  1   
 11   4  23  1   
 12   5   6  1   
 13   5  24  1   
 14   5  25  1   
 15   6   7  1   
 16   6  26  1   
 17   7   8  1   
 18   7  27  1   
 19   7  28  1   
 20   8   9  ar  
 21   8  10  ar  
 22   9  11  ar  
 23   9  12  1   
 24  10  13  ar  
 25  10  29  1   
 26  11  14  ar  
 27  11  30  1   
 28  12  31  1   
 29  12  32  1   
 30  12  33  1   
 31  13  14  ar  
 32  13  15  1   
 33  14  16  1   
 34  15  34  1   
 35  15  35  1   
 36  15  36  1   
 37  16  17  1   
 38  17  37  1   
 39  17  38  1   
 40  17  39  1   
@<TRIPOS>SUBSTRUCTURE
  1 ****   8 GROUP 4 **** **** 0

# MOE 2024.06 (io_trps.svl 2023.06)
