@<TRIPOS>MOLECULE
NONAME
43 45 1 0 0 
SMALL
USER_CHARGES


@<TRIPOS>ATOM
  1 O       -1.2160     1.2400    -1.1190 O.2   1 <1>  -0.5700 
  2 C       -1.0970     1.9380    -0.1380 C.2   1 <1>   0.5690 
  3 N       -1.8760     1.8490     0.9680 N.am  1 <1>  -0.4200 
  4 C       -0.0950     3.1010    -0.0020 C.3   1 <1>   0.2510 
  5 C       -1.6090     2.8460     1.8430 C.2   1 <1>   0.5690 
  6 C       -3.0060     0.9170     1.1090 C.3   1 <1>   0.2840 
  7 N        1.3570     2.7560     0.1010 N.3   1 <1>  -0.8100 
  8 C       -0.5390     3.7670     1.3160 C.3   1 <1>  -0.0990 
  9 O       -2.1520     3.0120     2.9050 O.2   1 <1>  -0.5700 
 10 C       -4.2560     1.5540     0.5240 C.ar  1 <1>  -0.1430 
 11 C        1.7680     1.7110    -0.8600 C.3   1 <1>   0.1100 
 12 C        2.1900     3.9640    -0.0650 C.3   1 <1>   0.1100 
 13 C       -4.5800     1.3670    -0.8100 C.ar  1 <1>  -0.1500 
 14 C       -5.0800     2.3370     1.3180 C.ar  1 <1>  -0.1500 
 15 C        3.2350     1.3250    -0.6420 C.3   1 <1>  -0.1600 
 16 C        3.6620     3.6410     0.2010 C.3   1 <1>  -0.1600 
 17 C       -5.7190     1.9480    -1.3420 C.ar  1 <1>  -0.1500 
 18 C       -6.2170     2.9180     0.7860 C.ar  1 <1>  -0.1500 
 19 C        4.1620     2.5410    -0.7390 C.3   1 <1>  -0.1600 
 20 C       -6.5450     2.7250    -0.5460 C.ar  1 <1>  -0.1430 
 21 C       -7.7920     3.3620    -1.1300 C.3   1 <1>  -0.0970 
 22 H       -0.2510     3.7670    -0.8330 H     1 <1>   0.0800 
 23 H       -3.1570     0.6920     2.1500 H     1 <1>   0.0800 
 24 H       -2.7820     0.0000     0.5930 H     1 <1>   0.0800 
 25 H       -0.9630     4.7350     1.1350 H     1 <1>   0.0800 
 26 H        0.2550     3.8340     2.0360 H     1 <1>   0.0800 
 27 H        1.6220     2.0590    -1.8690 H     1 <1>   0.0800 
 28 H        1.1780     0.8230    -0.7170 H     1 <1>   0.0800 
 29 H        1.8780     4.7280     0.6260 H     1 <1>   0.0800 
 30 H        2.0800     4.3480    -1.0660 H     1 <1>   0.0800 
 31 H       -3.9430     0.7720    -1.4440 H     1 <1>   0.1500 
 32 H       -4.8350     2.5020     2.3540 H     1 <1>   0.1500 
 33 H        3.5230     0.5910    -1.3730 H     1 <1>   0.0800 
 34 H        3.3300     0.8740     0.3310 H     1 <1>   0.0800 
 35 H        3.7690     3.3250     1.2240 H     1 <1>   0.0800 
 36 H        4.2540     4.5290     0.0650 H     1 <1>   0.0800 
 37 H       -5.9560     1.7940    -2.3790 H     1 <1>   0.1500 
 38 H       -6.8450     3.5240     1.4150 H     1 <1>   0.1500 
 39 H        4.1670     2.9070    -1.7510 H     1 <1>   0.0800 
 40 H        5.1670     2.2590    -0.4770 H     1 <1>   0.0800 
 41 H       -7.5520     4.3320    -1.5280 H     1 <1>   0.0800 
 42 H       -8.5470     3.4740    -0.3720 H     1 <1>   0.0800 
 43 H       -8.1920     2.7510    -1.9190 H     1 <1>   0.0800 
@<TRIPOS>BOND
  1   1   2  2   
  2   2   3  am  
  3   2   4  1   
  4   3   5  am  
  5   3   6  1   
  6   4   7  1   
  7   4   8  1   
  8   4  22  1   
  9   5   8  1   
 10   5   9  2   
 11   6  10  1   
 12   6  23  1   
 13   6  24  1   
 14   7  11  1   
 15   7  12  1   
 16   8  25  1   
 17   8  26  1   
 18  10  13  ar  
 19  10  14  ar  
 20  11  15  1   
 21  11  27  1   
 22  11  28  1   
 23  12  16  1   
 24  12  29  1   
 25  12  30  1   
 26  13  17  ar  
 27  13  31  1   
 28  14  18  ar  
 29  14  32  1   
 30  15  19  1   
 31  15  33  1   
 32  15  34  1   
 33  16  19  1   
 34  16  35  1   
 35  16  36  1   
 36  17  20  ar  
 37  17  37  1   
 38  18  20  ar  
 39  18  38  1   
 40  19  39  1   
 41  19  40  1   
 42  20  21  1   
 43  21  41  1   
 44  21  42  1   
 45  21  43  1   
@<TRIPOS>SUBSTRUCTURE
  1 ****   2 GROUP 4 **** **** 0

# MOE 2024.06 (io_trps.svl 2023.06)
