@<TRIPOS>MOLECULE
NONAME
48 50 1 0 0 
SMALL
USER_CHARGES


@<TRIPOS>ATOM
  1 O       -3.4890     0.0060     1.6400 O.3   1 <1>  -0.3630 
  2 C       -3.4060     0.5080     0.3740 C.ar  1 <1>   0.0830 
  3 C       -2.3880    -0.0440     2.5200 C.3   1 <1>   0.0400 
  4 C       -2.3350     1.2220    -0.1900 C.ar  1 <1>   0.0830 
  5 C       -4.5250     0.2650    -0.4030 C.ar  1 <1>  -0.1500 
  6 O       -1.2080     1.5280     0.4860 O.3   1 <1>  -0.5330 
  7 C       -2.4140     1.6590    -1.5030 C.ar  1 <1>  -0.1500 
  8 C       -4.6110     0.7150    -1.7120 C.ar  1 <1>  -0.1440 
  9 C       -3.5440     1.4080    -2.2620 C.ar  1 <1>  -0.1500 
 10 C       -5.8700     0.4630    -2.5200 C.3   1 <1>   0.4860 
 11 N       -6.9860     1.2240    -1.9050 N.4   1 <1>  -0.9590 
 12 C       -8.3320     0.9530    -2.5030 C.3   1 <1>   0.3430 
 13 C       -6.7370     2.6980    -1.7700 C.3   1 <1>   0.3430 
 14 C       -9.4460     1.6780    -1.7090 C.3   1 <1>   0.1100 
 15 C       -7.8630     3.3760    -0.9510 C.3   1 <1>   0.1100 
 16 N       -8.9110     2.4150    -0.5350 N.3   1 <1>  -0.8100 
 17 C       -9.9750     3.0700     0.2520 C.3   1 <1>   0.2530 
 18 C      -10.9580     2.0380     0.7840 C.ar  1 <1>  -0.1430 
 19 C      -12.2880     2.0590     0.3880 C.ar  1 <1>  -0.1500 
 20 C      -10.5300     1.0620     1.6710 C.ar  1 <1>  -0.1500 
 21 C      -13.1760     1.1130     0.8710 C.ar  1 <1>  -0.1500 
 22 C      -11.4160     0.1160     2.1540 C.ar  1 <1>  -0.1500 
 23 C      -12.7400     0.1400     1.7530 C.ar  1 <1>  -0.1500 
 24 H       -2.6840    -0.5900     3.3970 H     1 <1>   0.0800 
 25 H       -2.1120     0.9590     2.7910 H     1 <1>   0.0800 
 26 H       -1.5730    -0.5480     2.0320 H     1 <1>   0.0800 
 27 H       -5.3310    -0.2890     0.0470 H     1 <1>   0.1500 
 28 H       -0.5590     2.0200    -0.0470 H     1 <1>   0.4500 
 29 H       -1.5940     2.1980    -1.9430 H     1 <1>   0.1500 
 30 H       -3.5770     1.7600    -3.2800 H     1 <1>   0.1500 
 31 H       -6.0920    -0.5920    -2.5130 H     1 <1>   0.0800 
 32 H       -5.7220     0.7770    -3.5390 H     1 <1>   0.0800 
 33 H       -7.0850     0.9230    -0.9220 H     1 <1>   0.4500 
 34 H       -8.5330    -0.1050    -2.4900 H     1 <1>   0.0800 
 35 H       -8.3570     1.2820    -3.5290 H     1 <1>   0.0800 
 36 H       -6.6790     3.1550    -2.7440 H     1 <1>   0.0800 
 37 H       -5.7970     2.8690    -1.2700 H     1 <1>   0.0800 
 38 H      -10.1580     0.9380    -1.3820 H     1 <1>   0.0800 
 39 H       -9.9670     2.3570    -2.3620 H     1 <1>   0.0800 
 40 H       -8.3000     4.1670    -1.5370 H     1 <1>   0.0800 
 41 H       -7.4270     3.8260    -0.0740 H     1 <1>   0.0800 
 42 H      -10.4900     3.7960    -0.3540 H     1 <1>   0.0800 
 43 H       -9.5360     3.5850     1.0900 H     1 <1>   0.0800 
 44 H      -12.6430     2.8110    -0.2940 H     1 <1>   0.1500 
 45 H       -9.5000     1.0380     1.9840 H     1 <1>   0.1500 
 46 H      -14.2070     1.1340     0.5620 H     1 <1>   0.1500 
 47 H      -11.0770    -0.6380     2.8430 H     1 <1>   0.1500 
 48 H      -13.4310    -0.5940     2.1290 H     1 <1>   0.1500 
@<TRIPOS>BOND
  1   1   2  1   
  2   1   3  1   
  3   2   4  ar  
  4   2   5  ar  
  5   3  24  1   
  6   3  25  1   
  7   3  26  1   
  8   4   6  1   
  9   4   7  ar  
 10   5   8  ar  
 11   5  27  1   
 12   6  28  1   
 13   7   9  ar  
 14   7  29  1   
 15   8   9  ar  
 16   8  10  1   
 17   9  30  1   
 18  10  11  1   
 19  10  31  1   
 20  10  32  1   
 21  11  12  1   
 22  11  13  1   
 23  11  33  1   
 24  12  14  1   
 25  12  34  1   
 26  12  35  1   
 27  13  15  1   
 28  13  36  1   
 29  13  37  1   
 30  14  16  1   
 31  14  38  1   
 32  14  39  1   
 33  15  16  1   
 34  15  40  1   
 35  15  41  1   
 36  16  17  1   
 37  17  18  1   
 38  17  42  1   
 39  17  43  1   
 40  18  19  ar  
 41  18  20  ar  
 42  19  21  ar  
 43  19  44  1   
 44  20  22  ar  
 45  20  45  1   
 46  21  23  ar  
 47  21  46  1   
 48  22  23  ar  
 49  22  47  1   
 50  23  48  1   
@<TRIPOS>SUBSTRUCTURE
  1 ****  11 GROUP 4 **** **** 0

# MOE 2024.06 (io_trps.svl 2023.06)
