@<TRIPOS>MOLECULE
NONAME
33 33 1 0 0 
SMALL
USER_CHARGES


@<TRIPOS>ATOM
  1 S        0.0740    -0.0710     0.9190 S.o2  1 <1>   1.3330 
  2 O        1.0910    -0.3960     1.8960 O.2   1 <1>  -0.6500 
  3 O       -1.1960     0.4440     1.3740 O.2   1 <1>  -0.6500 
  4 N       -0.2010    -1.4470    -0.0380 N.am  1 <1>  -0.8490 
  5 C        0.7260     1.0940    -0.2600 C.3   1 <1>  -0.1350 
  6 C        0.9060    -2.4430    -0.0090 C.3   1 <1>   0.2570 
  7 C       -1.4990    -2.0930     0.2130 C.3   1 <1>   0.1960 
  8 C        2.2710    -1.9660    -0.5380 C.2   1 <1>   0.5690 
  9 C       -2.5880    -1.4840    -0.6750 C.3   1 <1>  -0.0170 
 10 O        2.5590    -2.1340    -1.6950 O.2   1 <1>  -0.5700 
 11 N        3.1540    -1.3680     0.2860 N.am  1 <1>  -0.8000 
 12 C       -3.9080    -2.1960    -0.4330 C.ar  1 <1>  -0.1440 
 13 C       -4.7110    -1.8180     0.6310 C.ar  1 <1>  -0.1500 
 14 C       -4.3180    -3.2280    -1.2630 C.ar  1 <1>  -0.1500 
 15 C       -5.9120    -2.4660     0.8650 C.ar  1 <1>  -0.1500 
 16 C       -5.5190    -3.8760    -1.0310 C.ar  1 <1>  -0.1500 
 17 C       -6.3160    -3.4960     0.0340 C.ar  1 <1>  -0.1500 
 18 H        1.6260     0.7220    -0.7070 H     1 <1>   0.0800 
 19 H        0.9410     2.0250     0.2260 H     1 <1>   0.0800 
 20 H        0.0070     1.2690    -1.0360 H     1 <1>   0.0800 
 21 H        0.6290    -3.2860    -0.6180 H     1 <1>   0.0800 
 22 H        1.0370    -2.8030     0.9970 H     1 <1>   0.0800 
 23 H       -1.7710    -2.0080     1.2530 H     1 <1>   0.0800 
 24 H       -1.4470    -3.1430    -0.0210 H     1 <1>   0.0800 
 25 H       -2.3040    -1.5840    -1.7070 H     1 <1>   0.0800 
 26 H       -2.7100    -0.4380    -0.4610 H     1 <1>   0.0800 
 27 H        4.0660    -1.0680    -0.0590 H     1 <1>   0.3700 
 28 H        2.8920    -1.0750     1.2380 H     1 <1>   0.3700 
 29 H       -4.4040    -1.0170     1.2830 H     1 <1>   0.1500 
 30 H       -3.7060    -3.5310    -2.0950 H     1 <1>   0.1500 
 31 H       -6.5310    -2.1670     1.6930 H     1 <1>   0.1500 
 32 H       -5.8330    -4.6750    -1.6790 H     1 <1>   0.1500 
 33 H       -7.2500    -3.9990     0.2150 H     1 <1>   0.1500 
@<TRIPOS>BOND
  1   1   2  2   
  2   1   3  2   
  3   1   4  am  
  4   1   5  1   
  5   4   6  1   
  6   4   7  1   
  7   5  18  1   
  8   5  19  1   
  9   5  20  1   
 10   6   8  1   
 11   6  21  1   
 12   6  22  1   
 13   7   9  1   
 14   7  23  1   
 15   7  24  1   
 16   8  10  2   
 17   8  11  am  
 18   9  12  1   
 19   9  25  1   
 20   9  26  1   
 21  11  27  1   
 22  11  28  1   
 23  12  13  ar  
 24  12  14  ar  
 25  13  15  ar  
 26  13  29  1   
 27  14  16  ar  
 28  14  30  1   
 29  15  17  ar  
 30  15  31  1   
 31  16  17  ar  
 32  16  32  1   
 33  17  33  1   
@<TRIPOS>SUBSTRUCTURE
  1 ****   7 GROUP 4 **** **** 0

# MOE 2024.06 (io_trps.svl 2023.06)
