@<TRIPOS>MOLECULE
NONAME
60 62 1 0 0 
SMALL
USER_CHARGES


@<TRIPOS>ATOM
  1 S       -0.3320     0.4070    -0.4520 S.o2  1 <1>   1.4470 
  2 O       -1.0050     1.6450    -0.7720 O.2   1 <1>  -0.6500 
  3 O       -0.6260    -0.8150    -1.1620 O.2   1 <1>  -0.6500 
  4 N       -0.5620     0.0130     1.1620 N.am  1 <1>  -0.9140 
  5 C        1.4550     0.7020    -0.5100 C.ar  1 <1>  -0.0090 
  6 C       -1.8550     0.2800     1.7550 C.3   1 <1>   0.4190 
  7 C        2.0260     1.7360     0.2230 C.ar  1 <1>  -0.1500 
  8 C        2.2980    -0.0920    -1.2810 C.ar  1 <1>  -0.1500 
  9 C       -3.0000    -0.3490     0.9600 C.ar  1 <1>  -0.1440 
 10 C       -2.0240     1.7560     2.1220 C.3   1 <1>  -0.2400 
 11 C        3.3890     1.9690     0.1900 C.ar  1 <1>  -0.1500 
 12 C        3.6640     0.1320    -1.3220 C.ar  1 <1>  -0.1500 
 13 C       -3.3170    -1.6820     1.1880 C.ar  1 <1>  -0.1500 
 14 C       -3.7410     0.3600     0.0220 C.ar  1 <1>  -0.1500 
 15 C        4.2170     1.1710    -0.5810 C.ar  1 <1>   0.0830 
 16 C       -4.3480    -2.2930     0.4970 C.ar  1 <1>  -0.1500 
 17 C       -4.7720    -0.2500    -0.6700 C.ar  1 <1>  -0.1500 
 18 O        5.5370     1.4650    -0.5620 O.3   1 <1>  -0.3620 
 19 C       -5.0780    -1.5770    -0.4330 C.ar  1 <1>  -0.1500 
 20 C        6.4720     0.7280    -1.3410 C.3   1 <1>   0.1810 
 21 C        7.8850     1.2700    -1.1690 C.2   1 <1>   0.5690 
 22 O        8.7850     0.7250    -1.7610 O.2   1 <1>  -0.5700 
 23 N        8.0900     2.3430    -0.3610 N.am  1 <1>  -0.7300 
 24 C        9.3820     2.9920    -0.0880 C.3   1 <1>   0.2200 
 25 C        9.6520     2.8570     1.4180 C.3   1 <1>  -0.1600 
 26 C        9.2760     4.4560    -0.5350 C.3   1 <1>  -0.1600 
 27 C       11.0770     3.2220     1.8580 C.3   1 <1>  -0.1600 
 28 C       10.6140     5.1120    -0.9150 C.3   1 <1>  -0.1600 
 29 C       11.5390     4.6310     1.4560 C.3   1 <1>  -0.1600 
 30 C       11.8290     4.7470    -0.0480 C.3   1 <1>  -0.1600 
 31 H       -0.5150    -1.0020     1.1200 H     1 <1>   0.4200 
 32 H       -1.8490    -0.2300     2.7040 H     1 <1>   0.0800 
 33 H        1.3920     2.3650     0.8250 H     1 <1>   0.1500 
 34 H        1.8790    -0.8990    -1.8590 H     1 <1>   0.1500 
 35 H       -2.0840     2.3940     1.2630 H     1 <1>   0.0800 
 36 H       -1.2020     2.0740     2.7370 H     1 <1>   0.0800 
 37 H       -2.9320     1.8760     2.6820 H     1 <1>   0.0800 
 38 H        3.8160     2.7730     0.7620 H     1 <1>   0.1500 
 39 H        4.2700    -0.5100    -1.9320 H     1 <1>   0.1500 
 40 H       -2.7620    -2.2590     1.9070 H     1 <1>   0.1500 
 41 H       -3.5200     1.3920    -0.1900 H     1 <1>   0.1500 
 42 H       -4.5830    -3.3270     0.6820 H     1 <1>   0.1500 
 43 H       -5.3330     0.3110    -1.3980 H     1 <1>   0.1500 
 44 H       -5.8790    -2.0500    -0.9730 H     1 <1>   0.1500 
 45 H        6.1900     0.8030    -2.3740 H     1 <1>   0.0800 
 46 H        6.4470    -0.2980    -1.0230 H     1 <1>   0.0800 
 47 H        7.2770     2.7450     0.1090 H     1 <1>   0.3700 
 48 H       10.1520     2.4870    -0.6500 H     1 <1>   0.0800 
 49 H        9.4840     1.8320     1.7000 H     1 <1>   0.0800 
 50 H        8.9510     3.4630     1.9630 H     1 <1>   0.0800 
 51 H        8.8110     5.0330     0.2440 H     1 <1>   0.0800 
 52 H        8.6390     4.5160    -1.4010 H     1 <1>   0.0800 
 53 H       11.7660     2.4950     1.4630 H     1 <1>   0.0800 
 54 H       11.1220     3.1450     2.9300 H     1 <1>   0.0800 
 55 H       10.4780     6.1790    -0.8890 H     1 <1>   0.0800 
 56 H       10.8480     4.8510    -1.9330 H     1 <1>   0.0800 
 57 H       12.4560     4.8320     1.9830 H     1 <1>   0.0800 
 58 H       10.8250     5.3740     1.7670 H     1 <1>   0.0800 
 59 H       12.5760     5.5090    -0.1960 H     1 <1>   0.0800 
 60 H       12.2580     3.8250    -0.4020 H     1 <1>   0.0800 
@<TRIPOS>BOND
  1   1   2  2   
  2   1   3  2   
  3   1   4  am  
  4   1   5  1   
  5   4   6  1   
  6   4  31  1   
  7   5   7  ar  
  8   5   8  ar  
  9   6   9  1   
 10   6  10  1   
 11   6  32  1   
 12   7  11  ar  
 13   7  33  1   
 14   8  12  ar  
 15   8  34  1   
 16   9  13  ar  
 17   9  14  ar  
 18  10  35  1   
 19  10  36  1   
 20  10  37  1   
 21  11  15  ar  
 22  11  38  1   
 23  12  15  ar  
 24  12  39  1   
 25  13  16  ar  
 26  13  40  1   
 27  14  17  ar  
 28  14  41  1   
 29  15  18  1   
 30  16  19  ar  
 31  16  42  1   
 32  17  19  ar  
 33  17  43  1   
 34  18  20  1   
 35  19  44  1   
 36  20  21  1   
 37  20  45  1   
 38  20  46  1   
 39  21  22  2   
 40  21  23  am  
 41  23  24  1   
 42  23  47  1   
 43  24  25  1   
 44  24  26  1   
 45  24  48  1   
 46  25  27  1   
 47  25  49  1   
 48  25  50  1   
 49  26  28  1   
 50  26  51  1   
 51  26  52  1   
 52  27  29  1   
 53  27  53  1   
 54  27  54  1   
 55  28  30  1   
 56  28  55  1   
 57  28  56  1   
 58  29  30  1   
 59  29  57  1   
 60  29  58  1   
 61  30  59  1   
 62  30  60  1   
@<TRIPOS>SUBSTRUCTURE
  1 ****  11 GROUP 4 **** **** 0

# MOE 2024.06 (io_trps.svl 2023.06)
