@<TRIPOS>MOLECULE
NONAME
27 28 1 0 0 
SMALL
USER_CHARGES


@<TRIPOS>ATOM
  1 S       -0.2510    -0.4620     0.0200 S.3   1 <1>  -0.0800 
  2 C        1.2300     0.4830     0.0050 C.ar  1 <1>   0.2970 
  3 C       -1.2460     0.9910     0.0520 C.2   1 <1>  -0.1400 
  4 N        2.4190    -0.0780    -0.0210 N.ar  1 <1>  -0.5670 
  5 C        0.9520     1.8330     0.0230 C.ar  1 <1>   0.0000 
  6 C       -0.4780     2.1000     0.0500 C.2   1 <1>  -0.1810 
  7 C       -2.7420     0.7350     0.0750 C.3   1 <1>  -0.0600 
  8 C        3.4070     0.7900    -0.0300 C.ar  1 <1>   0.4770 
  9 C        2.1090     2.6070     0.0110 C.ar  1 <1>   0.4120 
 10 C       -1.0270     3.5200     0.0740 C.3   1 <1>  -0.0590 
 11 N        3.3280     2.1150    -0.0150 N.ar  1 <1>  -0.6200 
 12 C        4.8050     0.2190    -0.0590 C.3   1 <1>  -0.0960 
 13 S        2.0330     4.3940     0.0300 S.3   1 <1>  -0.3320 
 14 C        3.8090     4.9160     0.0050 C.3   1 <1>   0.2700 
 15 C        3.8900     6.4030     0.0180 C.1   1 <1>   0.3570 
 16 N        3.9840     7.5380     0.0280 N.1   1 <1>  -0.5570 
 17 H       -2.9980     0.1610     0.9480 H     1 <1>   0.0800 
 18 H       -3.0280     0.1780    -0.7990 H     1 <1>   0.0800 
 19 H       -3.2990     1.6510     0.0940 H     1 <1>   0.0800 
 20 H       -2.1000     3.5280     0.0930 H     1 <1>   0.0800 
 21 H       -0.7080     4.0540    -0.8030 H     1 <1>   0.0800 
 22 H       -0.6780     4.0360     0.9500 H     1 <1>   0.0800 
 23 H        4.7750    -0.8560    -0.0700 H     1 <1>   0.0800 
 24 H        5.3440     0.5430     0.8100 H     1 <1>   0.0800 
 25 H        5.3140     0.5610    -0.9400 H     1 <1>   0.0800 
 26 H        4.2500     4.5170    -0.8890 H     1 <1>   0.0800 
 27 H        4.2810     4.5000     0.8760 H     1 <1>   0.0800 
@<TRIPOS>BOND
  1   1   2  1   
  2   1   3  1   
  3   2   4  ar  
  4   2   5  ar  
  5   3   6  2   
  6   3   7  1   
  7   4   8  ar  
  8   5   6  1   
  9   5   9  ar  
 10   6  10  1   
 11   7  17  1   
 12   7  18  1   
 13   7  19  1   
 14   8  11  ar  
 15   8  12  1   
 16   9  11  ar  
 17   9  13  1   
 18  10  20  1   
 19  10  21  1   
 20  10  22  1   
 21  12  23  1   
 22  12  24  1   
 23  12  25  1   
 24  13  14  1   
 25  14  15  1   
 26  14  26  1   
 27  14  27  1   
 28  15  16  3   
@<TRIPOS>SUBSTRUCTURE
  1 ****   9 GROUP 4 **** **** 0

# MOE 2024.06 (io_trps.svl 2023.06)
