@<TRIPOS>MOLECULE
NONAME
24 24 1 0 0 
SMALL
USER_CHARGES


@<TRIPOS>ATOM
  1 CL       1.6040    -0.3150    -2.9090 Cl    1 <1>  -0.1770 
  2 C        2.5380    -1.1130    -1.6720 C.ar  1 <1>   0.1770 
  3 C        3.3060    -0.3590    -0.8060 C.ar  1 <1>  -0.1500 
  4 C        2.4980    -2.4890    -1.5700 C.ar  1 <1>  -0.1500 
  5 C        4.0470    -0.9990     0.1730 C.ar  1 <1>  -0.1500 
  6 C        3.2440    -3.1170    -0.5860 C.ar  1 <1>  -0.1500 
  7 C        4.0370    -2.3870     0.2970 C.ar  1 <1>  -0.0090 
  8 S        5.0390    -3.2100     1.5650 S.o2  1 <1>   1.2040 
  9 O        4.6510    -4.6050     1.6110 O.2   1 <1>  -0.6500 
 10 O        4.8700    -2.4490     2.7870 O.2   1 <1>  -0.6500 
 11 C        6.7730    -3.0380     0.9290 C.3   1 <1>   0.7850 
 12 F        7.1270    -1.7480     0.9000 F     1 <1>  -0.3400 
 13 F        7.6610    -3.5450     1.7880 F     1 <1>  -0.3400 
 14 C        7.1060    -3.6010    -0.4490 C.3   1 <1>   0.2600 
 15 F        6.4490    -2.9030    -1.3890 F     1 <1>  -0.3400 
 16 C        6.8320    -5.0980    -0.6240 C.3   1 <1>   1.0200 
 17 F        7.1640    -5.8280     0.4290 F     1 <1>  -0.3400 
 18 F        5.5620    -5.3690    -0.8860 F     1 <1>  -0.3400 
 19 F        7.5220    -5.5960    -1.6410 F     1 <1>  -0.3400 
 20 H        3.3170     0.7120    -0.9000 H     1 <1>   0.1500 
 21 H        1.8900    -3.0580    -2.2500 H     1 <1>   0.1500 
 22 H        4.6370    -0.4040     0.8530 H     1 <1>   0.1500 
 23 H        3.2000    -4.1920    -0.5060 H     1 <1>   0.1500 
 24 H        8.1470    -3.4270    -0.6420 H     1 <1>   0.0800 
@<TRIPOS>BOND
  1   1   2  1   
  2   2   3  ar  
  3   2   4  ar  
  4   3   5  ar  
  5   3  20  1   
  6   4   6  ar  
  7   4  21  1   
  8   5   7  ar  
  9   5  22  1   
 10   6   7  ar  
 11   6  23  1   
 12   7   8  1   
 13   8   9  2   
 14   8  10  2   
 15   8  11  1   
 16  11  12  1   
 17  11  13  1   
 18  11  14  1   
 19  14  15  1   
 20  14  16  1   
 21  14  24  1   
 22  16  17  1   
 23  16  18  1   
 24  16  19  1   
@<TRIPOS>SUBSTRUCTURE
  1 ****   7 GROUP 4 **** **** 0

# MOE 2024.06 (io_trps.svl 2023.06)
