@<TRIPOS>MOLECULE
NONAME
45 47 1 0 0 
SMALL
USER_CHARGES


@<TRIPOS>ATOM
  1 O       -3.8020     0.9340    -1.7560 O.2   1 <1>  -0.5700 
  2 C       -4.1620     0.4910    -0.6880 C.2   1 <1>   0.5690 
  3 N       -4.7270     1.3210     0.2410 N.am  1 <1>  -0.4770 
  4 C       -3.9600    -0.9870    -0.3410 C.3   1 <1>  -0.0190 
  5 C       -5.8790     2.0560    -0.0360 C.ar  1 <1>   0.1170 
  6 C       -3.9190     2.1080     1.2290 C.3   1 <1>   0.2200 
  7 C       -2.5870    -1.5160    -0.7920 C.3   1 <1>  -0.2400 
  8 C       -5.0740    -1.8520    -0.9500 C.3   1 <1>  -0.2400 
  9 C       -5.8230     3.3280     0.4820 C.ar  1 <1>  -0.1430 
 10 C       -6.9990     1.6450    -0.7420 C.ar  1 <1>  -0.1500 
 11 C       -4.4850     3.5490     1.1370 C.3   1 <1>   0.0630 
 12 C       -2.3930     2.0770     0.9920 C.3   1 <1>  -0.1600 
 13 C       -6.8800     4.2080     0.3450 C.ar  1 <1>  -0.1500 
 14 C       -8.0610     2.5210    -0.8940 C.ar  1 <1>  -0.1500 
 15 C       -3.6420     4.4500     0.2170 C.3   1 <1>   0.3430 
 16 C       -1.9390     2.7330    -0.3220 C.3   1 <1>   0.3430 
 17 C       -8.0110     3.7980    -0.3490 C.ar  1 <1>  -0.1440 
 18 N       -2.9940     3.6370    -0.8590 N.4   1 <1>  -0.9590 
 19 C       -9.1910     4.7390    -0.5200 C.3   1 <1>  -0.0970 
 20 C       -2.5060     4.4530    -2.0060 C.3   1 <1>   0.2630 
 21 H       -4.0160    -1.0860     0.7290 H     1 <1>   0.0800 
 22 H       -4.1370     1.7120     2.2070 H     1 <1>   0.0800 
 23 H       -2.4980    -1.4600    -1.8640 H     1 <1>   0.0800 
 24 H       -2.4650    -2.5420    -0.4940 H     1 <1>   0.0800 
 25 H       -1.7950    -0.9390    -0.3540 H     1 <1>   0.0800 
 26 H       -5.0710    -1.7650    -2.0230 H     1 <1>   0.0800 
 27 H       -6.0340    -1.5350    -0.5830 H     1 <1>   0.0800 
 28 H       -4.9370    -2.8860    -0.6870 H     1 <1>   0.0800 
 29 H       -7.0440     0.6580    -1.1630 H     1 <1>   0.1500 
 30 H       -4.6010     3.9980     2.1070 H     1 <1>   0.0800 
 31 H       -2.0260     1.0690     1.0430 H     1 <1>   0.0800 
 32 H       -1.9210     2.6060     1.8010 H     1 <1>   0.0800 
 33 H       -6.8350     5.1980     0.7640 H     1 <1>   0.1500 
 34 H       -8.9340     2.2040    -1.4390 H     1 <1>   0.1500 
 35 H       -2.8820     4.9480     0.7950 H     1 <1>   0.0800 
 36 H       -4.2820     5.2000    -0.2190 H     1 <1>   0.0800 
 37 H       -1.7390     1.9630    -1.0520 H     1 <1>   0.0800 
 38 H       -1.0260     3.2800    -0.1550 H     1 <1>   0.0800 
 39 H       -3.7230     2.9870    -1.2320 H     1 <1>   0.4500 
 40 H       -9.1360     5.2230    -1.4780 H     1 <1>   0.0800 
 41 H       -9.1950     5.4900     0.2500 H     1 <1>   0.0800 
 42 H      -10.1150     4.1910    -0.4600 H     1 <1>   0.0800 
 43 H       -1.7270     5.1260    -1.6870 H     1 <1>   0.0800 
 44 H       -3.3160     5.0300    -2.4230 H     1 <1>   0.0800 
 45 H       -2.1150     3.8090    -2.7780 H     1 <1>   0.0800 
@<TRIPOS>BOND
  1   1   2  2   
  2   2   3  am  
  3   2   4  1   
  4   3   5  1   
  5   3   6  1   
  6   4   7  1   
  7   4   8  1   
  8   4  21  1   
  9   5   9  ar  
 10   5  10  ar  
 11   6  11  1   
 12   6  12  1   
 13   6  22  1   
 14   7  23  1   
 15   7  24  1   
 16   7  25  1   
 17   8  26  1   
 18   8  27  1   
 19   8  28  1   
 20   9  11  1   
 21   9  13  ar  
 22  10  14  ar  
 23  10  29  1   
 24  11  15  1   
 25  11  30  1   
 26  12  16  1   
 27  12  31  1   
 28  12  32  1   
 29  13  17  ar  
 30  13  33  1   
 31  14  17  ar  
 32  14  34  1   
 33  15  18  1   
 34  15  35  1   
 35  15  36  1   
 36  16  18  1   
 37  16  37  1   
 38  16  38  1   
 39  17  19  1   
 40  18  20  1   
 41  18  39  1   
 42  19  40  1   
 43  19  41  1   
 44  19  42  1   
 45  20  43  1   
 46  20  44  1   
 47  20  45  1   
@<TRIPOS>SUBSTRUCTURE
  1 ****   3 GROUP 4 **** **** 0

# MOE 2024.06 (io_trps.svl 2023.06)
