@<TRIPOS>MOLECULE
NONAME
34 35 1 0 0 
SMALL
USER_CHARGES


@<TRIPOS>ATOM
  1 N        0.8270     3.7970    -0.2610 N.ar  1 <1>  -0.6200 
  2 C        0.7190     4.8190     0.5820 C.ar  1 <1>   0.7200 
  3 C        2.0210     3.5910    -0.7540 C.ar  1 <1>   0.1670 
  4 N        1.6760     5.6490     0.9670 N.ar  1 <1>  -0.6200 
  5 N       -0.4900     5.0860     1.1250 N.pl3 1 <1>  -0.8690 
  6 C        3.0890     4.3900    -0.4190 C.ar  1 <1>  -0.1500 
  7 C        2.1750     2.4310    -1.7130 C.3   1 <1>  -0.0970 
  8 C        2.8620     5.4240     0.4600 C.ar  1 <1>   0.1670 
  9 C       -1.7780     4.6390     0.5820 C.3   1 <1>   0.2890 
 10 C        3.9770     6.3540     0.8860 C.3   1 <1>  -0.0970 
 11 C       -2.2770     5.6740    -0.4320 C.3   1 <1>  -0.1600 
 12 C       -2.7650     4.4770     1.7400 C.3   1 <1>  -0.1600 
 13 C       -3.6800     5.3200    -0.9470 C.3   1 <1>  -0.1600 
 14 C       -4.1700     4.1180     1.2310 C.3   1 <1>  -0.1600 
 15 C       -4.6710     5.1520     0.2130 C.3   1 <1>  -0.1600 
 16 H       -0.4990     5.9650     1.6330 H     1 <1>   0.4000 
 17 H        4.0650     4.2130    -0.8280 H     1 <1>   0.1500 
 18 H        1.5260     2.5760    -2.5580 H     1 <1>   0.0800 
 19 H        1.8990     1.5180    -1.2180 H     1 <1>   0.0800 
 20 H        3.1880     2.3480    -2.0610 H     1 <1>   0.0800 
 21 H       -1.6600     3.6870     0.0900 H     1 <1>   0.0800 
 22 H        3.7260     7.3630     0.6120 H     1 <1>   0.0800 
 23 H        4.9060     6.0860     0.4180 H     1 <1>   0.0800 
 24 H        4.0960     6.3050     1.9530 H     1 <1>   0.0800 
 25 H       -1.5920     5.7120    -1.2610 H     1 <1>   0.0800 
 26 H       -2.3060     6.6440     0.0320 H     1 <1>   0.0800 
 27 H       -2.8170     5.3960     2.2970 H     1 <1>   0.0800 
 28 H       -2.4120     3.7010     2.3960 H     1 <1>   0.0800 
 29 H       -3.6300     4.4020    -1.5080 H     1 <1>   0.0800 
 30 H       -4.0260     6.0930    -1.6100 H     1 <1>   0.0800 
 31 H       -4.8520     4.0680     2.0620 H     1 <1>   0.0800 
 32 H       -4.1420     3.1470     0.7680 H     1 <1>   0.0800 
 33 H       -5.6280     4.8450    -0.1720 H     1 <1>   0.0800 
 34 H       -4.8040     6.1010     0.7060 H     1 <1>   0.0800 
@<TRIPOS>BOND
  1   1   2  ar  
  2   1   3  ar  
  3   2   4  ar  
  4   2   5  1   
  5   3   6  ar  
  6   3   7  1   
  7   4   8  ar  
  8   5   9  1   
  9   5  16  1   
 10   6   8  ar  
 11   6  17  1   
 12   7  18  1   
 13   7  19  1   
 14   7  20  1   
 15   8  10  1   
 16   9  11  1   
 17   9  12  1   
 18   9  21  1   
 19  10  22  1   
 20  10  23  1   
 21  10  24  1   
 22  11  13  1   
 23  11  25  1   
 24  11  26  1   
 25  12  14  1   
 26  12  27  1   
 27  12  28  1   
 28  13  15  1   
 29  13  29  1   
 30  13  30  1   
 31  14  15  1   
 32  14  31  1   
 33  14  32  1   
 34  15  33  1   
 35  15  34  1   
@<TRIPOS>SUBSTRUCTURE
  1 ****   2 GROUP 4 **** **** 0

# MOE 2024.06 (io_trps.svl 2023.06)
