@<TRIPOS>MOLECULE
NONAME
39 38 1 0 0 
SMALL
USER_CHARGES


@<TRIPOS>ATOM
  1 O        0.2470     0.4380     0.3210 O.3   1 <1>  -0.5600 
  2 C        0.7810     1.7250     0.4420 C.3   1 <1>   0.2000 
  3 C       -0.6570     0.2550    -0.7250 C.3   1 <1>   0.1200 
  4 C        2.1750     1.6190     1.0810 C.3   1 <1>   0.0400 
  5 C       -0.1740     2.5650     1.2940 C.3   1 <1>  -0.2400 
  6 C       -0.9140    -1.2430    -0.8910 C.3   1 <1>   0.0400 
  7 C        3.0640     0.7070     0.2980 C.1   1 <1>  -0.2000 
  8 C        0.3310    -1.9740    -1.2610 C.1   1 <1>   0.3570 
  9 C        3.6460    -0.1070    -0.3410 C.1   1 <1>  -0.2000 
 10 N        1.2820    -2.5320    -1.5490 N.1   1 <1>  -0.5570 
 11 C        4.2140    -1.2390    -1.1220 C.3   1 <1>   0.5430 
 12 N        4.6660    -2.2970    -0.1770 N.4   1 <1>  -0.9590 
 13 C        5.3800    -3.3590    -0.9290 C.3   1 <1>   0.3430 
 14 C        3.5170    -2.8260     0.6140 C.3   1 <1>   0.3430 
 15 C        6.1520    -4.2620     0.0260 C.3   1 <1>  -0.2400 
 16 C        3.8460    -2.7010     2.0950 C.3   1 <1>  -0.2400 
 17 H        0.8870     2.1580    -0.5390 H     1 <1>   0.0800 
 18 H       -0.2380     0.6600    -1.6310 H     1 <1>   0.0800 
 19 H       -1.5700     0.7710    -0.4840 H     1 <1>   0.0800 
 20 H        2.0820     1.2500     2.0860 H     1 <1>   0.0800 
 21 H        2.6230     2.5950     1.1250 H     1 <1>   0.0800 
 22 H       -0.3230     2.1030     2.2540 H     1 <1>   0.0800 
 23 H       -1.1220     2.6770     0.8030 H     1 <1>   0.0800 
 24 H        0.2380     3.5460     1.4470 H     1 <1>   0.0800 
 25 H       -1.6420    -1.3950    -1.6660 H     1 <1>   0.0800 
 26 H       -1.3090    -1.6440     0.0240 H     1 <1>   0.0800 
 27 H        5.0450    -0.8810    -1.7060 H     1 <1>   0.0800 
 28 H        3.4670    -1.6300    -1.7930 H     1 <1>   0.0800 
 29 H        5.3040    -1.8370     0.4800 H     1 <1>   0.4500 
 30 H        6.0780    -2.9080    -1.6160 H     1 <1>   0.0800 
 31 H        4.6750    -3.9430    -1.5010 H     1 <1>   0.0800 
 32 H        3.3210    -3.8540     0.3550 H     1 <1>   0.0800 
 33 H        2.6250    -2.2560     0.4110 H     1 <1>   0.0800 
 34 H        6.8260    -3.6880     0.6370 H     1 <1>   0.0800 
 35 H        6.7350    -4.9610    -0.5460 H     1 <1>   0.0800 
 36 H        5.4860    -4.8290     0.6500 H     1 <1>   0.0800 
 37 H        4.7210    -3.2680     2.3540 H     1 <1>   0.0800 
 38 H        3.0200    -3.0820     2.6700 H     1 <1>   0.0800 
 39 H        3.9860    -1.6690     2.3640 H     1 <1>   0.0800 
@<TRIPOS>BOND
  1   1   2  1   
  2   1   3  1   
  3   2   4  1   
  4   2   5  1   
  5   2  17  1   
  6   3   6  1   
  7   3  18  1   
  8   3  19  1   
  9   4   7  1   
 10   4  20  1   
 11   4  21  1   
 12   5  22  1   
 13   5  23  1   
 14   5  24  1   
 15   6   8  1   
 16   6  25  1   
 17   6  26  1   
 18   7   9  3   
 19   8  10  3   
 20   9  11  1   
 21  11  12  1   
 22  11  27  1   
 23  11  28  1   
 24  12  13  1   
 25  12  14  1   
 26  12  29  1   
 27  13  15  1   
 28  13  30  1   
 29  13  31  1   
 30  14  16  1   
 31  14  32  1   
 32  14  33  1   
 33  15  34  1   
 34  15  35  1   
 35  15  36  1   
 36  16  37  1   
 37  16  38  1   
 38  16  39  1   
@<TRIPOS>SUBSTRUCTURE
  1 ****   9 GROUP 4 **** **** 0

# MOE 2024.06 (io_trps.svl 2023.06)
