@<TRIPOS>MOLECULE
NONAME
41 42 1 0 0 
SMALL
USER_CHARGES


@<TRIPOS>ATOM
  1 S       -0.1260     0.2240    -0.5280 S.3   1 <1>  -0.3710 
  2 C        1.4030    -0.6840    -0.3780 C.2   1 <1>   0.6410 
  3 C       -1.2060    -0.8730    -1.5770 C.3   1 <1>   0.1310 
  4 N        1.4090    -1.8580    -0.8870 N.2   1 <1>  -0.6610 
  5 N        2.4600    -0.0680     0.2610 N.pl3 1 <1>  -0.5190 
  6 C       -2.6250    -0.3250    -1.6610 C.2   1 <1>   0.5690 
  7 C        2.5780    -2.5490    -0.8010 C.2   1 <1>   0.7670 
  8 C        3.6700    -0.7140     0.2730 C.2   1 <1>   0.2000 
  9 C        2.2820     1.2030     1.0210 C.3   1 <1>   0.3470 
 10 O       -2.9580     0.1700    -2.7140 O.2   1 <1>  -0.5700 
 11 N       -3.4940    -0.4120    -0.5970 N.am  1 <1>  -0.6600 
 12 O        2.6000    -3.6920    -1.2430 O.2   1 <1>  -0.5700 
 13 C        3.7230    -1.9710    -0.2380 C.2   1 <1>  -0.1360 
 14 N        4.7610    -0.0670     0.7690 N.pl3 1 <1>  -0.9000 
 15 C        2.8190     2.3660     0.2040 C.2   1 <1>  -0.2880 
 16 C       -4.8940     0.0850    -0.7020 C.3   1 <1>   0.1400 
 17 C       -3.1550    -0.9750     0.7410 C.3   1 <1>   0.1400 
 18 C        3.7750     3.2190     0.5920 C.2   1 <1>  -0.3000 
 19 C       -5.8690    -1.0540    -0.3840 C.3   1 <1>  -0.1600 
 20 C       -4.1100    -2.1270     1.0710 C.3   1 <1>  -0.1600 
 21 C       -5.5780    -1.6870     0.9840 C.3   1 <1>  -0.1600 
 22 H       -1.2040    -1.8570    -1.1480 H     1 <1>   0.0800 
 23 H       -0.7610    -0.9090    -2.5540 H     1 <1>   0.0800 
 24 H        2.8160     1.1330     1.9530 H     1 <1>   0.0800 
 25 H        1.2530     1.3760     1.2750 H     1 <1>   0.0800 
 26 H        4.6230    -2.5510    -0.2400 H     1 <1>   0.1500 
 27 H        5.7000    -0.4720     0.7100 H     1 <1>   0.4000 
 28 H        4.7580     0.9590     0.7890 H     1 <1>   0.4000 
 29 H        2.3340     2.4380    -0.7550 H     1 <1>   0.1500 
 30 H       -5.0940     0.4630    -1.6910 H     1 <1>   0.0800 
 31 H       -5.0320     0.8930    -0.0050 H     1 <1>   0.0800 
 32 H       -3.2570    -0.1970     1.4790 H     1 <1>   0.0800 
 33 H       -2.1420    -1.3300     0.7770 H     1 <1>   0.0800 
 34 H        4.1290     4.0330    -0.0190 H     1 <1>   0.1500 
 35 H        4.2790     3.1870     1.5430 H     1 <1>   0.1500 
 36 H       -5.7890    -1.8000    -1.1560 H     1 <1>   0.0800 
 37 H       -6.8750    -0.6740    -0.4010 H     1 <1>   0.0800 
 38 H       -3.9000    -2.4900     2.0610 H     1 <1>   0.0800 
 39 H       -3.9310    -2.9340     0.3810 H     1 <1>   0.0800 
 40 H       -6.2230    -2.5340     1.1380 H     1 <1>   0.0800 
 41 H       -5.7820    -0.9680     1.7590 H     1 <1>   0.0800 
@<TRIPOS>BOND
  1   1   2  1   
  2   1   3  1   
  3   2   4  2   
  4   2   5  1   
  5   3   6  1   
  6   3  22  1   
  7   3  23  1   
  8   4   7  1   
  9   5   8  1   
 10   5   9  1   
 11   6  10  2   
 12   6  11  am  
 13   7  12  2   
 14   7  13  1   
 15   8  13  2   
 16   8  14  1   
 17   9  15  1   
 18   9  24  1   
 19   9  25  1   
 20  11  16  1   
 21  11  17  1   
 22  13  26  1   
 23  14  27  1   
 24  14  28  1   
 25  15  18  2   
 26  15  29  1   
 27  16  19  1   
 28  16  30  1   
 29  16  31  1   
 30  17  20  1   
 31  17  32  1   
 32  17  33  1   
 33  18  34  1   
 34  18  35  1   
 35  19  21  1   
 36  19  36  1   
 37  19  37  1   
 38  20  21  1   
 39  20  38  1   
 40  20  39  1   
 41  21  40  1   
 42  21  41  1   
@<TRIPOS>SUBSTRUCTURE
  1 ****   1 GROUP 4 **** **** 0

# MOE 2024.06 (io_trps.svl 2023.06)
