@<TRIPOS>MOLECULE
NONAME
32 33 1 0 0 
SMALL
USER_CHARGES


@<TRIPOS>ATOM
  1 BR       0.5280    -0.2300     1.2510 Br    1 <1>  -0.1110 
  2 C       -1.0420     0.7150     0.6420 C.ar  1 <1>   0.1110 
  3 C       -0.9360     2.0440     0.2500 C.ar  1 <1>   0.0820 
  4 C       -2.2390     0.0250     0.6150 C.ar  1 <1>  -0.1500 
  5 O        0.2840     2.6410     0.3070 O.3   1 <1>  -0.3630 
  6 C       -2.0930     2.6890    -0.1800 C.ar  1 <1>  -0.1500 
  7 C       -3.3820     0.6770     0.1810 C.ar  1 <1>  -0.1430 
  8 C        0.4860     3.9410    -0.1940 C.3   1 <1>   0.1200 
  9 C       -3.3000     2.0060    -0.2120 C.ar  1 <1>  -0.1500 
 10 C       -4.7130    -0.0500     0.1390 C.3   1 <1>  -0.0960 
 11 C        1.9640     4.2900     0.0000 C.3   1 <1>  -0.1600 
 12 C        2.3500     5.6170    -0.6690 C.3   1 <1>   0.0960 
 13 N        1.4820     6.7260    -0.2220 N.pl3 1 <1>   0.0480 
 14 C        0.5720     7.4090    -0.9530 C.2   1 <1>   0.0360 
 15 C        1.3980     7.2600     1.0100 C.2   1 <1>  -0.3020 
 16 N       -0.0690     8.3130    -0.2860 N.2   1 <1>  -0.5650 
 17 C        0.4510     8.2220     0.9520 C.2   1 <1>   0.0770 
 18 H       -2.2680    -1.0030     0.9290 H     1 <1>   0.1500 
 19 H       -2.0780     3.7160    -0.4890 H     1 <1>   0.1500 
 20 H       -0.1450     4.6190     0.3560 H     1 <1>   0.0800 
 21 H        0.2210     3.9440    -1.2370 H     1 <1>   0.0800 
 22 H       -4.1850     2.5190    -0.5450 H     1 <1>   0.1500 
 23 H       -4.5630    -1.1130     0.0800 H     1 <1>   0.0800 
 24 H       -5.2820     0.2600    -0.7190 H     1 <1>   0.0800 
 25 H       -5.2770     0.1700     1.0280 H     1 <1>   0.0800 
 26 H        2.5670     3.5070    -0.4250 H     1 <1>   0.0800 
 27 H        2.1800     4.3450     1.0520 H     1 <1>   0.0800 
 28 H        2.2660     5.5250    -1.7380 H     1 <1>   0.0800 
 29 H        3.3700     5.8640    -0.4310 H     1 <1>   0.0800 
 30 H        0.4080     7.2040    -1.9960 H     1 <1>   0.1500 
 31 H        1.9960     6.9360     1.8420 H     1 <1>   0.1500 
 32 H        0.1110     8.8640     1.7480 H     1 <1>   0.1500 
@<TRIPOS>BOND
  1   1   2  1   
  2   2   3  ar  
  3   2   4  ar  
  4   3   5  1   
  5   3   6  ar  
  6   4   7  ar  
  7   4  18  1   
  8   5   8  1   
  9   6   9  ar  
 10   6  19  1   
 11   7   9  ar  
 12   7  10  1   
 13   8  11  1   
 14   8  20  1   
 15   8  21  1   
 16   9  22  1   
 17  10  23  1   
 18  10  24  1   
 19  10  25  1   
 20  11  12  1   
 21  11  26  1   
 22  11  27  1   
 23  12  13  1   
 24  12  28  1   
 25  12  29  1   
 26  13  14  1   
 27  13  15  1   
 28  14  16  2   
 29  14  30  1   
 30  15  17  2   
 31  15  31  1   
 32  16  17  1   
 33  17  32  1   
@<TRIPOS>SUBSTRUCTURE
  1 ****   8 GROUP 4 **** **** 0

# MOE 2024.06 (io_trps.svl 2023.06)
