@<TRIPOS>MOLECULE
NONAME
49 52 1 0 0 
SMALL
USER_CHARGES


@<TRIPOS>ATOM
  1 O        0.8710     0.5230    -1.6980 O.2   1 <1>  -0.5700 
  2 C        0.4140     1.2760    -0.8790 C.2   1 <1>   0.4230 
  3 C        1.1550     2.3090    -0.2130 C.ar  1 <1>   0.0860 
  4 C       -1.0520     1.1460    -0.5350 C.3   1 <1>  -0.0990 
  5 C        0.4710     3.2600     0.5530 C.ar  1 <1>   0.0820 
  6 C        2.5440     2.4150    -0.2920 C.ar  1 <1>  -0.1500 
  7 C       -1.6690     2.5310    -0.2950 C.3   1 <1>   0.2800 
  8 O       -0.8800     3.2470     0.6390 O.3   1 <1>  -0.3630 
  9 C        1.1530     4.2520     1.2320 C.ar  1 <1>  -0.1500 
 10 C        3.2270     3.4140     0.3740 C.ar  1 <1>  -0.1500 
 11 C       -3.0690     2.4230     0.3170 C.3   1 <1>  -0.1600 
 12 C       -1.7500     3.3750    -1.5790 C.3   1 <1>  -0.1600 
 13 C        2.5300     4.3420     1.1470 C.ar  1 <1>   0.0820 
 14 C       -3.6490     3.8080     0.5960 C.3   1 <1>   0.3430 
 15 C       -2.3330     4.7550    -1.2840 C.3   1 <1>   0.3430 
 16 O        3.1180     5.3470     1.8290 O.3   1 <1>  -0.3630 
 17 N       -3.6810     4.6160    -0.6630 N.4   1 <1>  -0.9590 
 18 C        4.5180     5.5250     1.8380 C.3   1 <1>   0.0400 
 19 C       -4.2940     5.9510    -0.4210 C.3   1 <1>   0.4860 
 20 C       -5.7410     5.7470    -0.0200 C.ar  1 <1>  -0.1430 
 21 C       -6.1290     5.9190     1.3020 C.ar  1 <1>  -0.1500 
 22 C       -6.6860     5.3790    -0.9670 C.ar  1 <1>  -0.1500 
 23 C       -7.4460     5.7110     1.6730 C.ar  1 <1>  -0.1500 
 24 C       -8.0020     5.1700    -0.5930 C.ar  1 <1>  -0.1500 
 25 C       -8.3810     5.3340     0.7270 C.ar  1 <1>  -0.1500 
 26 H       -1.1420     0.5390     0.3480 H     1 <1>   0.0800 
 27 H       -1.5650     0.6420    -1.3340 H     1 <1>   0.0800 
 28 H        3.0870     1.6970    -0.8850 H     1 <1>   0.1500 
 29 H        0.6200     4.9660     1.8310 H     1 <1>   0.1500 
 30 H        4.2970     3.4580     0.2870 H     1 <1>   0.1500 
 31 H       -3.0150     1.8730     1.2410 H     1 <1>   0.0800 
 32 H       -3.7250     1.8820    -0.3410 H     1 <1>   0.0800 
 33 H       -2.3590     2.8770    -2.3120 H     1 <1>   0.0800 
 34 H       -0.7730     3.4960    -2.0120 H     1 <1>   0.0800 
 35 H       -3.0390     4.3060     1.3330 H     1 <1>   0.0800 
 36 H       -4.6460     3.7040     0.9960 H     1 <1>   0.0800 
 37 H       -2.4010     5.3210    -2.2000 H     1 <1>   0.0800 
 38 H       -1.6730     5.2800    -0.6090 H     1 <1>   0.0800 
 39 H       -4.3070     4.1310    -1.3170 H     1 <1>   0.4500 
 40 H        4.7430     6.3760     2.4540 H     1 <1>   0.0800 
 41 H        4.8540     5.7030     0.8320 H     1 <1>   0.0800 
 42 H        4.9790     4.6440     2.2490 H     1 <1>   0.0800 
 43 H       -4.2570     6.5470    -1.3190 H     1 <1>   0.0800 
 44 H       -3.7630     6.4720     0.3580 H     1 <1>   0.0800 
 45 H       -5.4210     6.2180     2.0560 H     1 <1>   0.1500 
 46 H       -6.4200     5.2540    -2.0030 H     1 <1>   0.1500 
 47 H       -7.7480     5.8440     2.6990 H     1 <1>   0.1500 
 48 H       -8.7370     4.8850    -1.3270 H     1 <1>   0.1500 
 49 H       -9.4060     5.1730     1.0170 H     1 <1>   0.1500 
@<TRIPOS>BOND
  1   1   2  2   
  2   2   3  1   
  3   2   4  1   
  4   3   5  ar  
  5   3   6  ar  
  6   4   7  1   
  7   4  26  1   
  8   4  27  1   
  9   5   8  1   
 10   5   9  ar  
 11   6  10  ar  
 12   6  28  1   
 13   7   8  1   
 14   7  11  1   
 15   7  12  1   
 16   9  13  ar  
 17   9  29  1   
 18  10  13  ar  
 19  10  30  1   
 20  11  14  1   
 21  11  31  1   
 22  11  32  1   
 23  12  15  1   
 24  12  33  1   
 25  12  34  1   
 26  13  16  1   
 27  14  17  1   
 28  14  35  1   
 29  14  36  1   
 30  15  17  1   
 31  15  37  1   
 32  15  38  1   
 33  16  18  1   
 34  17  19  1   
 35  17  39  1   
 36  18  40  1   
 37  18  41  1   
 38  18  42  1   
 39  19  20  1   
 40  19  43  1   
 41  19  44  1   
 42  20  21  ar  
 43  20  22  ar  
 44  21  23  ar  
 45  21  45  1   
 46  22  24  ar  
 47  22  46  1   
 48  23  25  ar  
 49  23  47  1   
 50  24  25  ar  
 51  24  48  1   
 52  25  49  1   
@<TRIPOS>SUBSTRUCTURE
  1 ****   8 GROUP 4 **** **** 0

# MOE 2024.06 (io_trps.svl 2023.06)
