@<TRIPOS>MOLECULE
NONAME
52 53 1 0 0 
SMALL
USER_CHARGES


@<TRIPOS>ATOM
  1 S       -0.7880     0.8350     0.2480 S.o2  1 <1>   1.3330 
  2 O        0.4980     1.2200     0.7770 O.2   1 <1>  -0.6500 
  3 O       -1.4600     1.6780    -0.7120 O.2   1 <1>  -0.6500 
  4 N       -0.6030    -0.7270    -0.4770 N.am  1 <1>  -0.6930 
  5 C       -1.8760     0.5310     1.6280 C.3   1 <1>  -0.1350 
  6 C        0.5250    -1.5140    -0.2740 C.ar  1 <1>   0.1990 
  7 C       -1.5890    -1.0840    -1.5230 C.3   1 <1>   0.3390 
  8 C        0.9130    -1.9010     1.0040 C.ar  1 <1>  -0.1500 
  9 C        1.3000    -1.9550    -1.3440 C.ar  1 <1>  -0.1500 
 10 C       -2.9770    -1.2880    -0.9220 C.ar  1 <1>  -0.1430 
 11 C        2.0150    -2.7080     1.2020 C.ar  1 <1>  -0.1500 
 12 C        2.4030    -2.7630    -1.1440 C.ar  1 <1>  -0.1500 
 13 C       -3.3130    -2.4120    -0.1690 C.ar  1 <1>  -0.1430 
 14 C       -3.9340    -0.3060    -1.1400 C.ar  1 <1>  -0.1500 
 15 C        2.7930    -3.1640     0.1360 C.ar  1 <1>   0.0860 
 16 C       -4.5910    -2.5240     0.3570 C.ar  1 <1>  -0.1500 
 17 C       -2.3200    -3.5340     0.1080 C.3   1 <1>  -0.0970 
 18 C       -5.2070    -0.4270    -0.6140 C.ar  1 <1>  -0.1500 
 19 C        3.9450    -4.0140     0.3620 C.2   1 <1>   0.5440 
 20 C       -5.5360    -1.5380     0.1370 C.ar  1 <1>  -0.1500 
 21 O        3.9450    -4.8030     1.2870 O.2   1 <1>  -0.5700 
 22 N        5.0400    -3.9210    -0.4580 N.am  1 <1>  -0.7300 
 23 C        6.2910    -4.6890    -0.4360 C.3   1 <1>   0.3000 
 24 C        7.0360    -4.4320     0.8740 C.3   1 <1>  -0.2400 
 25 C        5.9950    -6.1770    -0.6300 C.3   1 <1>  -0.2400 
 26 C        7.1300    -4.1820    -1.6070 C.3   1 <1>  -0.2400 
 27 H       -2.0310     1.4400     2.1740 H     1 <1>   0.0800 
 28 H       -1.4490    -0.1950     2.2890 H     1 <1>   0.0800 
 29 H       -2.8270     0.1730     1.2930 H     1 <1>   0.0800 
 30 H       -1.2900    -1.9880    -2.0220 H     1 <1>   0.0800 
 31 H       -1.6160    -0.3050    -2.2650 H     1 <1>   0.0800 
 32 H        0.3450    -1.5680     1.8520 H     1 <1>   0.1500 
 33 H        1.0370    -1.6540    -2.3410 H     1 <1>   0.1500 
 34 H        2.2920    -3.0000     2.2020 H     1 <1>   0.1500 
 35 H        2.9700    -3.0960    -1.9950 H     1 <1>   0.1500 
 36 H       -3.6930     0.5710    -1.7190 H     1 <1>   0.1500 
 37 H       -4.8640    -3.3840     0.9420 H     1 <1>   0.1500 
 38 H       -1.8010    -3.8170    -0.7890 H     1 <1>   0.0800 
 39 H       -2.8230    -4.4060     0.4840 H     1 <1>   0.0800 
 40 H       -1.6040    -3.2160     0.8420 H     1 <1>   0.0800 
 41 H       -5.9380     0.3430    -0.7900 H     1 <1>   0.1500 
 42 H       -6.5250    -1.6380     0.5480 H     1 <1>   0.1500 
 43 H        5.0650    -3.1480    -1.1190 H     1 <1>   0.3700 
 44 H        6.4740    -4.8100     1.7090 H     1 <1>   0.0800 
 45 H        7.2000    -3.3790     1.0140 H     1 <1>   0.0800 
 46 H        7.9880    -4.9300     0.8640 H     1 <1>   0.0800 
 47 H        6.9120    -6.7320    -0.7000 H     1 <1>   0.0800 
 48 H        5.4280    -6.3340    -1.5290 H     1 <1>   0.0800 
 49 H        5.4390    -6.5650     0.2050 H     1 <1>   0.0800 
 50 H        8.0650    -4.7110    -1.6470 H     1 <1>   0.0800 
 51 H        7.3440    -3.1340    -1.4940 H     1 <1>   0.0800 
 52 H        6.6150    -4.3420    -2.5380 H     1 <1>   0.0800 
@<TRIPOS>BOND
  1   1   2  2   
  2   1   3  2   
  3   1   4  am  
  4   1   5  1   
  5   4   6  1   
  6   4   7  1   
  7   5  27  1   
  8   5  28  1   
  9   5  29  1   
 10   6   8  ar  
 11   6   9  ar  
 12   7  10  1   
 13   7  30  1   
 14   7  31  1   
 15   8  11  ar  
 16   8  32  1   
 17   9  12  ar  
 18   9  33  1   
 19  10  13  ar  
 20  10  14  ar  
 21  11  15  ar  
 22  11  34  1   
 23  12  15  ar  
 24  12  35  1   
 25  13  16  ar  
 26  13  17  1   
 27  14  18  ar  
 28  14  36  1   
 29  15  19  1   
 30  16  20  ar  
 31  16  37  1   
 32  17  38  1   
 33  17  39  1   
 34  17  40  1   
 35  18  20  ar  
 36  18  41  1   
 37  19  21  2   
 38  19  22  am  
 39  20  42  1   
 40  22  23  1   
 41  22  43  1   
 42  23  24  1   
 43  23  25  1   
 44  23  26  1   
 45  24  44  1   
 46  24  45  1   
 47  24  46  1   
 48  25  47  1   
 49  25  48  1   
 50  25  49  1   
 51  26  50  1   
 52  26  51  1   
 53  26  52  1   
@<TRIPOS>SUBSTRUCTURE
  1 ****   6 GROUP 4 **** **** 0

# MOE 2024.06 (io_trps.svl 2023.06)
