@<TRIPOS>MOLECULE
NONAME
33 32 1 0 0 
SMALL
USER_CHARGES


@<TRIPOS>ATOM
  1 O       -0.8760     0.0460     0.5550 O.3   1 <1>  -0.5600 
  2 C       -1.0850     1.1340     1.3990 C.3   1 <1>   0.3200 
  3 C        0.4560    -0.3460     0.4560 C.3   1 <1>   0.1200 
  4 C       -2.5480     1.4120     1.4000 C.1   1 <1>  -0.2000 
  5 C        0.5340    -1.5420    -0.4900 C.3   1 <1>   0.0400 
  6 C       -3.7250     1.5710     1.3490 C.1   1 <1>  -0.2000 
  7 C        1.9430    -1.9920    -0.6220 C.1   1 <1>   0.3570 
  8 C       -5.2000     1.6610     1.2010 C.3   1 <1>   0.5430 
  9 N        3.0280    -2.3190    -0.7080 N.1   1 <1>  -0.5570 
 10 N       -5.6430     0.4520     0.4590 N.4   1 <1>  -0.9590 
 11 C       -5.1970     0.4930    -0.9620 C.3   1 <1>   0.3430 
 12 C       -7.1060     0.2430     0.6140 C.3   1 <1>   0.3430 
 13 C       -4.3100    -0.7170    -1.2270 C.3   1 <1>  -0.2400 
 14 C       -7.4820    -1.1730     0.1940 C.3   1 <1>  -0.2400 
 15 H       -0.5380     1.9820     1.0220 H     1 <1>   0.0800 
 16 H       -0.7470     0.8820     2.3900 H     1 <1>   0.0800 
 17 H        0.8140    -0.6170     1.4360 H     1 <1>   0.0800 
 18 H        1.0340     0.4780     0.0700 H     1 <1>   0.0800 
 19 H        0.1670    -1.2660    -1.4610 H     1 <1>   0.0800 
 20 H       -0.0530    -2.3540    -0.1020 H     1 <1>   0.0800 
 21 H       -5.4710     2.5580     0.6670 H     1 <1>   0.0800 
 22 H       -5.6510     1.6870     2.1800 H     1 <1>   0.0800 
 23 H       -5.1430    -0.3300     0.9020 H     1 <1>   0.4500 
 24 H       -4.6330     1.3930    -1.1540 H     1 <1>   0.0800 
 25 H       -6.0470     0.4780    -1.6240 H     1 <1>   0.0800 
 26 H       -7.6510     0.9610     0.0210 H     1 <1>   0.0800 
 27 H       -7.3840     0.3790     1.6480 H     1 <1>   0.0800 
 28 H       -3.4310    -0.6900    -0.6070 H     1 <1>   0.0800 
 29 H       -3.9880    -0.6990    -2.2530 H     1 <1>   0.0800 
 30 H       -4.8430    -1.6360    -1.0630 H     1 <1>   0.0800 
 31 H       -7.3230    -1.3260    -0.8580 H     1 <1>   0.0800 
 32 H       -8.5280    -1.3320     0.3900 H     1 <1>   0.0800 
 33 H       -6.9260    -1.9010     0.7570 H     1 <1>   0.0800 
@<TRIPOS>BOND
  1   1   2  1   
  2   1   3  1   
  3   2   4  1   
  4   2  15  1   
  5   2  16  1   
  6   3   5  1   
  7   3  17  1   
  8   3  18  1   
  9   4   6  3   
 10   5   7  1   
 11   5  19  1   
 12   5  20  1   
 13   6   8  1   
 14   7   9  3   
 15   8  10  1   
 16   8  21  1   
 17   8  22  1   
 18  10  11  1   
 19  10  12  1   
 20  10  23  1   
 21  11  13  1   
 22  11  24  1   
 23  11  25  1   
 24  12  14  1   
 25  12  26  1   
 26  12  27  1   
 27  13  28  1   
 28  13  29  1   
 29  13  30  1   
 30  14  31  1   
 31  14  32  1   
 32  14  33  1   
@<TRIPOS>SUBSTRUCTURE
  1 ****   1 GROUP 4 **** **** 0

# MOE 2024.06 (io_trps.svl 2023.06)
