@<TRIPOS>MOLECULE
NONAME
39 39 1 0 0 
SMALL
USER_CHARGES


@<TRIPOS>ATOM
  1 O       -0.1040     0.0700     0.5330 O.2   1 <1>  -0.5700 
  2 C        0.0070    -1.0110    -0.0080 C.2   1 <1>   0.6900 
  3 N        1.1990    -1.6660    -0.0680 N.am  1 <1>  -0.5470 
  4 N       -1.0540    -1.6370    -0.5700 N.am  1 <1>  -0.7300 
  5 C        2.5010    -1.3510     0.3630 C.ar  1 <1>   0.1170 
  6 C       -2.4540    -1.2210    -0.7100 C.3   1 <1>   0.5000 
  7 C        3.4520    -2.3790     0.3830 C.ar  1 <1>   0.0830 
  8 C        2.8890    -0.0750     0.7560 C.ar  1 <1>  -0.1500 
  9 C       -2.9600    -2.0960    -1.8110 C.1   1 <1>  -0.2000 
 10 C       -2.5770     0.2610    -1.1470 C.3   1 <1>  -0.1600 
 11 C       -3.2450    -1.5800     0.5710 C.3   1 <1>  -0.1600 
 12 O        3.0390    -3.6200    -0.0220 O.3   1 <1>  -0.3630 
 13 C        4.7540    -2.1170     0.8000 C.ar  1 <1>  -0.1500 
 14 C        4.1840     0.1800     1.1700 C.ar  1 <1>  -0.1500 
 15 C       -3.3580    -2.7980    -2.6870 C.1   1 <1>  -0.1770 
 16 C       -3.9990     0.7420    -1.4980 C.3   1 <1>  -0.2400 
 17 C       -2.8650    -0.8230     1.8570 C.3   1 <1>  -0.2400 
 18 C        3.9130    -4.7270     0.0110 C.3   1 <1>   0.0400 
 19 C        5.1170    -0.8410     1.1940 C.ar  1 <1>  -0.1500 
 20 H        1.1380    -2.6280    -0.3890 H     1 <1>   0.3700 
 21 H       -0.8820    -2.4910    -1.0890 H     1 <1>   0.3700 
 22 H        2.1820     0.7340     0.7410 H     1 <1>   0.1500 
 23 H       -1.9480     0.4120    -2.0070 H     1 <1>   0.0800 
 24 H       -2.2110     0.9000    -0.3660 H     1 <1>   0.0800 
 25 H       -3.1340    -2.6340     0.7540 H     1 <1>   0.0800 
 26 H       -4.2890    -1.4100     0.3830 H     1 <1>   0.0800 
 27 H        5.5010    -2.8870     0.8270 H     1 <1>   0.1500 
 28 H        4.4620     1.1740     1.4740 H     1 <1>   0.1500 
 29 H       -3.7220    -3.4270    -3.4810 H     1 <1>   0.1770 
 30 H       -4.4140     0.1690    -2.3080 H     1 <1>   0.0800 
 31 H       -3.9660     1.7740    -1.8010 H     1 <1>   0.0800 
 32 H       -4.6500     0.6660    -0.6460 H     1 <1>   0.0800 
 33 H       -1.8530    -1.0460     2.1440 H     1 <1>   0.0800 
 34 H       -3.5130    -1.1220     2.6610 H     1 <1>   0.0800 
 35 H       -2.9590     0.2390     1.7240 H     1 <1>   0.0800 
 36 H        3.3720    -5.5920    -0.3290 H     1 <1>   0.0800 
 37 H        4.2460    -4.8800     1.0220 H     1 <1>   0.0800 
 38 H        4.7440    -4.5370    -0.6450 H     1 <1>   0.0800 
 39 H        6.1240    -0.6400     1.5170 H     1 <1>   0.1500 
@<TRIPOS>BOND
  1   1   2  2   
  2   2   3  am  
  3   2   4  am  
  4   3   5  1   
  5   3  20  1   
  6   4   6  1   
  7   4  21  1   
  8   5   7  ar  
  9   5   8  ar  
 10   6   9  1   
 11   6  10  1   
 12   6  11  1   
 13   7  12  1   
 14   7  13  ar  
 15   8  14  ar  
 16   8  22  1   
 17   9  15  3   
 18  10  16  1   
 19  10  23  1   
 20  10  24  1   
 21  11  17  1   
 22  11  25  1   
 23  11  26  1   
 24  12  18  1   
 25  13  19  ar  
 26  13  27  1   
 27  14  19  ar  
 28  14  28  1   
 29  15  29  1   
 30  16  30  1   
 31  16  31  1   
 32  16  32  1   
 33  17  33  1   
 34  17  34  1   
 35  17  35  1   
 36  18  36  1   
 37  18  37  1   
 38  18  38  1   
 39  19  39  1   
@<TRIPOS>SUBSTRUCTURE
  1 ****   2 GROUP 4 **** **** 0

# MOE 2024.06 (io_trps.svl 2023.06)
