@<TRIPOS>MOLECULE
NONAME
45 47 1 0 0 
SMALL
USER_CHARGES


@<TRIPOS>ATOM
  1 O       -3.4180    -1.8540     1.4010 O.3   1 <1>  -0.6800 
  2 C       -3.8510    -0.5650     1.0450 C.3   1 <1>   0.2000 
  3 C       -5.3410    -0.6290     0.5990 C.3   1 <1>   0.0000 
  4 C       -2.8940     0.0420    -0.0330 C.3   1 <1>   0.4230 
  5 C       -5.8620     0.7870     0.2320 C.3   1 <1>  -0.1600 
  6 C       -5.5460    -1.5540    -0.6320 C.3   1 <1>  -0.1600 
  7 C       -6.2240    -1.1660     1.7590 C.3   1 <1>  -0.1600 
  8 N       -1.7510    -0.8850    -0.3370 N.4   1 <1>  -0.9590 
  9 C       -2.3940     1.4430     0.3400 C.3   1 <1>  -0.2400 
 10 C       -7.3450     0.7470    -0.1800 C.3   1 <1>  -0.0800 
 11 C       -7.0290    -1.6010    -1.0440 C.3   1 <1>  -0.0800 
 12 C       -7.7080    -1.2150     1.3550 C.3   1 <1>  -0.0800 
 13 C       -0.5680    -0.7660     0.5710 C.3   1 <1>   0.2630 
 14 C       -1.3610    -0.8630    -1.7760 C.3   1 <1>   0.2630 
 15 C       -7.5060    -0.1810    -1.3980 C.3   1 <1>  -0.1600 
 16 C       -8.1820     0.2020     0.9890 C.3   1 <1>  -0.1600 
 17 C       -7.8670    -2.1360     0.1320 C.3   1 <1>  -0.1600 
 18 H       -4.0560    -2.2510     2.0330 H     1 <1>   0.4000 
 19 H       -3.7930     0.0360     1.9370 H     1 <1>   0.0800 
 20 H       -3.4760     0.1490    -0.9330 H     1 <1>   0.0800 
 21 H       -5.3060     1.2040    -0.5870 H     1 <1>   0.0800 
 22 H       -5.7530     1.4500     1.0740 H     1 <1>   0.0800 
 23 H       -5.2200    -2.5540    -0.4040 H     1 <1>   0.0800 
 24 H       -4.9700    -1.2090    -1.4710 H     1 <1>   0.0800 
 25 H       -6.1170    -0.5370     2.6270 H     1 <1>   0.0800 
 26 H       -5.9240    -2.1600     2.0380 H     1 <1>   0.0800 
 27 H       -2.1750    -1.8060    -0.1030 H     1 <1>   0.4500 
 28 H       -1.9010     1.4450     1.2960 H     1 <1>   0.0800 
 29 H       -3.2280     2.1180     0.4060 H     1 <1>   0.0800 
 30 H       -1.7270     1.8210    -0.4130 H     1 <1>   0.0800 
 31 H       -7.6820     1.7380    -0.4330 H     1 <1>   0.0800 
 32 H       -7.1520    -2.2480    -1.8970 H     1 <1>   0.0800 
 33 H       -8.2980    -1.5940     2.1720 H     1 <1>   0.0800 
 34 H       -0.0740     0.1800     0.4260 H     1 <1>   0.0800 
 35 H        0.1340    -1.5590     0.3740 H     1 <1>   0.0800 
 36 H       -0.8860    -0.8400     1.5990 H     1 <1>   0.0800 
 37 H       -0.9470     0.0980    -2.0360 H     1 <1>   0.0800 
 38 H       -2.2200    -1.0510    -2.3990 H     1 <1>   0.0800 
 39 H       -0.6220    -1.6230    -1.9730 H     1 <1>   0.0800 
 40 H       -6.9400     0.2000    -2.2290 H     1 <1>   0.0800 
 41 H       -8.5400    -0.2100    -1.6960 H     1 <1>   0.0800 
 42 H       -9.2210     0.1770     0.7120 H     1 <1>   0.0800 
 43 H       -8.0890     0.8510     1.8420 H     1 <1>   0.0800 
 44 H       -7.5540    -3.1350     0.3810 H     1 <1>   0.0800 
 45 H       -8.9040    -2.1840    -0.1540 H     1 <1>   0.0800 
@<TRIPOS>BOND
  1   1   2  1   
  2   1  18  1   
  3   2   3  1   
  4   2   4  1   
  5   2  19  1   
  6   3   5  1   
  7   3   6  1   
  8   3   7  1   
  9   4   8  1   
 10   4   9  1   
 11   4  20  1   
 12   5  10  1   
 13   5  21  1   
 14   5  22  1   
 15   6  11  1   
 16   6  23  1   
 17   6  24  1   
 18   7  12  1   
 19   7  25  1   
 20   7  26  1   
 21   8  13  1   
 22   8  14  1   
 23   8  27  1   
 24   9  28  1   
 25   9  29  1   
 26   9  30  1   
 27  10  15  1   
 28  10  16  1   
 29  10  31  1   
 30  11  15  1   
 31  11  17  1   
 32  11  32  1   
 33  12  16  1   
 34  12  17  1   
 35  12  33  1   
 36  13  34  1   
 37  13  35  1   
 38  13  36  1   
 39  14  37  1   
 40  14  38  1   
 41  14  39  1   
 42  15  40  1   
 43  15  41  1   
 44  16  42  1   
 45  16  43  1   
 46  17  44  1   
 47  17  45  1   
@<TRIPOS>SUBSTRUCTURE
  1 ****   3 GROUP 4 **** **** 0

# MOE 2024.06 (io_trps.svl 2023.06)
