@<TRIPOS>MOLECULE
NONAME
45 45 1 0 0 
SMALL
USER_CHARGES


@<TRIPOS>ATOM
  1 CL      -1.2900    -1.2780     2.7790 Cl    1 <1>  -0.1770 
  2 C       -0.7710    -2.2560     1.4260 C.ar  1 <1>   0.1770 
  3 C       -1.6020    -2.4830     0.3400 C.ar  1 <1>  -0.0090 
  4 C        0.4990    -2.7830     1.4860 C.ar  1 <1>  -0.1500 
  5 S       -3.2610    -1.7820     0.2620 S.o2  1 <1>   1.4470 
  6 C       -1.0920    -3.2590    -0.6920 C.ar  1 <1>  -0.1500 
  7 C        0.9970    -3.5520     0.4440 C.ar  1 <1>   0.1000 
  8 O       -3.8970    -2.0760    -1.0020 O.2   1 <1>  -0.6500 
  9 O       -4.0010    -2.0170     1.4820 O.2   1 <1>  -0.6500 
 10 N       -2.9880    -0.1320     0.1430 N.am  1 <1>  -0.9140 
 11 C        0.1960    -3.8080    -0.6830 C.ar  1 <1>  -0.1790 
 12 N        2.2730    -4.0680     0.5370 N.pl3 1 <1>  -0.8690 
 13 C       -4.1210     0.6600     0.5860 C.3   1 <1>   0.1960 
 14 C        0.6440    -4.5940    -1.8290 C.2   1 <1>   0.9790 
 15 C        3.4440    -3.2110     0.8210 C.3   1 <1>   0.2090 
 16 C       -3.8960     2.1410     0.2420 C.3   1 <1>  -0.0800 
 17 O        1.6980    -5.2620    -1.8180 O.co2 1 <1>  -0.9000 
 18 O       -0.0300    -4.5990    -2.8750 O.co2 1 <1>  -0.9000 
 19 C        4.3820    -3.1410    -0.3960 C.3   1 <1>  -0.0800 
 20 C       -5.0510     2.9880     0.7930 C.3   1 <1>  -0.2400 
 21 C       -3.7670     2.3760    -1.2730 C.3   1 <1>  -0.2400 
 22 C        5.7200    -2.5000    -0.0010 C.3   1 <1>  -0.2400 
 23 C        3.7610    -2.3480    -1.5570 C.3   1 <1>  -0.2400 
 24 H        1.1100    -2.6050     2.3480 H     1 <1>   0.1500 
 25 H       -1.7150    -3.4520    -1.5530 H     1 <1>   0.1500 
 26 H       -2.9080     0.0120    -0.8610 H     1 <1>   0.4200 
 27 H        2.4500    -4.6900    -0.2900 H     1 <1>   0.4000 
 28 H       -4.2330     0.5490     1.6530 H     1 <1>   0.0800 
 29 H       -5.0230     0.3080     0.1120 H     1 <1>   0.0800 
 30 H        3.9700    -3.6350     1.6590 H     1 <1>   0.0800 
 31 H        3.1230    -2.2190     1.0900 H     1 <1>   0.0800 
 32 H       -2.9880     2.4630     0.7250 H     1 <1>   0.0800 
 33 H        4.5750    -4.1470    -0.7290 H     1 <1>   0.0800 
 34 H       -5.9840     2.7030     0.3390 H     1 <1>   0.0800 
 35 H       -4.8770     4.0310     0.5960 H     1 <1>   0.0800 
 36 H       -5.1340     2.8580     1.8590 H     1 <1>   0.0800 
 37 H       -4.6390     2.0150    -1.7900 H     1 <1>   0.0800 
 38 H       -2.8990     1.8770    -1.6660 H     1 <1>   0.0800 
 39 H       -3.6610     3.4270    -1.4770 H     1 <1>   0.0800 
 40 H        5.5720    -1.4910     0.3400 H     1 <1>   0.0800 
 41 H        6.3850    -2.4850    -0.8460 H     1 <1>   0.0800 
 42 H        6.1870    -3.0680     0.7840 H     1 <1>   0.0800 
 43 H        3.5250    -1.3450    -1.2540 H     1 <1>   0.0800 
 44 H        2.8560    -2.8250    -1.8890 H     1 <1>   0.0800 
 45 H        4.4370    -2.3140    -2.3920 H     1 <1>   0.0800 
@<TRIPOS>BOND
  1   1   2  1   
  2   2   3  ar  
  3   2   4  ar  
  4   3   5  1   
  5   3   6  ar  
  6   4   7  ar  
  7   4  24  1   
  8   5   8  2   
  9   5   9  2   
 10   5  10  am  
 11   6  11  ar  
 12   6  25  1   
 13   7  11  ar  
 14   7  12  1   
 15  10  13  1   
 16  10  26  1   
 17  11  14  1   
 18  12  15  1   
 19  12  27  1   
 20  13  16  1   
 21  13  28  1   
 22  13  29  1   
 23  14  17  ar  
 24  14  18  ar  
 25  15  19  1   
 26  15  30  1   
 27  15  31  1   
 28  16  20  1   
 29  16  21  1   
 30  16  32  1   
 31  19  22  1   
 32  19  23  1   
 33  19  33  1   
 34  20  34  1   
 35  20  35  1   
 36  20  36  1   
 37  21  37  1   
 38  21  38  1   
 39  21  39  1   
 40  22  40  1   
 41  22  41  1   
 42  22  42  1   
 43  23  43  1   
 44  23  44  1   
 45  23  45  1   
@<TRIPOS>SUBSTRUCTURE
  1 ****   3 GROUP 4 **** **** 0

# MOE 2024.06 (io_trps.svl 2023.06)
