@<TRIPOS>MOLECULE
NONAME
41 42 1 0 0 
SMALL
USER_CHARGES


@<TRIPOS>ATOM
  1 O        0.3630    -0.2980     1.1430 O.3   1 <1>  -0.3630 
  2 C       -0.7720    -0.6980     0.5010 C.ar  1 <1>   0.0830 
  3 C        1.6220    -0.8300     0.8040 C.3   1 <1>   0.1200 
  4 C       -1.0000    -1.9710    -0.0500 C.ar  1 <1>   0.0830 
  5 C       -1.7590     0.2710     0.4140 C.ar  1 <1>  -0.1500 
  6 C        2.6970     0.1480     1.2720 C.3   1 <1>  -0.1600 
  7 O       -0.0520    -2.9480     0.0660 O.3   1 <1>  -0.3630 
  8 C       -2.2110    -2.2170    -0.6970 C.ar  1 <1>  -0.1500 
  9 C       -2.9580     0.0100    -0.2230 C.ar  1 <1>  -0.1500 
 10 C        4.0900    -0.3820     0.9190 C.3   1 <1>   0.1200 
 11 C       -0.3420    -4.3020    -0.2020 C.3   1 <1>   0.0400 
 12 C       -3.1820    -1.2340    -0.7820 C.ar  1 <1>  -0.1500 
 13 O        5.0730     0.5310     1.3610 O.3   1 <1>  -0.3630 
 14 C        5.3980     1.6540     0.6650 C.ar  1 <1>   0.0830 
 15 C        4.8400     2.0080    -0.5610 C.ar  1 <1>  -0.1500 
 16 C        6.3530     2.4790     1.2390 C.ar  1 <1>  -0.1500 
 17 C        5.2410     3.1730    -1.1920 C.ar  1 <1>  -0.1500 
 18 C        6.7550     3.6430     0.6080 C.ar  1 <1>  -0.1500 
 19 C        6.1970     3.9960    -0.6180 C.ar  1 <1>   0.0830 
 20 O        6.5300     5.1180    -1.3070 O.3   1 <1>  -0.3630 
 21 C        7.4950     6.0170    -0.8080 C.3   1 <1>   0.0400 
 22 H        1.6600    -0.9600    -0.2640 H     1 <1>   0.0800 
 23 H        1.7280    -1.7800     1.2980 H     1 <1>   0.0800 
 24 H       -1.5790     1.2370     0.8490 H     1 <1>   0.1500 
 25 H        2.6260     0.2650     2.3390 H     1 <1>   0.0800 
 26 H        2.5330     1.0990     0.7980 H     1 <1>   0.0800 
 27 H       -2.4220    -3.1680    -1.1440 H     1 <1>   0.1500 
 28 H       -3.7130     0.7750    -0.2840 H     1 <1>   0.1500 
 29 H        4.2130    -0.5530    -0.1350 H     1 <1>   0.0800 
 30 H        4.2690    -1.3090     1.4360 H     1 <1>   0.0800 
 31 H        0.5140    -4.8890     0.0780 H     1 <1>   0.0800 
 32 H       -0.5330    -4.4180    -1.2540 H     1 <1>   0.0800 
 33 H       -1.1950    -4.5990     0.3820 H     1 <1>   0.0800 
 34 H       -4.1130    -1.4380    -1.2820 H     1 <1>   0.1500 
 35 H        4.0980     1.3990    -1.0380 H     1 <1>   0.1500 
 36 H        6.7790     2.1990     2.1850 H     1 <1>   0.1500 
 37 H        4.8150     3.4530    -2.1380 H     1 <1>   0.1500 
 38 H        7.4960     4.2560     1.0830 H     1 <1>   0.1500 
 39 H        7.5980     6.8220    -1.5140 H     1 <1>   0.0800 
 40 H        8.4330     5.5010    -0.7040 H     1 <1>   0.0800 
 41 H        7.1580     6.4010     0.1380 H     1 <1>   0.0800 
@<TRIPOS>BOND
  1   1   2  1   
  2   1   3  1   
  3   2   4  ar  
  4   2   5  ar  
  5   3   6  1   
  6   3  22  1   
  7   3  23  1   
  8   4   7  1   
  9   4   8  ar  
 10   5   9  ar  
 11   5  24  1   
 12   6  10  1   
 13   6  25  1   
 14   6  26  1   
 15   7  11  1   
 16   8  12  ar  
 17   8  27  1   
 18   9  12  ar  
 19   9  28  1   
 20  10  13  1   
 21  10  29  1   
 22  10  30  1   
 23  11  31  1   
 24  11  32  1   
 25  11  33  1   
 26  12  34  1   
 27  13  14  1   
 28  14  15  ar  
 29  14  16  ar  
 30  15  17  ar  
 31  15  35  1   
 32  16  18  ar  
 33  16  36  1   
 34  17  19  ar  
 35  17  37  1   
 36  18  19  ar  
 37  18  38  1   
 38  19  20  1   
 39  20  21  1   
 40  21  39  1   
 41  21  40  1   
 42  21  41  1   
@<TRIPOS>SUBSTRUCTURE
  1 ****   6 GROUP 4 **** **** 0

# MOE 2024.06 (io_trps.svl 2023.06)
