@<TRIPOS>MOLECULE
NONAME
35 36 1 0 0 
SMALL
USER_CHARGES


@<TRIPOS>ATOM
  1 F        0.7860    -0.5620     0.4410 F     1 <1>  -0.1900 
  2 C        1.0520    -1.8330     0.2610 C.ar  1 <1>   0.1900 
  3 C        2.1740    -2.1920    -0.4900 C.ar  1 <1>   0.1000 
  4 C        0.1920    -2.7580     0.8190 C.ar  1 <1>  -0.1500 
  5 N        3.0350    -1.2230    -1.0400 N.pl3 1 <1>  -0.6000 
  6 C        2.4040    -3.5510    -0.7030 C.ar  1 <1>  -0.1500 
  7 C        0.4730    -4.0910     0.5950 C.ar  1 <1>   0.1900 
  8 C        4.4010    -1.1920    -1.1170 C.2   1 <1>  -0.0500 
  9 C        1.5580    -4.5060    -0.1580 C.ar  1 <1>  -0.1500 
 10 F       -0.3210    -4.9950     1.1050 F     1 <1>  -0.1900 
 11 C        5.3690    -1.8890    -0.4210 C.2   1 <1>   0.0290 
 12 C        6.7260    -1.8240    -0.8750 C.2   1 <1>   0.4950 
 13 C        5.1360    -2.6660     0.7640 C.2   1 <1>   0.4950 
 14 O        7.1100    -1.0510    -1.7200 O.2   1 <1>  -0.5700 
 15 C        7.7780    -2.7680    -0.3180 C.3   1 <1>  -0.0990 
 16 O        4.2520    -2.4490     1.5570 O.2   1 <1>  -0.5700 
 17 C        6.0650    -3.8050     1.1580 C.3   1 <1>  -0.0990 
 18 C        7.1730    -4.1050     0.1370 C.3   1 <1>   0.0000 
 19 C        6.6070    -4.8860    -1.0640 C.3   1 <1>  -0.2400 
 20 C        8.2630    -4.9650     0.7950 C.3   1 <1>  -0.2400 
 21 H       -0.6570    -2.4540     1.4000 H     1 <1>   0.1500 
 22 H        2.5240    -0.4160    -1.4200 H     1 <1>   0.4000 
 23 H        3.2450    -3.8550    -1.2970 H     1 <1>   0.1500 
 24 H        4.7610    -0.4960    -1.8610 H     1 <1>   0.1500 
 25 H        1.7330    -5.5550    -0.3110 H     1 <1>   0.1500 
 26 H        8.5220    -2.9450    -1.0750 H     1 <1>   0.0800 
 27 H        8.2640    -2.2770     0.5060 H     1 <1>   0.0800 
 28 H        6.5080    -3.5310     2.0990 H     1 <1>   0.0800 
 29 H        5.4740    -4.6870     1.3330 H     1 <1>   0.0800 
 30 H        7.3820    -5.0790    -1.7860 H     1 <1>   0.0800 
 31 H        5.8170    -4.3530    -1.5610 H     1 <1>   0.0800 
 32 H        6.2120    -5.8350    -0.7420 H     1 <1>   0.0800 
 33 H        8.7010    -4.4550     1.6360 H     1 <1>   0.0800 
 34 H        9.0480    -5.1860     0.0930 H     1 <1>   0.0800 
 35 H        7.8510    -5.8960     1.1440 H     1 <1>   0.0800 
@<TRIPOS>BOND
  1   1   2  1   
  2   2   3  ar  
  3   2   4  ar  
  4   3   5  1   
  5   3   6  ar  
  6   4   7  ar  
  7   4  21  1   
  8   5   8  1   
  9   5  22  1   
 10   6   9  ar  
 11   6  23  1   
 12   7   9  ar  
 13   7  10  1   
 14   8  11  2   
 15   8  24  1   
 16   9  25  1   
 17  11  12  1   
 18  11  13  1   
 19  12  14  2   
 20  12  15  1   
 21  13  16  2   
 22  13  17  1   
 23  15  18  1   
 24  15  26  1   
 25  15  27  1   
 26  17  18  1   
 27  17  28  1   
 28  17  29  1   
 29  18  19  1   
 30  18  20  1   
 31  19  30  1   
 32  19  31  1   
 33  19  32  1   
 34  20  33  1   
 35  20  34  1   
 36  20  35  1   
@<TRIPOS>SUBSTRUCTURE
  1 ****  13 GROUP 4 **** **** 0

# MOE 2024.06 (io_trps.svl 2023.06)
