@<TRIPOS>MOLECULE
NONAME
52 55 1 0 0 
SMALL
USER_CHARGES


@<TRIPOS>ATOM
  1 S        0.3630     0.4810    -0.1170 S.3   1 <1>  -0.4600 
  2 C        0.1160    -1.0770    -1.0540 C.3   1 <1>   0.4320 
  3 C        2.0490     0.4600     0.5900 C.3   1 <1>   0.1310 
  4 C       -0.8480    -2.0120    -0.3230 C.ar  1 <1>  -0.1440 
  5 C        1.4070    -1.7930    -1.3790 C.2   1 <1>  -0.1240 
  6 C        2.3310    -0.7870     1.4170 C.2   1 <1>   0.5690 
  7 C       -0.9590    -2.0660     1.0620 C.ar  1 <1>  -0.1500 
  8 C       -1.6360    -2.8630    -1.0850 C.ar  1 <1>  -0.1500 
  9 C        1.6900    -2.2430    -2.6640 C.2   1 <1>   0.6160 
 10 C        2.4150    -2.2140    -0.5610 C.2   1 <1>   0.2090 
 11 O        2.4180    -0.7150     2.6160 O.2   1 <1>  -0.5700 
 12 N        2.5480    -1.9670     0.7880 N.am  1 <1>  -0.5390 
 13 C       -1.8370    -2.9500     1.6640 C.ar  1 <1>  -0.1500 
 14 C       -2.5130    -3.7460    -0.4820 C.ar  1 <1>  -0.1500 
 15 O        0.9910    -2.1540    -3.6820 O.2   1 <1>  -0.5700 
 16 N        2.8650    -2.9070    -2.6300 N.am  1 <1>  -0.4100 
 17 N        3.3260    -2.9270    -1.2760 N.pl3 1 <1>  -0.4890 
 18 C       -2.6180    -3.7960     0.8970 C.ar  1 <1>  -0.1430 
 19 C        4.7880    -3.0980    -1.0220 C.3   1 <1>   0.2890 
 20 C       -3.5810    -4.7630     1.5600 C.3   1 <1>  -0.0970 
 21 C        5.0460    -4.0080     0.1810 C.3   1 <1>  -0.1600 
 22 C        5.5060    -1.7500    -0.8570 C.3   1 <1>  -0.1600 
 23 C        6.5620    -4.2420     0.3490 C.3   1 <1>   0.2800 
 24 C        6.7510    -1.8820     0.0300 C.3   1 <1>   0.1200 
 25 O        7.2970    -3.1550    -0.1350 O.3   1 <1>  -0.5600 
 26 C        7.0250    -5.4400    -0.4820 C.3   1 <1>  -0.2400 
 27 C        6.9460    -4.4560     1.8150 C.3   1 <1>  -0.2400 
 28 H       -0.3490    -0.7590    -1.9710 H     1 <1>   0.0800 
 29 H        2.1310     1.3340     1.2100 H     1 <1>   0.0800 
 30 H        2.7400     0.5390    -0.2290 H     1 <1>   0.0800 
 31 H       -0.3690    -1.4260     1.6930 H     1 <1>   0.1500 
 32 H       -1.5690    -2.8460    -2.1600 H     1 <1>   0.1500 
 33 H        2.8160    -2.7410     1.3930 H     1 <1>   0.3700 
 34 H       -1.9090    -2.9720     2.7380 H     1 <1>   0.1500 
 35 H       -3.1150    -4.3950    -1.0930 H     1 <1>   0.1500 
 36 H        2.9240    -3.7440    -3.2180 H     1 <1>   0.3700 
 37 H        5.2130    -3.5850    -1.8830 H     1 <1>   0.0800 
 38 H       -3.2110    -5.0600     2.5250 H     1 <1>   0.0800 
 39 H       -3.7030    -5.6450     0.9580 H     1 <1>   0.0800 
 40 H       -4.5390    -4.2920     1.6850 H     1 <1>   0.0800 
 41 H        4.5370    -4.9460     0.0540 H     1 <1>   0.0800 
 42 H        4.6640    -3.5470     1.0710 H     1 <1>   0.0800 
 43 H        4.8630    -1.0120    -0.4200 H     1 <1>   0.0800 
 44 H        5.8010    -1.3960    -1.8280 H     1 <1>   0.0800 
 45 H        6.5070    -1.7440     1.0690 H     1 <1>   0.0800 
 46 H        7.4970    -1.1590    -0.2510 H     1 <1>   0.0800 
 47 H        6.7990    -5.2890    -1.5210 H     1 <1>   0.0800 
 48 H        6.5350    -6.3380    -0.1510 H     1 <1>   0.0800 
 49 H        8.0860    -5.5750    -0.3750 H     1 <1>   0.0800 
 50 H        6.6560    -3.6140     2.4170 H     1 <1>   0.0800 
 51 H        8.0080    -4.5970     1.9030 H     1 <1>   0.0800 
 52 H        6.4540    -5.3300     2.2010 H     1 <1>   0.0800 
@<TRIPOS>BOND
  1   1   2  1   
  2   1   3  1   
  3   2   4  1   
  4   2   5  1   
  5   2  28  1   
  6   3   6  1   
  7   3  29  1   
  8   3  30  1   
  9   4   7  ar  
 10   4   8  ar  
 11   5   9  1   
 12   5  10  2   
 13   6  11  2   
 14   6  12  am  
 15   7  13  ar  
 16   7  31  1   
 17   8  14  ar  
 18   8  32  1   
 19   9  15  2   
 20   9  16  am  
 21  10  12  1   
 22  10  17  1   
 23  12  33  1   
 24  13  18  ar  
 25  13  34  1   
 26  14  18  ar  
 27  14  35  1   
 28  16  17  1   
 29  16  36  1   
 30  17  19  1   
 31  18  20  1   
 32  19  21  1   
 33  19  22  1   
 34  19  37  1   
 35  20  38  1   
 36  20  39  1   
 37  20  40  1   
 38  21  23  1   
 39  21  41  1   
 40  21  42  1   
 41  22  24  1   
 42  22  43  1   
 43  22  44  1   
 44  23  25  1   
 45  23  26  1   
 46  23  27  1   
 47  24  25  1   
 48  24  45  1   
 49  24  46  1   
 50  26  47  1   
 51  26  48  1   
 52  26  49  1   
 53  27  50  1   
 54  27  51  1   
 55  27  52  1   
@<TRIPOS>SUBSTRUCTURE
  1 ****  10 GROUP 4 **** **** 0

# MOE 2024.06 (io_trps.svl 2023.06)
