@<TRIPOS>MOLECULE
NONAME
41 44 1 0 0 
SMALL
USER_CHARGES


@<TRIPOS>ATOM
  1 S       -0.3630    -0.0990     0.1600 S.3   1 <1>  -0.0800 
  2 C       -1.2350     0.0100    -1.3290 C.2   1 <1>   0.4340 
  3 C        1.0600    -0.2720    -0.8180 C.2   1 <1>   0.4620 
  4 S       -3.0150     0.2280    -1.2610 S.3   1 <1>  -0.2860 
  5 N       -0.5130    -0.0760    -2.3710 N.2   1 <1>  -0.3380 
  6 N        0.8160    -0.2400    -2.0790 N.2   1 <1>  -0.3380 
  7 N        2.2650    -0.4210    -0.2010 N.pl3 1 <1>  -0.8840 
  8 C       -3.4480     0.2780     0.5500 C.3   1 <1>   0.1310 
  9 C       -4.9410     0.4610     0.7770 C.2   1 <1>   0.5690 
 10 O       -5.3240     0.5050     1.9200 O.2   1 <1>  -0.5700 
 11 N       -5.7790     0.5660    -0.2900 N.am  1 <1>  -0.7300 
 12 C       -7.2400     0.7460    -0.3070 C.3   1 <1>   0.3000 
 13 C       -7.6380     2.0630     0.3840 C.3   1 <1>  -0.1600 
 14 C       -7.6820     0.8040    -1.7820 C.3   1 <1>  -0.1600 
 15 C       -7.9460    -0.4390     0.3780 C.3   1 <1>  -0.1600 
 16 C       -9.1660     2.2550     0.3100 C.3   1 <1>  -0.0800 
 17 C       -9.2090     0.9920    -1.8750 C.3   1 <1>  -0.0800 
 18 C       -9.4740    -0.2550     0.3040 C.3   1 <1>  -0.0800 
 19 C       -9.6000     2.3030    -1.1680 C.3   1 <1>  -0.1600 
 20 C       -9.8580     1.0640     1.0020 C.3   1 <1>  -0.1600 
 21 C       -9.9060    -0.1900    -1.1740 C.3   1 <1>  -0.1600 
 22 H        3.1150    -0.5240    -0.7590 H     1 <1>   0.4000 
 23 H        2.3700    -0.4350     0.8140 H     1 <1>   0.4000 
 24 H       -2.9120     1.0990     0.9880 H     1 <1>   0.0800 
 25 H       -3.1270    -0.6490     0.9850 H     1 <1>   0.0800 
 26 H       -5.3660     0.5180    -1.2230 H     1 <1>   0.3700 
 27 H       -7.1440     2.8910    -0.0920 H     1 <1>   0.0800 
 28 H       -7.3390     2.0420     1.4170 H     1 <1>   0.0800 
 29 H       -7.4070    -0.1080    -2.2820 H     1 <1>   0.0800 
 30 H       -7.1940     1.6240    -2.2780 H     1 <1>   0.0800 
 31 H       -7.6510    -0.4960     1.4110 H     1 <1>   0.0800 
 32 H       -7.6670    -1.3600    -0.1020 H     1 <1>   0.0800 
 33 H       -9.4410     3.1730     0.8010 H     1 <1>   0.0800 
 34 H       -9.5110     1.0310    -2.9080 H     1 <1>   0.0800 
 35 H       -9.9640    -1.0810     0.7910 H     1 <1>   0.0800 
 36 H       -9.1300     3.1380    -1.6590 H     1 <1>   0.0800 
 37 H      -10.6640     2.4460    -1.2290 H     1 <1>   0.0800 
 38 H      -10.9260     1.1960     0.9700 H     1 <1>   0.0800 
 39 H       -9.5660     1.0260     2.0370 H     1 <1>   0.0800 
 40 H       -9.6520    -1.1110    -1.6690 H     1 <1>   0.0800 
 41 H      -10.9740    -0.0710    -1.2350 H     1 <1>   0.0800 
@<TRIPOS>BOND
  1   1   2  1   
  2   1   3  1   
  3   2   4  1   
  4   2   5  2   
  5   3   6  2   
  6   3   7  1   
  7   4   8  1   
  8   5   6  1   
  9   7  22  1   
 10   7  23  1   
 11   8   9  1   
 12   8  24  1   
 13   8  25  1   
 14   9  10  2   
 15   9  11  am  
 16  11  12  1   
 17  11  26  1   
 18  12  13  1   
 19  12  14  1   
 20  12  15  1   
 21  13  16  1   
 22  13  27  1   
 23  13  28  1   
 24  14  17  1   
 25  14  29  1   
 26  14  30  1   
 27  15  18  1   
 28  15  31  1   
 29  15  32  1   
 30  16  19  1   
 31  16  20  1   
 32  16  33  1   
 33  17  19  1   
 34  17  21  1   
 35  17  34  1   
 36  18  20  1   
 37  18  21  1   
 38  18  35  1   
 39  19  36  1   
 40  19  37  1   
 41  20  38  1   
 42  20  39  1   
 43  21  40  1   
 44  21  41  1   
@<TRIPOS>SUBSTRUCTURE
  1 ****  11 GROUP 4 **** **** 0

# MOE 2024.06 (io_trps.svl 2023.06)
