@<TRIPOS>MOLECULE
NONAME
48 50 1 0 0 
SMALL
USER_CHARGES


@<TRIPOS>ATOM
  1 O       -0.1190    -0.4160    -0.3800 O.2   1 <1>  -0.5700 
  2 C       -0.6520     0.6740    -0.3990 C.2   1 <1>   0.6900 
  3 N       -2.0130     0.8060    -0.3830 N.am  1 <1>  -0.5470 
  4 N        0.0890     1.8260    -0.4090 N.am  1 <1>  -0.5470 
  5 C       -3.0340    -0.1590    -0.4240 C.ar  1 <1>   0.1170 
  6 C        1.4720     2.0240    -0.4860 C.ar  1 <1>   0.1170 
  7 C       -4.2610     0.0870     0.2060 C.ar  1 <1>  -0.1430 
  8 C       -2.8570    -1.3510    -1.1180 C.ar  1 <1>  -0.1500 
  9 C        2.0120     3.2010     0.0200 C.ar  1 <1>  -0.1500 
 10 C        2.3430     1.1070    -1.0680 C.ar  1 <1>  -0.1500 
 11 C       -5.2890    -0.8510     0.1120 C.ar  1 <1>  -0.1430 
 12 C       -4.4530     1.3880     0.9910 C.3   1 <1>  -0.0970 
 13 C       -3.8700    -2.2840    -1.1960 C.ar  1 <1>  -0.1500 
 14 C        3.3710     3.4440    -0.0390 C.ar  1 <1>  -0.1500 
 15 C        3.7010     1.3540    -1.1260 C.ar  1 <1>  -0.1500 
 16 C       -5.0820    -2.0310    -0.5850 C.ar  1 <1>  -0.1500 
 17 C       -6.6570    -0.6400     0.7500 C.3   1 <1>  -0.0970 
 18 C        4.2540     2.5230    -0.6020 C.ar  1 <1>   0.0860 
 19 C        5.6790     2.7870    -0.6400 C.2   1 <1>   0.5440 
 20 O        6.0790     3.8760    -1.0110 O.2   1 <1>  -0.5700 
 21 N        6.6050     1.8440    -0.2500 N.am  1 <1>  -0.6600 
 22 C        8.0600     2.1100    -0.2880 C.3   1 <1>   0.1400 
 23 C        6.3070     0.6610     0.5880 C.3   1 <1>   0.1400 
 24 C        8.6990     0.9120     0.4050 C.3   1 <1>  -0.1600 
 25 C        7.6080     0.3740     1.3270 C.3   1 <1>  -0.1600 
 26 H       -2.3560     1.7490    -0.2520 H     1 <1>   0.3700 
 27 H       -0.4520     2.6760    -0.3040 H     1 <1>   0.3700 
 28 H       -1.9220    -1.5550    -1.6060 H     1 <1>   0.1500 
 29 H        1.3660     3.9340     0.4670 H     1 <1>   0.1500 
 30 H        1.9570     0.1950    -1.4860 H     1 <1>   0.1500 
 31 H       -3.5760     1.6080     1.5740 H     1 <1>   0.0800 
 32 H       -5.2710     1.3290     1.6830 H     1 <1>   0.0800 
 33 H       -4.6400     2.1990     0.3120 H     1 <1>   0.0800 
 34 H       -3.7150    -3.2030    -1.7340 H     1 <1>   0.1500 
 35 H        3.7720     4.3630     0.3540 H     1 <1>   0.1500 
 36 H        4.3510     0.6330    -1.5900 H     1 <1>   0.1500 
 37 H       -5.8640    -2.7660    -0.6590 H     1 <1>   0.1500 
 38 H       -7.0650     0.3080     0.4500 H     1 <1>   0.0800 
 39 H       -6.5700    -0.6680     1.8210 H     1 <1>   0.0800 
 40 H       -7.3470    -1.4070     0.4490 H     1 <1>   0.0800 
 41 H        8.2660     3.0180     0.2550 H     1 <1>   0.0800 
 42 H        8.4000     2.2150    -1.3040 H     1 <1>   0.0800 
 43 H        6.0530    -0.1680    -0.0500 H     1 <1>   0.0800 
 44 H        5.4990     0.8570     1.2730 H     1 <1>   0.0800 
 45 H        9.5900     1.1890     0.9390 H     1 <1>   0.0800 
 46 H        8.9490     0.1730    -0.3370 H     1 <1>   0.0800 
 47 H        7.7270    -0.6740     1.5380 H     1 <1>   0.0800 
 48 H        7.6110     0.9210     2.2540 H     1 <1>   0.0800 
@<TRIPOS>BOND
  1   1   2  2   
  2   2   3  am  
  3   2   4  am  
  4   3   5  1   
  5   3  26  1   
  6   4   6  1   
  7   4  27  1   
  8   5   7  ar  
  9   5   8  ar  
 10   6   9  ar  
 11   6  10  ar  
 12   7  11  ar  
 13   7  12  1   
 14   8  13  ar  
 15   8  28  1   
 16   9  14  ar  
 17   9  29  1   
 18  10  15  ar  
 19  10  30  1   
 20  11  16  ar  
 21  11  17  1   
 22  12  31  1   
 23  12  32  1   
 24  12  33  1   
 25  13  16  ar  
 26  13  34  1   
 27  14  18  ar  
 28  14  35  1   
 29  15  18  ar  
 30  15  36  1   
 31  16  37  1   
 32  17  38  1   
 33  17  39  1   
 34  17  40  1   
 35  18  19  1   
 36  19  20  2   
 37  19  21  am  
 38  21  22  1   
 39  21  23  1   
 40  22  24  1   
 41  22  41  1   
 42  22  42  1   
 43  23  25  1   
 44  23  43  1   
 45  23  44  1   
 46  24  25  1   
 47  24  45  1   
 48  24  46  1   
 49  25  47  1   
 50  25  48  1   
@<TRIPOS>SUBSTRUCTURE
  1 ****   6 GROUP 4 **** **** 0

# MOE 2024.06 (io_trps.svl 2023.06)
