@<TRIPOS>MOLECULE
NONAME
46 48 1 0 0 
SMALL
USER_CHARGES


@<TRIPOS>ATOM
  1 F       -0.1990    -2.0480     1.5910 F     1 <1>  -0.1900 
  2 C       -1.3100    -1.9020     0.9060 C.ar  1 <1>   0.1900 
  3 C       -1.4230    -2.4920    -0.3580 C.ar  1 <1>   0.1000 
  4 C       -2.3240    -1.1620     1.4820 C.ar  1 <1>  -0.1500 
  5 N       -0.4190    -3.2500    -0.9780 N.pl3 1 <1>  -0.8380 
  6 C       -2.6220    -2.3030    -1.0330 C.ar  1 <1>  -0.1500 
  7 C       -3.5070    -0.9920     0.7830 C.ar  1 <1>  -0.1500 
  8 C        0.7770    -2.5140    -1.4900 C.3   1 <1>   0.2090 
  9 C       -0.1710    -4.6230    -0.4430 C.3   1 <1>   0.2090 
 10 C       -3.6510    -1.5630    -0.4720 C.ar  1 <1>  -0.1500 
 11 C        1.9930    -2.6300    -0.5450 C.3   1 <1>   0.3430 
 12 C        1.0660    -4.6790     0.4800 C.3   1 <1>   0.3430 
 13 N        2.2920    -4.0520    -0.1360 N.4   1 <1>  -0.9590 
 14 C        3.4490    -4.1560     0.8040 C.3   1 <1>   0.3430 
 15 C        4.7780    -3.7440     0.1460 C.3   1 <1>  -0.0800 
 16 C        5.8920    -4.7110     0.5870 C.3   1 <1>  -0.1600 
 17 C        5.1700    -2.2970     0.5090 C.3   1 <1>  -0.1600 
 18 C        7.2420    -4.3320    -0.0370 C.3   1 <1>  -0.1600 
 19 C        6.5160    -1.9100    -0.1170 C.3   1 <1>  -0.1600 
 20 C        7.6220    -2.8860     0.3010 C.3   1 <1>  -0.1600 
 21 H       -2.1940    -0.7260     2.4570 H     1 <1>   0.1500 
 22 H       -2.7440    -2.7420    -2.0070 H     1 <1>   0.1500 
 23 H       -4.3120    -0.4190     1.2110 H     1 <1>   0.1500 
 24 H        0.5280    -1.4740    -1.6180 H     1 <1>   0.0800 
 25 H        1.0360    -2.9030    -2.4600 H     1 <1>   0.0800 
 26 H       -0.0370    -5.3010    -1.2680 H     1 <1>   0.0800 
 27 H       -1.0360    -4.9530     0.1070 H     1 <1>   0.0800 
 28 H       -4.5720    -1.4310    -1.0160 H     1 <1>   0.1500 
 29 H        1.7960    -2.0380     0.3330 H     1 <1>   0.0800 
 30 H        2.8480    -2.2050    -1.0410 H     1 <1>   0.0800 
 31 H        1.2660    -5.7070     0.7290 H     1 <1>   0.0800 
 32 H        0.8230    -4.1640     1.3950 H     1 <1>   0.0800 
 33 H        2.5160    -4.5800    -0.9890 H     1 <1>   0.4500 
 34 H        3.5370    -5.1800     1.1280 H     1 <1>   0.0800 
 35 H        3.2750    -3.5520     1.6800 H     1 <1>   0.0800 
 36 H        4.6900    -3.8280    -0.9240 H     1 <1>   0.0800 
 37 H        5.6480    -5.7180     0.2940 H     1 <1>   0.0800 
 38 H        5.9910    -4.6940     1.6600 H     1 <1>   0.0800 
 39 H        5.2490    -2.2010     1.5790 H     1 <1>   0.0800 
 40 H        4.4270    -1.5960     0.1760 H     1 <1>   0.0800 
 41 H        7.1930    -4.4470    -1.1060 H     1 <1>   0.0800 
 42 H        8.0080    -4.9960     0.3270 H     1 <1>   0.0800 
 43 H        6.7870    -0.9140     0.1920 H     1 <1>   0.0800 
 44 H        6.4310    -1.9080    -1.1900 H     1 <1>   0.0800 
 45 H        8.5390    -2.6280    -0.2010 H     1 <1>   0.0800 
 46 H        7.7940    -2.8000     1.3600 H     1 <1>   0.0800 
@<TRIPOS>BOND
  1   1   2  1   
  2   2   3  ar  
  3   2   4  ar  
  4   3   5  1   
  5   3   6  ar  
  6   4   7  ar  
  7   4  21  1   
  8   5   8  1   
  9   5   9  1   
 10   6  10  ar  
 11   6  22  1   
 12   7  10  ar  
 13   7  23  1   
 14   8  11  1   
 15   8  24  1   
 16   8  25  1   
 17   9  12  1   
 18   9  26  1   
 19   9  27  1   
 20  10  28  1   
 21  11  13  1   
 22  11  29  1   
 23  11  30  1   
 24  12  13  1   
 25  12  31  1   
 26  12  32  1   
 27  13  14  1   
 28  13  33  1   
 29  14  15  1   
 30  14  34  1   
 31  14  35  1   
 32  15  16  1   
 33  15  17  1   
 34  15  36  1   
 35  16  18  1   
 36  16  37  1   
 37  16  38  1   
 38  17  19  1   
 39  17  39  1   
 40  17  40  1   
 41  18  20  1   
 42  18  41  1   
 43  18  42  1   
 44  19  20  1   
 45  19  43  1   
 46  19  44  1   
 47  20  45  1   
 48  20  46  1   
@<TRIPOS>SUBSTRUCTURE
  1 ****  11 GROUP 4 **** **** 0

# MOE 2024.06 (io_trps.svl 2023.06)
