@<TRIPOS>MOLECULE
NONAME
37 38 1 0 0 
SMALL
USER_CHARGES


@<TRIPOS>ATOM
  1 CL      -1.8930     1.1100     2.0670 Cl    1 <1>  -0.1770 
  2 C       -0.9420     2.2250     1.1050 C.ar  1 <1>   0.1770 
  3 C        0.1800     2.8200     1.6620 C.ar  1 <1>   0.1770 
  4 C       -1.3100     2.5060    -0.2060 C.ar  1 <1>  -0.1440 
  5 CL       0.6450     2.4800     3.3130 Cl    1 <1>  -0.1770 
  6 C        0.9530     3.6950     0.9230 C.ar  1 <1>  -0.1500 
  7 C       -0.5250     3.3820    -0.9460 C.ar  1 <1>  -0.1500 
  8 C       -2.5460     1.8720    -0.8260 C.3   1 <1>   0.2540 
  9 C        0.5980     3.9740    -0.3870 C.ar  1 <1>  -0.1500 
 10 N       -3.7650     2.4710    -0.2510 N.3   1 <1>  -0.8100 
 11 C       -4.9670     1.6700    -0.5320 C.3   1 <1>   0.1100 
 12 C       -3.9470     3.8930    -0.6040 C.3   1 <1>   0.1100 
 13 C       -6.1970     2.2460     0.1990 C.3   1 <1>   0.3430 
 14 C       -5.1690     4.4880     0.1250 C.3   1 <1>   0.3430 
 15 N       -6.4240     3.6980    -0.1410 N.4   1 <1>  -0.9590 
 16 C       -7.5690     4.2900     0.6230 C.3   1 <1>   0.3430 
 17 C       -8.9280     3.6980     0.2210 C.3   1 <1>   0.1200 
 18 O       -9.9050     4.3730     0.9290 O.3   1 <1>  -0.6800 
 19 H        1.8210     4.1480     1.3680 H     1 <1>   0.1500 
 20 H       -0.7800     3.6120    -1.9670 H     1 <1>   0.1500 
 21 H       -2.5280     0.8150    -0.6180 H     1 <1>   0.0800 
 22 H       -2.5400     1.9980    -1.8950 H     1 <1>   0.0800 
 23 H        1.1980     4.6510    -0.9710 H     1 <1>   0.1500 
 24 H       -4.8080     0.6610    -0.1880 H     1 <1>   0.0800 
 25 H       -5.1520     1.6350    -1.5930 H     1 <1>   0.0800 
 26 H       -4.0640     4.0000    -1.6690 H     1 <1>   0.0800 
 27 H       -3.0760     4.4530    -0.3070 H     1 <1>   0.0800 
 28 H       -6.0340     2.1450     1.2590 H     1 <1>   0.0800 
 29 H       -7.0650     1.6640    -0.0610 H     1 <1>   0.0800 
 30 H       -5.3040     5.5100    -0.1880 H     1 <1>   0.0800 
 31 H       -4.9600     4.4890     1.1820 H     1 <1>   0.0800 
 32 H       -6.6160     3.7660    -1.1480 H     1 <1>   0.4500 
 33 H       -7.6060     5.3520     0.4430 H     1 <1>   0.0800 
 34 H       -7.4200     4.1330     1.6790 H     1 <1>   0.0800 
 35 H       -8.9960     2.6550     0.4770 H     1 <1>   0.0800 
 36 H       -9.1200     3.8430    -0.8290 H     1 <1>   0.0800 
 37 H      -10.8070     4.0510     0.7110 H     1 <1>   0.4000 
@<TRIPOS>BOND
  1   1   2  1   
  2   2   3  ar  
  3   2   4  ar  
  4   3   5  1   
  5   3   6  ar  
  6   4   7  ar  
  7   4   8  1   
  8   6   9  ar  
  9   6  19  1   
 10   7   9  ar  
 11   7  20  1   
 12   8  10  1   
 13   8  21  1   
 14   8  22  1   
 15   9  23  1   
 16  10  11  1   
 17  10  12  1   
 18  11  13  1   
 19  11  24  1   
 20  11  25  1   
 21  12  14  1   
 22  12  26  1   
 23  12  27  1   
 24  13  15  1   
 25  13  28  1   
 26  13  29  1   
 27  14  15  1   
 28  14  30  1   
 29  14  31  1   
 30  15  16  1   
 31  15  32  1   
 32  16  17  1   
 33  16  33  1   
 34  16  34  1   
 35  17  18  1   
 36  17  35  1   
 37  17  36  1   
 38  18  37  1   
@<TRIPOS>SUBSTRUCTURE
  1 ****  10 GROUP 4 **** **** 0

# MOE 2024.06 (io_trps.svl 2023.06)
