@<TRIPOS>MOLECULE
NONAME
39 40 1 0 0 
SMALL
USER_CHARGES


@<TRIPOS>ATOM
  1 S       -5.0040    -2.4080    -1.2410 S.3   1 <1>  -0.0800 
  2 C       -5.5630    -0.8980    -1.9230 C.2   1 <1>   0.4620 
  3 C       -6.3320    -2.3630    -0.1100 C.2   1 <1>  -0.1400 
  4 N       -6.6130    -0.4300    -1.3710 N.2   1 <1>  -0.5650 
  5 N       -4.8740    -0.3480    -2.9510 N.pl3 1 <1>  -0.8840 
  6 C       -7.0710    -1.2520    -0.3430 C.2   1 <1>   0.1810 
  7 C       -6.4020    -3.4810     0.9190 C.3   1 <1>   0.0200 
  8 C       -8.2490    -0.8120     0.3770 C.2   1 <1>   0.1550 
  9 C       -6.5870    -4.8570     0.2630 C.3   1 <1>  -0.1600 
 10 N       -8.3700     0.5090     0.8040 N.am  1 <1>  -0.5390 
 11 C       -9.3860    -1.4400     0.7690 C.2   1 <1>  -0.0290 
 12 C       -6.7470    -5.9710     1.3130 C.3   1 <1>  -0.0990 
 13 C       -9.5480     0.6580     1.4350 C.2   1 <1>   0.6900 
 14 N      -10.1800    -0.5320     1.4460 N.am  1 <1>  -0.5390 
 15 C       -9.8780    -2.8560     0.5470 C.3   1 <1>  -0.1020 
 16 C       -6.9760    -7.3270     0.6750 C.2   1 <1>   0.6590 
 17 O       -9.9840     1.6960     1.9070 O.2   1 <1>  -0.5700 
 18 O       -8.0600    -7.8480     0.6800 O.2   1 <1>  -0.5700 
 19 O       -5.9160    -7.8900     0.1110 O.3   1 <1>  -0.4300 
 20 C       -6.0030    -9.1400    -0.5310 C.3   1 <1>   0.1200 
 21 C       -4.6340    -9.4640    -1.1190 C.3   1 <1>  -0.2400 
 22 H       -5.2250     0.5040    -3.3900 H     1 <1>   0.4000 
 23 H       -4.0770    -0.8120    -3.3850 H     1 <1>   0.4000 
 24 H       -7.2130    -3.2860     1.5980 H     1 <1>   0.0800 
 25 H       -5.4910    -3.4760     1.4930 H     1 <1>   0.0800 
 26 H       -5.7340    -5.0790    -0.3550 H     1 <1>   0.0800 
 27 H       -7.4550    -4.8410    -0.3730 H     1 <1>   0.0800 
 28 H       -7.7550     1.2770     0.5400 H     1 <1>   0.3700 
 29 H       -7.5860    -5.7550     1.9490 H     1 <1>   0.0800 
 30 H       -5.8670    -6.0300     1.9270 H     1 <1>   0.0800 
 31 H      -11.1120    -0.6430     1.8420 H     1 <1>   0.3700 
 32 H       -9.2360    -3.3680    -0.1430 H     1 <1>   0.0800 
 33 H       -9.8990    -3.3920     1.4780 H     1 <1>   0.0800 
 34 H      -10.8690    -2.8370     0.1310 H     1 <1>   0.0800 
 35 H       -6.7500    -9.0750    -1.3040 H     1 <1>   0.0800 
 36 H       -6.2990    -9.8770     0.1960 H     1 <1>   0.0800 
 37 H       -4.3480    -8.7090    -1.8300 H     1 <1>   0.0800 
 38 H       -4.6710   -10.4120    -1.6230 H     1 <1>   0.0800 
 39 H       -3.8980    -9.5200    -0.3370 H     1 <1>   0.0800 
@<TRIPOS>BOND
  1   1   2  1   
  2   1   3  1   
  3   2   4  2   
  4   2   5  1   
  5   3   6  2   
  6   3   7  1   
  7   4   6  1   
  8   5  22  1   
  9   5  23  1   
 10   6   8  1   
 11   7   9  1   
 12   7  24  1   
 13   7  25  1   
 14   8  10  1   
 15   8  11  2   
 16   9  12  1   
 17   9  26  1   
 18   9  27  1   
 19  10  13  am  
 20  10  28  1   
 21  11  14  1   
 22  11  15  1   
 23  12  16  1   
 24  12  29  1   
 25  12  30  1   
 26  13  14  am  
 27  13  17  2   
 28  14  31  1   
 29  15  32  1   
 30  15  33  1   
 31  15  34  1   
 32  16  18  2   
 33  16  19  1   
 34  19  20  1   
 35  20  21  1   
 36  20  35  1   
 37  20  36  1   
 38  21  37  1   
 39  21  38  1   
 40  21  39  1   
@<TRIPOS>SUBSTRUCTURE
  1 ****   3 GROUP 4 **** **** 0

# MOE 2024.06 (io_trps.svl 2023.06)
