@<TRIPOS>MOLECULE
NONAME
37 40 1 0 0 
SMALL
USER_CHARGES


@<TRIPOS>ATOM
  1 O        1.1620     1.2340    -1.4170 O.3   1 <1>  -0.3630 
  2 C        1.7660     0.0950    -0.9950 C.ar  1 <1>   0.0830 
  3 C        1.2100     2.4570    -0.6890 C.3   1 <1>   0.2800 
  4 C        2.4390     0.0370     0.2190 C.ar  1 <1>  -0.1440 
  5 C        1.6830    -1.0280    -1.7990 C.ar  1 <1>  -0.1500 
  6 C        1.2790     2.1580     0.8240 C.3   1 <1>  -0.0800 
  7 C        2.4670     3.2190    -1.1710 C.3   1 <1>  -0.1600 
  8 C       -0.0740     3.2320    -1.0390 C.3   1 <1>  -0.1600 
  9 C        3.0190    -1.1550     0.6300 C.ar  1 <1>  -0.1500 
 10 C        2.5330     1.2980     1.0380 C.3   1 <1>   0.5660 
 11 C        2.2680    -2.2140    -1.3910 C.ar  1 <1>  -0.1500 
 12 C       -0.0090     1.4920     1.3650 C.3   1 <1>  -0.1600 
 13 C        3.5940     3.2670    -0.1360 C.3   1 <1>   0.3430 
 14 C       -1.3420     2.5500    -0.5030 C.3   1 <1>  -0.1600 
 15 C        2.9320    -2.2770    -0.1770 C.ar  1 <1>  -0.1500 
 16 N        3.7670     1.9450     0.5220 N.4   1 <1>  -0.9060 
 17 C       -1.2500     2.3200     1.0110 C.3   1 <1>  -0.1600 
 18 H        1.1570    -0.9730    -2.7360 H     1 <1>   0.1500 
 19 H        1.3900     3.0800     1.3650 H     1 <1>   0.0800 
 20 H        2.2110     4.2380    -1.3990 H     1 <1>   0.0800 
 21 H        2.8310     2.7860    -2.0860 H     1 <1>   0.0800 
 22 H       -0.1490     3.3430    -2.1070 H     1 <1>   0.0800 
 23 H       -0.0220     4.2190    -0.6140 H     1 <1>   0.0800 
 24 H        3.5380    -1.2310     1.5710 H     1 <1>   0.1500 
 25 H        2.6400     1.0520     2.0820 H     1 <1>   0.0800 
 26 H        2.2010    -3.0890    -2.0150 H     1 <1>   0.1500 
 27 H        0.0500     1.3850     2.4340 H     1 <1>   0.0800 
 28 H       -0.1360     0.5060     0.9470 H     1 <1>   0.0800 
 29 H        3.3480     4.0040     0.6120 H     1 <1>   0.0800 
 30 H        4.5130     3.5720    -0.6120 H     1 <1>   0.0800 
 31 H       -1.4810     1.6040    -1.0010 H     1 <1>   0.0800 
 32 H       -2.2010     3.1610    -0.7220 H     1 <1>   0.0800 
 33 H        3.3790    -3.2060     0.1360 H     1 <1>   0.1500 
 34 H        4.1090     1.2810    -0.1870 H     1 <1>   0.4500 
 35 H        4.4760     1.9810     1.2600 H     1 <1>   0.4500 
 36 H       -1.2140     3.2700     1.5180 H     1 <1>   0.0800 
 37 H       -2.1340     1.8050     1.3460 H     1 <1>   0.0800 
@<TRIPOS>BOND
  1   1   2  1   
  2   1   3  1   
  3   2   4  ar  
  4   2   5  ar  
  5   3   6  1   
  6   3   7  1   
  7   3   8  1   
  8   4   9  ar  
  9   4  10  1   
 10   5  11  ar  
 11   5  18  1   
 12   6  10  1   
 13   6  12  1   
 14   6  19  1   
 15   7  13  1   
 16   7  20  1   
 17   7  21  1   
 18   8  14  1   
 19   8  22  1   
 20   8  23  1   
 21   9  15  ar  
 22   9  24  1   
 23  10  16  1   
 24  10  25  1   
 25  11  15  ar  
 26  11  26  1   
 27  12  17  1   
 28  12  27  1   
 29  12  28  1   
 30  13  16  1   
 31  13  29  1   
 32  13  30  1   
 33  14  17  1   
 34  14  31  1   
 35  14  32  1   
 36  15  33  1   
 37  16  34  1   
 38  16  35  1   
 39  17  36  1   
 40  17  37  1   
@<TRIPOS>SUBSTRUCTURE
  1 ****   2 GROUP 4 **** **** 0

# MOE 2024.06 (io_trps.svl 2023.06)
