@<TRIPOS>MOLECULE
NONAME
49 51 1 0 0 
SMALL
USER_CHARGES


@<TRIPOS>ATOM
  1 CL       0.1320     0.1900    -1.1050 Cl    1 <1>  -0.1770 
  2 C        1.6100     1.0680    -0.7950 C.ar  1 <1>   0.1770 
  3 C        2.4120     0.6930     0.2680 C.ar  1 <1>  -0.1500 
  4 C        1.9570     2.1260    -1.6150 C.ar  1 <1>  -0.1500 
  5 C        3.5820     1.3910     0.5110 C.ar  1 <1>  -0.1500 
  6 C        3.1280     2.8180    -1.3650 C.ar  1 <1>  -0.1500 
  7 C        3.9510     2.4590    -0.3030 C.ar  1 <1>   0.1000 
  8 N        5.1220     3.1730    -0.0770 N.pl3 1 <1>  -0.8380 
  9 C        6.3970     2.4660    -0.3720 C.3   1 <1>   0.2090 
 10 C        5.1550     4.0260     1.1420 C.3   1 <1>   0.2090 
 11 C        7.5590     3.4780    -0.4550 C.3   1 <1>   0.3430 
 12 C        6.3230     5.0310     1.0570 C.3   1 <1>   0.3430 
 13 N        7.6630     4.3700     0.7750 N.4   1 <1>  -0.9590 
 14 C        8.7810     5.3650     0.7590 C.3   1 <1>   0.4230 
 15 C        8.7410     6.2840    -0.4700 C.3   1 <1>  -0.1600 
 16 C       10.1340     4.6520     0.8400 C.3   1 <1>  -0.1600 
 17 C        9.8980     7.2840    -0.4320 C.3   1 <1>   0.3430 
 18 C       11.2790     5.6660     0.8650 C.3   1 <1>   0.3430 
 19 N       11.2000     6.5620    -0.3290 N.4   1 <1>  -0.9590 
 20 C       12.3210     7.5480    -0.3440 C.3   1 <1>   0.3430 
 21 C       13.6270     6.8390    -0.6860 C.3   1 <1>  -0.2400 
 22 H        2.1180    -0.1330     0.8890 H     1 <1>   0.1500 
 23 H        1.3160     2.3980    -2.4350 H     1 <1>   0.1500 
 24 H        4.2090     1.1040     1.3340 H     1 <1>   0.1500 
 25 H        3.4120     3.6420    -1.9930 H     1 <1>   0.1500 
 26 H        6.3030     1.9480    -1.3130 H     1 <1>   0.0800 
 27 H        6.5940     1.7320     0.3910 H     1 <1>   0.0800 
 28 H        5.2560     3.4090     2.0180 H     1 <1>   0.0800 
 29 H        4.2240     4.5630     1.2230 H     1 <1>   0.0800 
 30 H        7.3930     4.0850    -1.3290 H     1 <1>   0.0800 
 31 H        8.4770     2.9330    -0.5980 H     1 <1>   0.0800 
 32 H        6.3700     5.5830     1.9810 H     1 <1>   0.0800 
 33 H        6.0900     5.7280     0.2690 H     1 <1>   0.0800 
 34 H        7.8190     3.7330     1.5680 H     1 <1>   0.4500 
 35 H        8.6880     5.9840     1.6380 H     1 <1>   0.0800 
 36 H        7.8230     6.8420    -0.4870 H     1 <1>   0.0800 
 37 H        8.8100     5.7220    -1.3840 H     1 <1>   0.0800 
 38 H       10.2790     3.9930     0.0030 H     1 <1>   0.0800 
 39 H       10.1830     4.0690     1.7430 H     1 <1>   0.0800 
 40 H        9.7820     7.9450     0.4130 H     1 <1>   0.0800 
 41 H        9.8830     7.8860    -1.3280 H     1 <1>   0.0800 
 42 H       12.2210     5.1390     0.8700 H     1 <1>   0.0800 
 43 H       11.2260     6.2570     1.7660 H     1 <1>   0.0800 
 44 H       11.3270     5.9910    -1.1790 H     1 <1>   0.4500 
 45 H       12.4050     8.0400     0.6130 H     1 <1>   0.0800 
 46 H       12.1350     8.3020    -1.0930 H     1 <1>   0.0800 
 47 H       13.9200     6.1470     0.0820 H     1 <1>   0.0800 
 48 H       14.4090     7.5740    -0.7700 H     1 <1>   0.0800 
 49 H       13.5550     6.3300    -1.6300 H     1 <1>   0.0800 
@<TRIPOS>BOND
  1   1   2  1   
  2   2   3  ar  
  3   2   4  ar  
  4   3   5  ar  
  5   3  22  1   
  6   4   6  ar  
  7   4  23  1   
  8   5   7  ar  
  9   5  24  1   
 10   6   7  ar  
 11   6  25  1   
 12   7   8  1   
 13   8   9  1   
 14   8  10  1   
 15   9  11  1   
 16   9  26  1   
 17   9  27  1   
 18  10  12  1   
 19  10  28  1   
 20  10  29  1   
 21  11  13  1   
 22  11  30  1   
 23  11  31  1   
 24  12  13  1   
 25  12  32  1   
 26  12  33  1   
 27  13  14  1   
 28  13  34  1   
 29  14  15  1   
 30  14  16  1   
 31  14  35  1   
 32  15  17  1   
 33  15  36  1   
 34  15  37  1   
 35  16  18  1   
 36  16  38  1   
 37  16  39  1   
 38  17  19  1   
 39  17  40  1   
 40  17  41  1   
 41  18  19  1   
 42  18  42  1   
 43  18  43  1   
 44  19  20  1   
 45  19  44  1   
 46  20  21  1   
 47  20  45  1   
 48  20  46  1   
 49  21  47  1   
 50  21  48  1   
 51  21  49  1   
@<TRIPOS>SUBSTRUCTURE
  1 ****  11 GROUP 4 **** **** 0

# MOE 2024.06 (io_trps.svl 2023.06)
