@<TRIPOS>MOLECULE
NONAME
29 29 1 0 0 
SMALL
USER_CHARGES


@<TRIPOS>ATOM
  1 S       -0.1910    -0.1050    -0.1280 S.o2  1 <1>   1.4470 
  2 O       -0.4350    -0.7900     1.1230 O.2   1 <1>  -0.6500 
  3 O       -0.2750    -0.8470    -1.3650 O.2   1 <1>  -0.6500 
  4 N       -1.3400     1.1400    -0.2180 N.am  1 <1>  -0.8490 
  5 C        1.3900     0.7870    -0.0690 C.ar  1 <1>  -0.0090 
  6 C       -2.6490     0.5940    -0.6780 C.3   1 <1>   0.2570 
  7 C       -1.4750     1.8760     1.0470 C.3   1 <1>   0.1160 
  8 C        2.3240     0.5310     0.9340 C.ar  1 <1>  -0.1500 
  9 C        1.6980     1.7450    -1.0330 C.ar  1 <1>  -0.1500 
 10 C       -3.7810     1.6080    -0.8900 C.2   1 <1>   0.6590 
 11 C        3.5300     1.2130     0.9820 C.ar  1 <1>  -0.1500 
 12 C        2.8980     2.4370    -1.0020 C.ar  1 <1>  -0.1500 
 13 O       -4.0560     2.0410    -1.9810 O.2   1 <1>  -0.5700 
 14 O       -4.4620     1.9660     0.1960 O.3   1 <1>  -0.4300 
 15 C        3.7940     2.1570     0.0100 C.ar  1 <1>   0.1900 
 16 C       -5.5400     2.8780     0.1280 C.3   1 <1>   0.0400 
 17 F        4.9250     2.8050     0.0500 F     1 <1>  -0.1900 
 18 H       -2.9920    -0.1470     0.0230 H     1 <1>   0.0800 
 19 H       -2.5070     0.1010    -1.6230 H     1 <1>   0.0800 
 20 H       -0.5100     2.2120     1.3870 H     1 <1>   0.0800 
 21 H       -1.9110     1.2490     1.8080 H     1 <1>   0.0800 
 22 H       -2.0950     2.7460     0.9100 H     1 <1>   0.0800 
 23 H        2.1050    -0.2100     1.6850 H     1 <1>   0.1500 
 24 H        0.9860     1.9500    -1.8170 H     1 <1>   0.1500 
 25 H        4.2520     1.0180     1.7550 H     1 <1>   0.1500 
 26 H        3.1360     3.1780    -1.7450 H     1 <1>   0.1500 
 27 H       -5.9340     3.0180     1.1180 H     1 <1>   0.0800 
 28 H       -6.2990     2.4720    -0.5200 H     1 <1>   0.0800 
 29 H       -5.1810     3.8130    -0.2650 H     1 <1>   0.0800 
@<TRIPOS>BOND
  1   1   2  2   
  2   1   3  2   
  3   1   4  am  
  4   1   5  1   
  5   4   6  1   
  6   4   7  1   
  7   5   8  ar  
  8   5   9  ar  
  9   6  10  1   
 10   6  18  1   
 11   6  19  1   
 12   7  20  1   
 13   7  21  1   
 14   7  22  1   
 15   8  11  ar  
 16   8  23  1   
 17   9  12  ar  
 18   9  24  1   
 19  10  13  2   
 20  10  14  1   
 21  11  15  ar  
 22  11  25  1   
 23  12  15  ar  
 24  12  26  1   
 25  14  16  1   
 26  15  17  1   
 27  16  27  1   
 28  16  28  1   
 29  16  29  1   
@<TRIPOS>SUBSTRUCTURE
  1 ****   4 GROUP 4 **** **** 0

# MOE 2024.06 (io_trps.svl 2023.06)
