@<TRIPOS>MOLECULE
NONAME
39 40 1 0 0 
SMALL
USER_CHARGES


@<TRIPOS>ATOM
  1 CL      -0.2170    -0.5160     0.1020 Cl    1 <1>  -0.1770 
  2 C        1.4310    -1.0890     0.0520 C.ar  1 <1>   0.1770 
  3 C        1.6880    -2.3840    -0.3560 C.ar  1 <1>  -0.1500 
  4 C        2.4560    -0.2370     0.4220 C.ar  1 <1>  -0.1500 
  5 C        2.9970    -2.8330    -0.3930 C.ar  1 <1>  -0.1500 
  6 C        3.7650    -0.6880     0.3840 C.ar  1 <1>  -0.1500 
  7 C        4.0390    -1.9930    -0.0270 C.ar  1 <1>   0.0830 
  8 O        5.2890    -2.5160    -0.0950 O.3   1 <1>  -0.3630 
  9 C        6.4260    -1.7510     0.2200 C.3   1 <1>   0.1200 
 10 C        7.6460    -2.6600     0.0360 C.3   1 <1>   0.3430 
 11 N        8.9400    -1.9650     0.3320 N.4   1 <1>  -0.9590 
 12 C        9.2980    -0.8740    -0.6370 C.3   1 <1>   0.3430 
 13 C       10.0890    -2.9360     0.4260 C.3   1 <1>   0.3430 
 14 C       10.5570    -0.1040    -0.1590 C.3   1 <1>   0.2000 
 15 C       11.4700    -2.2290     0.4950 C.3   1 <1>   0.2000 
 16 O       11.3100    -0.8590     0.7550 O.3   1 <1>  -0.5600 
 17 C       10.1870     1.1880     0.5680 C.3   1 <1>  -0.2400 
 18 C       12.3170    -2.4170    -0.7700 C.3   1 <1>  -0.2400 
 19 H        0.8730    -3.0270    -0.6380 H     1 <1>   0.1500 
 20 H        2.2230     0.7650     0.7350 H     1 <1>   0.1500 
 21 H        3.2120    -3.8390    -0.7080 H     1 <1>   0.1500 
 22 H        4.5440    -0.0100     0.6770 H     1 <1>   0.1500 
 23 H        6.3390    -1.4280     1.2430 H     1 <1>   0.0800 
 24 H        6.4560    -0.9120    -0.4510 H     1 <1>   0.0800 
 25 H        7.6570    -3.0260    -0.9770 H     1 <1>   0.0800 
 26 H        7.5350    -3.5030     0.6990 H     1 <1>   0.0800 
 27 H        8.9010    -1.5110     1.2580 H     1 <1>   0.4500 
 28 H        8.4840    -0.1790    -0.7510 H     1 <1>   0.0800 
 29 H        9.4990    -1.3020    -1.6050 H     1 <1>   0.0800 
 30 H       10.0850    -3.5960    -0.4260 H     1 <1>   0.0800 
 31 H        9.9720    -3.5490     1.3050 H     1 <1>   0.0800 
 32 H       11.1850     0.1350    -1.0010 H     1 <1>   0.0800 
 33 H       12.0210    -2.6360     1.3260 H     1 <1>   0.0800 
 34 H        9.5880     0.9820     1.4360 H     1 <1>   0.0800 
 35 H        9.6390     1.8430    -0.0860 H     1 <1>   0.0800 
 36 H       11.0830     1.6990     0.8760 H     1 <1>   0.0800 
 37 H       11.7980    -2.1030    -1.6570 H     1 <1>   0.0800 
 38 H       12.5730    -3.4550    -0.8850 H     1 <1>   0.0800 
 39 H       13.2340    -1.8610    -0.6780 H     1 <1>   0.0800 
@<TRIPOS>BOND
  1   1   2  1   
  2   2   3  ar  
  3   2   4  ar  
  4   3   5  ar  
  5   3  19  1   
  6   4   6  ar  
  7   4  20  1   
  8   5   7  ar  
  9   5  21  1   
 10   6   7  ar  
 11   6  22  1   
 12   7   8  1   
 13   8   9  1   
 14   9  10  1   
 15   9  23  1   
 16   9  24  1   
 17  10  11  1   
 18  10  25  1   
 19  10  26  1   
 20  11  12  1   
 21  11  13  1   
 22  11  27  1   
 23  12  14  1   
 24  12  28  1   
 25  12  29  1   
 26  13  15  1   
 27  13  30  1   
 28  13  31  1   
 29  14  16  1   
 30  14  17  1   
 31  14  32  1   
 32  15  16  1   
 33  15  18  1   
 34  15  33  1   
 35  17  34  1   
 36  17  35  1   
 37  17  36  1   
 38  18  37  1   
 39  18  38  1   
 40  18  39  1   
@<TRIPOS>SUBSTRUCTURE
  1 ****   9 GROUP 4 **** **** 0

# MOE 2024.06 (io_trps.svl 2023.06)
