@<TRIPOS>MOLECULE
NONAME
33 33 1 0 0 
SMALL
USER_CHARGES


@<TRIPOS>ATOM
  1 F       -0.7440    -1.1990     0.3560 F     1 <1>  -0.3400 
  2 C       -0.6250     0.0620    -0.0480 C.3   1 <1>   1.0200 
  3 F        0.6190     0.4190     0.2710 F     1 <1>  -0.3400 
  4 F       -0.6470     0.0200    -1.3790 F     1 <1>  -0.3400 
  5 C       -1.7070     1.0550     0.5520 C.3   1 <1>   0.5800 
  6 O       -1.7920     1.0320     1.9500 O.3   1 <1>  -0.6800 
  7 N       -3.0880     0.8300     0.0400 N.am  1 <1>  -0.2980 
  8 C       -1.4380     2.5130     0.1360 C.3   1 <1>  -0.0990 
  9 N       -3.5460     1.9310    -0.6660 N.2   1 <1>  -0.5120 
 10 C       -3.8000    -0.3140     0.3500 C.2   1 <1>   0.7800 
 11 C       -2.6920     2.8490    -0.6250 C.2   1 <1>   0.3280 
 12 O       -3.4210    -1.0780     1.2180 O.2   1 <1>  -0.5700 
 13 O       -4.9260    -0.5440    -0.3300 O.3   1 <1>  -0.4300 
 14 C       -2.8300     4.2100    -1.2660 C.3   1 <1>  -0.1790 
 15 C       -5.8140    -1.6290    -0.1880 C.3   1 <1>   0.2800 
 16 C       -6.9180    -1.3790    -1.2150 C.3   1 <1>  -0.2400 
 17 C       -5.0990    -2.9440    -0.5220 C.3   1 <1>  -0.2400 
 18 C       -6.4220    -1.6340     1.2190 C.3   1 <1>  -0.2400 
 19 H       -2.2570     0.2010     2.2030 H     1 <1>   0.4000 
 20 H       -0.5850     2.6030    -0.5110 H     1 <1>   0.0800 
 21 H       -1.3190     3.1610     0.9850 H     1 <1>   0.0800 
 22 H       -2.0490     4.3600    -1.9880 H     1 <1>   0.0800 
 23 H       -2.7740     4.9770    -0.5160 H     1 <1>   0.0800 
 24 H       -3.7810     4.2820    -1.7640 H     1 <1>   0.0800 
 25 H       -6.5030    -1.3450    -2.2060 H     1 <1>   0.0800 
 26 H       -7.4100    -0.4450    -1.0110 H     1 <1>   0.0800 
 27 H       -7.6500    -2.1650    -1.1790 H     1 <1>   0.0800 
 28 H       -4.3620    -3.1870     0.2210 H     1 <1>   0.0800 
 29 H       -4.6250    -2.8770    -1.4840 H     1 <1>   0.0800 
 30 H       -5.8090    -3.7500    -0.5480 H     1 <1>   0.0800 
 31 H       -5.6860    -1.8800     1.9620 H     1 <1>   0.0800 
 32 H       -7.2010    -2.3730     1.2790 H     1 <1>   0.0800 
 33 H       -6.8470    -0.6730     1.4450 H     1 <1>   0.0800 
@<TRIPOS>BOND
  1   1   2  1   
  2   2   3  1   
  3   2   4  1   
  4   2   5  1   
  5   5   6  1   
  6   5   7  1   
  7   5   8  1   
  8   6  19  1   
  9   7   9  1   
 10   7  10  am  
 11   8  11  1   
 12   8  20  1   
 13   8  21  1   
 14   9  11  2   
 15  10  12  2   
 16  10  13  1   
 17  11  14  1   
 18  13  15  1   
 19  14  22  1   
 20  14  23  1   
 21  14  24  1   
 22  15  16  1   
 23  15  17  1   
 24  15  18  1   
 25  16  25  1   
 26  16  26  1   
 27  16  27  1   
 28  17  28  1   
 29  17  29  1   
 30  17  30  1   
 31  18  31  1   
 32  18  32  1   
 33  18  33  1   
@<TRIPOS>SUBSTRUCTURE
  1 ****   7 GROUP 4 **** **** 0

# MOE 2024.06 (io_trps.svl 2023.06)
