@<TRIPOS>MOLECULE
NONAME
33 34 1 0 0 
SMALL
USER_CHARGES


@<TRIPOS>ATOM
  1 O        0.3550    -0.2300     1.0750 O.2   1 <1>  -0.5700 
  2 C        0.6280    -1.3940     0.9380 C.2   1 <1>   0.5690 
  3 N       -0.2480    -2.4380     0.7950 N.am  1 <1>  -0.4200 
  4 C        2.0140    -2.0110     0.9740 C.3   1 <1>   0.2510 
  5 C        0.4370    -3.5810     0.4690 C.2   1 <1>   0.5690 
  6 C       -1.7110    -2.3520     0.9890 C.3   1 <1>   0.1400 
  7 N        3.3580    -1.6340     0.5400 N.pl3 1 <1>  -0.5280 
  8 C        1.8140    -3.1700     0.0320 C.3   1 <1>   0.0420 
  9 O        0.0130    -4.7050     0.5000 O.2   1 <1>  -0.5700 
 10 C       -2.3950    -2.0750    -0.3550 C.3   1 <1>  -0.1600 
 11 N        4.0580    -2.7550     0.2360 N.2   1 <1>  -0.5030 
 12 C        3.2200    -3.7270     0.0210 C.2   1 <1>   0.3890 
 13 C       -3.9160    -1.9080    -0.2230 C.3   1 <1>  -0.1600 
 14 C        3.4660    -5.1110    -0.2770 C.2   1 <1>   0.7200 
 15 C       -4.6190    -3.1930     0.2300 C.3   1 <1>  -0.2400 
 16 O        4.5440    -5.6700    -0.1520 O.2   1 <1>  -0.5700 
 17 O        2.4380    -5.8430    -0.7330 O.3   1 <1>  -0.4300 
 18 C        2.5650    -7.2220    -1.0210 C.3   1 <1>   0.0400 
 19 H        2.1280    -2.3820     1.9790 H     1 <1>   0.0800 
 20 H       -1.9310    -1.5590     1.6830 H     1 <1>   0.0800 
 21 H       -2.0630    -3.2800     1.4050 H     1 <1>   0.0800 
 22 H        3.7910    -0.7610     0.8800 H     1 <1>   0.3110 
 23 H        1.6690    -2.7870    -0.9630 H     1 <1>   0.0800 
 24 H       -2.1860    -2.8810    -1.0370 H     1 <1>   0.0800 
 25 H       -1.9900    -1.1670    -0.7680 H     1 <1>   0.0800 
 26 H       -4.3130    -1.6210    -1.1830 H     1 <1>   0.0800 
 27 H       -4.1380    -1.1120     0.4680 H     1 <1>   0.0800 
 28 H       -4.3770    -4.0080    -0.4290 H     1 <1>   0.0800 
 29 H       -5.6850    -3.0490     0.2130 H     1 <1>   0.0800 
 30 H       -4.3350    -3.4590     1.2320 H     1 <1>   0.0800 
 31 H        1.6110    -7.5890    -1.3550 H     1 <1>   0.0800 
 32 H        2.8660    -7.7400    -0.1250 H     1 <1>   0.0800 
 33 H        3.3040    -7.3530    -1.7920 H     1 <1>   0.0800 
@<TRIPOS>BOND
  1   1   2  2   
  2   2   3  am  
  3   2   4  1   
  4   3   5  am  
  5   3   6  1   
  6   4   7  1   
  7   4   8  1   
  8   4  19  1   
  9   5   8  1   
 10   5   9  2   
 11   6  10  1   
 12   6  20  1   
 13   6  21  1   
 14   7  11  1   
 15   7  22  1   
 16   8  12  1   
 17   8  23  1   
 18  10  13  1   
 19  10  24  1   
 20  10  25  1   
 21  11  12  2   
 22  12  14  1   
 23  13  15  1   
 24  13  26  1   
 25  13  27  1   
 26  14  16  2   
 27  14  17  1   
 28  15  28  1   
 29  15  29  1   
 30  15  30  1   
 31  17  18  1   
 32  18  31  1   
 33  18  32  1   
 34  18  33  1   
@<TRIPOS>SUBSTRUCTURE
  1 ****   5 GROUP 4 **** **** 0

# MOE 2024.06 (io_trps.svl 2023.06)
