@<TRIPOS>MOLECULE
NONAME
35 37 1 0 0 
SMALL
USER_CHARGES


@<TRIPOS>ATOM
  1 S       -0.4200    -0.0490    -0.6780 S.3   1 <1>  -0.0800 
  2 C       -1.8820     0.6550    -0.0040 C.2   1 <1>  -0.1400 
  3 C        0.3380     1.5280    -0.8090 C.2   1 <1>  -0.1100 
  4 C       -1.7510     1.9930     0.0980 C.2   1 <1>  -0.1500 
  5 C       -3.0010    -0.3110     0.3410 C.3   1 <1>   0.3890 
  6 C       -0.4900     2.4900    -0.3610 C.2   1 <1>  -0.1500 
  7 N       -4.2380     0.4440     0.6160 N.pl3 1 <1>  -0.8520 
  8 C       -5.3900    -0.2770     0.5160 C.2   1 <1>   0.5990 
  9 N       -5.4990    -1.5030     0.8830 N.2   1 <1>  -0.7070 
 10 N       -6.4670     0.3180    -0.0020 N.2   1 <1>  -0.5650 
 11 N       -6.8020    -1.7630     0.6060 N.pl3 1 <1>   0.5610 
 12 C       -7.3250    -0.6290     0.0750 C.2   1 <1>   0.2700 
 13 C       -7.6060    -2.9160     0.7550 C.2   1 <1>   0.5650 
 14 N       -8.6520    -0.5670    -0.3250 N.pl3 1 <1>  -0.5840 
 15 O       -7.1760    -3.9670     1.2110 O.2   1 <1>  -0.5700 
 16 C       -8.9670    -2.8090     0.3370 C.2   1 <1>  -0.1360 
 17 C       -9.4750    -1.6620    -0.1880 C.2   1 <1>  -0.0380 
 18 C      -10.9180    -1.5150    -0.6430 C.3   1 <1>  -0.0220 
 19 C      -11.6980    -0.5660     0.2770 C.3   1 <1>  -0.1600 
 20 C      -13.1600    -0.4350    -0.1620 C.3   1 <1>  -0.2400 
 21 H        1.3340     1.5670    -1.2110 H     1 <1>   0.1500 
 22 H       -2.4960     2.6650     0.4890 H     1 <1>   0.1500 
 23 H       -2.7320    -0.8890     1.2080 H     1 <1>   0.0800 
 24 H       -3.1600    -0.9840    -0.4850 H     1 <1>   0.0800 
 25 H       -0.2670     3.5420    -0.3310 H     1 <1>   0.1500 
 26 H       -4.3110     1.2370    -0.0190 H     1 <1>   0.4000 
 27 H       -8.9800     0.3290    -0.7050 H     1 <1>   0.4000 
 28 H       -9.5660    -3.6910     0.4630 H     1 <1>   0.1500 
 29 H      -11.3960    -2.4790    -0.6410 H     1 <1>   0.0800 
 30 H      -10.9370    -1.1440    -1.6530 H     1 <1>   0.0800 
 31 H      -11.2390     0.4080     0.2700 H     1 <1>   0.0800 
 32 H      -11.6620    -0.9390     1.2870 H     1 <1>   0.0800 
 33 H      -13.2220    -0.0420    -1.1620 H     1 <1>   0.0800 
 34 H      -13.6830     0.2340     0.4990 H     1 <1>   0.0800 
 35 H      -13.6510    -1.3920    -0.1340 H     1 <1>   0.0800 
@<TRIPOS>BOND
  1   1   2  1   
  2   1   3  1   
  3   2   4  2   
  4   2   5  1   
  5   3   6  2   
  6   3  21  1   
  7   4   6  1   
  8   4  22  1   
  9   5   7  1   
 10   5  23  1   
 11   5  24  1   
 12   6  25  1   
 13   7   8  1   
 14   7  26  1   
 15   8   9  2   
 16   8  10  1   
 17   9  11  1   
 18  10  12  2   
 19  11  12  1   
 20  11  13  1   
 21  12  14  1   
 22  13  15  2   
 23  13  16  1   
 24  14  17  1   
 25  14  27  1   
 26  16  17  2   
 27  16  28  1   
 28  17  18  1   
 29  18  19  1   
 30  18  29  1   
 31  18  30  1   
 32  19  20  1   
 33  19  31  1   
 34  19  32  1   
 35  20  33  1   
 36  20  34  1   
 37  20  35  1   
@<TRIPOS>SUBSTRUCTURE
  1 ****   8 GROUP 4 **** **** 0

# MOE 2024.06 (io_trps.svl 2023.06)
