@<TRIPOS>MOLECULE
NONAME
28 28 1 0 0 
SMALL
USER_CHARGES


@<TRIPOS>ATOM
  1 CL       0.0300    -0.3280     1.5470 Cl    1 <1>  -0.1770 
  2 C        1.6400    -0.0990     0.9130 C.ar  1 <1>   0.1770 
  3 C        2.7110    -0.0470     1.7840 C.ar  1 <1>  -0.1500 
  4 C        1.8180     0.0280    -0.4510 C.ar  1 <1>  -0.1500 
  5 C        3.9860     0.1320     1.2740 C.ar  1 <1>  -0.1500 
  6 C        3.0960     0.2080    -0.9540 C.ar  1 <1>  -0.1500 
  7 C        4.1870     0.2600    -0.0950 C.ar  1 <1>  -0.1430 
  8 C        5.5950     0.4500    -0.6550 C.3   1 <1>   0.3390 
  9 N        6.3720     1.4230     0.1080 N.am  1 <1>  -0.8490 
 10 S        7.9760     1.4080    -0.4310 S.o2  1 <1>   1.3330 
 11 C        5.7230     2.7840     0.0550 C.3   1 <1>   0.0900 
 12 O        7.9940     1.9850    -1.7560 O.2   1 <1>  -0.6500 
 13 O        8.4330     0.0410    -0.3010 O.2   1 <1>  -0.6500 
 14 C        8.9520     2.3810     0.7000 C.3   1 <1>  -0.1350 
 15 C        6.3440     3.9180     0.8870 C.2   1 <1>   0.9060 
 16 O        6.7180     4.9410     0.3020 O.co2 1 <1>  -0.9000 
 17 O        6.5080     3.7740     2.1040 O.co2 1 <1>  -0.9000 
 18 H        2.5520    -0.1410     2.8420 H     1 <1>   0.1500 
 19 H        0.9670    -0.0140    -1.1070 H     1 <1>   0.1500 
 20 H        4.8310     0.1850     1.9430 H     1 <1>   0.1500 
 21 H        3.2380     0.3090    -2.0160 H     1 <1>   0.1500 
 22 H        5.5490     0.7610    -1.6850 H     1 <1>   0.0800 
 23 H        6.0860    -0.5080    -0.6220 H     1 <1>   0.0800 
 24 H        4.7090     2.7100     0.3980 H     1 <1>   0.0800 
 25 H        5.6990     3.1240    -0.9640 H     1 <1>   0.0800 
 26 H        8.8070     3.4280     0.5270 H     1 <1>   0.0800 
 27 H        9.9920     2.1640     0.5660 H     1 <1>   0.0800 
 28 H        8.6760     2.1580     1.7130 H     1 <1>   0.0800 
@<TRIPOS>BOND
  1   1   2  1   
  2   2   3  ar  
  3   2   4  ar  
  4   3   5  ar  
  5   3  18  1   
  6   4   6  ar  
  7   4  19  1   
  8   5   7  ar  
  9   5  20  1   
 10   6   7  ar  
 11   6  21  1   
 12   7   8  1   
 13   8   9  1   
 14   8  22  1   
 15   8  23  1   
 16   9  10  am  
 17   9  11  1   
 18  10  12  2   
 19  10  13  2   
 20  10  14  1   
 21  11  15  1   
 22  11  24  1   
 23  11  25  1   
 24  14  26  1   
 25  14  27  1   
 26  14  28  1   
 27  15  16  ar  
 28  15  17  ar  
@<TRIPOS>SUBSTRUCTURE
  1 ****   9 GROUP 4 **** **** 0

# MOE 2024.06 (io_trps.svl 2023.06)
