@<TRIPOS>MOLECULE
NONAME
43 45 1 0 0 
SMALL
USER_CHARGES


@<TRIPOS>ATOM
  1 S       -0.0050     0.2690    -1.0860 S.3   1 <1>  -0.3710 
  2 C       -1.3830    -0.8210    -0.7640 C.2   1 <1>   0.6510 
  3 C       -0.7380     1.9770    -1.0110 C.3   1 <1>   0.1310 
  4 N       -2.5090    -0.2270    -0.6180 N.2   1 <1>  -0.6290 
  5 N       -1.1910    -2.1960    -0.7740 N.am  1 <1>  -0.4200 
  6 C        0.3410     3.0320    -1.1610 C.2   1 <1>   0.6590 
  7 C       -3.6500    -0.9910    -0.5470 C.ar  1 <1>   0.1790 
  8 C       -2.3210    -2.9460    -1.0410 C.2   1 <1>   0.5440 
  9 C        0.0790    -2.9670    -0.4820 C.3   1 <1>   0.2200 
 10 O        0.3910     3.7530    -2.1250 O.2   1 <1>  -0.5700 
 11 O        1.2080     3.1300    -0.1610 O.3   1 <1>  -0.4300 
 12 C       -3.6080    -2.3670    -0.7860 C.ar  1 <1>   0.0860 
 13 C       -4.8680    -0.3790    -0.2670 C.ar  1 <1>  -0.1500 
 14 O       -2.2220    -4.0780    -1.4880 O.2   1 <1>  -0.5700 
 15 C       -0.1520    -4.0480     0.5940 C.3   1 <1>  -0.1600 
 16 C        1.2910    -2.2080     0.0710 C.3   1 <1>  -0.1600 
 17 C        2.2560     4.0700    -0.1860 C.3   1 <1>   0.1200 
 18 C       -4.8010    -3.0950    -0.7540 C.ar  1 <1>  -0.1500 
 19 C       -6.0360    -1.1110    -0.2300 C.ar  1 <1>  -0.1500 
 20 C        1.1580    -4.2320     1.3700 C.3   1 <1>  -0.1600 
 21 C        2.1560    -3.2720     0.7360 C.3   1 <1>  -0.1600 
 22 C        3.0610     3.9140     1.1000 C.3   1 <1>  -0.2400 
 23 C       -6.0030    -2.4760    -0.4780 C.ar  1 <1>  -0.1500 
 24 H       -1.2280     2.0770    -0.0610 H     1 <1>   0.0800 
 25 H       -1.4540     2.0530    -1.8090 H     1 <1>   0.0800 
 26 H        0.3860    -3.4600    -1.3900 H     1 <1>   0.0800 
 27 H       -4.8830     0.6800    -0.0840 H     1 <1>   0.1500 
 28 H       -0.4410    -4.9780     0.1350 H     1 <1>   0.0800 
 29 H       -0.9210    -3.7390     1.2800 H     1 <1>   0.0800 
 30 H        0.9800    -1.5060     0.8250 H     1 <1>   0.0800 
 31 H        1.8470    -1.7130    -0.7050 H     1 <1>   0.0800 
 32 H        1.8290     5.0560    -0.2590 H     1 <1>   0.0800 
 33 H        2.8680     3.8750    -1.0510 H     1 <1>   0.0800 
 34 H       -4.7710    -4.1550    -0.9470 H     1 <1>   0.1500 
 35 H       -6.9740    -0.6290    -0.0130 H     1 <1>   0.1500 
 36 H        1.5110    -5.2480     1.3170 H     1 <1>   0.0800 
 37 H        1.0050    -3.9710     2.4030 H     1 <1>   0.0800 
 38 H        2.8300    -2.8500     1.4620 H     1 <1>   0.0800 
 39 H        2.7270    -3.7910    -0.0160 H     1 <1>   0.0800 
 40 H        2.4350     4.0990     1.9550 H     1 <1>   0.0800 
 41 H        3.8710     4.6220     1.1090 H     1 <1>   0.0800 
 42 H        3.4730     2.9230     1.1620 H     1 <1>   0.0800 
 43 H       -6.9160    -3.0480    -0.4540 H     1 <1>   0.1500 
@<TRIPOS>BOND
  1   1   2  1   
  2   1   3  1   
  3   2   4  2   
  4   2   5  1   
  5   3   6  1   
  6   3  24  1   
  7   3  25  1   
  8   4   7  1   
  9   5   8  am  
 10   5   9  1   
 11   6  10  2   
 12   6  11  1   
 13   7  12  ar  
 14   7  13  ar  
 15   8  12  1   
 16   8  14  2   
 17   9  15  1   
 18   9  16  1   
 19   9  26  1   
 20  11  17  1   
 21  12  18  ar  
 22  13  19  ar  
 23  13  27  1   
 24  15  20  1   
 25  15  28  1   
 26  15  29  1   
 27  16  21  1   
 28  16  30  1   
 29  16  31  1   
 30  17  22  1   
 31  17  32  1   
 32  17  33  1   
 33  18  23  ar  
 34  18  34  1   
 35  19  23  ar  
 36  19  35  1   
 37  20  21  1   
 38  20  36  1   
 39  20  37  1   
 40  21  38  1   
 41  21  39  1   
 42  22  40  1   
 43  22  41  1   
 44  22  42  1   
 45  23  43  1   
@<TRIPOS>SUBSTRUCTURE
  1 ****   2 GROUP 4 **** **** 0

# MOE 2024.06 (io_trps.svl 2023.06)
