@<TRIPOS>MOLECULE
NONAME
41 43 1 0 0 
SMALL
USER_CHARGES


@<TRIPOS>ATOM
  1 O        0.4350     3.6440    -2.2060 O.2   1 <1>  -0.5700 
  2 C        0.5480     3.9210    -1.0300 C.2   1 <1>   0.6340 
  3 O       -0.3190     3.3780    -0.1660 O.3   1 <1>  -0.4300 
  4 C        1.5720     4.8080    -0.5090 C.ar  1 <1>   0.0860 
  5 C       -1.3700     2.5330    -0.5830 C.3   1 <1>   0.2000 
  6 C        1.6610     5.1230     0.8510 C.ar  1 <1>  -0.1500 
  7 C        2.5200     5.3850    -1.3580 C.ar  1 <1>  -0.1500 
  8 C       -2.4850     2.5880     0.4770 C.3   1 <1>  -0.0800 
  9 C       -0.8180     1.1200    -0.7740 C.3   1 <1>  -0.1600 
 10 C        2.6430     5.9680     1.3360 C.ar  1 <1>  -0.1500 
 11 C        3.5040     6.2300    -0.8790 C.ar  1 <1>  -0.1500 
 12 C       -3.5560     1.4970     0.2520 C.3   1 <1>   0.4230 
 13 C       -3.1080     4.0080     0.5180 C.3   1 <1>  -0.1600 
 14 C       -1.9500     0.1790    -1.1580 C.3   1 <1>   0.3430 
 15 C        3.5680     6.5230     0.4710 C.ar  1 <1>  -0.1500 
 16 N       -2.9640     0.1710    -0.0720 N.4   1 <1>  -0.9060 
 17 C       -4.5640     1.9180    -0.8210 C.3   1 <1>  -0.1600 
 18 C       -4.6290     3.9840     0.7240 C.3   1 <1>  -0.1600 
 19 C       -5.3350     3.1810    -0.3850 C.3   1 <1>  -0.1600 
 20 H       -1.7530     2.9050    -1.5210 H     1 <1>   0.0800 
 21 H        0.9530     4.7040     1.5430 H     1 <1>   0.1500 
 22 H        2.4830     5.1670    -2.4120 H     1 <1>   0.1500 
 23 H       -2.0440     2.3900     1.4390 H     1 <1>   0.0800 
 24 H       -0.3360     0.7760     0.1230 H     1 <1>   0.0800 
 25 H       -0.0930     1.1220    -1.5690 H     1 <1>   0.0800 
 26 H        2.6900     6.1950     2.3870 H     1 <1>   0.1500 
 27 H        4.2220     6.6610    -1.5560 H     1 <1>   0.1500 
 28 H       -4.1110     1.3990     1.1720 H     1 <1>   0.0800 
 29 H       -2.9130     4.5300    -0.4040 H     1 <1>   0.0800 
 30 H       -2.6440     4.5820     1.3030 H     1 <1>   0.0800 
 31 H       -1.5590    -0.8150    -1.3100 H     1 <1>   0.0800 
 32 H       -2.3980     0.5120    -2.0820 H     1 <1>   0.0800 
 33 H        4.3330     7.1810     0.8460 H     1 <1>   0.1500 
 34 H       -3.7240    -0.4770    -0.3120 H     1 <1>   0.4500 
 35 H       -2.5230    -0.1960     0.7790 H     1 <1>   0.4500 
 36 H       -5.2730     1.1300    -1.0060 H     1 <1>   0.0800 
 37 H       -4.0490     2.1340    -1.7410 H     1 <1>   0.0800 
 38 H       -5.0090     4.9930     0.7320 H     1 <1>   0.0800 
 39 H       -4.8530     3.5550     1.6870 H     1 <1>   0.0800 
 40 H       -6.3170     2.9080    -0.0340 H     1 <1>   0.0800 
 41 H       -5.4760     3.8150    -1.2450 H     1 <1>   0.0800 
@<TRIPOS>BOND
  1   1   2  2   
  2   2   3  1   
  3   2   4  1   
  4   3   5  1   
  5   4   6  ar  
  6   4   7  ar  
  7   5   8  1   
  8   5   9  1   
  9   5  20  1   
 10   6  10  ar  
 11   6  21  1   
 12   7  11  ar  
 13   7  22  1   
 14   8  12  1   
 15   8  13  1   
 16   8  23  1   
 17   9  14  1   
 18   9  24  1   
 19   9  25  1   
 20  10  15  ar  
 21  10  26  1   
 22  11  15  ar  
 23  11  27  1   
 24  12  16  1   
 25  12  17  1   
 26  12  28  1   
 27  13  18  1   
 28  13  29  1   
 29  13  30  1   
 30  14  16  1   
 31  14  31  1   
 32  14  32  1   
 33  15  33  1   
 34  16  34  1   
 35  16  35  1   
 36  17  19  1   
 37  17  36  1   
 38  17  37  1   
 39  18  19  1   
 40  18  38  1   
 41  18  39  1   
 42  19  40  1   
 43  19  41  1   
@<TRIPOS>SUBSTRUCTURE
  1 ****   3 GROUP 4 **** **** 0

# MOE 2024.06 (io_trps.svl 2023.06)
