@<TRIPOS>MOLECULE
NONAME
54 56 1 0 0 
SMALL
USER_CHARGES


@<TRIPOS>ATOM
  1 O      -11.9320     5.1240    -0.5930 O.3   1 <1>  -0.3630 
  2 C      -13.1140     4.5840    -0.1990 C.ar  1 <1>   0.0830 
  3 C      -10.7740     4.3210    -0.4450 C.3   1 <1>   0.2000 
  4 C      -13.1540     3.4390     0.5990 C.ar  1 <1>   0.0830 
  5 C      -14.2920     5.1860    -0.6050 C.ar  1 <1>  -0.1500 
  6 C      -10.8160     3.5860     0.9060 C.3   1 <1>   0.1200 
  7 C       -9.5570     5.2410    -0.5800 C.3   1 <1>   0.1200 
  8 O      -12.0140     2.8430     1.0300 O.3   1 <1>  -0.3630 
  9 C      -14.3730     2.8960     0.9660 C.ar  1 <1>  -0.1500 
 10 C      -15.5100     4.6430    -0.2300 C.ar  1 <1>  -0.1500 
 11 O       -8.3770     4.5050    -0.4130 O.3   1 <1>  -0.5600 
 12 C      -15.5510     3.4990     0.5530 C.ar  1 <1>  -0.1500 
 13 C       -7.2110     5.2550    -0.5940 C.3   1 <1>   0.1200 
 14 C       -5.9980     4.3240    -0.4470 C.3   1 <1>   0.2000 
 15 O       -6.1580     3.5690     0.7140 O.3   1 <1>  -0.6800 
 16 C       -4.6540     5.0810    -0.3730 C.3   1 <1>   0.3430 
 17 N       -3.6110     4.2360     0.2870 N.4   1 <1>  -0.9590 
 18 C       -2.5460     5.0510     0.9620 C.3   1 <1>   0.3430 
 19 C       -3.1080     3.1540    -0.6240 C.3   1 <1>   0.3430 
 20 C       -1.2660     5.1080     0.1160 C.3   1 <1>  -0.0800 
 21 C       -1.7670     2.5980    -0.1260 C.3   1 <1>  -0.0800 
 22 C       -0.6830     3.6960    -0.1050 C.3   1 <1>  -0.1600 
 23 C       -0.2190     6.0270     0.7600 C.3   1 <1>  -0.2400 
 24 C       -1.3120     1.4070    -0.9800 C.3   1 <1>  -0.2400 
 25 H      -10.7740     3.6060    -1.2480 H     1 <1>   0.0800 
 26 H      -14.2520     6.0710    -1.2140 H     1 <1>   0.1500 
 27 H      -10.7740     4.2890     1.7180 H     1 <1>   0.0800 
 28 H       -9.9940     2.8990     0.9900 H     1 <1>   0.0800 
 29 H       -9.5920     6.0090     0.1740 H     1 <1>   0.0800 
 30 H       -9.5520     5.6850    -1.5610 H     1 <1>   0.0800 
 31 H      -14.3940     2.0110     1.5750 H     1 <1>   0.1500 
 32 H      -16.4260     5.1090    -0.5470 H     1 <1>   0.1500 
 33 H      -16.4980     3.0770     0.8400 H     1 <1>   0.1500 
 34 H       -7.1860     6.0340     0.1500 H     1 <1>   0.0800 
 35 H       -7.2300     5.6970    -1.5770 H     1 <1>   0.0800 
 36 H       -5.9840     3.6420    -1.2790 H     1 <1>   0.0800 
 37 H       -7.1130     3.3230     0.7690 H     1 <1>   0.4000 
 38 H       -4.8080     5.9730     0.2110 H     1 <1>   0.0800 
 39 H       -4.3370     5.3820    -1.3580 H     1 <1>   0.0800 
 40 H       -4.1560     3.7510     1.0270 H     1 <1>   0.4500 
 41 H       -2.3020     4.6000     1.9100 H     1 <1>   0.0800 
 42 H       -2.9050     6.0490     1.1540 H     1 <1>   0.0800 
 43 H       -2.9610     3.5520    -1.6150 H     1 <1>   0.0800 
 44 H       -3.8350     2.3600    -0.6820 H     1 <1>   0.0800 
 45 H       -1.5220     5.5320    -0.8400 H     1 <1>   0.0800 
 46 H       -1.9160     2.2360     0.8770 H     1 <1>   0.0800 
 47 H        0.0210     3.4540     0.6730 H     1 <1>   0.0800 
 48 H       -0.1360     3.7020    -1.0340 H     1 <1>   0.0800 
 49 H        0.0640     5.6670     1.7350 H     1 <1>   0.0800 
 50 H       -0.6030     7.0270     0.8630 H     1 <1>   0.0800 
 51 H        0.6650     6.0710     0.1460 H     1 <1>   0.0800 
 52 H       -1.1670     1.6990    -2.0070 H     1 <1>   0.0800 
 53 H       -2.0430     0.6170    -0.9480 H     1 <1>   0.0800 
 54 H       -0.3820     1.0150    -0.6050 H     1 <1>   0.0800 
@<TRIPOS>BOND
  1   1   2  1   
  2   1   3  1   
  3   2   4  ar  
  4   2   5  ar  
  5   3   6  1   
  6   3   7  1   
  7   3  25  1   
  8   4   8  1   
  9   4   9  ar  
 10   5  10  ar  
 11   5  26  1   
 12   6   8  1   
 13   6  27  1   
 14   6  28  1   
 15   7  11  1   
 16   7  29  1   
 17   7  30  1   
 18   9  12  ar  
 19   9  31  1   
 20  10  12  ar  
 21  10  32  1   
 22  11  13  1   
 23  12  33  1   
 24  13  14  1   
 25  13  34  1   
 26  13  35  1   
 27  14  15  1   
 28  14  16  1   
 29  14  36  1   
 30  15  37  1   
 31  16  17  1   
 32  16  38  1   
 33  16  39  1   
 34  17  18  1   
 35  17  19  1   
 36  17  40  1   
 37  18  20  1   
 38  18  41  1   
 39  18  42  1   
 40  19  21  1   
 41  19  43  1   
 42  19  44  1   
 43  20  22  1   
 44  20  23  1   
 45  20  45  1   
 46  21  22  1   
 47  21  24  1   
 48  21  46  1   
 49  22  47  1   
 50  22  48  1   
 51  23  49  1   
 52  23  50  1   
 53  23  51  1   
 54  24  52  1   
 55  24  53  1   
 56  24  54  1   
@<TRIPOS>SUBSTRUCTURE
  1 ****  11 GROUP 4 **** **** 0

# MOE 2024.06 (io_trps.svl 2023.06)
