@<TRIPOS>MOLECULE
NONAME
29 29 1 0 0 
SMALL
USER_CHARGES


@<TRIPOS>ATOM
  1 CL      -0.2210     0.1140     0.4950 Cl    1 <1>  -0.1770 
  2 C        0.6430     1.6000     0.1830 C.ar  1 <1>   0.1770 
  3 C       -0.0380     2.7280    -0.2730 C.ar  1 <1>   0.0860 
  4 C        2.0050     1.6100     0.4260 C.ar  1 <1>  -0.1500 
  5 C       -1.4570     2.7140    -0.5320 C.2   1 <1>   0.5440 
  6 C        0.7100     3.8880    -0.4710 C.ar  1 <1>  -0.1500 
  7 C        2.7310     2.7710     0.2220 C.ar  1 <1>  -0.1500 
  8 O       -1.9140     2.0670    -1.4510 O.2   1 <1>  -0.5700 
  9 N       -2.2960     3.4580     0.2490 N.am  1 <1>  -0.7300 
 10 C        2.0700     3.9050    -0.2250 C.ar  1 <1>   0.1010 
 11 C       -3.7630     3.5380     0.0910 C.3   1 <1>   0.1400 
 12 S        2.9280     5.4610    -0.5110 S.3   1 <1>  -0.3310 
 13 C       -4.1920     5.0040     0.1510 C.3   1 <1>  -0.1600 
 14 C        4.7170     5.1620    -0.1580 C.3   1 <1>  -0.0100 
 15 C       -5.7110     5.1460    -0.0030 C.3   1 <1>  -0.2400 
 16 H        2.4890     0.7150     0.7750 H     1 <1>   0.1500 
 17 H        0.2250     4.7810    -0.8250 H     1 <1>   0.1500 
 18 H        3.7870     2.7750     0.4130 H     1 <1>   0.1500 
 19 H       -1.9130     3.9680     1.0460 H     1 <1>   0.3700 
 20 H       -4.2350     2.9770     0.8800 H     1 <1>   0.0800 
 21 H       -4.0570     3.1080    -0.8530 H     1 <1>   0.0800 
 22 H       -3.7070     5.5460    -0.6420 H     1 <1>   0.0800 
 23 H       -3.8940     5.4290     1.0940 H     1 <1>   0.0800 
 24 H        5.2420     6.0820    -0.3440 H     1 <1>   0.0800 
 25 H        5.0620     4.3870    -0.8180 H     1 <1>   0.0800 
 26 H        4.8100     4.8740     0.8740 H     1 <1>   0.0800 
 27 H       -6.0310     4.7430    -0.9480 H     1 <1>   0.0800 
 28 H       -5.9900     6.1840     0.0380 H     1 <1>   0.0800 
 29 H       -6.2210     4.6230     0.7880 H     1 <1>   0.0800 
@<TRIPOS>BOND
  1   1   2  1   
  2   2   3  ar  
  3   2   4  ar  
  4   3   5  1   
  5   3   6  ar  
  6   4   7  ar  
  7   4  16  1   
  8   5   8  2   
  9   5   9  am  
 10   6  10  ar  
 11   6  17  1   
 12   7  10  ar  
 13   7  18  1   
 14   9  11  1   
 15   9  19  1   
 16  10  12  1   
 17  11  13  1   
 18  11  20  1   
 19  11  21  1   
 20  12  14  1   
 21  13  15  1   
 22  13  22  1   
 23  13  23  1   
 24  14  24  1   
 25  14  25  1   
 26  14  26  1   
 27  15  27  1   
 28  15  28  1   
 29  15  29  1   
@<TRIPOS>SUBSTRUCTURE
  1 ****   3 GROUP 4 **** **** 0

# MOE 2024.06 (io_trps.svl 2023.06)
