@<TRIPOS>MOLECULE
NONAME
50 52 1 0 0 
SMALL
USER_CHARGES


@<TRIPOS>ATOM
  1 BR       2.8790     2.8370     2.6930 Br    1 <1>  -0.1110 
  2 C        1.6250     2.8980     1.2260 C.ar  1 <1>   0.1110 
  3 C        1.9260     2.2430     0.0400 C.ar  1 <1>   0.0820 
  4 C        0.4560     3.6120     1.4030 C.ar  1 <1>  -0.1500 
  5 O        3.0990     1.5680    -0.0570 O.3   1 <1>  -0.3630 
  6 C        1.0030     2.3150    -0.9980 C.ar  1 <1>  -0.1500 
  7 C       -0.4590     3.6850     0.3620 C.ar  1 <1>  -0.1430 
  8 C        3.7220     1.4020    -1.3220 C.3   1 <1>   0.1810 
  9 C       -0.1730     3.0310    -0.8320 C.ar  1 <1>  -0.1500 
 10 C       -1.7540     4.4740     0.5440 C.3   1 <1>   0.0640 
 11 C        5.1570     0.8960    -1.1830 C.2   1 <1>   0.5690 
 12 C       -2.9750     3.5600     0.4070 C.3   1 <1>  -0.2400 
 13 C       -1.8290     5.6360    -0.4510 C.3   1 <1>  -0.2400 
 14 O        5.4410    -0.1070    -1.7970 O.2   1 <1>  -0.5700 
 15 N        6.0960     1.5600    -0.4280 N.am  1 <1>  -0.6600 
 16 C        5.8540     2.8200     0.3510 C.3   1 <1>   0.1400 
 17 C        7.4870     1.0290    -0.2650 C.3   1 <1>   0.1400 
 18 C        6.9330     3.8810     0.0690 C.3   1 <1>   0.2090 
 19 C        8.5430     2.1070    -0.5630 C.3   1 <1>   0.2090 
 20 N        8.3100     3.3320     0.2540 N.pl3 1 <1>  -0.8380 
 21 C        9.3550     4.2330     0.3100 C.ar  1 <1>   0.4100 
 22 N        9.2600     5.3260    -0.4390 N.ar  1 <1>  -0.6200 
 23 C       10.4500     3.9580     1.1250 C.ar  1 <1>  -0.1500 
 24 C       10.2840     6.1610    -0.3730 C.ar  1 <1>   0.1600 
 25 C       11.5080     4.8350     1.1830 C.ar  1 <1>  -0.1500 
 26 C       11.4120     5.9700     0.4040 C.ar  1 <1>  -0.1500 
 27 H        0.2730     4.1020     2.3420 H     1 <1>   0.1500 
 28 H        1.1770     1.8150    -1.9320 H     1 <1>   0.1500 
 29 H        3.7260     2.3470    -1.8300 H     1 <1>   0.0800 
 30 H        3.1500     0.6870    -1.8840 H     1 <1>   0.0800 
 31 H       -0.8750     3.0750    -1.6470 H     1 <1>   0.1500 
 32 H       -1.7680     4.8920     1.5370 H     1 <1>   0.0800 
 33 H       -3.0420     3.1530    -0.5860 H     1 <1>   0.0800 
 34 H       -3.8760     4.1090     0.6140 H     1 <1>   0.0800 
 35 H       -2.9030     2.7460     1.1070 H     1 <1>   0.0800 
 36 H       -1.8700     5.2750    -1.4620 H     1 <1>   0.0800 
 37 H       -0.9630     6.2650    -0.3460 H     1 <1>   0.0800 
 38 H       -2.7060     6.2300    -0.2630 H     1 <1>   0.0800 
 39 H        5.8620     2.5870     1.4020 H     1 <1>   0.0800 
 40 H        4.8970     3.2450     0.1170 H     1 <1>   0.0800 
 41 H        7.6510     0.1900    -0.9180 H     1 <1>   0.0800 
 42 H        7.6130     0.6880     0.7470 H     1 <1>   0.0800 
 43 H        6.7930     4.7180     0.7320 H     1 <1>   0.0800 
 44 H        6.8250     4.2380    -0.9410 H     1 <1>   0.0800 
 45 H        8.5030     2.3640    -1.6080 H     1 <1>   0.0800 
 46 H        9.5220     1.7130    -0.3550 H     1 <1>   0.0800 
 47 H       10.4460     3.0570     1.7050 H     1 <1>   0.1500 
 48 H       10.2200     7.0500    -0.9760 H     1 <1>   0.1500 
 49 H       12.3670     4.6480     1.8050 H     1 <1>   0.1500 
 50 H       12.2020     6.6990     0.4010 H     1 <1>   0.1500 
@<TRIPOS>BOND
  1   1   2  1   
  2   2   3  ar  
  3   2   4  ar  
  4   3   5  1   
  5   3   6  ar  
  6   4   7  ar  
  7   4  27  1   
  8   5   8  1   
  9   6   9  ar  
 10   6  28  1   
 11   7   9  ar  
 12   7  10  1   
 13   8  11  1   
 14   8  29  1   
 15   8  30  1   
 16   9  31  1   
 17  10  12  1   
 18  10  13  1   
 19  10  32  1   
 20  11  14  2   
 21  11  15  am  
 22  12  33  1   
 23  12  34  1   
 24  12  35  1   
 25  13  36  1   
 26  13  37  1   
 27  13  38  1   
 28  15  16  1   
 29  15  17  1   
 30  16  18  1   
 31  16  39  1   
 32  16  40  1   
 33  17  19  1   
 34  17  41  1   
 35  17  42  1   
 36  18  20  1   
 37  18  43  1   
 38  18  44  1   
 39  19  20  1   
 40  19  45  1   
 41  19  46  1   
 42  20  21  1   
 43  21  22  ar  
 44  21  23  ar  
 45  22  24  ar  
 46  23  25  ar  
 47  23  47  1   
 48  24  26  ar  
 49  24  48  1   
 50  25  26  ar  
 51  25  49  1   
 52  26  50  1   
@<TRIPOS>SUBSTRUCTURE
  1 ****  16 GROUP 4 **** **** 0

# MOE 2024.06 (io_trps.svl 2023.06)
