@<TRIPOS>MOLECULE
NONAME
42 42 1 0 0 
SMALL
USER_CHARGES


@<TRIPOS>ATOM
  1 F        0.5080     3.3940     0.7420 F     1 <1>  -0.1900 
  2 C        1.7310     3.1580     0.3570 C.ar  1 <1>   0.1900 
  3 C        1.9550     2.7290    -0.9360 C.ar  1 <1>  -0.1500 
  4 C        2.7630     3.3460     1.2540 C.ar  1 <1>  -0.1500 
  5 C        3.2570     2.4810    -1.3340 C.ar  1 <1>  -0.1500 
  6 C        4.0590     3.0940     0.8390 C.ar  1 <1>  -0.1500 
  7 C        4.3340     2.6540    -0.4610 C.ar  1 <1>   0.0280 
  8 C        5.6710     2.3790    -0.9230 C.2   1 <1>  -0.1780 
  9 C        6.8230     2.3200    -0.2120 C.2   1 <1>  -0.1360 
 10 C        8.1350     2.0440    -0.7300 C.2   1 <1>   0.4950 
 11 O        8.2950     1.7810    -1.8980 O.2   1 <1>  -0.5700 
 12 C        9.3460     2.0250     0.2230 C.3   1 <1>   0.1220 
 13 C        9.2960     3.3240     1.0430 C.2   1 <1>   0.6590 
 14 C        9.2180     0.7920     1.1730 C.3   1 <1>  -0.1600 
 15 C       10.7180     1.9320    -0.5200 C.3   1 <1>  -0.1600 
 16 O        9.5580     3.3510     2.2200 O.2   1 <1>  -0.5700 
 17 O        8.9270     4.4300     0.4040 O.3   1 <1>  -0.4300 
 18 C        9.1190    -0.5770     0.4750 C.3   1 <1>  -0.2400 
 19 C       11.1190     3.1600    -1.3560 C.3   1 <1>  -0.2400 
 20 C        8.8470     5.6780     1.0500 C.3   1 <1>   0.1200 
 21 C        8.3460     6.6980     0.0340 C.3   1 <1>  -0.2400 
 22 H        1.1280     2.5940    -1.6090 H     1 <1>   0.1500 
 23 H        2.5510     3.6840     2.2530 H     1 <1>   0.1500 
 24 H        3.4410     2.1450    -2.3400 H     1 <1>   0.1500 
 25 H        4.8590     3.2480     1.5380 H     1 <1>   0.1500 
 26 H        5.7340     2.1980    -1.9830 H     1 <1>   0.1500 
 27 H        6.7900     2.4870     0.8460 H     1 <1>   0.1500 
 28 H       10.0630     0.7710     1.8400 H     1 <1>   0.0800 
 29 H        8.3450     0.9110     1.7920 H     1 <1>   0.0800 
 30 H       11.4970     1.7600     0.2040 H     1 <1>   0.0800 
 31 H       10.7050     1.0810    -1.1790 H     1 <1>   0.0800 
 32 H       10.0130    -0.7970    -0.0800 H     1 <1>   0.0800 
 33 H        8.2780    -0.6150    -0.1950 H     1 <1>   0.0800 
 34 H        8.9920    -1.3500     1.2130 H     1 <1>   0.0800 
 35 H       11.3020     4.0160    -0.7300 H     1 <1>   0.0800 
 36 H       10.3530     3.4080    -2.0690 H     1 <1>   0.0800 
 37 H       12.0230     2.9480    -1.8990 H     1 <1>   0.0800 
 38 H        8.1660     5.5920     1.8800 H     1 <1>   0.0800 
 39 H        9.8270     5.9380     1.4110 H     1 <1>   0.0800 
 40 H        7.3720     6.4160    -0.3270 H     1 <1>   0.0800 
 41 H        9.0300     6.7640    -0.7930 H     1 <1>   0.0800 
 42 H        8.2730     7.6660     0.4960 H     1 <1>   0.0800 
@<TRIPOS>BOND
  1   1   2  1   
  2   2   3  ar  
  3   2   4  ar  
  4   3   5  ar  
  5   3  22  1   
  6   4   6  ar  
  7   4  23  1   
  8   5   7  ar  
  9   5  24  1   
 10   6   7  ar  
 11   6  25  1   
 12   7   8  1   
 13   8   9  2   
 14   8  26  1   
 15   9  10  1   
 16   9  27  1   
 17  10  11  2   
 18  10  12  1   
 19  12  13  1   
 20  12  14  1   
 21  12  15  1   
 22  13  16  2   
 23  13  17  1   
 24  14  18  1   
 25  14  28  1   
 26  14  29  1   
 27  15  19  1   
 28  15  30  1   
 29  15  31  1   
 30  17  20  1   
 31  18  32  1   
 32  18  33  1   
 33  18  34  1   
 34  19  35  1   
 35  19  36  1   
 36  19  37  1   
 37  20  21  1   
 38  20  38  1   
 39  20  39  1   
 40  21  40  1   
 41  21  41  1   
 42  21  42  1   
@<TRIPOS>SUBSTRUCTURE
  1 ****   9 GROUP 4 **** **** 0

# MOE 2024.06 (io_trps.svl 2023.06)
