@<TRIPOS>MOLECULE
NONAME
49 52 1 0 0 
SMALL
USER_CHARGES


@<TRIPOS>ATOM
  1 O       -1.3940     1.8310     0.5880 O.2   1 <1>  -0.5700 
  2 C       -1.4320     1.6810    -0.6120 C.2   1 <1>   0.5690 
  3 N       -2.5070     1.1590    -1.2670 N.am  1 <1>  -0.7300 
  4 C       -0.1730     2.0930    -1.3960 C.3   1 <1>   0.4040 
  5 C       -3.7850     0.7040    -0.6820 C.3   1 <1>   0.3000 
  6 N        1.0820     2.0660    -0.5540 N.4   1 <1>  -0.9590 
  7 C       -3.5570    -0.4580     0.3050 C.3   1 <1>  -0.1600 
  8 C       -4.6680     0.2030    -1.8410 C.3   1 <1>  -0.1600 
  9 C       -4.5100     1.8630     0.0290 C.3   1 <1>  -0.1600 
 10 C        2.2100     2.8170    -1.1710 C.3   1 <1>   0.3430 
 11 C        1.4510     0.6740    -0.1630 C.3   1 <1>   0.3430 
 12 C       -4.9090    -0.9500     0.8590 C.3   1 <1>  -0.0800 
 13 C       -6.0260    -0.2910    -1.3060 C.3   1 <1>  -0.0800 
 14 C       -5.8640     1.3760     0.5820 C.3   1 <1>  -0.0800 
 15 C        3.3810     2.8840    -0.1880 C.3   1 <1>  -0.1600 
 16 C        2.6120     0.7120     0.8330 C.3   1 <1>  -0.1600 
 17 C       -5.7870    -1.4390    -0.3080 C.3   1 <1>  -0.1600 
 18 C       -5.6190     0.2180     1.5700 C.3   1 <1>  -0.1600 
 19 C       -6.7350     0.8690    -0.5830 C.3   1 <1>  -0.1600 
 20 C        3.8140     1.4890     0.2800 C.3   1 <1>  -0.1600 
 21 H       -2.5140     1.0710    -2.2830 H     1 <1>   0.3700 
 22 H       -0.3360     3.0920    -1.7610 H     1 <1>   0.0800 
 23 H       -0.0590     1.4390    -2.2430 H     1 <1>   0.0800 
 24 H        0.8170     2.5330     0.3310 H     1 <1>   0.4500 
 25 H       -2.9480    -0.1320     1.1290 H     1 <1>   0.0800 
 26 H       -3.0550    -1.2690    -0.1890 H     1 <1>   0.0800 
 27 H       -4.1800    -0.6070    -2.3540 H     1 <1>   0.0800 
 28 H       -4.8400     0.9990    -2.5440 H     1 <1>   0.0800 
 29 H       -4.6740     2.6740    -0.6580 H     1 <1>   0.0800 
 30 H       -3.9170     2.2280     0.8470 H     1 <1>   0.0800 
 31 H        1.8970     3.8180    -1.4220 H     1 <1>   0.0800 
 32 H        2.5290     2.3220    -2.0730 H     1 <1>   0.0800 
 33 H        1.7430     0.1120    -1.0350 H     1 <1>   0.0800 
 34 H        0.6070     0.1820     0.2960 H     1 <1>   0.0800 
 35 H       -4.7470    -1.7550     1.5560 H     1 <1>   0.0800 
 36 H       -6.6380    -0.6390    -2.1210 H     1 <1>   0.0800 
 37 H       -6.3650     2.1850     1.0870 H     1 <1>   0.0800 
 38 H        3.1000     3.4840     0.6610 H     1 <1>   0.0800 
 39 H        4.2130     3.3740    -0.6640 H     1 <1>   0.0800 
 40 H        2.9120    -0.2960     1.0600 H     1 <1>   0.0800 
 41 H        2.2750     1.1600     1.7520 H     1 <1>   0.0800 
 42 H       -6.7300    -1.7930     0.0720 H     1 <1>   0.0800 
 43 H       -5.3080    -2.2650    -0.8060 H     1 <1>   0.0800 
 44 H       -6.5580    -0.1190     1.9740 H     1 <1>   0.0800 
 45 H       -5.0180     0.5640     2.3940 H     1 <1>   0.0800 
 46 H       -7.6860     0.5350    -0.2060 H     1 <1>   0.0800 
 47 H       -6.9240     1.6720    -1.2740 H     1 <1>   0.0800 
 48 H        4.5720     1.5770     1.0410 H     1 <1>   0.0800 
 49 H        4.2430     0.9480    -0.5470 H     1 <1>   0.0800 
@<TRIPOS>BOND
  1   1   2  2   
  2   2   3  am  
  3   2   4  1   
  4   3   5  1   
  5   3  21  1   
  6   4   6  1   
  7   4  22  1   
  8   4  23  1   
  9   5   7  1   
 10   5   8  1   
 11   5   9  1   
 12   6  10  1   
 13   6  11  1   
 14   6  24  1   
 15   7  12  1   
 16   7  25  1   
 17   7  26  1   
 18   8  13  1   
 19   8  27  1   
 20   8  28  1   
 21   9  14  1   
 22   9  29  1   
 23   9  30  1   
 24  10  15  1   
 25  10  31  1   
 26  10  32  1   
 27  11  16  1   
 28  11  33  1   
 29  11  34  1   
 30  12  17  1   
 31  12  18  1   
 32  12  35  1   
 33  13  17  1   
 34  13  19  1   
 35  13  36  1   
 36  14  18  1   
 37  14  19  1   
 38  14  37  1   
 39  15  20  1   
 40  15  38  1   
 41  15  39  1   
 42  16  20  1   
 43  16  40  1   
 44  16  41  1   
 45  17  42  1   
 46  17  43  1   
 47  18  44  1   
 48  18  45  1   
 49  19  46  1   
 50  19  47  1   
 51  20  48  1   
 52  20  49  1   
@<TRIPOS>SUBSTRUCTURE
  1 ****   2 GROUP 4 **** **** 0

# MOE 2024.06 (io_trps.svl 2023.06)
