@<TRIPOS>MOLECULE
NONAME
27 27 1 0 0 
SMALL
USER_CHARGES


@<TRIPOS>ATOM
  1 O       -1.4580     0.3830    -2.4800 O.2   1 <1>  -0.5700 
  2 C       -2.2210     1.1940    -1.9780 C.2   1 <1>   0.7670 
  3 N       -3.4000     1.4240    -2.6340 N.2   1 <1>  -0.6610 
  4 C       -1.9120     1.8740    -0.7640 C.2   1 <1>   0.0790 
  5 C       -4.2060     2.2790    -2.1340 C.2   1 <1>   0.4400 
  6 C       -0.6670     1.5510    -0.1460 C.1   1 <1>   0.4920 
  7 C       -2.8090     2.7800    -0.2700 C.2   1 <1>  -0.0380 
  8 N       -3.9710     2.9940    -0.9840 N.pl3 1 <1>  -0.5190 
  9 N        0.3110     1.3470     0.4050 N.1   1 <1>  -0.5570 
 10 C       -2.5930     3.5570     1.0310 C.3   1 <1>  -0.1020 
 11 C       -5.0530     3.9470    -0.5480 C.3   1 <1>   0.2700 
 12 C       -6.0720     3.3020     0.3840 C.2   1 <1>   0.6590 
 13 O       -6.1390     3.5990     1.5490 O.2   1 <1>  -0.5700 
 14 O       -6.8790     2.4040    -0.1680 O.3   1 <1>  -0.4300 
 15 C       -7.8500     1.7200     0.5890 C.3   1 <1>   0.1200 
 16 C       -8.5800     0.7560    -0.3410 C.3   1 <1>  -0.2400 
 17 H       -5.1400     2.4620    -2.6380 H     1 <1>   0.0600 
 18 H       -2.5380     4.6120     0.8310 H     1 <1>   0.0800 
 19 H       -1.6830     3.2780     1.5310 H     1 <1>   0.0800 
 20 H       -3.4010     3.3720     1.7170 H     1 <1>   0.0800 
 21 H       -5.5760     4.3130    -1.4130 H     1 <1>   0.0800 
 22 H       -4.6220     4.7980    -0.0560 H     1 <1>   0.0800 
 23 H       -8.5290     2.4420     1.0100 H     1 <1>   0.0800 
 24 H       -7.3520     1.1870     1.3830 H     1 <1>   0.0800 
 25 H       -9.0680     1.2990    -1.1310 H     1 <1>   0.0800 
 26 H       -9.3260     0.2150     0.2130 H     1 <1>   0.0800 
 27 H       -7.8880     0.0490    -0.7620 H     1 <1>   0.0800 
@<TRIPOS>BOND
  1   1   2  2   
  2   2   3  1   
  3   2   4  1   
  4   3   5  2   
  5   4   6  1   
  6   4   7  2   
  7   5   8  1   
  8   5  17  1   
  9   6   9  3   
 10   7   8  1   
 11   7  10  1   
 12   8  11  1   
 13  10  18  1   
 14  10  19  1   
 15  10  20  1   
 16  11  12  1   
 17  11  21  1   
 18  11  22  1   
 19  12  13  2   
 20  12  14  1   
 21  14  15  1   
 22  15  16  1   
 23  15  23  1   
 24  15  24  1   
 25  16  25  1   
 26  16  26  1   
 27  16  27  1   
@<TRIPOS>SUBSTRUCTURE
  1 ****   8 GROUP 4 **** **** 0

# MOE 2024.06 (io_trps.svl 2023.06)
