@<TRIPOS>MOLECULE
NONAME
49 51 1 0 0 
SMALL
USER_CHARGES


@<TRIPOS>ATOM
  1 CL      -0.0250     0.0630    -1.3650 Cl    1 <1>  -0.1770 
  2 C       -0.1140     1.5270    -0.4060 C.ar  1 <1>   0.1770 
  3 C       -1.3450     1.9860     0.0730 C.ar  1 <1>   0.1170 
  4 C        1.0640     2.2150    -0.1700 C.ar  1 <1>  -0.1500 
  5 N       -2.5460     1.2960    -0.1410 N.am  1 <1>  -0.5470 
  6 C       -1.3660     3.1770     0.7870 C.ar  1 <1>  -0.1500 
  7 C        1.0290     3.3980     0.5510 C.ar  1 <1>  -0.1500 
  8 C       -2.8970     0.0600     0.3140 C.2   1 <1>   0.5690 
  9 C       -0.1880     3.8640     1.0170 C.ar  1 <1>   0.1770 
 10 O       -2.2070    -0.5910     1.0610 O.2   1 <1>  -0.5700 
 11 C       -4.2490    -0.4840    -0.1450 C.3   1 <1>   0.1710 
 12 CL      -0.2370     5.3560     1.9190 Cl    1 <1>  -0.1770 
 13 N       -5.2520     0.5840    -0.4300 N.3   1 <1>  -0.8100 
 14 C       -5.7620     1.1750     0.8380 C.3   1 <1>   0.1100 
 15 C       -6.3890     0.0340    -1.2100 C.3   1 <1>   0.1100 
 16 C       -6.8180     2.2720     0.5980 C.3   1 <1>   0.2090 
 17 C       -7.4630     1.0960    -1.5170 C.3   1 <1>   0.2090 
 18 N       -7.9110     1.7490    -0.2600 N.pl3 1 <1>  -0.8380 
 19 C       -9.2260     2.1870    -0.0940 C.ar  1 <1>   0.1000 
 20 C       -9.7020     3.3390    -0.7320 C.ar  1 <1>  -0.1430 
 21 C      -10.0910     1.4610     0.7300 C.ar  1 <1>  -0.1430 
 22 C      -11.0120     3.7420    -0.5420 C.ar  1 <1>  -0.1500 
 23 C       -8.8110     4.1740    -1.6430 C.3   1 <1>  -0.0970 
 24 C      -11.3970     1.8810     0.9100 C.ar  1 <1>  -0.1500 
 25 C       -9.6140     0.2000     1.4380 C.3   1 <1>  -0.0970 
 26 C      -11.8600     3.0180     0.2760 C.ar  1 <1>  -0.1500 
 27 H        1.9930     1.8290    -0.5500 H     1 <1>   0.1500 
 28 H       -3.3080     1.7650    -0.6410 H     1 <1>   0.3700 
 29 H       -2.2910     3.5640     1.1700 H     1 <1>   0.1500 
 30 H        1.9280     3.9530     0.7500 H     1 <1>   0.1500 
 31 H       -4.6270    -1.1590     0.6020 H     1 <1>   0.0800 
 32 H       -4.0690    -1.0510    -1.0410 H     1 <1>   0.0800 
 33 H       -4.9470     1.6020     1.3960 H     1 <1>   0.0800 
 34 H       -6.2090     0.4050     1.4440 H     1 <1>   0.0800 
 35 H       -6.8530    -0.7690    -0.6620 H     1 <1>   0.0800 
 36 H       -6.0260    -0.3630    -2.1410 H     1 <1>   0.0800 
 37 H       -6.3550     3.1130     0.1160 H     1 <1>   0.0800 
 38 H       -7.2270     2.6010     1.5370 H     1 <1>   0.0800 
 39 H       -8.3070     0.6370    -2.0010 H     1 <1>   0.0800 
 40 H       -7.0510     1.8360    -2.1780 H     1 <1>   0.0800 
 41 H      -11.3860     4.6240    -1.0290 H     1 <1>   0.1500 
 42 H       -8.6080     3.6310    -2.5470 H     1 <1>   0.0800 
 43 H       -7.8830     4.3950    -1.1510 H     1 <1>   0.0800 
 44 H       -9.2850     5.1030    -1.9010 H     1 <1>   0.0800 
 45 H      -12.0650     1.3250     1.5440 H     1 <1>   0.1500 
 46 H       -9.2240    -0.4940     0.7170 H     1 <1>   0.0800 
 47 H      -10.4170    -0.2750     1.9720 H     1 <1>   0.0800 
 48 H       -8.8360     0.4500     2.1350 H     1 <1>   0.0800 
 49 H      -12.8760     3.3400     0.4190 H     1 <1>   0.1500 
@<TRIPOS>BOND
  1   1   2  1   
  2   2   3  ar  
  3   2   4  ar  
  4   3   5  1   
  5   3   6  ar  
  6   4   7  ar  
  7   4  27  1   
  8   5   8  am  
  9   5  28  1   
 10   6   9  ar  
 11   6  29  1   
 12   7   9  ar  
 13   7  30  1   
 14   8  10  2   
 15   8  11  1   
 16   9  12  1   
 17  11  13  1   
 18  11  31  1   
 19  11  32  1   
 20  13  14  1   
 21  13  15  1   
 22  14  16  1   
 23  14  33  1   
 24  14  34  1   
 25  15  17  1   
 26  15  35  1   
 27  15  36  1   
 28  16  18  1   
 29  16  37  1   
 30  16  38  1   
 31  17  18  1   
 32  17  39  1   
 33  17  40  1   
 34  18  19  1   
 35  19  20  ar  
 36  19  21  ar  
 37  20  22  ar  
 38  20  23  1   
 39  21  24  ar  
 40  21  25  1   
 41  22  26  ar  
 42  22  41  1   
 43  23  42  1   
 44  23  43  1   
 45  23  44  1   
 46  24  26  ar  
 47  24  45  1   
 48  25  46  1   
 49  25  47  1   
 50  25  48  1   
 51  26  49  1   
@<TRIPOS>SUBSTRUCTURE
  1 ****  14 GROUP 4 **** **** 0

# MOE 2024.06 (io_trps.svl 2023.06)
