@<TRIPOS>MOLECULE
NONAME
48 50 1 0 0 
SMALL
USER_CHARGES


@<TRIPOS>ATOM
  1 F        0.8700    -0.1500     0.0610 F     1 <1>  -0.1900 
  2 C        1.9210    -0.9110     0.2320 C.ar  1 <1>   0.1900 
  3 C        2.5850    -0.8700     1.4430 C.ar  1 <1>  -0.1500 
  4 C        2.3290    -1.7270    -0.8060 C.ar  1 <1>  -0.1500 
  5 C        3.6960    -1.6780     1.6130 C.ar  1 <1>  -0.1500 
  6 C        3.4430    -2.5280    -0.6200 C.ar  1 <1>  -0.1500 
  7 C        4.1380    -2.5120     0.5890 C.ar  1 <1>   0.1000 
  8 N        5.2660    -3.3040     0.7920 N.pl3 1 <1>  -0.8380 
  9 C        5.2800    -4.7450     0.3980 C.3   1 <1>   0.2090 
 10 C        6.5910    -2.6400     0.9860 C.3   1 <1>   0.2090 
 11 C        6.2750    -5.0080    -0.7540 C.3   1 <1>   0.3430 
 12 C        7.5480    -2.9470    -0.1840 C.3   1 <1>   0.3430 
 13 N        7.6390    -4.4250    -0.4870 N.4   1 <1>  -0.9590 
 14 C        8.5960    -4.7040    -1.5910 C.3   1 <1>   0.4860 
 15 C        9.9740    -4.2540    -1.1510 C.ar  1 <1>  -0.1430 
 16 C       10.6220    -4.9100    -0.1160 C.ar  1 <1>  -0.1500 
 17 C       10.6000    -3.1810    -1.7640 C.ar  1 <1>  -0.1500 
 18 C       11.8680    -4.5040     0.3300 C.ar  1 <1>   0.0830 
 19 C       11.8470    -2.7620    -1.3340 C.ar  1 <1>  -0.1500 
 20 O       12.3500    -5.2540     1.3620 O.3   1 <1>  -0.3630 
 21 C       12.4980    -3.4060    -0.2820 C.ar  1 <1>   0.0830 
 22 C       13.7130    -5.2700     1.7270 C.3   1 <1>   0.0400 
 23 O       13.7150    -2.9760     0.1600 O.3   1 <1>  -0.3630 
 24 C       14.4400    -1.9470    -0.4800 C.3   1 <1>   0.0400 
 25 H        2.2350    -0.2250     2.2280 H     1 <1>   0.1500 
 26 H        1.7820    -1.7280    -1.7320 H     1 <1>   0.1500 
 27 H        4.2230    -1.6720     2.5490 H     1 <1>   0.1500 
 28 H        3.7700    -3.1610    -1.4210 H     1 <1>   0.1500 
 29 H        4.2910    -5.0510     0.1000 H     1 <1>   0.0800 
 30 H        5.5530    -5.3370     1.2540 H     1 <1>   0.0800 
 31 H        7.0250    -2.9790     1.9110 H     1 <1>   0.0800 
 32 H        6.4560    -1.5740     1.0610 H     1 <1>   0.0800 
 33 H        5.8680    -4.5720    -1.6510 H     1 <1>   0.0800 
 34 H        6.3530    -6.0710    -0.9100 H     1 <1>   0.0800 
 35 H        8.5250    -2.5600     0.0590 H     1 <1>   0.0800 
 36 H        7.1920    -2.4210    -1.0530 H     1 <1>   0.0800 
 37 H        8.0220    -4.8690     0.3570 H     1 <1>   0.4500 
 38 H        8.3020    -4.1790    -2.4850 H     1 <1>   0.0800 
 39 H        8.6210    -5.7610    -1.8060 H     1 <1>   0.0800 
 40 H       10.1760    -5.7590     0.3690 H     1 <1>   0.1500 
 41 H       10.1310    -2.6570    -2.5800 H     1 <1>   0.1500 
 42 H       12.2960    -1.9250    -1.8340 H     1 <1>   0.1500 
 43 H       13.8690    -6.0860     2.4090 H     1 <1>   0.0800 
 44 H       13.9550    -4.3410     2.2110 H     1 <1>   0.0800 
 45 H       14.3110    -5.4100     0.8440 H     1 <1>   0.0800 
 46 H       15.3790    -1.8340     0.0320 H     1 <1>   0.0800 
 47 H       13.8800    -1.0320    -0.4160 H     1 <1>   0.0800 
 48 H       14.6150    -2.2260    -1.5040 H     1 <1>   0.0800 
@<TRIPOS>BOND
  1   1   2  1   
  2   2   3  ar  
  3   2   4  ar  
  4   3   5  ar  
  5   3  25  1   
  6   4   6  ar  
  7   4  26  1   
  8   5   7  ar  
  9   5  27  1   
 10   6   7  ar  
 11   6  28  1   
 12   7   8  1   
 13   8   9  1   
 14   8  10  1   
 15   9  11  1   
 16   9  29  1   
 17   9  30  1   
 18  10  12  1   
 19  10  31  1   
 20  10  32  1   
 21  11  13  1   
 22  11  33  1   
 23  11  34  1   
 24  12  13  1   
 25  12  35  1   
 26  12  36  1   
 27  13  14  1   
 28  13  37  1   
 29  14  15  1   
 30  14  38  1   
 31  14  39  1   
 32  15  16  ar  
 33  15  17  ar  
 34  16  18  ar  
 35  16  40  1   
 36  17  19  ar  
 37  17  41  1   
 38  18  20  1   
 39  18  21  ar  
 40  19  21  ar  
 41  19  42  1   
 42  20  22  1   
 43  21  23  1   
 44  22  43  1   
 45  22  44  1   
 46  22  45  1   
 47  23  24  1   
 48  24  46  1   
 49  24  47  1   
 50  24  48  1   
@<TRIPOS>SUBSTRUCTURE
  1 ****  12 GROUP 4 **** **** 0

# MOE 2024.06 (io_trps.svl 2023.06)
