@<TRIPOS>MOLECULE
NONAME
42 44 1 0 0 
SMALL
USER_CHARGES


@<TRIPOS>ATOM
  1 CL       1.3720    -2.7360    -2.9510 Cl    1 <1>  -0.1770 
  2 C        1.7270    -3.0100    -1.2650 C.ar  1 <1>   0.1770 
  3 C        3.0340    -2.9360    -0.8300 C.ar  1 <1>  -0.1500 
  4 C        0.6890    -3.2970    -0.3960 C.ar  1 <1>  -0.1500 
  5 C        3.3260    -3.1540     0.5120 C.ar  1 <1>   0.1000 
  6 C        0.9740    -3.5140     0.9420 C.ar  1 <1>  -0.1500 
  7 N        4.6260    -3.0880     0.9980 N.pl3 1 <1>  -0.8380 
  8 C        2.2840    -3.4410     1.3860 C.ar  1 <1>  -0.1500 
  9 C        5.5990    -4.1460     0.5850 C.3   1 <1>   0.2090 
 10 C        5.2390    -1.7390     1.1870 C.3   1 <1>   0.2090 
 11 C        6.5480    -3.6760    -0.5360 C.3   1 <1>   0.1960 
 12 C        6.1790    -1.3600     0.0260 C.3   1 <1>   0.1960 
 13 N        7.2040    -2.3920    -0.2280 N.am  1 <1>  -0.8490 
 14 S        8.2730    -1.9450    -1.4640 S.o2  1 <1>   1.5010 
 15 O        7.4480    -1.5000    -2.5670 O.2   1 <1>  -0.6500 
 16 O        9.1750    -3.0600    -1.6540 O.2   1 <1>  -0.6500 
 17 C        9.1600    -0.5470    -0.7530 C.2   1 <1>  -0.0630 
 18 C        9.9380    -0.5760     0.4010 C.2   1 <1>   0.1080 
 19 C        9.2360     0.7470    -1.1560 C.2   1 <1>  -0.3020 
 20 N       10.4410     0.5830     0.6930 N.2   1 <1>  -0.7070 
 21 C       10.1990    -1.7970     1.2580 C.3   1 <1>  -0.0590 
 22 N       10.0120     1.4010    -0.2750 N.pl3 1 <1>   0.3140 
 23 C       10.3900     2.8180    -0.3030 C.3   1 <1>   0.0160 
 24 H        3.8150    -2.7100    -1.5280 H     1 <1>   0.1500 
 25 H       -0.3200    -3.3480    -0.7620 H     1 <1>   0.1500 
 26 H        0.1820    -3.7380     1.6350 H     1 <1>   0.1500 
 27 H        2.5170    -3.6080     2.4220 H     1 <1>   0.1500 
 28 H        5.0620    -5.0180     0.2550 H     1 <1>   0.0800 
 29 H        6.1850    -4.4280     1.4420 H     1 <1>   0.0800 
 30 H        5.7970    -1.7360     2.1070 H     1 <1>   0.0800 
 31 H        4.4610    -1.0010     1.2720 H     1 <1>   0.0800 
 32 H        5.9910    -3.5900    -1.4540 H     1 <1>   0.0800 
 33 H        7.2970    -4.4360    -0.6820 H     1 <1>   0.0800 
 34 H        6.6580    -0.4280     0.2720 H     1 <1>   0.0800 
 35 H        5.5860    -1.2010    -0.8590 H     1 <1>   0.0800 
 36 H        8.7840     1.2150    -2.0110 H     1 <1>   0.1500 
 37 H       10.6170    -2.5860     0.6600 H     1 <1>   0.0800 
 38 H        9.2830    -2.1360     1.7050 H     1 <1>   0.0800 
 39 H       10.8960    -1.5520     2.0400 H     1 <1>   0.0800 
 40 H        9.8650     3.3190    -1.0950 H     1 <1>   0.0800 
 41 H       11.4500     2.8910    -0.4640 H     1 <1>   0.0800 
 42 H       10.1400     3.2630     0.6410 H     1 <1>   0.0800 
@<TRIPOS>BOND
  1   1   2  1   
  2   2   3  ar  
  3   2   4  ar  
  4   3   5  ar  
  5   3  24  1   
  6   4   6  ar  
  7   4  25  1   
  8   5   7  1   
  9   5   8  ar  
 10   6   8  ar  
 11   6  26  1   
 12   7   9  1   
 13   7  10  1   
 14   8  27  1   
 15   9  11  1   
 16   9  28  1   
 17   9  29  1   
 18  10  12  1   
 19  10  30  1   
 20  10  31  1   
 21  11  13  1   
 22  11  32  1   
 23  11  33  1   
 24  12  13  1   
 25  12  34  1   
 26  12  35  1   
 27  13  14  am  
 28  14  15  2   
 29  14  16  2   
 30  14  17  1   
 31  17  18  1   
 32  17  19  2   
 33  18  20  2   
 34  18  21  1   
 35  19  22  1   
 36  19  36  1   
 37  20  22  1   
 38  21  37  1   
 39  21  38  1   
 40  21  39  1   
 41  22  23  1   
 42  23  40  1   
 43  23  41  1   
 44  23  42  1   
@<TRIPOS>SUBSTRUCTURE
  1 ****  12 GROUP 4 **** **** 0

# MOE 2024.06 (io_trps.svl 2023.06)
