@<TRIPOS>MOLECULE
NONAME
36 37 1 0 0 
SMALL
USER_CHARGES


@<TRIPOS>ATOM
  1 BR      -0.0770     0.5620     0.1730 Br    1 <1>  -0.1110 
  2 C        1.7400     1.1820     0.0180 C.ar  1 <1>   0.1110 
  3 C        1.9730     2.4360    -0.5120 C.ar  1 <1>  -0.1500 
  4 C        2.7640     0.3550     0.4400 C.ar  1 <1>  -0.1500 
  5 C        3.2820     2.8730    -0.6200 C.ar  1 <1>  -0.1500 
  6 C        4.0700     0.8010     0.3290 C.ar  1 <1>  -0.1500 
  7 C        4.3330     2.0650    -0.2030 C.ar  1 <1>   0.0830 
  8 O        5.5820     2.5760    -0.3470 O.3   1 <1>  -0.3630 
  9 C        6.7200     1.8510     0.0410 C.3   1 <1>   0.1200 
 10 C        7.9340     2.7310    -0.2550 C.3   1 <1>  -0.1600 
 11 C        9.2280     2.0270     0.1460 C.3   1 <1>   0.3430 
 12 N       10.4090     2.8530    -0.2330 N.4   1 <1>  -0.9590 
 13 C       11.6790     2.0490    -0.1410 C.3   1 <1>   0.3430 
 14 C       10.5300     4.1070     0.5990 C.3   1 <1>   0.3430 
 15 C       12.9220     2.9130    -0.4270 C.3   1 <1>   0.1200 
 16 C       11.8270     4.8760     0.2820 C.3   1 <1>   0.1200 
 17 O       12.9340     4.0320     0.4110 O.3   1 <1>  -0.5600 
 18 H        1.1520     3.0530    -0.8310 H     1 <1>   0.1500 
 19 H        2.5390    -0.6150     0.8470 H     1 <1>   0.1500 
 20 H        3.4960     3.8450    -1.0290 H     1 <1>   0.1500 
 21 H        4.8590     0.1520     0.6590 H     1 <1>   0.1500 
 22 H        6.7480     0.9380    -0.5310 H     1 <1>   0.0800 
 23 H        6.6400     1.6350     1.0930 H     1 <1>   0.0800 
 24 H        7.8210     3.6470     0.2960 H     1 <1>   0.0800 
 25 H        7.9480     2.9440    -1.3100 H     1 <1>   0.0800 
 26 H        9.2780     1.0760    -0.3610 H     1 <1>   0.0800 
 27 H        9.2330     1.8420     1.2090 H     1 <1>   0.0800 
 28 H       10.2980     3.1430    -1.2140 H     1 <1>   0.4500 
 29 H       11.6490     1.2290    -0.8400 H     1 <1>   0.0800 
 30 H       11.7780     1.6360     0.8490 H     1 <1>   0.0800 
 31 H       10.5370     3.8500     1.6450 H     1 <1>   0.0800 
 32 H        9.6870     4.7530     0.4220 H     1 <1>   0.0800 
 33 H       12.9430     3.2440    -1.4510 H     1 <1>   0.0800 
 34 H       13.8180     2.3500    -0.2310 H     1 <1>   0.0800 
 35 H       11.9550     5.6890     0.9770 H     1 <1>   0.0800 
 36 H       11.8100     5.2790    -0.7160 H     1 <1>   0.0800 
@<TRIPOS>BOND
  1   1   2  1   
  2   2   3  ar  
  3   2   4  ar  
  4   3   5  ar  
  5   3  18  1   
  6   4   6  ar  
  7   4  19  1   
  8   5   7  ar  
  9   5  20  1   
 10   6   7  ar  
 11   6  21  1   
 12   7   8  1   
 13   8   9  1   
 14   9  10  1   
 15   9  22  1   
 16   9  23  1   
 17  10  11  1   
 18  10  24  1   
 19  10  25  1   
 20  11  12  1   
 21  11  26  1   
 22  11  27  1   
 23  12  13  1   
 24  12  14  1   
 25  12  28  1   
 26  13  15  1   
 27  13  29  1   
 28  13  30  1   
 29  14  16  1   
 30  14  31  1   
 31  14  32  1   
 32  15  17  1   
 33  15  33  1   
 34  15  34  1   
 35  16  17  1   
 36  16  35  1   
 37  16  36  1   
@<TRIPOS>SUBSTRUCTURE
  1 ****   9 GROUP 4 **** **** 0

# MOE 2024.06 (io_trps.svl 2023.06)
