@<TRIPOS>MOLECULE
NONAME
32 33 1 0 0 
SMALL
USER_CHARGES


@<TRIPOS>ATOM
  1 BR       0.6010     0.0280    -1.4730 Br    1 <1>  -0.1110 
  2 C        0.2560    -1.6950    -0.6760 C.ar  1 <1>   0.1110 
  3 C        1.3220    -2.4580    -0.2060 C.ar  1 <1>   0.0830 
  4 C       -1.0560    -2.1200    -0.5990 C.ar  1 <1>  -0.1500 
  5 O        2.5760    -1.9470    -0.3300 O.3   1 <1>  -0.3630 
  6 C        1.0450    -3.7000     0.3650 C.ar  1 <1>  -0.1500 
  7 C       -1.2990    -3.3540    -0.0290 C.ar  1 <1>   0.1770 
  8 C        3.7150    -2.6510     0.0970 C.3   1 <1>   0.1200 
  9 C       -0.2670    -4.1440     0.4510 C.ar  1 <1>  -0.1500 
 10 CL      -2.9410    -3.9320     0.0900 Cl    1 <1>  -0.1770 
 11 C        4.9260    -1.7590    -0.1990 C.3   1 <1>   0.3430 
 12 N        6.2260    -2.3860     0.2090 N.4   1 <1>  -0.9590 
 13 C        7.3650    -1.4460     0.0620 C.3   1 <1>   0.3430 
 14 C        6.5990    -3.5900    -0.5770 C.3   1 <1>   0.3430 
 15 C        8.5960    -2.3420     0.0530 C.3   1 <1>  -0.1600 
 16 C        8.1010    -3.7290    -0.3670 C.3   1 <1>  -0.1600 
 17 H       -1.8620    -1.5130    -0.9690 H     1 <1>   0.1500 
 18 H        1.8230    -4.3340     0.7460 H     1 <1>   0.1500 
 19 H        3.7620    -3.5730    -0.4550 H     1 <1>   0.0800 
 20 H        3.6200    -2.8330     1.1530 H     1 <1>   0.0800 
 21 H       -0.4970    -5.1000     0.8890 H     1 <1>   0.1500 
 22 H        4.7960    -0.8310     0.3330 H     1 <1>   0.0800 
 23 H        4.9460    -1.5430    -1.2550 H     1 <1>   0.0800 
 24 H        6.1890    -2.6540     1.2030 H     1 <1>   0.4500 
 25 H        7.4000    -0.7260     0.8640 H     1 <1>   0.0800 
 26 H        7.2920    -0.9280    -0.8820 H     1 <1>   0.0800 
 27 H        6.3990    -3.4190    -1.6240 H     1 <1>   0.0800 
 28 H        6.0680    -4.4690    -0.2480 H     1 <1>   0.0800 
 29 H        9.0280    -2.3790     1.0380 H     1 <1>   0.0800 
 30 H        9.3350    -1.9570    -0.6290 H     1 <1>   0.0800 
 31 H        8.5760    -4.0660    -1.2720 H     1 <1>   0.0800 
 32 H        8.2970    -4.4490     0.4090 H     1 <1>   0.0800 
@<TRIPOS>BOND
  1   1   2  1   
  2   2   3  ar  
  3   2   4  ar  
  4   3   5  1   
  5   3   6  ar  
  6   4   7  ar  
  7   4  17  1   
  8   5   8  1   
  9   6   9  ar  
 10   6  18  1   
 11   7   9  ar  
 12   7  10  1   
 13   8  11  1   
 14   8  19  1   
 15   8  20  1   
 16   9  21  1   
 17  11  12  1   
 18  11  22  1   
 19  11  23  1   
 20  12  13  1   
 21  12  14  1   
 22  12  24  1   
 23  13  15  1   
 24  13  25  1   
 25  13  26  1   
 26  14  16  1   
 27  14  27  1   
 28  14  28  1   
 29  15  16  1   
 30  15  29  1   
 31  15  30  1   
 32  16  31  1   
 33  16  32  1   
@<TRIPOS>SUBSTRUCTURE
  1 ****   5 GROUP 4 **** **** 0

# MOE 2024.06 (io_trps.svl 2023.06)
