@<TRIPOS>MOLECULE
NONAME
38 38 1 0 0 
SMALL
USER_CHARGES


@<TRIPOS>ATOM
  1 S       -1.7770    -2.6930     0.2180 S.3   1 <1>  -0.4600 
  2 C       -3.2450    -1.8640    -0.4660 C.3   1 <1>   0.2140 
  3 C       -2.1030    -4.4540    -0.0070 C.3   1 <1>   0.0700 
  4 C       -3.1030    -0.3720    -0.2190 C.ar  1 <1>  -0.1440 
  5 C       -0.8950    -5.1870     0.5850 C.3   1 <1>   0.3430 
  6 C       -3.8950     0.2630     0.7260 C.ar  1 <1>  -0.1500 
  7 C       -2.1820     0.3710    -0.9410 C.ar  1 <1>  -0.1500 
  8 N       -1.0350    -6.6670     0.4720 N.4   1 <1>  -0.8530 
  9 C       -3.7680     1.6230     0.9420 C.ar  1 <1>  -0.1500 
 10 C       -2.0520     1.7330    -0.7270 C.ar  1 <1>  -0.1500 
 11 C       -2.8490     2.3680     0.2210 C.ar  1 <1>   0.0830 
 12 O       -2.7880     3.6950     0.4950 O.3   1 <1>  -0.3620 
 13 C       -1.8560     4.5310    -0.1510 C.3   1 <1>   0.1200 
 14 C       -2.0280     5.9490     0.3950 C.3   1 <1>  -0.1600 
 15 C       -1.0410     6.9220    -0.2650 C.3   1 <1>  -0.1600 
 16 C       -1.2160     8.3400     0.2850 C.3   1 <1>  -0.2400 
 17 H       -4.1100    -2.2650     0.0300 H     1 <1>   0.0800 
 18 H       -3.2850    -2.0800    -1.5190 H     1 <1>   0.0800 
 19 H       -2.2090    -4.6230    -1.0640 H     1 <1>   0.0800 
 20 H       -3.0150    -4.6760     0.5200 H     1 <1>   0.0800 
 21 H       -0.7960    -4.9070     1.6220 H     1 <1>   0.0800 
 22 H       -0.0060    -4.8620     0.0670 H     1 <1>   0.0800 
 23 H       -4.6140    -0.2940     1.3020 H     1 <1>   0.1500 
 24 H       -1.5570    -0.1090    -1.6730 H     1 <1>   0.1500 
 25 H       -1.8620    -7.0050     0.9770 H     1 <1>   0.4500 
 26 H       -0.2130    -7.1340     0.8760 H     1 <1>   0.4500 
 27 H       -1.1080    -6.9620    -0.5090 H     1 <1>   0.4500 
 28 H       -4.3790     2.1190     1.6740 H     1 <1>   0.1500 
 29 H       -1.3280     2.2760    -1.3030 H     1 <1>   0.1500 
 30 H       -2.0530     4.5040    -1.2080 H     1 <1>   0.0800 
 31 H       -0.8680     4.1610     0.0570 H     1 <1>   0.0800 
 32 H       -1.8620     5.9360     1.4580 H     1 <1>   0.0800 
 33 H       -3.0350     6.2770     0.2060 H     1 <1>   0.0800 
 34 H       -1.2020     6.9340    -1.3300 H     1 <1>   0.0800 
 35 H       -0.0320     6.5940    -0.0820 H     1 <1>   0.0800 
 36 H       -2.2130     8.6970     0.0950 H     1 <1>   0.0800 
 37 H       -0.5180     9.0080    -0.1880 H     1 <1>   0.0800 
 38 H       -1.0400     8.3560     1.3470 H     1 <1>   0.0800 
@<TRIPOS>BOND
  1   1   2  1   
  2   1   3  1   
  3   2   4  1   
  4   2  17  1   
  5   2  18  1   
  6   3   5  1   
  7   3  19  1   
  8   3  20  1   
  9   4   6  ar  
 10   4   7  ar  
 11   5   8  1   
 12   5  21  1   
 13   5  22  1   
 14   6   9  ar  
 15   6  23  1   
 16   7  10  ar  
 17   7  24  1   
 18   8  25  1   
 19   8  26  1   
 20   8  27  1   
 21   9  11  ar  
 22   9  28  1   
 23  10  11  ar  
 24  10  29  1   
 25  11  12  1   
 26  12  13  1   
 27  13  14  1   
 28  13  30  1   
 29  13  31  1   
 30  14  15  1   
 31  14  32  1   
 32  14  33  1   
 33  15  16  1   
 34  15  34  1   
 35  15  35  1   
 36  16  36  1   
 37  16  37  1   
 38  16  38  1   
@<TRIPOS>SUBSTRUCTURE
  1 ****   7 GROUP 4 **** **** 0

# MOE 2024.06 (io_trps.svl 2023.06)
