@<TRIPOS>MOLECULE
NONAME
46 48 1 0 0 
SMALL
USER_CHARGES


@<TRIPOS>ATOM
  1 O       -0.6700     0.3000    -0.9740 O.2   1 <1>  -0.5700 
  2 C       -0.9630     1.4760    -1.0790 C.2   1 <1>   0.6900 
  3 N       -2.2180     1.8400    -1.4870 N.am  1 <1>  -0.6600 
  4 N       -0.0600     2.4660    -0.8200 N.am  1 <1>  -0.5470 
  5 C       -3.1340     0.8340    -2.1130 C.3   1 <1>   0.1400 
  6 C       -2.9540     3.0010    -0.8930 C.3   1 <1>   0.1400 
  7 C        1.2200     2.4380    -0.2490 C.ar  1 <1>   0.1170 
  8 C       -4.2060     0.3660    -1.1170 C.3   1 <1>   0.2090 
  9 C       -4.0400     2.5260     0.0910 C.3   1 <1>   0.2090 
 10 C        2.0930     3.4870    -0.5120 C.ar  1 <1>  -0.1500 
 11 C        1.6510     1.4140     0.5880 C.ar  1 <1>  -0.1500 
 12 N       -4.9510     1.5310    -0.5480 N.pl3 1 <1>  -0.8380 
 13 C        3.3620     3.5200     0.0400 C.ar  1 <1>  -0.1440 
 14 C        2.9170     1.4320     1.1460 C.ar  1 <1>  -0.1440 
 15 C       -6.1080     1.2300     0.1610 C.ar  1 <1>   0.1000 
 16 C        3.7690     2.4880     0.8700 C.ar  1 <1>  -0.1500 
 17 C        4.3110     4.6680    -0.2520 C.3   1 <1>  -0.0970 
 18 C        3.3800     0.3070     2.0550 C.3   1 <1>  -0.0970 
 19 C       -6.0690     0.5070     1.3480 C.ar  1 <1>  -0.1500 
 20 C       -7.3380     1.6590    -0.3190 C.ar  1 <1>  -0.1500 
 21 C       -7.2330     0.2200     2.0390 C.ar  1 <1>  -0.1500 
 22 C       -8.5050     1.3760     0.3670 C.ar  1 <1>  -0.1500 
 23 C       -8.4540     0.6550     1.5490 C.ar  1 <1>  -0.1500 
 24 H       -0.3320     3.3480    -1.2360 H     1 <1>   0.3700 
 25 H       -2.5740    -0.0160    -2.4620 H     1 <1>   0.0800 
 26 H       -3.6180     1.2800    -2.9640 H     1 <1>   0.0800 
 27 H       -3.4210     3.5630    -1.6820 H     1 <1>   0.0800 
 28 H       -2.2790     3.6550    -0.3710 H     1 <1>   0.0800 
 29 H       -3.7320    -0.1870    -0.3240 H     1 <1>   0.0800 
 30 H       -4.8990    -0.2890    -1.6160 H     1 <1>   0.0800 
 31 H       -4.6180     3.3710     0.4240 H     1 <1>   0.0800 
 32 H       -3.5700     2.0820     0.9510 H     1 <1>   0.0800 
 33 H        1.7750     4.2840    -1.1570 H     1 <1>   0.1500 
 34 H        0.9870     0.5970     0.8050 H     1 <1>   0.1500 
 35 H        4.7530     2.5060     1.3020 H     1 <1>   0.1500 
 36 H        3.9190     5.3070    -1.0220 H     1 <1>   0.0800 
 37 H        5.2610     4.2830    -0.5790 H     1 <1>   0.0800 
 38 H        4.4610     5.2510     0.6380 H     1 <1>   0.0800 
 39 H        2.6520    -0.4840     2.0870 H     1 <1>   0.0800 
 40 H        3.5270     0.6810     3.0520 H     1 <1>   0.0800 
 41 H        4.3070    -0.0980     1.6920 H     1 <1>   0.0800 
 42 H       -5.1230     0.1700     1.7270 H     1 <1>   0.1500 
 43 H       -7.3650     2.2160    -1.2370 H     1 <1>   0.1500 
 44 H       -7.1910    -0.3400     2.9560 H     1 <1>   0.1500 
 45 H       -9.4500     1.7150    -0.0170 H     1 <1>   0.1500 
 46 H       -9.3600     0.4340     2.0850 H     1 <1>   0.1500 
@<TRIPOS>BOND
  1   1   2  2   
  2   2   3  am  
  3   2   4  am  
  4   3   5  1   
  5   3   6  1   
  6   4   7  1   
  7   4  24  1   
  8   5   8  1   
  9   5  25  1   
 10   5  26  1   
 11   6   9  1   
 12   6  27  1   
 13   6  28  1   
 14   7  10  ar  
 15   7  11  ar  
 16   8  12  1   
 17   8  29  1   
 18   8  30  1   
 19   9  12  1   
 20   9  31  1   
 21   9  32  1   
 22  10  13  ar  
 23  10  33  1   
 24  11  14  ar  
 25  11  34  1   
 26  12  15  1   
 27  13  16  ar  
 28  13  17  1   
 29  14  16  ar  
 30  14  18  1   
 31  15  19  ar  
 32  15  20  ar  
 33  16  35  1   
 34  17  36  1   
 35  17  37  1   
 36  17  38  1   
 37  18  39  1   
 38  18  40  1   
 39  18  41  1   
 40  19  21  ar  
 41  19  42  1   
 42  20  22  ar  
 43  20  43  1   
 44  21  23  ar  
 45  21  44  1   
 46  22  23  ar  
 47  22  45  1   
 48  23  46  1   
@<TRIPOS>SUBSTRUCTURE
  1 ****   2 GROUP 4 **** **** 0

# MOE 2024.06 (io_trps.svl 2023.06)
