@<TRIPOS>MOLECULE
NONAME
53 56 1 0 0 
SMALL
USER_CHARGES


@<TRIPOS>ATOM
  1 S       -0.0550     0.5270     0.7020 S.3   1 <1>  -0.0800 
  2 C        0.0830    -1.1320     0.1330 C.2   1 <1>   0.1040 
  3 C       -1.7800     0.5340     0.3910 C.2   1 <1>  -0.1400 
  4 N        1.3150    -1.7580     0.0390 N.am  1 <1>  -0.4940 
  5 C       -1.1420    -1.6340    -0.2070 C.2   1 <1>  -0.0860 
  6 C       -2.1890    -0.6470    -0.0920 C.2   1 <1>  -0.1810 
  7 C       -2.5940     1.7850     0.6370 C.3   1 <1>   0.0200 
  8 C        2.5510    -1.5020     0.5800 C.2   1 <1>   0.7160 
  9 C       -1.3260    -2.9970    -0.6280 C.2   1 <1>   0.7160 
 10 C       -3.6390    -0.8570    -0.5060 C.3   1 <1>   0.0210 
 11 C       -4.0960     1.4430     0.5290 C.3   1 <1>  -0.0800 
 12 O        2.7000    -0.5980     1.3760 O.2   1 <1>  -0.5700 
 13 C        3.6670    -2.3310     0.1980 C.2   1 <1>  -0.0860 
 14 O       -0.5490    -3.4850    -1.4340 O.2   1 <1>  -0.5700 
 15 N       -2.3020    -3.8080    -0.0920 N.am  1 <1>  -0.6600 
 16 C       -4.3720     0.4920    -0.6570 C.3   1 <1>  -0.1600 
 17 C       -4.9360     2.7210     0.4080 C.3   1 <1>  -0.2400 
 18 C        4.9810    -2.0300     0.0950 C.2   1 <1>  -0.0400 
 19 C        3.6780    -3.6760    -0.1610 C.2   1 <1>   0.1080 
 20 C       -2.6330    -5.1260    -0.7100 C.3   1 <1>   0.1400 
 21 C       -2.7320    -3.6940     1.3350 C.3   1 <1>   0.1400 
 22 O        5.7000    -3.0560    -0.2860 O.3   1 <1>  -0.0190 
 23 C        5.7090    -0.7210     0.3420 C.3   1 <1>  -0.0600 
 24 N        4.8660    -4.0570    -0.4370 N.2   1 <1>  -0.4100 
 25 C        2.4980    -4.6280    -0.2240 C.3   1 <1>  -0.0590 
 26 C       -4.0860    -5.5260    -0.4060 C.3   1 <1>   0.1200 
 27 C       -4.1770    -4.1900     1.5200 C.3   1 <1>   0.1200 
 28 O       -4.3350    -5.4650     0.9690 O.3   1 <1>  -0.5600 
 29 H        1.3040    -2.5660    -0.5870 H     1 <1>   0.3700 
 30 H       -2.3210     2.5190    -0.1000 H     1 <1>   0.0800 
 31 H       -2.3760     2.1810     1.6130 H     1 <1>   0.0800 
 32 H       -4.1380    -1.4450     0.2400 H     1 <1>   0.0800 
 33 H       -3.6810    -1.3900    -1.4410 H     1 <1>   0.0800 
 34 H       -4.3850     0.9360     1.4340 H     1 <1>   0.0800 
 35 H       -5.4290     0.3080    -0.7440 H     1 <1>   0.0800 
 36 H       -4.0440     0.9640    -1.5670 H     1 <1>   0.0800 
 37 H       -4.6910     3.2530    -0.4950 H     1 <1>   0.0800 
 38 H       -4.7540     3.3670     1.2480 H     1 <1>   0.0800 
 39 H       -5.9840     2.4780     0.3890 H     1 <1>   0.0800 
 40 H       -1.9690    -5.8780    -0.3210 H     1 <1>   0.0800 
 41 H       -2.4930    -5.0760    -1.7760 H     1 <1>   0.0800 
 42 H       -2.6550    -2.6780     1.6790 H     1 <1>   0.0800 
 43 H       -2.0810    -4.2960     1.9450 H     1 <1>   0.0800 
 44 H        5.0230     0.0680     0.5890 H     1 <1>   0.0800 
 45 H        6.2540    -0.4380    -0.5400 H     1 <1>   0.0800 
 46 H        6.4020    -0.8410     1.1550 H     1 <1>   0.0800 
 47 H        1.8400    -4.4760     0.6120 H     1 <1>   0.0800 
 48 H        2.8510    -5.6440    -0.1940 H     1 <1>   0.0800 
 49 H        1.9580    -4.4870    -1.1420 H     1 <1>   0.0800 
 50 H       -4.2680    -6.5360    -0.7280 H     1 <1>   0.0800 
 51 H       -4.7750    -4.8730    -0.9130 H     1 <1>   0.0800 
 52 H       -4.8770    -3.5230     1.0480 H     1 <1>   0.0800 
 53 H       -4.4150    -4.2530     2.5670 H     1 <1>   0.0800 
@<TRIPOS>BOND
  1   1   2  1   
  2   1   3  1   
  3   2   4  1   
  4   2   5  2   
  5   3   6  2   
  6   3   7  1   
  7   4   8  am  
  8   4  29  1   
  9   5   6  1   
 10   5   9  1   
 11   6  10  1   
 12   7  11  1   
 13   7  30  1   
 14   7  31  1   
 15   8  12  2   
 16   8  13  1   
 17   9  14  2   
 18   9  15  am  
 19  10  16  1   
 20  10  32  1   
 21  10  33  1   
 22  11  16  1   
 23  11  17  1   
 24  11  34  1   
 25  13  18  2   
 26  13  19  1   
 27  15  20  1   
 28  15  21  1   
 29  16  35  1   
 30  16  36  1   
 31  17  37  1   
 32  17  38  1   
 33  17  39  1   
 34  18  22  1   
 35  18  23  1   
 36  19  24  2   
 37  19  25  1   
 38  20  26  1   
 39  20  40  1   
 40  20  41  1   
 41  21  27  1   
 42  21  42  1   
 43  21  43  1   
 44  22  24  1   
 45  23  44  1   
 46  23  45  1   
 47  23  46  1   
 48  25  47  1   
 49  25  48  1   
 50  25  49  1   
 51  26  28  1   
 52  26  50  1   
 53  26  51  1   
 54  27  28  1   
 55  27  52  1   
 56  27  53  1   
@<TRIPOS>SUBSTRUCTURE
  1 ****   2 GROUP 4 **** **** 0

# MOE 2024.06 (io_trps.svl 2023.06)
