@<TRIPOS>MOLECULE
NONAME
44 45 1 0 0 
SMALL
USER_CHARGES


@<TRIPOS>ATOM
  1 S        0.5280    -1.7810    -0.0600 S.o2  1 <1>   1.4470 
  2 O        1.0740    -2.8950     0.6750 O.2   1 <1>  -0.6500 
  3 O        0.8690    -1.6120    -1.4560 O.2   1 <1>  -0.6500 
  4 N        1.0710    -0.4130     0.7400 N.am  1 <1>  -0.9140 
  5 C       -1.2710    -1.6970     0.1540 C.ar  1 <1>  -0.0090 
  6 C        2.4280    -0.0150     0.3360 C.3   1 <1>   0.3370 
  7 C       -1.9890    -0.5890    -0.2810 C.ar  1 <1>  -0.1500 
  8 C       -1.9770    -2.7350     0.7540 C.ar  1 <1>  -0.1500 
  9 C        3.4880    -1.0360     0.8310 C.2   1 <1>   0.5690 
 10 C        2.7150     1.4130     0.8730 C.3   1 <1>  -0.0800 
 11 C       -3.3620    -0.5150    -0.1230 C.ar  1 <1>  -0.1500 
 12 C       -3.3500    -2.6690     0.9160 C.ar  1 <1>  -0.1500 
 13 O        3.6140    -1.1290     2.0330 O.2   1 <1>  -0.5700 
 14 N        4.2300    -1.8280    -0.0190 N.am  1 <1>  -0.6600 
 15 C        1.6710     2.4410     0.3940 C.3   1 <1>  -0.2400 
 16 C        4.1120     1.9070     0.4530 C.3   1 <1>  -0.2400 
 17 C       -4.0450    -1.5570     0.4760 C.ar  1 <1>  -0.1500 
 18 C        5.1230    -2.8990     0.5230 C.3   1 <1>   0.1400 
 19 C        4.0880    -1.9330    -1.5070 C.3   1 <1>   0.1400 
 20 C        4.6680    -4.2770     0.0170 C.3   1 <1>   0.1200 
 21 C        3.7000    -3.3660    -1.9110 C.3   1 <1>   0.1200 
 22 O        4.6110    -4.2880    -1.3820 O.3   1 <1>  -0.5600 
 23 H        1.1850    -0.7260     1.7060 H     1 <1>   0.4200 
 24 H        2.4620     0.0660    -0.7320 H     1 <1>   0.0800 
 25 H       -1.4630     0.2270    -0.7480 H     1 <1>   0.1500 
 26 H       -1.4460    -3.6070     1.1000 H     1 <1>   0.1500 
 27 H        2.6890     1.3800     1.9490 H     1 <1>   0.0800 
 28 H       -3.8990     0.3530    -0.4660 H     1 <1>   0.1500 
 29 H       -3.8780    -3.4830     1.3830 H     1 <1>   0.1500 
 30 H        1.6420     2.4800    -0.6810 H     1 <1>   0.0800 
 31 H        1.9120     3.4210     0.7670 H     1 <1>   0.0800 
 32 H        0.6900     2.1850     0.7530 H     1 <1>   0.0800 
 33 H        4.2030     1.9300    -0.6190 H     1 <1>   0.0800 
 34 H        4.8810     1.2680     0.8510 H     1 <1>   0.0800 
 35 H        4.2850     2.8990     0.8320 H     1 <1>   0.0800 
 36 H       -5.1130    -1.5030     0.6000 H     1 <1>   0.1500 
 37 H        5.1160    -2.9020     1.5990 H     1 <1>   0.0800 
 38 H        6.1330    -2.7170     0.2010 H     1 <1>   0.0800 
 39 H        5.0300    -1.6880    -1.9670 H     1 <1>   0.0800 
 40 H        3.3540    -1.2570    -1.8960 H     1 <1>   0.0800 
 41 H        3.6930    -4.5170     0.4070 H     1 <1>   0.0800 
 42 H        5.3630    -5.0360     0.3250 H     1 <1>   0.0800 
 43 H        3.7110    -3.4680    -2.9810 H     1 <1>   0.0800 
 44 H        2.7140    -3.6100    -1.5520 H     1 <1>   0.0800 
@<TRIPOS>BOND
  1   1   2  2   
  2   1   3  2   
  3   1   4  am  
  4   1   5  1   
  5   4   6  1   
  6   4  23  1   
  7   5   7  ar  
  8   5   8  ar  
  9   6   9  1   
 10   6  10  1   
 11   6  24  1   
 12   7  11  ar  
 13   7  25  1   
 14   8  12  ar  
 15   8  26  1   
 16   9  13  2   
 17   9  14  am  
 18  10  15  1   
 19  10  16  1   
 20  10  27  1   
 21  11  17  ar  
 22  11  28  1   
 23  12  17  ar  
 24  12  29  1   
 25  14  18  1   
 26  14  19  1   
 27  15  30  1   
 28  15  31  1   
 29  15  32  1   
 30  16  33  1   
 31  16  34  1   
 32  16  35  1   
 33  17  36  1   
 34  18  20  1   
 35  18  37  1   
 36  18  38  1   
 37  19  21  1   
 38  19  39  1   
 39  19  40  1   
 40  20  22  1   
 41  20  41  1   
 42  20  42  1   
 43  21  22  1   
 44  21  43  1   
 45  21  44  1   
@<TRIPOS>SUBSTRUCTURE
  1 ****   1 GROUP 4 **** **** 0

# MOE 2024.06 (io_trps.svl 2023.06)
