@<TRIPOS>MOLECULE
NONAME
40 42 1 0 0 
SMALL
USER_CHARGES


@<TRIPOS>ATOM
  1 F       -1.9560     1.1590    -1.5560 F     1 <1>  -0.1900 
  2 C       -1.1120     2.0160    -1.0430 C.ar  1 <1>   0.1900 
  3 C       -1.3290     2.4690     0.2530 C.ar  1 <1>  -0.1440 
  4 C       -0.0500     2.4390    -1.8250 C.ar  1 <1>  -0.1500 
  5 C       -0.4340     3.3910     0.7800 C.ar  1 <1>  -0.1500 
  6 C       -2.5090     1.9640     1.0600 C.3   1 <1>   0.4870 
  7 C        0.8390     3.3600    -1.2940 C.ar  1 <1>  -0.1500 
  8 C        0.6270     3.8170    -0.0040 C.ar  1 <1>   0.1900 
  9 N       -3.7720     2.4080     0.4120 N.4   1 <1>  -0.9590 
 10 F        1.4580     4.6870     0.4980 F     1 <1>  -0.1900 
 11 C       -3.9040     3.9150     0.3890 C.3   1 <1>   0.3430 
 12 C       -4.9820     1.7630     1.0440 C.3   1 <1>   0.3430 
 13 C       -5.2210     4.3850    -0.2640 C.3   1 <1>   0.2090 
 14 C       -6.3060     2.2210     0.3930 C.3   1 <1>   0.2090 
 15 N       -6.3920     3.7100     0.3670 N.pl3 1 <1>  -0.8380 
 16 C       -7.6410     4.2470     0.0760 C.ar  1 <1>   0.1000 
 17 C       -8.1930     4.1470    -1.2010 C.ar  1 <1>  -0.1500 
 18 C       -8.3540     4.8960     1.0790 C.ar  1 <1>  -0.1500 
 19 C       -9.4380     4.6880    -1.4730 C.ar  1 <1>  -0.1500 
 20 C       -9.6000     5.4410     0.8220 C.ar  1 <1>  -0.1500 
 21 C      -10.1190     5.3250    -0.4540 C.ar  1 <1>   0.1900 
 22 F      -11.2970     5.8380    -0.7060 F     1 <1>  -0.1900 
 23 H        0.0800     2.0570    -2.8230 H     1 <1>   0.1500 
 24 H       -0.5320     3.7830     1.7780 H     1 <1>   0.1500 
 25 H       -2.4560     2.3410     2.0690 H     1 <1>   0.0800 
 26 H       -2.4730     0.8870     1.0970 H     1 <1>   0.0800 
 27 H        1.6790     3.7190    -1.8630 H     1 <1>   0.1500 
 28 H       -3.7200     2.0890    -0.5670 H     1 <1>   0.4500 
 29 H       -3.0760     4.3500    -0.1460 H     1 <1>   0.0800 
 30 H       -3.8810     4.2940     1.3970 H     1 <1>   0.0800 
 31 H       -5.0230     2.0200     2.0890 H     1 <1>   0.0800 
 32 H       -4.9100     0.6910     0.9690 H     1 <1>   0.0800 
 33 H       -5.2040     4.1740    -1.3190 H     1 <1>   0.0800 
 34 H       -5.3200     5.4510    -0.1420 H     1 <1>   0.0800 
 35 H       -7.1360     1.8290     0.9570 H     1 <1>   0.0800 
 36 H       -6.3760     1.8350    -0.6090 H     1 <1>   0.0800 
 37 H       -7.6500     3.6480    -1.9800 H     1 <1>   0.1500 
 38 H       -7.9260     4.9700     2.0610 H     1 <1>   0.1500 
 39 H       -9.8780     4.6200    -2.4520 H     1 <1>   0.1500 
 40 H      -10.1610     5.9450     1.5880 H     1 <1>   0.1500 
@<TRIPOS>BOND
  1   1   2  1   
  2   2   3  ar  
  3   2   4  ar  
  4   3   5  ar  
  5   3   6  1   
  6   4   7  ar  
  7   4  23  1   
  8   5   8  ar  
  9   5  24  1   
 10   6   9  1   
 11   6  25  1   
 12   6  26  1   
 13   7   8  ar  
 14   7  27  1   
 15   8  10  1   
 16   9  11  1   
 17   9  12  1   
 18   9  28  1   
 19  11  13  1   
 20  11  29  1   
 21  11  30  1   
 22  12  14  1   
 23  12  31  1   
 24  12  32  1   
 25  13  15  1   
 26  13  33  1   
 27  13  34  1   
 28  14  15  1   
 29  14  35  1   
 30  14  36  1   
 31  15  16  1   
 32  16  17  ar  
 33  16  18  ar  
 34  17  19  ar  
 35  17  37  1   
 36  18  20  ar  
 37  18  38  1   
 38  19  21  ar  
 39  19  39  1   
 40  20  21  ar  
 41  20  40  1   
 42  21  22  1   
@<TRIPOS>SUBSTRUCTURE
  1 ****  11 GROUP 4 **** **** 0

# MOE 2024.06 (io_trps.svl 2023.06)
