@<TRIPOS>MOLECULE
NONAME
39 40 1 0 0 
SMALL
USER_CHARGES


@<TRIPOS>ATOM
  1 BR      -1.0560     0.0410    -1.5600 Br    1 <1>  -0.1110 
  2 C       -2.6120     0.9340    -0.8580 C.ar  1 <1>   0.1110 
  3 C       -2.6820     1.1850     0.4980 C.ar  1 <1>  -0.1500 
  4 C       -3.6190     1.3010    -1.7280 C.ar  1 <1>  -0.1500 
  5 C       -3.8040     1.8270     0.9960 C.ar  1 <1>  -0.1500 
  6 C       -4.7340     1.9420    -1.2150 C.ar  1 <1>  -0.1500 
  7 C       -4.8430     2.2110     0.1480 C.ar  1 <1>   0.1170 
  8 N       -6.0010     2.8650     0.5930 N.am  1 <1>  -0.5470 
  9 C       -6.5080     3.1330     1.8350 C.2   1 <1>   0.5690 
 10 O       -5.9720     2.8160     2.8700 O.2   1 <1>  -0.5700 
 11 C       -7.8390     3.8830     1.9050 C.3   1 <1>   0.2010 
 12 N       -8.9620     3.1820     1.2020 N.am  1 <1>  -0.7300 
 13 C       -9.1080     3.1100    -0.1450 C.2   1 <1>   0.5690 
 14 O       -8.2970     3.6140    -0.8850 O.2   1 <1>  -0.5700 
 15 C      -10.2940     2.3500    -0.7350 C.3   1 <1>  -0.0190 
 16 C      -11.6430     2.9390    -0.2740 C.3   1 <1>  -0.1600 
 17 C      -10.2150     0.8440    -0.4150 C.3   1 <1>  -0.1600 
 18 C      -12.8260     2.1690    -0.8770 C.3   1 <1>  -0.1600 
 19 C      -11.4020     0.0790    -1.0170 C.3   1 <1>  -0.1600 
 20 C      -12.7390     0.6720    -0.5520 C.3   1 <1>  -0.1600 
 21 H       -1.8800     0.8870     1.1490 H     1 <1>   0.1500 
 22 H       -3.5320     1.0910    -2.7790 H     1 <1>   0.1500 
 23 H       -3.8620     2.0280     2.0490 H     1 <1>   0.1500 
 24 H       -5.5280     2.2360    -1.8770 H     1 <1>   0.1500 
 25 H       -6.6410     3.1550    -0.1610 H     1 <1>   0.3700 
 26 H       -7.7010     4.8540     1.4620 H     1 <1>   0.0800 
 27 H       -8.1020     4.0250     2.9370 H     1 <1>   0.0800 
 28 H       -9.6090     2.6650     1.8010 H     1 <1>   0.3700 
 29 H      -10.2380     2.4620    -1.8040 H     1 <1>   0.0800 
 30 H      -11.7020     3.9720    -0.5700 H     1 <1>   0.0800 
 31 H      -11.7130     2.8990     0.7990 H     1 <1>   0.0800 
 32 H      -10.2090     0.6960     0.6500 H     1 <1>   0.0800 
 33 H       -9.2960     0.4420    -0.8080 H     1 <1>   0.0800 
 34 H      -12.8310     2.3010    -1.9460 H     1 <1>   0.0800 
 35 H      -13.7500     2.5670    -0.4940 H     1 <1>   0.0800 
 36 H      -11.3480    -0.9570    -0.7290 H     1 <1>   0.0800 
 37 H      -11.3480     0.1240    -2.0920 H     1 <1>   0.0800 
 38 H      -13.5490     0.1520    -1.0340 H     1 <1>   0.0800 
 39 H      -12.8430     0.5300     0.5100 H     1 <1>   0.0800 
@<TRIPOS>BOND
  1   1   2  1   
  2   2   3  ar  
  3   2   4  ar  
  4   3   5  ar  
  5   3  21  1   
  6   4   6  ar  
  7   4  22  1   
  8   5   7  ar  
  9   5  23  1   
 10   6   7  ar  
 11   6  24  1   
 12   7   8  1   
 13   8   9  am  
 14   8  25  1   
 15   9  10  2   
 16   9  11  1   
 17  11  12  1   
 18  11  26  1   
 19  11  27  1   
 20  12  13  am  
 21  12  28  1   
 22  13  14  2   
 23  13  15  1   
 24  15  16  1   
 25  15  17  1   
 26  15  29  1   
 27  16  18  1   
 28  16  30  1   
 29  16  31  1   
 30  17  19  1   
 31  17  32  1   
 32  17  33  1   
 33  18  20  1   
 34  18  34  1   
 35  18  35  1   
 36  19  20  1   
 37  19  36  1   
 38  19  37  1   
 39  20  38  1   
 40  20  39  1   
@<TRIPOS>SUBSTRUCTURE
  1 ****   8 GROUP 4 **** **** 0

# MOE 2024.06 (io_trps.svl 2023.06)
