@<TRIPOS>MOLECULE
NONAME
36 37 1 0 0 
SMALL
USER_CHARGES


@<TRIPOS>ATOM
  1 O        0.4140    -0.0530    -0.4860 O.2   1 <1>  -0.5700 
  2 C        0.6910    -1.2200    -0.3660 C.2   1 <1>   0.6300 
  3 N       -0.2260    -2.2260    -0.2670 N.am  1 <1>  -0.5470 
  4 C        2.1580    -1.6220    -0.3420 C.3   1 <1>  -0.1000 
  5 C       -1.6320    -2.2140    -0.2520 C.ar  1 <1>   0.1170 
  6 C        2.6970    -2.6150     0.6500 C.3   1 <1>  -0.2000 
  7 C        3.0540    -1.1670     0.7730 C.3   1 <1>  -0.2000 
  8 C       -2.3070    -3.4050    -0.4930 C.ar  1 <1>  -0.1500 
  9 C       -2.3830    -1.0700     0.0050 C.ar  1 <1>  -0.1500 
 10 C       -3.6890    -3.4520    -0.4830 C.ar  1 <1>  -0.1500 
 11 C       -3.7660    -1.1110     0.0150 C.ar  1 <1>  -0.1500 
 12 C       -4.4300    -2.3100    -0.2310 C.ar  1 <1>   0.0830 
 13 O       -5.7820    -2.4420    -0.2410 O.3   1 <1>  -0.3630 
 14 C       -6.6220    -1.3300    -0.0130 C.3   1 <1>   0.1200 
 15 C       -8.0910    -1.7740    -0.0870 C.3   1 <1>  -0.0800 
 16 C       -9.0180    -0.5610     0.0710 C.3   1 <1>  -0.2400 
 17 C       -8.4250    -2.8230     0.9840 C.3   1 <1>  -0.2400 
 18 H        0.1890    -3.1530    -0.2200 H     1 <1>   0.3700 
 19 H        2.5800    -1.6120    -1.3310 H     1 <1>   0.1000 
 20 H        3.4610    -3.3050     0.3340 H     1 <1>   0.1000 
 21 H        2.0520    -3.0320     1.4050 H     1 <1>   0.1000 
 22 H        2.6180    -0.5830     1.5660 H     1 <1>   0.1000 
 23 H        4.0520    -0.8480     0.5300 H     1 <1>   0.1000 
 24 H       -1.7540    -4.3030    -0.6940 H     1 <1>   0.1500 
 25 H       -1.8910    -0.1360     0.2020 H     1 <1>   0.1500 
 26 H       -4.2070    -4.3750    -0.6720 H     1 <1>   0.1500 
 27 H       -4.3030    -0.2040     0.2160 H     1 <1>   0.1500 
 28 H       -6.4140    -0.5950    -0.7710 H     1 <1>   0.0800 
 29 H       -6.3970    -0.9310     0.9600 H     1 <1>   0.0800 
 30 H       -8.2620    -2.2020    -1.0610 H     1 <1>   0.0800 
 31 H       -8.8790    -0.1000     1.0330 H     1 <1>   0.0800 
 32 H      -10.0460    -0.8650    -0.0190 H     1 <1>   0.0800 
 33 H       -8.8140     0.1670    -0.6940 H     1 <1>   0.0800 
 34 H       -8.2470    -2.4300     1.9690 H     1 <1>   0.0800 
 35 H       -7.8150    -3.6990     0.8510 H     1 <1>   0.0800 
 36 H       -9.4560    -3.1180     0.9100 H     1 <1>   0.0800 
@<TRIPOS>BOND
  1   1   2  2   
  2   2   3  am  
  3   2   4  1   
  4   3   5  1   
  5   3  18  1   
  6   4   6  1   
  7   4   7  1   
  8   4  19  1   
  9   5   8  ar  
 10   5   9  ar  
 11   6   7  1   
 12   6  20  1   
 13   6  21  1   
 14   7  22  1   
 15   7  23  1   
 16   8  10  ar  
 17   8  24  1   
 18   9  11  ar  
 19   9  25  1   
 20  10  12  ar  
 21  10  26  1   
 22  11  12  ar  
 23  11  27  1   
 24  12  13  1   
 25  13  14  1   
 26  14  15  1   
 27  14  28  1   
 28  14  29  1   
 29  15  16  1   
 30  15  17  1   
 31  15  30  1   
 32  16  31  1   
 33  16  32  1   
 34  16  33  1   
 35  17  34  1   
 36  17  35  1   
 37  17  36  1   
@<TRIPOS>SUBSTRUCTURE
  1 ****   9 GROUP 4 **** **** 0

# MOE 2024.06 (io_trps.svl 2023.06)
