@<TRIPOS>MOLECULE
NONAME
46 47 1 0 0 
SMALL
USER_CHARGES


@<TRIPOS>ATOM
  1 CL      -0.4640     0.0560    -0.9080 Cl    1 <1>  -0.1770 
  2 C        0.3710     1.5670    -0.6590 C.ar  1 <1>   0.1770 
  3 C        0.1800     2.2600     0.5210 C.ar  1 <1>  -0.1500 
  4 C        1.2100     2.0480    -1.6460 C.ar  1 <1>  -0.1500 
  5 C        0.8440     3.4600     0.7130 C.ar  1 <1>  -0.1500 
  6 C        1.8710     3.2490    -1.4490 C.ar  1 <1>  -0.1500 
  7 C        1.6890     3.9610    -0.2690 C.ar  1 <1>  -0.1430 
  8 C        2.4030     5.2880    -0.0410 C.3   1 <1>   0.3390 
  9 N        1.4430     6.3900     0.0630 N.am  1 <1>  -0.8490 
 10 S        2.1610     7.8520     0.5380 S.o2  1 <1>   1.3330 
 11 C        0.5050     6.4620    -1.0980 C.3   1 <1>   0.2570 
 12 O        3.3050     7.5160     1.3530 O.2   1 <1>  -0.6500 
 13 O        1.1390     8.7100     1.0850 O.2   1 <1>  -0.6500 
 14 C        2.8040     8.5840    -0.9560 C.3   1 <1>  -0.1350 
 15 C       -0.5230     7.6050    -1.1240 C.2   1 <1>   0.5690 
 16 O       -0.3940     8.4150    -2.0160 O.2   1 <1>  -0.5700 
 17 N       -1.5470     7.6840    -0.2110 N.am  1 <1>  -0.6600 
 18 C       -2.5000     8.8260    -0.2230 C.3   1 <1>   0.1400 
 19 C       -1.6500     6.8250     1.0020 C.3   1 <1>   0.1400 
 20 C       -3.9360     8.3070    -0.0950 C.3   1 <1>  -0.1600 
 21 C       -3.0780     6.2890     1.1400 C.3   1 <1>  -0.1600 
 22 C       -4.1110     7.4270     1.1520 C.3   1 <1>  -0.0800 
 23 C       -5.5350     6.8650     1.2240 C.3   1 <1>  -0.2400 
 24 H       -0.4760     1.8650     1.2740 H     1 <1>   0.1500 
 25 H        1.3410     1.4860    -2.5540 H     1 <1>   0.1500 
 26 H        0.7010     4.0110     1.6280 H     1 <1>   0.1500 
 27 H        2.5260     3.6210    -2.2180 H     1 <1>   0.1500 
 28 H        3.1020     5.4810    -0.8370 H     1 <1>   0.0800 
 29 H        2.9600     5.2010     0.8770 H     1 <1>   0.0800 
 30 H       -0.0620     5.5510    -1.1520 H     1 <1>   0.0800 
 31 H        1.0790     6.5260    -2.0050 H     1 <1>   0.0800 
 32 H        3.4690     7.9060    -1.4530 H     1 <1>   0.0800 
 33 H        3.3480     9.4750    -0.7110 H     1 <1>   0.0800 
 34 H        2.0130     8.8560    -1.6250 H     1 <1>   0.0800 
 35 H       -2.4040     9.3930    -1.1330 H     1 <1>   0.0800 
 36 H       -2.2690     9.4790     0.6020 H     1 <1>   0.0800 
 37 H       -1.3920     7.4170     1.8650 H     1 <1>   0.0800 
 38 H       -0.9670     5.9970     0.9560 H     1 <1>   0.0800 
 39 H       -4.1770     7.7450    -0.9810 H     1 <1>   0.0800 
 40 H       -4.6070     9.1450    -0.0450 H     1 <1>   0.0800 
 41 H       -3.1510     5.7240     2.0520 H     1 <1>   0.0800 
 42 H       -3.2760     5.6200     0.3210 H     1 <1>   0.0800 
 43 H       -3.9390     8.0350     2.0260 H     1 <1>   0.0800 
 44 H       -5.7440     6.2510     0.3650 H     1 <1>   0.0800 
 45 H       -6.2510     7.6670     1.2550 H     1 <1>   0.0800 
 46 H       -5.6560     6.2680     2.1110 H     1 <1>   0.0800 
@<TRIPOS>BOND
  1   1   2  1   
  2   2   3  ar  
  3   2   4  ar  
  4   3   5  ar  
  5   3  24  1   
  6   4   6  ar  
  7   4  25  1   
  8   5   7  ar  
  9   5  26  1   
 10   6   7  ar  
 11   6  27  1   
 12   7   8  1   
 13   8   9  1   
 14   8  28  1   
 15   8  29  1   
 16   9  10  am  
 17   9  11  1   
 18  10  12  2   
 19  10  13  2   
 20  10  14  1   
 21  11  15  1   
 22  11  30  1   
 23  11  31  1   
 24  14  32  1   
 25  14  33  1   
 26  14  34  1   
 27  15  16  2   
 28  15  17  am  
 29  17  18  1   
 30  17  19  1   
 31  18  20  1   
 32  18  35  1   
 33  18  36  1   
 34  19  21  1   
 35  19  37  1   
 36  19  38  1   
 37  20  22  1   
 38  20  39  1   
 39  20  40  1   
 40  21  22  1   
 41  21  41  1   
 42  21  42  1   
 43  22  23  1   
 44  22  43  1   
 45  23  44  1   
 46  23  45  1   
 47  23  46  1   
@<TRIPOS>SUBSTRUCTURE
  1 ****  11 GROUP 4 **** **** 0

# MOE 2024.06 (io_trps.svl 2023.06)
