@<TRIPOS>MOLECULE
NONAME
40 41 1 0 0 
SMALL
USER_CHARGES


@<TRIPOS>ATOM
  1 S        0.0520    -0.0400     0.0020 S.o2  1 <1>   1.3330 
  2 O       -0.3240    -0.7480     1.2060 O.2   1 <1>  -0.6500 
  3 O       -0.3760    -0.5340    -1.2880 O.2   1 <1>  -0.6500 
  4 N        1.7430     0.0570    -0.0280 N.am  1 <1>  -0.8490 
  5 C       -0.4460     1.6790     0.1860 C.3   1 <1>  -0.0550 
  6 C        2.3560    -1.1760     0.4920 C.3   1 <1>   0.1960 
  7 C        2.2760     0.3830    -1.3520 C.3   1 <1>   0.1960 
  8 C       -1.9680     1.8980     0.2520 C.3   1 <1>  -0.2400 
  9 C        3.8760    -1.2320     0.2510 C.3   1 <1>  -0.1600 
 10 C        3.7510     0.7950    -1.2370 C.3   1 <1>  -0.1600 
 11 C        4.4680     0.1600    -0.0260 C.3   1 <1>  -0.0190 
 12 C        5.9810     0.1210    -0.2230 C.2   1 <1>   0.5690 
 13 O        6.4560    -0.6080    -1.0600 O.2   1 <1>  -0.5700 
 14 N        6.7560     0.9190     0.5490 N.am  1 <1>  -0.7300 
 15 C        8.2180     1.0570     0.4090 C.3   1 <1>   0.3200 
 16 C        8.5930     2.5250     0.4860 C.2   1 <1>  -0.1400 
 17 S       10.3000     2.8850     0.6910 S.3   1 <1>  -0.0800 
 18 C        7.8780     3.6670     0.4270 C.2   1 <1>  -0.1500 
 19 C        9.9850     4.6110     0.6960 C.2   1 <1>  -0.1100 
 20 C        8.6700     4.8530     0.5480 C.2   1 <1>  -0.1500 
 21 H       -0.0560     2.2450    -0.6380 H     1 <1>   0.0800 
 22 H       -0.0050     2.0680     1.0830 H     1 <1>   0.0800 
 23 H        1.8940    -2.0380     0.0360 H     1 <1>   0.0800 
 24 H        2.1660    -1.2280     1.5520 H     1 <1>   0.0800 
 25 H        1.7160     1.1880    -1.7990 H     1 <1>   0.0800 
 26 H        2.1830    -0.4780    -1.9960 H     1 <1>   0.0800 
 27 H       -2.4330     1.5370    -0.6490 H     1 <1>   0.0800 
 28 H       -2.1910     2.9440     0.3630 H     1 <1>   0.0800 
 29 H       -2.3820     1.3630     1.0890 H     1 <1>   0.0800 
 30 H        4.0700    -1.8720    -0.5920 H     1 <1>   0.0800 
 31 H        4.3550    -1.6790     1.1040 H     1 <1>   0.0800 
 32 H        3.8180     1.8660    -1.1630 H     1 <1>   0.0800 
 33 H        4.2450     0.5090    -2.1490 H     1 <1>   0.0800 
 34 H        4.2580     0.7680     0.8360 H     1 <1>   0.0800 
 35 H        6.3420     1.5200     1.2600 H     1 <1>   0.3700 
 36 H        8.5500     0.6450    -0.5300 H     1 <1>   0.0800 
 37 H        8.6990     0.5180     1.2080 H     1 <1>   0.0800 
 38 H        6.8130     3.7350     0.2960 H     1 <1>   0.1500 
 39 H       10.8290     5.2680     0.8100 H     1 <1>   0.1500 
 40 H        8.2140     5.8270     0.5170 H     1 <1>   0.1500 
@<TRIPOS>BOND
  1   1   2  2   
  2   1   3  2   
  3   1   4  am  
  4   1   5  1   
  5   4   6  1   
  6   4   7  1   
  7   5   8  1   
  8   5  21  1   
  9   5  22  1   
 10   6   9  1   
 11   6  23  1   
 12   6  24  1   
 13   7  10  1   
 14   7  25  1   
 15   7  26  1   
 16   8  27  1   
 17   8  28  1   
 18   8  29  1   
 19   9  11  1   
 20   9  30  1   
 21   9  31  1   
 22  10  11  1   
 23  10  32  1   
 24  10  33  1   
 25  11  12  1   
 26  11  34  1   
 27  12  13  2   
 28  12  14  am  
 29  14  15  1   
 30  14  35  1   
 31  15  16  1   
 32  15  36  1   
 33  15  37  1   
 34  16  17  1   
 35  16  18  2   
 36  17  19  1   
 37  18  20  1   
 38  18  38  1   
 39  19  20  2   
 40  19  39  1   
 41  20  40  1   
@<TRIPOS>SUBSTRUCTURE
  1 ****  11 GROUP 4 **** **** 0

# MOE 2024.06 (io_trps.svl 2023.06)
