@<TRIPOS>MOLECULE
NONAME
34 34 1 0 0 
SMALL
USER_CHARGES


@<TRIPOS>ATOM
  1 BR      -0.6020    -0.0730     0.8900 Br    1 <1>  -0.1110 
  2 C       -0.3850     1.8250     0.6140 C.ar  1 <1>   0.1110 
  3 C       -1.5070     2.6150     0.3850 C.ar  1 <1>   0.0830 
  4 C        0.8960     2.3410     0.6550 C.ar  1 <1>  -0.1500 
  5 O       -2.7240     2.0070     0.3650 O.3   1 <1>  -0.3630 
  6 C       -1.3240     3.9840     0.1890 C.ar  1 <1>  -0.1500 
  7 C        1.0460     3.7000     0.4570 C.ar  1 <1>   0.1770 
  8 C       -3.9140     2.7200     0.1420 C.3   1 <1>   0.1200 
  9 C       -0.0440     4.5210     0.2260 C.ar  1 <1>  -0.1500 
 10 CL       2.6460     4.3960     0.5000 Cl    1 <1>  -0.1770 
 11 C       -5.0550     1.7000     0.1930 C.3   1 <1>   0.3430 
 12 N       -6.3920     2.3400    -0.0320 N.4   1 <1>  -0.9060 
 13 C       -7.5510     1.4420    -0.0010 C.3   1 <1>   0.5030 
 14 C       -8.7740     2.3180    -0.2530 C.3   1 <1>  -0.2400 
 15 C       -7.6600     0.7820     1.3720 C.3   1 <1>  -0.2400 
 16 C       -7.4260     0.3960    -1.1080 C.3   1 <1>  -0.2400 
 17 H        1.7470     1.7100     0.8340 H     1 <1>   0.1500 
 18 H       -2.1490     4.6460     0.0080 H     1 <1>   0.1500 
 19 H       -3.8480     3.1830    -0.8270 H     1 <1>   0.0800 
 20 H       -4.0130     3.4550     0.9210 H     1 <1>   0.0800 
 21 H        0.1150     5.5750     0.0770 H     1 <1>   0.1500 
 22 H       -5.0390     1.2200     1.1580 H     1 <1>   0.0800 
 23 H       -4.8770     0.9520    -0.5620 H     1 <1>   0.0800 
 24 H       -6.4040     2.8070    -0.9440 H     1 <1>   0.4500 
 25 H       -6.5570     3.0590     0.6790 H     1 <1>   0.4500 
 26 H       -8.7200     2.7980    -1.2140 H     1 <1>   0.0800 
 27 H       -8.8830     3.0660     0.5120 H     1 <1>   0.0800 
 28 H       -9.6640     1.7130    -0.2420 H     1 <1>   0.0800 
 29 H       -7.6950     1.5160     2.1570 H     1 <1>   0.0800 
 30 H       -6.8440     0.1050     1.5540 H     1 <1>   0.0800 
 31 H       -8.5660     0.2040     1.4240 H     1 <1>   0.0800 
 32 H       -7.2980     0.8590    -2.0700 H     1 <1>   0.0800 
 33 H       -8.3250    -0.1960    -1.1480 H     1 <1>   0.0800 
 34 H       -6.6110    -0.2810    -0.9260 H     1 <1>   0.0800 
@<TRIPOS>BOND
  1   1   2  1   
  2   2   3  ar  
  3   2   4  ar  
  4   3   5  1   
  5   3   6  ar  
  6   4   7  ar  
  7   4  17  1   
  8   5   8  1   
  9   6   9  ar  
 10   6  18  1   
 11   7   9  ar  
 12   7  10  1   
 13   8  11  1   
 14   8  19  1   
 15   8  20  1   
 16   9  21  1   
 17  11  12  1   
 18  11  22  1   
 19  11  23  1   
 20  12  13  1   
 21  12  24  1   
 22  12  25  1   
 23  13  14  1   
 24  13  15  1   
 25  13  16  1   
 26  14  26  1   
 27  14  27  1   
 28  14  28  1   
 29  15  29  1   
 30  15  30  1   
 31  15  31  1   
 32  16  32  1   
 33  16  33  1   
 34  16  34  1   
@<TRIPOS>SUBSTRUCTURE
  1 ****   5 GROUP 4 **** **** 0

# MOE 2024.06 (io_trps.svl 2023.06)
