@<TRIPOS>MOLECULE
NONAME
44 46 1 0 0 
SMALL
USER_CHARGES


@<TRIPOS>ATOM
  1 S        0.2580     0.2910    -0.9990 S.o2  1 <1>   1.4470 
  2 O        0.0930     0.8430    -2.3280 O.2   1 <1>  -0.6500 
  3 O       -0.4950    -0.8850    -0.6210 O.2   1 <1>  -0.6500 
  4 N       -0.1510     1.5210     0.0940 N.am  1 <1>  -0.8490 
  5 C        2.0140     0.0010    -0.6500 C.ar  1 <1>  -0.0090 
  6 C        0.4630     2.8040    -0.2690 C.3   1 <1>   0.1960 
  7 C       -1.6050     1.6550     0.2210 C.3   1 <1>   0.1960 
  8 C        2.4380    -0.3530     0.6250 C.ar  1 <1>  -0.1500 
  9 C        2.9840     0.1270    -1.6380 C.ar  1 <1>  -0.1500 
 10 C        0.1980     3.8460     0.8220 C.3   1 <1>  -0.1600 
 11 C       -1.9550     2.6640     1.3210 C.3   1 <1>  -0.1600 
 12 C        3.7760    -0.5690     0.9050 C.ar  1 <1>  -0.1500 
 13 C        4.3230    -0.0870    -1.3620 C.ar  1 <1>  -0.1500 
 14 C       -1.3050     4.0280     1.0620 C.3   1 <1>  -0.1600 
 15 C        4.7420    -0.4360    -0.0830 C.ar  1 <1>   0.1170 
 16 N        6.0830    -0.6730     0.2460 N.am  1 <1>  -0.5470 
 17 C        7.2430    -0.2880    -0.3640 C.2   1 <1>   0.6300 
 18 O        7.2940     0.4070    -1.3480 O.2   1 <1>  -0.5700 
 19 C        8.5440    -0.7570     0.2710 C.3   1 <1>  -0.1000 
 20 C        9.4140    -1.7610    -0.4230 C.3   1 <1>  -0.1950 
 21 C        8.7010    -2.1510     0.8300 C.3   1 <1>  -0.2000 
 22 C       10.9350    -1.6050    -0.4350 C.3   1 <1>  -0.1450 
 23 H        0.0650     3.1510    -1.2090 H     1 <1>   0.0800 
 24 H        1.5280     2.6810    -0.3810 H     1 <1>   0.0800 
 25 H       -2.0380     0.7020     0.4800 H     1 <1>   0.0800 
 26 H       -2.0270     1.9700    -0.7200 H     1 <1>   0.0800 
 27 H        1.7030    -0.4580     1.4070 H     1 <1>   0.1500 
 28 H        2.6890     0.3970    -2.6380 H     1 <1>   0.1500 
 29 H        0.6340     4.7860     0.5310 H     1 <1>   0.0800 
 30 H        0.6770     3.5270     1.7310 H     1 <1>   0.0800 
 31 H       -1.6160     2.2740     2.2650 H     1 <1>   0.0800 
 32 H       -3.0230     2.7750     1.3750 H     1 <1>   0.0800 
 33 H        4.0670    -0.8390     1.9040 H     1 <1>   0.1500 
 34 H        5.0410     0.0160    -2.1560 H     1 <1>   0.1500 
 35 H       -1.7550     4.4790     0.1930 H     1 <1>   0.0800 
 36 H       -1.4690     4.6810     1.9020 H     1 <1>   0.0800 
 37 H        6.2310    -1.2050     1.1000 H     1 <1>   0.3700 
 38 H        9.0420     0.0500     0.7770 H     1 <1>   0.1000 
 39 H        9.0380    -2.1600    -1.3520 H     1 <1>   0.1000 
 40 H        7.9080    -2.8730     0.7370 H     1 <1>   0.1000 
 41 H        9.2720    -2.2830     1.7330 H     1 <1>   0.1000 
 42 H       11.2870    -1.2000     0.4970 H     1 <1>   0.0800 
 43 H       11.2270    -0.9420    -1.2310 H     1 <1>   0.0800 
 44 H       11.4010    -2.5610    -0.5940 H     1 <1>   0.0800 
@<TRIPOS>BOND
  1   1   2  2   
  2   1   3  2   
  3   1   4  am  
  4   1   5  1   
  5   4   6  1   
  6   4   7  1   
  7   5   8  ar  
  8   5   9  ar  
  9   6  10  1   
 10   6  23  1   
 11   6  24  1   
 12   7  11  1   
 13   7  25  1   
 14   7  26  1   
 15   8  12  ar  
 16   8  27  1   
 17   9  13  ar  
 18   9  28  1   
 19  10  14  1   
 20  10  29  1   
 21  10  30  1   
 22  11  14  1   
 23  11  31  1   
 24  11  32  1   
 25  12  15  ar  
 26  12  33  1   
 27  13  15  ar  
 28  13  34  1   
 29  14  35  1   
 30  14  36  1   
 31  15  16  1   
 32  16  17  am  
 33  16  37  1   
 34  17  18  2   
 35  17  19  1   
 36  19  20  1   
 37  19  21  1   
 38  19  38  1   
 39  20  21  1   
 40  20  22  1   
 41  20  39  1   
 42  21  40  1   
 43  21  41  1   
 44  22  42  1   
 45  22  43  1   
 46  22  44  1   
@<TRIPOS>SUBSTRUCTURE
  1 ****   8 GROUP 4 **** **** 0

# MOE 2024.06 (io_trps.svl 2023.06)
