@<TRIPOS>MOLECULE
NONAME
44 47 1 0 0 
SMALL
USER_CHARGES


@<TRIPOS>ATOM
  1 CL       0.9970    -0.3740    -2.9070 Cl    1 <1>  -0.1230 
  2 C        1.0670     0.8650    -1.6620 C.2   1 <1>   0.1230 
  3 C        2.1970     1.2630    -1.0300 C.2   1 <1>  -0.0260 
  4 C       -0.0030     1.5830    -1.1360 C.2   1 <1>   0.2030 
  5 N        3.5090     0.8720    -1.1690 N.2   1 <1>  -0.5760 
  6 N        1.7750     2.2130    -0.1310 N.pl3 1 <1>   0.6010 
  7 N        0.4440     2.4050    -0.1860 N.2   1 <1>  -0.7070 
  8 C       -1.3860     1.4330    -1.5800 C.2   1 <1>   0.7160 
  9 C        4.4000     1.4400    -0.4070 C.2   1 <1>   0.3490 
 10 C        2.7050     2.8040     0.6910 C.2   1 <1>  -0.1690 
 11 O       -1.6260     1.1700    -2.7460 O.2   1 <1>  -0.5700 
 12 N       -2.4660     1.5750    -0.7280 N.am  1 <1>  -0.6600 
 13 C        5.7970     1.0720    -0.5190 C.ar  1 <1>   0.0860 
 14 C        4.0060     2.4220     0.5580 C.2   1 <1>  -0.1360 
 15 C        2.1630     3.8230     1.6690 C.3   1 <1>   1.1580 
 16 C       -2.3960     1.8870     0.7180 C.3   1 <1>   0.1400 
 17 C       -3.8590     1.3140    -1.1470 C.3   1 <1>   0.1400 
 18 C        6.8180     2.0230    -0.4730 C.ar  1 <1>  -0.1500 
 19 C        6.1740    -0.2610    -0.6770 C.ar  1 <1>  -0.1500 
 20 F        3.1330     4.3290     2.4200 F     1 <1>  -0.3400 
 21 F        1.5890     4.8620     1.0780 F     1 <1>  -0.3400 
 22 F        1.2800     3.3140     2.5180 F     1 <1>  -0.3400 
 23 C       -3.8480     1.9400     1.1820 C.3   1 <1>  -0.1600 
 24 C       -4.6210     1.1150     0.1570 C.3   1 <1>  -0.1600 
 25 C        8.1490     1.6580    -0.5620 C.ar  1 <1>  -0.1500 
 26 C        7.5040    -0.6310    -0.7670 C.ar  1 <1>  -0.1500 
 27 C        8.5010     0.3270    -0.7080 C.ar  1 <1>  -0.1430 
 28 C        9.9610    -0.0780    -0.8040 C.3   1 <1>  -0.0970 
 29 H        4.7820     2.8360     1.1780 H     1 <1>   0.1500 
 30 H       -1.9040     2.8310     0.8850 H     1 <1>   0.0800 
 31 H       -1.8620     1.1020     1.2260 H     1 <1>   0.0800 
 32 H       -3.9190     0.4440    -1.7800 H     1 <1>   0.0800 
 33 H       -4.2310     2.1730    -1.6780 H     1 <1>   0.0800 
 34 H        6.5750     3.0660    -0.3750 H     1 <1>   0.1500 
 35 H        5.4100    -1.0170    -0.7320 H     1 <1>   0.1500 
 36 H       -4.1830     2.9620     1.1550 H     1 <1>   0.0800 
 37 H       -3.9610     1.5630     2.1830 H     1 <1>   0.0800 
 38 H       -4.5870     0.0730     0.4250 H     1 <1>   0.0800 
 39 H       -5.6480     1.4210     0.0710 H     1 <1>   0.0800 
 40 H        8.9140     2.4140    -0.5190 H     1 <1>   0.1500 
 41 H        7.7590    -1.6700    -0.8860 H     1 <1>   0.1500 
 42 H       10.5430     0.7120    -1.2430 H     1 <1>   0.0800 
 43 H       10.0680    -0.9560    -1.4140 H     1 <1>   0.0800 
 44 H       10.3450    -0.2880     0.1780 H     1 <1>   0.0800 
@<TRIPOS>BOND
  1   1   2  1   
  2   2   3  2   
  3   2   4  1   
  4   3   5  1   
  5   3   6  1   
  6   4   7  2   
  7   4   8  1   
  8   5   9  2   
  9   6   7  1   
 10   6  10  1   
 11   8  11  2   
 12   8  12  am  
 13   9  13  1   
 14   9  14  1   
 15  10  14  2   
 16  10  15  1   
 17  12  16  1   
 18  12  17  1   
 19  13  18  ar  
 20  13  19  ar  
 21  14  29  1   
 22  15  20  1   
 23  15  21  1   
 24  15  22  1   
 25  16  23  1   
 26  16  30  1   
 27  16  31  1   
 28  17  24  1   
 29  17  32  1   
 30  17  33  1   
 31  18  25  ar  
 32  18  34  1   
 33  19  26  ar  
 34  19  35  1   
 35  23  24  1   
 36  23  36  1   
 37  23  37  1   
 38  24  38  1   
 39  24  39  1   
 40  25  27  ar  
 41  25  40  1   
 42  26  27  ar  
 43  26  41  1   
 44  27  28  1   
 45  28  42  1   
 46  28  43  1   
 47  28  44  1   
@<TRIPOS>SUBSTRUCTURE
  1 ****   6 GROUP 4 **** **** 0

# MOE 2024.06 (io_trps.svl 2023.06)
