@<TRIPOS>MOLECULE
NONAME
51 53 1 0 0 
SMALL
USER_CHARGES


@<TRIPOS>ATOM
  1 O       -1.4840     4.7040     1.7570 O.2   1 <1>  -0.5700 
  2 C       -1.3560     4.2510     0.6480 C.2   1 <1>   0.6590 
  3 O       -0.3160     3.4680     0.3610 O.3   1 <1>  -0.4300 
  4 C       -2.3030     4.5710    -0.5330 C.3   1 <1>   0.2050 
  5 C        0.7560     3.2180     1.2460 C.3   1 <1>   0.2000 
  6 C       -3.2010     3.3610    -0.8850 C.ar  1 <1>  -0.1440 
  7 C       -1.4040     4.8720    -1.7650 C.3   1 <1>   0.1200 
  8 C       -3.1960     5.8160    -0.2500 C.3   1 <1>  -0.1600 
  9 C        1.6010     4.5470     1.3600 C.3   1 <1>  -0.1600 
 10 C        1.5580     2.0490     0.5750 C.3   1 <1>  -0.1600 
 11 C       -3.3250     2.2640    -0.0370 C.ar  1 <1>  -0.1500 
 12 C       -3.9270     3.3520    -2.0730 C.ar  1 <1>  -0.1500 
 13 O       -0.3800     5.7840    -1.4840 O.3   1 <1>  -0.6800 
 14 C       -4.3460     5.5880     0.7490 C.3   1 <1>  -0.2400 
 15 C        2.4990     4.8530     0.1130 C.3   1 <1>   0.4230 
 16 C        2.8040     2.6290    -0.0980 C.3   1 <1>   0.4230 
 17 C       -4.1250     1.1870    -0.3770 C.ar  1 <1>  -0.1500 
 18 C       -4.7270     2.2760    -2.4150 C.ar  1 <1>  -0.1500 
 19 N        2.2010     3.7790    -0.8230 N.4   1 <1>  -0.9590 
 20 C        4.0160     4.6190     0.3240 C.3   1 <1>  -0.1600 
 21 C        4.2420     3.1260    -0.0450 C.3   1 <1>  -0.1600 
 22 C       -4.8240     1.1890    -1.5680 C.ar  1 <1>  -0.1500 
 23 C        2.5930     4.0260    -2.2470 C.3   1 <1>   0.2630 
 24 H        0.3390     2.9210     2.1960 H     1 <1>   0.0800 
 25 H       -1.9820     5.2710    -2.5810 H     1 <1>   0.0800 
 26 H       -0.9410     3.9610    -2.1020 H     1 <1>   0.0800 
 27 H       -3.6360     6.1540    -1.1720 H     1 <1>   0.0800 
 28 H       -2.5790     6.6160     0.1210 H     1 <1>   0.0800 
 29 H        2.2250     4.4730     2.2320 H     1 <1>   0.0800 
 30 H        0.9600     5.3900     1.5430 H     1 <1>   0.0800 
 31 H        0.9550     1.5030    -0.1290 H     1 <1>   0.0800 
 32 H        1.8730     1.3510     1.3330 H     1 <1>   0.0800 
 33 H       -2.8160     2.2170     0.9100 H     1 <1>   0.1500 
 34 H       -3.8920     4.1840    -2.7530 H     1 <1>   0.1500 
 35 H       -0.7510     6.6880    -1.3780 H     1 <1>   0.4000 
 36 H       -4.8820     6.5080     0.9040 H     1 <1>   0.0800 
 37 H       -3.9760     5.2540     1.7020 H     1 <1>   0.0800 
 38 H       -5.0420     4.8570     0.3770 H     1 <1>   0.0800 
 39 H        2.2780     5.8250    -0.3030 H     1 <1>   0.0800 
 40 H        2.9460     2.8640     0.9410 H     1 <1>   0.0800 
 41 H       -4.2080     0.3460     0.2900 H     1 <1>   0.1500 
 42 H       -5.2780     2.2850    -3.3390 H     1 <1>   0.1500 
 43 H        1.1720     3.6760    -0.7980 H     1 <1>   0.4500 
 44 H        4.3060     4.8330     1.3390 H     1 <1>   0.0800 
 45 H        4.5860     5.2580    -0.3270 H     1 <1>   0.0800 
 46 H        4.7360     3.0070    -0.9930 H     1 <1>   0.0800 
 47 H        4.8140     2.6060     0.7050 H     1 <1>   0.0800 
 48 H       -5.4460     0.3510    -1.8320 H     1 <1>   0.1500 
 49 H        3.6430     4.2520    -2.3230 H     1 <1>   0.0800 
 50 H        2.0320     4.8590    -2.6410 H     1 <1>   0.0800 
 51 H        2.3800     3.1560    -2.8460 H     1 <1>   0.0800 
@<TRIPOS>BOND
  1   1   2  2   
  2   2   3  1   
  3   2   4  1   
  4   3   5  1   
  5   4   6  1   
  6   4   7  1   
  7   4   8  1   
  8   5   9  1   
  9   5  10  1   
 10   5  24  1   
 11   6  11  ar  
 12   6  12  ar  
 13   7  13  1   
 14   7  25  1   
 15   7  26  1   
 16   8  14  1   
 17   8  27  1   
 18   8  28  1   
 19   9  15  1   
 20   9  29  1   
 21   9  30  1   
 22  10  16  1   
 23  10  31  1   
 24  10  32  1   
 25  11  17  ar  
 26  11  33  1   
 27  12  18  ar  
 28  12  34  1   
 29  13  35  1   
 30  14  36  1   
 31  14  37  1   
 32  14  38  1   
 33  15  19  1   
 34  15  20  1   
 35  15  39  1   
 36  16  19  1   
 37  16  21  1   
 38  16  40  1   
 39  17  22  ar  
 40  17  41  1   
 41  18  22  ar  
 42  18  42  1   
 43  19  23  1   
 44  19  43  1   
 45  20  21  1   
 46  20  44  1   
 47  20  45  1   
 48  21  46  1   
 49  21  47  1   
 50  22  48  1   
 51  23  49  1   
 52  23  50  1   
 53  23  51  1   
@<TRIPOS>SUBSTRUCTURE
  1 ****   3 GROUP 4 **** **** 0

# MOE 2024.06 (io_trps.svl 2023.06)
