@<TRIPOS>MOLECULE
NONAME
30 31 1 0 0 
SMALL
USER_CHARGES


@<TRIPOS>ATOM
  1 CL      -1.1530     0.0760     0.1330 Cl    1 <1>  -0.1770 
  2 C        0.4160    -0.6940     0.1050 C.ar  1 <1>   0.1770 
  3 C        0.5250    -2.0550    -0.1380 C.ar  1 <1>  -0.1440 
  4 C        1.5310     0.0990     0.3280 C.ar  1 <1>  -0.1500 
  5 C        1.8060    -2.5870    -0.1490 C.ar  1 <1>   0.1900 
  6 C       -0.6980    -2.9240    -0.3790 C.3   1 <1>   0.2140 
  7 C        2.7980    -0.4650     0.3120 C.ar  1 <1>  -0.1500 
  8 F        1.9700    -3.8630    -0.3790 F     1 <1>  -0.1900 
  9 C        2.9380    -1.8210     0.0710 C.ar  1 <1>  -0.1500 
 10 S       -1.4180    -3.3290     1.2400 S.3   1 <1>  -0.4600 
 11 C       -2.7830    -4.4680     0.8160 C.3   1 <1>   0.1310 
 12 C       -3.8350    -3.7840    -0.0440 C.2   1 <1>   0.5690 
 13 O       -4.3730    -4.4290    -0.9120 O.2   1 <1>  -0.5700 
 14 N       -4.1270    -2.4750     0.1870 N.am  1 <1>  -0.5790 
 15 C       -5.1370    -1.6810    -0.5250 C.3   1 <1>   0.0490 
 16 C       -4.8860    -0.2230    -0.7160 C.3   1 <1>  -0.2000 
 17 C       -5.9260    -0.6870     0.2600 C.3   1 <1>  -0.2000 
 18 H        1.4040     1.1510     0.5150 H     1 <1>   0.1500 
 19 H       -0.4480    -3.8520    -0.8620 H     1 <1>   0.0800 
 20 H       -1.4460    -2.4090    -0.9550 H     1 <1>   0.0800 
 21 H        3.6660     0.1480     0.4870 H     1 <1>   0.1500 
 22 H        3.9090    -2.2830     0.0530 H     1 <1>   0.1500 
 23 H       -3.2190    -4.8020     1.7400 H     1 <1>   0.0800 
 24 H       -2.3550    -5.3040     0.2940 H     1 <1>   0.0800 
 25 H       -3.5790    -1.9690     0.8890 H     1 <1>   0.3700 
 26 H       -5.6340    -2.2290    -1.3110 H     1 <1>   0.1000 
 27 H       -5.2160     0.2420    -1.6280 H     1 <1>   0.1000 
 28 H       -3.9790     0.2100    -0.3360 H     1 <1>   0.1000 
 29 H       -5.7360    -0.5870     1.3140 H     1 <1>   0.1000 
 30 H       -6.9620    -0.5370     0.0090 H     1 <1>   0.1000 
@<TRIPOS>BOND
  1   1   2  1   
  2   2   3  ar  
  3   2   4  ar  
  4   3   5  ar  
  5   3   6  1   
  6   4   7  ar  
  7   4  18  1   
  8   5   8  1   
  9   5   9  ar  
 10   6  10  1   
 11   6  19  1   
 12   6  20  1   
 13   7   9  ar  
 14   7  21  1   
 15   9  22  1   
 16  10  11  1   
 17  11  12  1   
 18  11  23  1   
 19  11  24  1   
 20  12  13  2   
 21  12  14  am  
 22  14  15  1   
 23  14  25  1   
 24  15  16  1   
 25  15  17  1   
 26  15  26  1   
 27  16  17  1   
 28  16  27  1   
 29  16  28  1   
 30  17  29  1   
 31  17  30  1   
@<TRIPOS>SUBSTRUCTURE
  1 ****   6 GROUP 4 **** **** 0

# MOE 2024.06 (io_trps.svl 2023.06)
