@<TRIPOS>MOLECULE
NONAME
47 49 1 0 0 
SMALL
USER_CHARGES


@<TRIPOS>ATOM
  1 O        0.1720    -0.9190    -1.1530 O.2   1 <1>  -0.5700 
  2 C        0.1980    -1.8070    -0.3310 C.2   1 <1>   0.5690 
  3 N        1.3830    -2.4200     0.0050 N.am  1 <1>  -0.6600 
  4 C       -1.1300    -2.2340     0.3130 C.3   1 <1>  -0.0190 
  5 C        2.6820    -1.9740    -0.5950 C.3   1 <1>   0.1400 
  6 C        1.5460    -3.6290     0.8770 C.3   1 <1>   0.1400 
  7 C       -1.7430    -3.4360    -0.4330 C.3   1 <1>  -0.1600 
  8 C       -2.1580    -1.0840     0.3880 C.3   1 <1>  -0.1600 
  9 C        3.3710    -3.1110    -1.3690 C.3   1 <1>   0.2090 
 10 C        2.2220    -4.7870     0.1210 C.3   1 <1>   0.2090 
 11 C       -3.0540    -3.8990     0.2190 C.3   1 <1>  -0.1600 
 12 C       -3.4680    -1.5390     1.0450 C.3   1 <1>  -0.1600 
 13 N        3.4770    -4.3660    -0.5640 N.pl3 1 <1>  -0.8380 
 14 C       -4.0630    -2.7470     0.3100 C.3   1 <1>  -0.1600 
 15 C        4.6960    -4.6680     0.0430 C.ar  1 <1>   0.1000 
 16 C        5.4990    -5.7020    -0.4400 C.ar  1 <1>  -0.1440 
 17 C        5.1290    -3.9420     1.1480 C.ar  1 <1>  -0.1500 
 18 C        6.7040    -5.9900     0.1810 C.ar  1 <1>  -0.1500 
 19 C        5.0600    -6.5170    -1.6490 C.3   1 <1>  -0.0970 
 20 C        6.3310    -4.2330     1.7640 C.ar  1 <1>  -0.1500 
 21 C        7.1220    -5.2590     1.2800 C.ar  1 <1>  -0.1500 
 22 H       -0.9290    -2.5190     1.3280 H     1 <1>   0.0800 
 23 H        3.3340    -1.6380     0.1900 H     1 <1>   0.0800 
 24 H        2.5300    -1.1440    -1.2630 H     1 <1>   0.0800 
 25 H        0.6030    -3.9760     1.2510 H     1 <1>   0.0800 
 26 H        2.1540    -3.3670     1.7250 H     1 <1>   0.0800 
 27 H       -1.0450    -4.2540    -0.4500 H     1 <1>   0.0800 
 28 H       -1.9340    -3.1520    -1.4540 H     1 <1>   0.0800 
 29 H       -2.3690    -0.7270    -0.6070 H     1 <1>   0.0800 
 30 H       -1.7400    -0.2640     0.9450 H     1 <1>   0.0800 
 31 H        4.3550    -2.7940    -1.6680 H     1 <1>   0.0800 
 32 H        2.8080    -3.3180    -2.2620 H     1 <1>   0.0800 
 33 H        1.5400    -5.1730    -0.6170 H     1 <1>   0.0800 
 34 H        2.4430    -5.5830     0.8100 H     1 <1>   0.0800 
 35 H       -2.8510    -4.2740     1.2070 H     1 <1>   0.0800 
 36 H       -3.4790    -4.7020    -0.3580 H     1 <1>   0.0800 
 37 H       -4.1760    -0.7280     1.0350 H     1 <1>   0.0800 
 38 H       -3.2820    -1.8010     2.0730 H     1 <1>   0.0800 
 39 H       -4.9480    -3.0820     0.8230 H     1 <1>   0.0800 
 40 H       -4.3520    -2.4490    -0.6830 H     1 <1>   0.0800 
 41 H        4.5180    -3.1470     1.5240 H     1 <1>   0.1500 
 42 H        7.3260    -6.7860    -0.1880 H     1 <1>   0.1500 
 43 H        4.9220    -5.8650    -2.4920 H     1 <1>   0.0800 
 44 H        4.1270    -7.0040    -1.4350 H     1 <1>   0.0800 
 45 H        5.7900    -7.2620    -1.9040 H     1 <1>   0.0800 
 46 H        6.6530    -3.6630     2.6170 H     1 <1>   0.1500 
 47 H        8.0590    -5.4900     1.7550 H     1 <1>   0.1500 
@<TRIPOS>BOND
  1   1   2  2   
  2   2   3  am  
  3   2   4  1   
  4   3   5  1   
  5   3   6  1   
  6   4   7  1   
  7   4   8  1   
  8   4  22  1   
  9   5   9  1   
 10   5  23  1   
 11   5  24  1   
 12   6  10  1   
 13   6  25  1   
 14   6  26  1   
 15   7  11  1   
 16   7  27  1   
 17   7  28  1   
 18   8  12  1   
 19   8  29  1   
 20   8  30  1   
 21   9  13  1   
 22   9  31  1   
 23   9  32  1   
 24  10  13  1   
 25  10  33  1   
 26  10  34  1   
 27  11  14  1   
 28  11  35  1   
 29  11  36  1   
 30  12  14  1   
 31  12  37  1   
 32  12  38  1   
 33  13  15  1   
 34  14  39  1   
 35  14  40  1   
 36  15  16  ar  
 37  15  17  ar  
 38  16  18  ar  
 39  16  19  1   
 40  17  20  ar  
 41  17  41  1   
 42  18  21  ar  
 43  18  42  1   
 44  19  43  1   
 45  19  44  1   
 46  19  45  1   
 47  20  21  ar  
 48  20  46  1   
 49  21  47  1   
@<TRIPOS>SUBSTRUCTURE
  1 ****   6 GROUP 4 **** **** 0

# MOE 2024.06 (io_trps.svl 2023.06)
