@<TRIPOS>MOLECULE
NONAME
43 44 1 0 0 
SMALL
USER_CHARGES


@<TRIPOS>ATOM
  1 O        1.1770     0.6790     1.1110 O.3   1 <1>  -0.6800 
  2 C        2.3450    -0.0600     1.2000 C.3   1 <1>   0.1200 
  3 C        2.9790    -0.1230    -0.1930 C.3   1 <1>   0.1100 
  4 N        4.2380    -0.9030    -0.1970 N.3   1 <1>  -0.8100 
  5 C        3.9890    -2.3650    -0.1140 C.3   1 <1>   0.1100 
  6 C        5.0330    -0.5920    -1.4090 C.3   1 <1>   0.1100 
  7 C        5.2920    -3.1990    -0.2100 C.3   1 <1>   0.3430 
  8 C        6.3670    -1.3760    -1.4650 C.3   1 <1>   0.3430 
  9 N        6.5010    -2.3160    -0.3000 N.4   1 <1>  -0.9590 
 10 C        7.7780    -3.0760    -0.2500 C.3   1 <1>   0.3430 
 11 C        8.9580    -2.1310    -0.0300 C.3   1 <1>  -0.1600 
 12 C       10.2640    -2.9110     0.1600 C.3   1 <1>  -0.0170 
 13 C       11.4170    -1.9390     0.3400 C.ar  1 <1>  -0.1440 
 14 C       12.1470    -1.5080    -0.7570 C.ar  1 <1>  -0.1500 
 15 C       11.7460    -1.4710     1.6030 C.ar  1 <1>  -0.1500 
 16 C       13.1920    -0.6160    -0.5940 C.ar  1 <1>  -0.1500 
 17 C       12.7910    -0.5790     1.7670 C.ar  1 <1>  -0.1500 
 18 C       13.5150    -0.1500     0.6680 C.ar  1 <1>  -0.1500 
 19 H        0.7640     0.7910     1.9910 H     1 <1>   0.4000 
 20 H        2.0890    -1.0400     1.5600 H     1 <1>   0.0800 
 21 H        3.0060     0.4330     1.8920 H     1 <1>   0.0800 
 22 H        3.1880     0.8900    -0.4960 H     1 <1>   0.0800 
 23 H        2.2770    -0.5470    -0.8920 H     1 <1>   0.0800 
 24 H        3.3210    -2.6690    -0.9030 H     1 <1>   0.0800 
 25 H        3.5070    -2.5960     0.8200 H     1 <1>   0.0800 
 26 H        5.2540     0.4630    -1.4290 H     1 <1>   0.0800 
 27 H        4.4560    -0.8150    -2.2910 H     1 <1>   0.0800 
 28 H        5.2380    -3.8370    -1.0770 H     1 <1>   0.0800 
 29 H        5.3630    -3.8330     0.6590 H     1 <1>   0.0800 
 30 H        7.1790    -0.6680    -1.4600 H     1 <1>   0.0800 
 31 H        6.4170    -1.9230    -2.3920 H     1 <1>   0.0800 
 32 H        6.4180    -1.6990     0.5230 H     1 <1>   0.4500 
 33 H        7.9160    -3.6280    -1.1660 H     1 <1>   0.0800 
 34 H        7.7420    -3.7810     0.5650 H     1 <1>   0.0800 
 35 H        8.7870    -1.5310     0.8480 H     1 <1>   0.0800 
 36 H        9.0770    -1.4780    -0.8760 H     1 <1>   0.0800 
 37 H       10.4560    -3.5350    -0.6960 H     1 <1>   0.0800 
 38 H       10.1990    -3.5490     1.0240 H     1 <1>   0.0800 
 39 H       11.9110    -1.8620    -1.7450 H     1 <1>   0.1500 
 40 H       11.1950    -1.7960     2.4670 H     1 <1>   0.1500 
 41 H       13.7570    -0.2840    -1.4480 H     1 <1>   0.1500 
 42 H       13.0440    -0.2180     2.7490 H     1 <1>   0.1500 
 43 H       14.3280     0.5430     0.7960 H     1 <1>   0.1500 
@<TRIPOS>BOND
  1   1   2  1   
  2   1  19  1   
  3   2   3  1   
  4   2  20  1   
  5   2  21  1   
  6   3   4  1   
  7   3  22  1   
  8   3  23  1   
  9   4   5  1   
 10   4   6  1   
 11   5   7  1   
 12   5  24  1   
 13   5  25  1   
 14   6   8  1   
 15   6  26  1   
 16   6  27  1   
 17   7   9  1   
 18   7  28  1   
 19   7  29  1   
 20   8   9  1   
 21   8  30  1   
 22   8  31  1   
 23   9  10  1   
 24   9  32  1   
 25  10  11  1   
 26  10  33  1   
 27  10  34  1   
 28  11  12  1   
 29  11  35  1   
 30  11  36  1   
 31  12  13  1   
 32  12  37  1   
 33  12  38  1   
 34  13  14  ar  
 35  13  15  ar  
 36  14  16  ar  
 37  14  39  1   
 38  15  17  ar  
 39  15  40  1   
 40  16  18  ar  
 41  16  41  1   
 42  17  18  ar  
 43  17  42  1   
 44  18  43  1   
@<TRIPOS>SUBSTRUCTURE
  1 ****  11 GROUP 4 **** **** 0

# MOE 2024.06 (io_trps.svl 2023.06)
