@<TRIPOS>MOLECULE
NONAME
39 41 1 0 0 
SMALL
USER_CHARGES


@<TRIPOS>ATOM
  1 O       -0.1420     1.0720    -1.9760 O.2   1 <1>  -0.5700 
  2 C       -0.0820     1.7610    -0.9730 C.2   1 <1>   0.5440 
  3 N        1.1310     1.9060    -0.3240 N.am  1 <1>  -0.6600 
  4 C       -1.2750     2.4580    -0.5400 C.ar  1 <1>   0.0860 
  5 C        1.2630     2.6580     0.9530 C.3   1 <1>   0.1400 
  6 C        2.3550     1.2350    -0.8510 C.3   1 <1>   0.1400 
  7 C       -2.0730     1.9930     0.5320 C.ar  1 <1>   0.0820 
  8 C       -1.6780     3.6090    -1.1790 C.ar  1 <1>  -0.1500 
  9 C        1.6070     4.1230     0.6660 C.3   1 <1>  -0.1600 
 10 C        3.6500     2.0350    -0.6430 C.3   1 <1>  -0.1600 
 11 O       -1.7250     0.8710     1.1830 O.3   1 <1>  -0.5330 
 12 C       -3.1990     2.6690     0.9230 C.ar  1 <1>  -0.1500 
 13 C       -2.8240     4.3300    -0.7990 C.ar  1 <1>   0.0000 
 14 C        3.0660     4.3630     0.2500 C.3   1 <1>  -0.1600 
 15 C        3.5320     3.5360    -0.9590 C.3   1 <1>  -0.1600 
 16 C       -3.6020     3.8510     0.2770 C.ar  1 <1>   0.0000 
 17 C       -3.2260     5.5130    -1.4510 C.ar  1 <1>  -0.1500 
 18 C       -4.7500     4.5750     0.6580 C.ar  1 <1>  -0.1500 
 19 C       -4.3440     6.1960    -1.0600 C.ar  1 <1>  -0.1500 
 20 C       -5.1150     5.7210     0.0080 C.ar  1 <1>  -0.1500 
 21 H        2.0170     2.2050     1.5730 H     1 <1>   0.0800 
 22 H        0.3380     2.6110     1.4980 H     1 <1>   0.0800 
 23 H        2.2360     1.0730    -1.9090 H     1 <1>   0.0800 
 24 H        2.4480     0.2690    -0.3870 H     1 <1>   0.0800 
 25 H       -1.0960     3.9730    -2.0060 H     1 <1>   0.1500 
 26 H        1.4200     4.6910     1.5600 H     1 <1>   0.0800 
 27 H        0.9450     4.5010    -0.0930 H     1 <1>   0.0800 
 28 H        4.3910     1.6080    -1.2950 H     1 <1>   0.0800 
 29 H        4.0090     1.8910     0.3600 H     1 <1>   0.0800 
 30 H       -2.3830     0.5620     1.8300 H     1 <1>   0.4500 
 31 H       -3.8000     2.3100     1.7370 H     1 <1>   0.1500 
 32 H        3.7120     4.1590     1.0870 H     1 <1>   0.0800 
 33 H        3.1790     5.4070     0.0110 H     1 <1>   0.0800 
 34 H        2.8710     3.6900    -1.7960 H     1 <1>   0.0800 
 35 H        4.5050     3.8960    -1.2470 H     1 <1>   0.0800 
 36 H       -2.6320     5.8720    -2.2720 H     1 <1>   0.1500 
 37 H       -5.3410     4.2080     1.4780 H     1 <1>   0.1500 
 38 H       -4.6460     7.0990    -1.5620 H     1 <1>   0.1500 
 39 H       -5.9920     6.2710     0.3030 H     1 <1>   0.1500 
@<TRIPOS>BOND
  1   1   2  2   
  2   2   3  am  
  3   2   4  1   
  4   3   5  1   
  5   3   6  1   
  6   4   7  ar  
  7   4   8  ar  
  8   5   9  1   
  9   5  21  1   
 10   5  22  1   
 11   6  10  1   
 12   6  23  1   
 13   6  24  1   
 14   7  11  1   
 15   7  12  ar  
 16   8  13  ar  
 17   8  25  1   
 18   9  14  1   
 19   9  26  1   
 20   9  27  1   
 21  10  15  1   
 22  10  28  1   
 23  10  29  1   
 24  11  30  1   
 25  12  16  ar  
 26  12  31  1   
 27  13  16  ar  
 28  13  17  ar  
 29  14  15  1   
 30  14  32  1   
 31  14  33  1   
 32  15  34  1   
 33  15  35  1   
 34  16  18  ar  
 35  17  19  ar  
 36  17  36  1   
 37  18  20  ar  
 38  18  37  1   
 39  19  20  ar  
 40  19  38  1   
 41  20  39  1   
@<TRIPOS>SUBSTRUCTURE
  1 ****   4 GROUP 4 **** **** 0

# MOE 2024.06 (io_trps.svl 2023.06)
