@<TRIPOS>MOLECULE
NONAME
44 46 1 0 0 
SMALL
USER_CHARGES


@<TRIPOS>ATOM
  1 O       -0.2640     0.9300    -1.0360 O.2   1 <1>  -0.5700 
  2 C       -0.1330     1.5690    -0.0200 C.2   1 <1>   0.5690 
  3 N        1.0740     1.7160     0.6130 N.am  1 <1>  -0.5470 
  4 C       -1.3970     2.2260     0.5620 C.3   1 <1>   0.4040 
  5 C        2.3060     1.2020     0.1880 C.ar  1 <1>   0.1170 
  6 N       -2.6880     1.6490     0.0120 N.4   1 <1>  -0.9590 
  7 C        2.5670    -0.1990     0.1510 C.ar  1 <1>   0.0000 
  8 C        3.2850     2.0930    -0.1840 C.ar  1 <1>  -0.1500 
  9 C       -3.9080     2.4720     0.2510 C.3   1 <1>   0.4230 
 10 C       -2.8520     0.2310     0.4580 C.3   1 <1>   0.3430 
 11 C        3.8350    -0.6380    -0.2970 C.ar  1 <1>   0.0000 
 12 C        1.6390    -1.1870     0.5530 C.ar  1 <1>  -0.1500 
 13 C        4.5350     1.6530    -0.6180 C.ar  1 <1>  -0.1500 
 14 C       -5.1020     1.8360    -0.4740 C.3   1 <1>  -0.1600 
 15 C       -3.7020     3.8990    -0.2570 C.3   1 <1>  -0.2400 
 16 C       -4.0250    -0.4210    -0.2710 C.3   1 <1>  -0.1600 
 17 C        4.8000     0.3140    -0.6760 C.ar  1 <1>  -0.1500 
 18 C        4.1100    -2.0200    -0.3460 C.ar  1 <1>  -0.1500 
 19 C        1.9330    -2.5220     0.5000 C.ar  1 <1>  -0.1500 
 20 C       -5.3190     0.3730    -0.0730 C.3   1 <1>  -0.1600 
 21 C        3.1830    -2.9450     0.0420 C.ar  1 <1>  -0.1500 
 22 H        1.1480     2.3610     1.4000 H     1 <1>   0.3700 
 23 H       -1.3390     3.2730     0.3230 H     1 <1>   0.0800 
 24 H       -1.3830     2.1260     1.6330 H     1 <1>   0.0800 
 25 H       -2.5470     1.5920    -1.0090 H     1 <1>   0.4500 
 26 H        3.1020     3.1510    -0.1550 H     1 <1>   0.1500 
 27 H       -4.1220     2.4990     1.3090 H     1 <1>   0.0800 
 28 H       -3.0280     0.1990     1.5210 H     1 <1>   0.0800 
 29 H       -1.9550    -0.3300     0.2430 H     1 <1>   0.0800 
 30 H        0.6770    -0.8820     0.9080 H     1 <1>   0.1500 
 31 H        5.2790     2.3750    -0.9090 H     1 <1>   0.1500 
 32 H       -4.9540     1.8980    -1.5390 H     1 <1>   0.0800 
 33 H       -5.9950     2.3930    -0.2440 H     1 <1>   0.0800 
 34 H       -3.3730     3.9020    -1.2820 H     1 <1>   0.0800 
 35 H       -3.0040     4.4390     0.3540 H     1 <1>   0.0800 
 36 H       -4.6340     4.4350    -0.2080 H     1 <1>   0.0800 
 37 H       -4.1590    -1.4220     0.1010 H     1 <1>   0.0800 
 38 H       -3.7940    -0.4980    -1.3200 H     1 <1>   0.0800 
 39 H        5.7600    -0.0330    -1.0140 H     1 <1>   0.1500 
 40 H        5.0750    -2.3380    -0.6980 H     1 <1>   0.1500 
 41 H        1.2140    -3.2630     0.8060 H     1 <1>   0.1500 
 42 H       -6.1070    -0.0570    -0.6680 H     1 <1>   0.0800 
 43 H       -5.6220     0.3210     0.9600 H     1 <1>   0.0800 
 44 H        3.4000    -3.9980     0.0020 H     1 <1>   0.1500 
@<TRIPOS>BOND
  1   1   2  2   
  2   2   3  am  
  3   2   4  1   
  4   3   5  1   
  5   3  22  1   
  6   4   6  1   
  7   4  23  1   
  8   4  24  1   
  9   5   7  ar  
 10   5   8  ar  
 11   6   9  1   
 12   6  10  1   
 13   6  25  1   
 14   7  11  ar  
 15   7  12  ar  
 16   8  13  ar  
 17   8  26  1   
 18   9  14  1   
 19   9  15  1   
 20   9  27  1   
 21  10  16  1   
 22  10  28  1   
 23  10  29  1   
 24  11  17  ar  
 25  11  18  ar  
 26  12  19  ar  
 27  12  30  1   
 28  13  17  ar  
 29  13  31  1   
 30  14  20  1   
 31  14  32  1   
 32  14  33  1   
 33  15  34  1   
 34  15  35  1   
 35  15  36  1   
 36  16  20  1   
 37  16  37  1   
 38  16  38  1   
 39  17  39  1   
 40  18  21  ar  
 41  18  40  1   
 42  19  21  ar  
 43  19  41  1   
 44  20  42  1   
 45  20  43  1   
 46  21  44  1   
@<TRIPOS>SUBSTRUCTURE
  1 ****   2 GROUP 4 **** **** 0

# MOE 2024.06 (io_trps.svl 2023.06)
