@<TRIPOS>MOLECULE
NONAME
46 47 1 0 0 
SMALL
USER_CHARGES


@<TRIPOS>ATOM
  1 S        0.6000    -0.1730     1.0840 S.o2  1 <1>   1.2040 
  2 O        0.4940     1.2570     1.2800 O.2   1 <1>  -0.6500 
  3 O        1.1080    -1.0070     2.1530 O.2   1 <1>  -0.6500 
  4 C       -0.9930    -0.8190     0.5220 C.ar  1 <1>  -0.0090 
  5 C        1.6270    -0.4650    -0.3640 C.3   1 <1>  -0.0550 
  6 C       -1.3320    -2.1540     0.7060 C.ar  1 <1>  -0.1500 
  7 C       -1.9030    -0.0050    -0.1410 C.ar  1 <1>  -0.1500 
  8 C        3.1380    -0.2360    -0.1630 C.3   1 <1>  -0.1600 
  9 C       -2.5340    -2.6600     0.2430 C.ar  1 <1>  -0.1500 
 10 C       -3.1070    -0.5050    -0.6070 C.ar  1 <1>  -0.1500 
 11 C        3.5010     1.2460     0.0320 C.3   1 <1>  -0.1600 
 12 C       -3.4290    -1.8370    -0.4170 C.ar  1 <1>  -0.1430 
 13 C        5.0120     1.4740     0.2320 C.3   1 <1>  -0.0550 
 14 C       -4.7480    -2.3890    -0.9270 C.3   1 <1>  -0.0970 
 15 S        6.0380     1.1830    -1.2160 S.o2  1 <1>   1.2040 
 16 O        5.5300     2.0160    -2.2850 O.2   1 <1>  -0.6500 
 17 O        6.1450    -0.2470    -1.4120 O.2   1 <1>  -0.6500 
 18 C        7.6320     1.8290    -0.6540 C.ar  1 <1>  -0.0090 
 19 C        8.5430     1.0150     0.0080 C.ar  1 <1>  -0.1500 
 20 C        7.9700     3.1640    -0.8390 C.ar  1 <1>  -0.1500 
 21 C        9.7460     1.5160     0.4740 C.ar  1 <1>  -0.1500 
 22 C        9.1720     3.6710    -0.3760 C.ar  1 <1>  -0.1500 
 23 C       10.0660     2.8490     0.2860 C.ar  1 <1>  -0.1430 
 24 C       11.3870     3.4010     0.7930 C.3   1 <1>  -0.0970 
 25 H        1.2850     0.1500    -1.1750 H     1 <1>   0.0800 
 26 H        1.4970    -1.4870    -0.6660 H     1 <1>   0.0800 
 27 H       -0.6490    -2.8080     1.2230 H     1 <1>   0.1500 
 28 H       -1.6720     1.0360    -0.2930 H     1 <1>   0.1500 
 29 H        3.6420    -0.6160    -1.0350 H     1 <1>   0.0800 
 30 H        3.4750    -0.8110     0.6840 H     1 <1>   0.0800 
 31 H       -2.7690    -3.6990     0.4010 H     1 <1>   0.1500 
 32 H       -3.7930     0.1490    -1.1170 H     1 <1>   0.1500 
 33 H        2.9970     1.6250     0.9040 H     1 <1>   0.0800 
 34 H        3.1640     1.8200    -0.8150 H     1 <1>   0.0800 
 35 H        5.3540     0.8590     1.0430 H     1 <1>   0.0800 
 36 H        5.1420     2.4960     0.5350 H     1 <1>   0.0800 
 37 H       -4.6280    -2.7510    -1.9320 H     1 <1>   0.0800 
 38 H       -5.5030    -1.6240    -0.9210 H     1 <1>   0.0800 
 39 H       -5.0830    -3.1990    -0.3040 H     1 <1>   0.0800 
 40 H        8.3120    -0.0260     0.1590 H     1 <1>   0.1500 
 41 H        7.2870     3.8170    -1.3570 H     1 <1>   0.1500 
 42 H       10.4340     0.8610     0.9800 H     1 <1>   0.1500 
 43 H        9.4090     4.7090    -0.5370 H     1 <1>   0.1500 
 44 H       11.7070     2.8660     1.6690 H     1 <1>   0.0800 
 45 H       11.2880     4.4410     1.0490 H     1 <1>   0.0800 
 46 H       12.1390     3.3010     0.0310 H     1 <1>   0.0800 
@<TRIPOS>BOND
  1   1   2  2   
  2   1   3  2   
  3   1   4  1   
  4   1   5  1   
  5   4   6  ar  
  6   4   7  ar  
  7   5   8  1   
  8   5  25  1   
  9   5  26  1   
 10   6   9  ar  
 11   6  27  1   
 12   7  10  ar  
 13   7  28  1   
 14   8  11  1   
 15   8  29  1   
 16   8  30  1   
 17   9  12  ar  
 18   9  31  1   
 19  10  12  ar  
 20  10  32  1   
 21  11  13  1   
 22  11  33  1   
 23  11  34  1   
 24  12  14  1   
 25  13  15  1   
 26  13  35  1   
 27  13  36  1   
 28  14  37  1   
 29  14  38  1   
 30  14  39  1   
 31  15  16  2   
 32  15  17  2   
 33  15  18  1   
 34  18  19  ar  
 35  18  20  ar  
 36  19  21  ar  
 37  19  40  1   
 38  20  22  ar  
 39  20  41  1   
 40  21  23  ar  
 41  21  42  1   
 42  22  23  ar  
 43  22  43  1   
 44  23  24  1   
 45  24  44  1   
 46  24  45  1   
 47  24  46  1   
@<TRIPOS>SUBSTRUCTURE
  1 ****  11 GROUP 4 **** **** 0

# MOE 2024.06 (io_trps.svl 2023.06)
