@<TRIPOS>MOLECULE
NONAME
50 51 1 0 0 
SMALL
USER_CHARGES


@<TRIPOS>ATOM
  1 O       -0.0920     0.4130    -1.2560 O.2   1 <1>  -0.5700 
  2 C       -0.1230     1.6300    -1.2510 C.2   1 <1>   0.5440 
  3 N       -1.3450     2.2500    -1.3960 N.am  1 <1>  -0.5470 
  4 C        1.1150     2.3840    -1.1040 C.ar  1 <1>   0.0860 
  5 C       -2.6180     1.7390    -1.6880 C.ar  1 <1>   0.1170 
  6 C        1.1860     3.7360    -0.7180 C.ar  1 <1>   0.0830 
  7 C        2.3300     1.7400    -1.3660 C.ar  1 <1>  -0.1500 
  8 C       -3.7650     2.3530    -1.1590 C.ar  1 <1>   0.0860 
  9 C       -2.7690     0.6270    -2.5140 C.ar  1 <1>  -0.1500 
 10 O        0.0350     4.3960    -0.4400 O.3   1 <1>  -0.3630 
 11 C        2.4160     4.3810    -0.6170 C.ar  1 <1>  -0.1500 
 12 C        3.5480     2.3800    -1.2650 C.ar  1 <1>  -0.1500 
 13 C       -3.6720     3.4980    -0.2840 C.2   1 <1>   0.5440 
 14 C       -5.0180     1.8260    -1.4800 C.ar  1 <1>  -0.1500 
 15 C       -4.0160     0.1180    -2.8160 C.ar  1 <1>  -0.1500 
 16 C       -0.0290     5.7930    -0.2430 C.3   1 <1>   0.0400 
 17 C        3.5970     3.7170    -0.8880 C.ar  1 <1>   0.0830 
 18 O       -3.0560     4.4900    -0.6270 O.2   1 <1>  -0.5700 
 19 N       -4.2790     3.4520     0.9420 N.am  1 <1>  -0.7300 
 20 C       -5.1480     0.7210    -2.2970 C.ar  1 <1>  -0.1500 
 21 O        4.7430     4.4240    -0.7650 O.3   1 <1>  -0.3630 
 22 C       -4.2460     4.4250     2.0380 C.3   1 <1>   0.3000 
 23 C        6.0050     3.8410    -1.0060 C.3   1 <1>   0.0400 
 24 C       -5.1000     3.8390     3.1610 C.3   1 <1>  -0.2400 
 25 C       -2.8070     4.5960     2.5270 C.3   1 <1>  -0.2400 
 26 C       -4.8470     5.7540     1.5800 C.3   1 <1>  -0.2400 
 27 H       -1.3300     3.2490    -1.1360 H     1 <1>   0.3700 
 28 H        2.3160     0.7030    -1.6600 H     1 <1>   0.1500 
 29 H       -1.8960     0.1540    -2.9270 H     1 <1>   0.1500 
 30 H        2.4920     5.4090    -0.3220 H     1 <1>   0.1500 
 31 H        4.4440     1.8290    -1.4810 H     1 <1>   0.1500 
 32 H       -5.9000     2.2980    -1.0850 H     1 <1>   0.1500 
 33 H       -4.1060    -0.7440    -3.4540 H     1 <1>   0.1500 
 34 H       -1.0640     6.0710    -0.1520 H     1 <1>   0.0800 
 35 H        0.4050     6.2880    -1.0940 H     1 <1>   0.0800 
 36 H        0.4960     6.0440     0.6610 H     1 <1>   0.0800 
 37 H       -4.6890     2.5620     1.2200 H     1 <1>   0.3700 
 38 H       -6.1220     0.3280    -2.5340 H     1 <1>   0.1500 
 39 H        6.7560     4.5930    -0.8410 H     1 <1>   0.0800 
 40 H        6.0440     3.5030    -2.0260 H     1 <1>   0.0800 
 41 H        6.1490     3.0240    -0.3220 H     1 <1>   0.0800 
 42 H       -4.6970     2.8990     3.4940 H     1 <1>   0.0800 
 43 H       -6.1130     3.6950     2.8290 H     1 <1>   0.0800 
 44 H       -5.1160     4.5110     4.0000 H     1 <1>   0.0800 
 45 H       -2.3890     3.6470     2.8090 H     1 <1>   0.0800 
 46 H       -2.7800     5.2500     3.3790 H     1 <1>   0.0800 
 47 H       -2.1960     5.0280     1.7570 H     1 <1>   0.0800 
 48 H       -5.8360     5.6030     1.1880 H     1 <1>   0.0800 
 49 H       -4.2370     6.2070     0.8210 H     1 <1>   0.0800 
 50 H       -4.9070     6.4380     2.4070 H     1 <1>   0.0800 
@<TRIPOS>BOND
  1   1   2  2   
  2   2   3  am  
  3   2   4  1   
  4   3   5  1   
  5   3  27  1   
  6   4   6  ar  
  7   4   7  ar  
  8   5   8  ar  
  9   5   9  ar  
 10   6  10  1   
 11   6  11  ar  
 12   7  12  ar  
 13   7  28  1   
 14   8  13  1   
 15   8  14  ar  
 16   9  15  ar  
 17   9  29  1   
 18  10  16  1   
 19  11  17  ar  
 20  11  30  1   
 21  12  17  ar  
 22  12  31  1   
 23  13  18  2   
 24  13  19  am  
 25  14  20  ar  
 26  14  32  1   
 27  15  20  ar  
 28  15  33  1   
 29  16  34  1   
 30  16  35  1   
 31  16  36  1   
 32  17  21  1   
 33  19  22  1   
 34  19  37  1   
 35  20  38  1   
 36  21  23  1   
 37  22  24  1   
 38  22  25  1   
 39  22  26  1   
 40  23  39  1   
 41  23  40  1   
 42  23  41  1   
 43  24  42  1   
 44  24  43  1   
 45  24  44  1   
 46  25  45  1   
 47  25  46  1   
 48  25  47  1   
 49  26  48  1   
 50  26  49  1   
 51  26  50  1   
@<TRIPOS>SUBSTRUCTURE
  1 ****   3 GROUP 4 **** **** 0

# MOE 2024.06 (io_trps.svl 2023.06)
