@<TRIPOS>MOLECULE
NONAME
40 41 1 0 0 
SMALL
USER_CHARGES


@<TRIPOS>ATOM
  1 O       -1.0960     1.4550     3.6540 O.2   1 <1>  -0.5700 
  2 C       -0.3750     1.6570     2.7060 C.2   1 <1>   0.5690 
  3 N       -0.8400     2.2080     1.5580 N.am  1 <1>  -0.7300 
  4 C        1.0890     1.2600     2.8100 C.3   1 <1>   0.0440 
  5 C       -2.2390     2.5450     1.2510 C.3   1 <1>   0.2200 
  6 C        1.8820     1.5090     1.5290 C.ar  1 <1>  -0.1440 
  7 C       -2.7610     1.5650     0.1720 C.3   1 <1>   0.2000 
  8 C       -2.2590     4.0190     0.8360 C.3   1 <1>  -0.2400 
  9 C        1.7770     0.6300     0.4620 C.ar  1 <1>  -0.1500 
 10 C        2.7000     2.6230     1.4130 C.ar  1 <1>  -0.1500 
 11 O       -2.0040     1.6480    -1.0010 O.3   1 <1>  -0.5600 
 12 C       -4.2040     1.7540    -0.2820 C.3   1 <1>  -0.1600 
 13 C        2.4790     0.8580    -0.7090 C.ar  1 <1>  -0.1500 
 14 C        3.4030     2.8520     0.2440 C.ar  1 <1>  -0.1500 
 15 C       -2.7510     1.2650    -2.1150 C.3   1 <1>   0.1200 
 16 C       -4.1930     1.0920    -1.6450 C.3   1 <1>  -0.1600 
 17 C        3.2990     1.9760    -0.8230 C.ar  1 <1>   0.0830 
 18 O        4.0190     2.2760    -1.9330 O.3   1 <1>  -0.3630 
 19 C        3.9410     1.4780    -3.0930 C.3   1 <1>   0.0400 
 20 H       -0.2150     2.2630     0.7460 H     1 <1>   0.3700 
 21 H        1.1360     0.2160     3.0610 H     1 <1>   0.0800 
 22 H        1.5250     1.8060     3.6250 H     1 <1>   0.0800 
 23 H       -2.8340     2.4250     2.1410 H     1 <1>   0.0800 
 24 H       -2.6500     0.5610     0.5440 H     1 <1>   0.0800 
 25 H       -1.7280     4.1560    -0.0890 H     1 <1>   0.0800 
 26 H       -1.7990     4.6200     1.6010 H     1 <1>   0.0800 
 27 H       -3.2670     4.3640     0.7090 H     1 <1>   0.0800 
 28 H        1.1420    -0.2360     0.5360 H     1 <1>   0.1500 
 29 H        2.7910     3.3200     2.2290 H     1 <1>   0.1500 
 30 H       -4.4400     2.7960    -0.3870 H     1 <1>   0.0800 
 31 H       -4.9020     1.2960     0.3970 H     1 <1>   0.0800 
 32 H        2.3730     0.1590    -1.5170 H     1 <1>   0.1500 
 33 H        4.0380     3.7150     0.1510 H     1 <1>   0.1500 
 34 H       -2.3440     0.3500    -2.5080 H     1 <1>   0.0800 
 35 H       -2.6690     2.0490    -2.8480 H     1 <1>   0.0800 
 36 H       -4.8940     1.5400    -2.3270 H     1 <1>   0.0800 
 37 H       -4.4120     0.0420    -1.5550 H     1 <1>   0.0800 
 38 H        4.5760     1.9150    -3.8420 H     1 <1>   0.0800 
 39 H        2.9230     1.4640    -3.4390 H     1 <1>   0.0800 
 40 H        4.2830     0.4860    -2.8560 H     1 <1>   0.0800 
@<TRIPOS>BOND
  1   1   2  2   
  2   2   3  am  
  3   2   4  1   
  4   3   5  1   
  5   3  20  1   
  6   4   6  1   
  7   4  21  1   
  8   4  22  1   
  9   5   7  1   
 10   5   8  1   
 11   5  23  1   
 12   6   9  ar  
 13   6  10  ar  
 14   7  11  1   
 15   7  12  1   
 16   7  24  1   
 17   8  25  1   
 18   8  26  1   
 19   8  27  1   
 20   9  13  ar  
 21   9  28  1   
 22  10  14  ar  
 23  10  29  1   
 24  11  15  1   
 25  12  16  1   
 26  12  30  1   
 27  12  31  1   
 28  13  17  ar  
 29  13  32  1   
 30  14  17  ar  
 31  14  33  1   
 32  15  16  1   
 33  15  34  1   
 34  15  35  1   
 35  16  36  1   
 36  16  37  1   
 37  17  18  1   
 38  18  19  1   
 39  19  38  1   
 40  19  39  1   
 41  19  40  1   
@<TRIPOS>SUBSTRUCTURE
  1 ****   3 GROUP 4 **** **** 0

# MOE 2024.06 (io_trps.svl 2023.06)
