@<TRIPOS>MOLECULE
NONAME
36 37 1 0 0 
SMALL
USER_CHARGES


@<TRIPOS>ATOM
  1 F        0.5340    -0.1340    -0.2030 F     1 <1>  -0.1900 
  2 C        0.6580    -1.4330    -0.1270 C.ar  1 <1>   0.1900 
  3 C        1.8900    -2.0260    -0.4040 C.ar  1 <1>   0.0540 
  4 C       -0.4690    -2.1560     0.2150 C.ar  1 <1>  -0.1500 
  5 C        3.0660    -1.2610    -0.7530 C.2   1 <1>   0.4620 
  6 C        1.9350    -3.4200    -0.3330 C.ar  1 <1>  -0.1500 
  7 C       -0.3870    -3.5360     0.2820 C.ar  1 <1>  -0.1500 
  8 N        3.8270    -1.5770    -1.8080 N.2   1 <1>  -0.2270 
  9 N        3.5150    -0.2380    -0.1030 N.2   1 <1>  -0.7070 
 10 C        0.8160    -4.1640     0.0050 C.ar  1 <1>  -0.1500 
 11 N        4.7740    -0.7300    -1.8430 N.2   1 <1>  -0.4180 
 12 N        4.5790     0.0700    -0.8070 N.pl3 1 <1>   0.5800 
 13 C        5.4490     1.2070    -0.5020 C.3   1 <1>   0.1570 
 14 C        6.7490     0.7260     0.0980 C.2   1 <1>   0.5690 
 15 O        7.1920     1.3560     1.0270 O.2   1 <1>  -0.5700 
 16 N        7.3910    -0.3550    -0.4320 N.am  1 <1>  -0.7300 
 17 C        8.6280    -1.0050     0.0060 C.3   1 <1>   0.3000 
 18 C        8.8510    -2.1850    -0.9370 C.3   1 <1>  -0.2400 
 19 C        9.7960    -0.0250    -0.1100 C.3   1 <1>  -0.2400 
 20 C        8.4640    -1.5150     1.4370 C.3   1 <1>  -0.2400 
 21 H       -1.3930    -1.6460     0.4210 H     1 <1>   0.1500 
 22 H        2.8620    -3.9250    -0.5450 H     1 <1>   0.1500 
 23 H       -1.2540    -4.1180     0.5460 H     1 <1>   0.1500 
 24 H        0.8810    -5.2380     0.0540 H     1 <1>   0.1500 
 25 H        4.9460     1.8490     0.1950 H     1 <1>   0.0800 
 26 H        5.6460     1.7470    -1.4060 H     1 <1>   0.0800 
 27 H        6.9280    -0.8700    -1.1890 H     1 <1>   0.3700 
 28 H        8.9550    -1.8460    -1.9520 H     1 <1>   0.0800 
 29 H        8.0300    -2.8780    -0.8780 H     1 <1>   0.0800 
 30 H        9.7500    -2.7090    -0.6660 H     1 <1>   0.0800 
 31 H        9.6720     0.7970     0.5700 H     1 <1>   0.0800 
 32 H        9.8700     0.3570    -1.1120 H     1 <1>   0.0800 
 33 H       10.7180    -0.5190     0.1360 H     1 <1>   0.0800 
 34 H        8.3370    -0.6940     2.1210 H     1 <1>   0.0800 
 35 H        9.3380    -2.0620     1.7380 H     1 <1>   0.0800 
 36 H        7.6110    -2.1650     1.5100 H     1 <1>   0.0800 
@<TRIPOS>BOND
  1   1   2  1   
  2   2   3  ar  
  3   2   4  ar  
  4   3   5  1   
  5   3   6  ar  
  6   4   7  ar  
  7   4  21  1   
  8   5   8  1   
  9   5   9  2   
 10   6  10  ar  
 11   6  22  1   
 12   7  10  ar  
 13   7  23  1   
 14   8  11  2   
 15   9  12  1   
 16  10  24  1   
 17  11  12  1   
 18  12  13  1   
 19  13  14  1   
 20  13  25  1   
 21  13  26  1   
 22  14  15  2   
 23  14  16  am  
 24  16  17  1   
 25  16  27  1   
 26  17  18  1   
 27  17  19  1   
 28  17  20  1   
 29  18  28  1   
 30  18  29  1   
 31  18  30  1   
 32  19  31  1   
 33  19  32  1   
 34  19  33  1   
 35  20  34  1   
 36  20  35  1   
 37  20  36  1   
@<TRIPOS>SUBSTRUCTURE
  1 ****   9 GROUP 4 **** **** 0

# MOE 2024.06 (io_trps.svl 2023.06)
