@<TRIPOS>MOLECULE
NONAME
36 36 1 0 0 
SMALL
USER_CHARGES


@<TRIPOS>ATOM
  1 O        0.4140    -0.3950     0.5720 O.3   1 <1>  -0.3630 
  2 C       -0.8490    -0.7350     0.1830 C.ar  1 <1>   0.0830 
  3 C        1.5250    -1.1850     0.2330 C.3   1 <1>   0.1200 
  4 C       -1.3030    -2.0370    -0.1010 C.ar  1 <1>   0.0830 
  5 C       -1.7250     0.3330     0.0720 C.ar  1 <1>  -0.1500 
  6 C        2.7690    -0.3150     0.3970 C.3   1 <1>   0.3430 
  7 O       -0.4640    -3.1060     0.0450 O.3   1 <1>  -0.3630 
  8 C       -2.6220    -2.2120    -0.5170 C.ar  1 <1>  -0.1500 
  9 C       -3.0330     0.1410    -0.3330 C.ar  1 <1>  -0.1500 
 10 N        4.0140    -1.0660     0.0480 N.4   1 <1>  -0.9060 
 11 C       -0.9580    -4.4290     0.0880 C.3   1 <1>   0.0400 
 12 C       -3.4790    -1.1320    -0.6320 C.ar  1 <1>  -0.1500 
 13 C        5.2260    -0.2060     0.2010 C.3   1 <1>   0.3430 
 14 C        6.5120    -0.9580    -0.1540 C.3   1 <1>   0.1200 
 15 O        7.5590    -0.0670     0.0170 O.3   1 <1>  -0.5600 
 16 C        8.8200    -0.5920    -0.2650 C.3   1 <1>   0.0400 
 17 H        1.4070    -1.5080    -0.7870 H     1 <1>   0.0800 
 18 H        1.5500    -2.0240     0.9050 H     1 <1>   0.0800 
 19 H       -1.3810     1.3240     0.3040 H     1 <1>   0.1500 
 20 H        2.8220     0.0230     1.4200 H     1 <1>   0.0800 
 21 H        2.6730     0.5470    -0.2440 H     1 <1>   0.0800 
 22 H       -3.0100    -3.1820    -0.7600 H     1 <1>   0.1500 
 23 H       -3.7010     0.9810    -0.4170 H     1 <1>   0.1500 
 24 H        3.9490    -1.4020    -0.9220 H     1 <1>   0.4500 
 25 H        4.0960    -1.8910     0.6570 H     1 <1>   0.4500 
 26 H       -0.1470    -5.0850     0.3490 H     1 <1>   0.0800 
 27 H       -1.3390    -4.6940    -0.8820 H     1 <1>   0.0800 
 28 H       -1.7300    -4.4910     0.8350 H     1 <1>   0.0800 
 29 H       -4.4960    -1.2820    -0.9520 H     1 <1>   0.1500 
 30 H        5.3020     0.1390     1.2190 H     1 <1>   0.0800 
 31 H        5.1450     0.6540    -0.4440 H     1 <1>   0.0800 
 32 H        6.5040    -1.2770    -1.1830 H     1 <1>   0.0800 
 33 H        6.6680    -1.7950     0.5060 H     1 <1>   0.0800 
 34 H        9.5500     0.1810    -0.0990 H     1 <1>   0.0800 
 35 H        8.8570    -0.9060    -1.2950 H     1 <1>   0.0800 
 36 H        9.0200    -1.4220     0.3920 H     1 <1>   0.0800 
@<TRIPOS>BOND
  1   1   2  1   
  2   1   3  1   
  3   2   4  ar  
  4   2   5  ar  
  5   3   6  1   
  6   3  17  1   
  7   3  18  1   
  8   4   7  1   
  9   4   8  ar  
 10   5   9  ar  
 11   5  19  1   
 12   6  10  1   
 13   6  20  1   
 14   6  21  1   
 15   7  11  1   
 16   8  12  ar  
 17   8  22  1   
 18   9  12  ar  
 19   9  23  1   
 20  10  13  1   
 21  10  24  1   
 22  10  25  1   
 23  11  26  1   
 24  11  27  1   
 25  11  28  1   
 26  12  29  1   
 27  13  14  1   
 28  13  30  1   
 29  13  31  1   
 30  14  15  1   
 31  14  32  1   
 32  14  33  1   
 33  15  16  1   
 34  16  34  1   
 35  16  35  1   
 36  16  36  1   
@<TRIPOS>SUBSTRUCTURE
  1 ****   3 GROUP 4 **** **** 0

# MOE 2024.06 (io_trps.svl 2023.06)
