@<TRIPOS>MOLECULE
NONAME
42 43 1 0 0 
SMALL
USER_CHARGES


@<TRIPOS>ATOM
  1 O       -2.0200    -3.2540     0.4780 O.3   1 <1>  -0.3630 
  2 C       -3.2530    -2.8860     0.0390 C.ar  1 <1>   0.0830 
  3 C       -1.1380    -4.0030    -0.3290 C.3   1 <1>   0.1200 
  4 C       -4.0630    -2.1730     0.9200 C.ar  1 <1>  -0.1440 
  5 C       -3.7240    -3.1910    -1.2370 C.ar  1 <1>  -0.1500 
  6 C        0.1560    -4.2370     0.4610 C.3   1 <1>   0.2000 
  7 C       -5.3280    -1.7750     0.5160 C.ar  1 <1>  -0.1500 
  8 C       -3.5800    -1.8250     2.3210 C.3   1 <1>  -0.0960 
  9 C       -4.9880    -2.7880    -1.6270 C.ar  1 <1>  -0.1500 
 10 O        0.6060    -3.0140     0.9650 O.3   1 <1>  -0.6800 
 11 C        1.2760    -4.8610    -0.3960 C.3   1 <1>   0.3430 
 12 C       -5.7900    -2.0800    -0.7520 C.ar  1 <1>  -0.1500 
 13 N        2.6020    -4.5310     0.2000 N.4   1 <1>  -0.9060 
 14 C        3.7380    -4.4530    -0.7340 C.3   1 <1>   0.4230 
 15 C        5.0000    -4.2190     0.0870 C.3   1 <1>  -0.1600 
 16 C        3.6320    -3.1700    -1.5530 C.3   1 <1>  -0.1600 
 17 C        5.0130    -2.7210     0.4190 C.3   1 <1>  -0.1600 
 18 C        4.1210    -2.0460    -0.6310 C.3   1 <1>  -0.1600 
 19 H       -0.9410    -3.4410    -1.2260 H     1 <1>   0.0800 
 20 H       -1.6120    -4.9380    -0.5750 H     1 <1>   0.0800 
 21 H       -3.1310    -3.7380    -1.9430 H     1 <1>   0.1500 
 22 H       -0.0590    -4.8770     1.3000 H     1 <1>   0.0800 
 23 H       -5.9640    -1.2230     1.1860 H     1 <1>   0.1500 
 24 H       -3.3070    -2.7220     2.8470 H     1 <1>   0.0800 
 25 H       -4.3470    -1.3230     2.8820 H     1 <1>   0.0800 
 26 H       -2.7230    -1.1800     2.2610 H     1 <1>   0.0800 
 27 H       -5.3500    -3.0240    -2.6130 H     1 <1>   0.1500 
 28 H       -0.1790    -2.5100     1.2910 H     1 <1>   0.4000 
 29 H        1.2120    -4.4440    -1.3870 H     1 <1>   0.0800 
 30 H        1.1420    -5.9280    -0.4750 H     1 <1>   0.0800 
 31 H       -6.7740    -1.7660    -1.0550 H     1 <1>   0.1500 
 32 H        2.8220    -5.1440     0.9890 H     1 <1>   0.4500 
 33 H        2.4700    -3.5880     0.6130 H     1 <1>   0.4500 
 34 H        3.8070    -5.3390    -1.3450 H     1 <1>   0.0800 
 35 H        5.8510    -4.4380    -0.5360 H     1 <1>   0.0800 
 36 H        5.0600    -4.8400     0.9640 H     1 <1>   0.0800 
 37 H        2.6480    -2.9780    -1.9440 H     1 <1>   0.0800 
 38 H        4.3110    -3.2460    -2.3860 H     1 <1>   0.0800 
 39 H        6.0170    -2.3320     0.3860 H     1 <1>   0.0800 
 40 H        4.6140    -2.5480     1.4050 H     1 <1>   0.0800 
 41 H        3.2860    -1.5650    -0.1490 H     1 <1>   0.0800 
 42 H        4.6670    -1.3020    -1.1880 H     1 <1>   0.0800 
@<TRIPOS>BOND
  1   1   2  1   
  2   1   3  1   
  3   2   4  ar  
  4   2   5  ar  
  5   3   6  1   
  6   3  19  1   
  7   3  20  1   
  8   4   7  ar  
  9   4   8  1   
 10   5   9  ar  
 11   5  21  1   
 12   6  10  1   
 13   6  11  1   
 14   6  22  1   
 15   7  12  ar  
 16   7  23  1   
 17   8  24  1   
 18   8  25  1   
 19   8  26  1   
 20   9  12  ar  
 21   9  27  1   
 22  10  28  1   
 23  11  13  1   
 24  11  29  1   
 25  11  30  1   
 26  12  31  1   
 27  13  14  1   
 28  13  32  1   
 29  13  33  1   
 30  14  15  1   
 31  14  16  1   
 32  14  34  1   
 33  15  17  1   
 34  15  35  1   
 35  15  36  1   
 36  16  18  1   
 37  16  37  1   
 38  16  38  1   
 39  17  18  1   
 40  17  39  1   
 41  17  40  1   
 42  18  41  1   
 43  18  42  1   
@<TRIPOS>SUBSTRUCTURE
  1 ****   3 GROUP 4 **** **** 0

# MOE 2024.06 (io_trps.svl 2023.06)
