@<TRIPOS>MOLECULE
NONAME
39 41 1 0 0 
SMALL
USER_CHARGES


@<TRIPOS>ATOM
  1 CL       1.6500    -2.4080    -2.2700 Cl    1 <1>  -0.1240 
  2 C        2.0730    -1.0180    -1.3090 C.2   1 <1>   0.1640 
  3 S        3.5430    -0.1780    -1.7490 S.3   1 <1>  -0.0800 
  4 C        1.4640    -0.4490    -0.2570 C.2   1 <1>  -0.1500 
  5 C        3.3120     0.9870    -0.4380 C.2   1 <1>  -0.0220 
  6 C        2.1740     0.6950     0.2330 C.2   1 <1>  -0.1500 
  7 S        4.5380     2.3040    -0.2420 S.o2  1 <1>   1.5000 
  8 O        4.5360     2.7590     1.1310 O.2   1 <1>  -0.6500 
  9 O        4.3740     3.2730    -1.3030 O.2   1 <1>  -0.6500 
 10 N        6.0240     1.5280    -0.4930 N.am  1 <1>  -0.8490 
 11 C        6.3960     0.6470     0.6290 C.3   1 <1>   0.1960 
 12 C        7.0990     2.5010    -0.7490 C.3   1 <1>   0.1960 
 13 C        7.7000    -0.1140     0.3430 C.3   1 <1>   0.1400 
 14 C        8.4450     1.8160    -1.0510 C.3   1 <1>   0.1400 
 15 N        8.8090     0.8320     0.0160 N.am  1 <1>  -0.6600 
 16 C       10.0490     0.7260     0.6080 C.2   1 <1>   0.5690 
 17 O       10.2440    -0.1120     1.4630 O.2   1 <1>  -0.5700 
 18 C       11.2120     1.6780     0.2170 C.3   1 <1>   0.2610 
 19 O       11.4810     1.6230    -1.1590 O.3   1 <1>  -0.5600 
 20 C       12.5720     1.3550     0.8380 C.3   1 <1>  -0.1600 
 21 C       12.3630     0.5780    -1.4270 C.3   1 <1>   0.1200 
 22 C       13.1870     0.3820    -0.1560 C.3   1 <1>  -0.1600 
 23 H        0.5470    -0.7870     0.1930 H     1 <1>   0.1500 
 24 H        1.7980     1.2560     1.0730 H     1 <1>   0.1500 
 25 H        5.6120    -0.0710     0.8020 H     1 <1>   0.0800 
 26 H        6.5230     1.2240     1.5310 H     1 <1>   0.0800 
 27 H        7.2150     3.1500     0.1040 H     1 <1>   0.0800 
 28 H        6.8380     3.1140    -1.5960 H     1 <1>   0.0800 
 29 H        7.5480    -0.7790    -0.4890 H     1 <1>   0.0800 
 30 H        7.9510    -0.7130     1.2010 H     1 <1>   0.0800 
 31 H        9.1980     2.5760    -1.1510 H     1 <1>   0.0800 
 32 H        8.3730     1.3000    -1.9920 H     1 <1>   0.0800 
 33 H       10.9230     2.6840     0.4610 H     1 <1>   0.0800 
 34 H       12.4970     0.9470     1.8310 H     1 <1>   0.0800 
 35 H       13.1560     2.2570     0.8780 H     1 <1>   0.0800 
 36 H       12.9730     0.8500    -2.2710 H     1 <1>   0.0800 
 37 H       11.7840    -0.3010    -1.6550 H     1 <1>   0.0800 
 38 H       13.0830    -0.6330     0.1860 H     1 <1>   0.0800 
 39 H       14.2280     0.5920    -0.3270 H     1 <1>   0.0800 
@<TRIPOS>BOND
  1   1   2  1   
  2   2   3  1   
  3   2   4  2   
  4   3   5  1   
  5   4   6  1   
  6   4  23  1   
  7   5   6  2   
  8   5   7  1   
  9   6  24  1   
 10   7   8  2   
 11   7   9  2   
 12   7  10  am  
 13  10  11  1   
 14  10  12  1   
 15  11  13  1   
 16  11  25  1   
 17  11  26  1   
 18  12  14  1   
 19  12  27  1   
 20  12  28  1   
 21  13  15  1   
 22  13  29  1   
 23  13  30  1   
 24  14  15  1   
 25  14  31  1   
 26  14  32  1   
 27  15  16  am  
 28  16  17  2   
 29  16  18  1   
 30  18  19  1   
 31  18  20  1   
 32  18  33  1   
 33  19  21  1   
 34  20  22  1   
 35  20  34  1   
 36  20  35  1   
 37  21  22  1   
 38  21  36  1   
 39  21  37  1   
 40  22  38  1   
 41  22  39  1   
@<TRIPOS>SUBSTRUCTURE
  1 ****  11 GROUP 4 **** **** 0

# MOE 2024.06 (io_trps.svl 2023.06)
