@<TRIPOS>MOLECULE
NONAME
30 31 1 0 0 
SMALL
USER_CHARGES


@<TRIPOS>ATOM
  1 O       -0.5950    -0.1160    -0.0060 O.2   1 <1>  -0.5700 
  2 C       -1.5980    -0.8010    -0.0050 C.2   1 <1>   0.7060 
  3 O       -2.7810    -0.1960    -0.0050 O.3   1 <1>  -0.2330 
  4 C       -1.5760    -2.2220    -0.0050 C.2   1 <1>  -0.1360 
  5 C       -3.9490    -0.8740    -0.0050 C.ar  1 <1>   0.0820 
  6 C       -2.7060    -2.9720    -0.0050 C.2   1 <1>  -0.1670 
  7 C       -3.9850    -2.2830    -0.0050 C.ar  1 <1>   0.0280 
  8 C       -5.1020    -0.1030    -0.0050 C.ar  1 <1>  -0.1500 
  9 C       -2.6440    -4.5060    -0.0050 C.3   1 <1>  -0.0220 
 10 C       -5.2770    -2.8560    -0.0050 C.ar  1 <1>   0.0830 
 11 C       -6.3470    -0.6960    -0.0040 C.ar  1 <1>  -0.1430 
 12 C       -1.2390    -5.1290    -0.0060 C.3   1 <1>  -0.1600 
 13 O       -5.4760    -4.1830    -0.0050 O.3   1 <1>  -0.5320 
 14 C       -6.4230    -2.0770    -0.0040 C.ar  1 <1>  -0.1500 
 15 C       -7.6140     0.1390    -0.0040 C.3   1 <1>  -0.0970 
 16 C       -1.3080    -6.6600    -0.0060 C.3   1 <1>  -0.2400 
 17 H       -0.5870    -2.6320    -0.0060 H     1 <1>   0.1500 
 18 H       -5.0080     0.9680    -0.0050 H     1 <1>   0.1500 
 19 H       -3.1650    -4.8650    -0.8760 H     1 <1>   0.0800 
 20 H       -3.1650    -4.8650     0.8660 H     1 <1>   0.0800 
 21 H       -0.7000    -4.8070     0.8690 H     1 <1>   0.0800 
 22 H       -0.7010    -4.8070    -0.8800 H     1 <1>   0.0800 
 23 H       -6.4160    -4.4390    -0.0040 H     1 <1>   0.4500 
 24 H       -7.3910    -2.5420    -0.0040 H     1 <1>   0.1500 
 25 H       -7.3830     1.1890    -0.0060 H     1 <1>   0.0800 
 26 H       -8.1980    -0.0800     0.8720 H     1 <1>   0.0800 
 27 H       -8.2000    -0.0830    -0.8780 H     1 <1>   0.0800 
 28 H       -1.8250    -7.0140     0.8690 H     1 <1>   0.0800 
 29 H       -0.3150    -7.0740    -0.0060 H     1 <1>   0.0800 
 30 H       -1.8260    -7.0140    -0.8800 H     1 <1>   0.0800 
@<TRIPOS>BOND
  1   1   2  2   
  2   2   3  1   
  3   2   4  1   
  4   3   5  1   
  5   4   6  2   
  6   4  17  1   
  7   5   7  ar  
  8   5   8  ar  
  9   6   7  1   
 10   6   9  1   
 11   7  10  ar  
 12   8  11  ar  
 13   8  18  1   
 14   9  12  1   
 15   9  19  1   
 16   9  20  1   
 17  10  13  1   
 18  10  14  ar  
 19  11  14  ar  
 20  11  15  1   
 21  12  16  1   
 22  12  21  1   
 23  12  22  1   
 24  13  23  1   
 25  14  24  1   
 26  15  25  1   
 27  15  26  1   
 28  15  27  1   
 29  16  28  1   
 30  16  29  1   
 31  16  30  1   
@<TRIPOS>SUBSTRUCTURE
  1 ****   7 GROUP 4 **** **** 0

# MOE 2024.06 (io_trps.svl 2023.06)
