@<TRIPOS>MOLECULE
NONAME
51 54 1 0 0 
SMALL
USER_CHARGES


@<TRIPOS>ATOM
  1 O        1.0590     0.2680     0.9320 O.3   1 <1>  -0.3630 
  2 C        0.9010    -1.0850     0.8950 C.ar  1 <1>   0.0830 
  3 C        1.7680     0.9470    -0.0810 C.3   1 <1>   0.0400 
  4 C        1.9260    -2.0090     0.5220 C.ar  1 <1>   0.3100 
  5 C       -0.3450    -1.5250     1.2610 C.ar  1 <1>  -0.1500 
  6 N        3.1770    -1.5710     0.2080 N.ar  1 <1>  -0.6200 
  7 C        1.5960    -3.3910     0.5100 C.ar  1 <1>   0.0000 
  8 C       -0.6540    -2.8820     1.2560 C.ar  1 <1>  -0.1500 
  9 C        4.0820    -2.4450    -0.1210 C.ar  1 <1>   0.4100 
 10 C        2.5960    -4.3170     0.1270 C.ar  1 <1>  -0.1440 
 11 C        0.2960    -3.7910     0.8850 C.ar  1 <1>  -0.1500 
 12 N        5.3520    -1.9960    -0.4110 N.pl3 1 <1>  -0.8380 
 13 C        3.8230    -3.8230    -0.1830 C.ar  1 <1>  -0.1500 
 14 C        2.3270    -5.8140     0.0540 C.3   1 <1>  -0.0970 
 15 C        6.4270    -2.3140     0.5780 C.3   1 <1>   0.2090 
 16 C        5.5080    -0.6220    -0.9840 C.3   1 <1>   0.2090 
 17 C        7.8410    -2.1010    -0.0010 C.3   1 <1>   0.2090 
 18 C        6.9100    -0.3900    -1.5830 C.3   1 <1>   0.2090 
 19 N        8.0180    -0.7640    -0.6480 N.pl3 1 <1>  -0.8380 
 20 C        8.6230     0.2500     0.0940 C.ar  1 <1>   0.1000 
 21 C        9.9210     0.6720    -0.1990 C.ar  1 <1>  -0.1430 
 22 C        7.9400     0.8610     1.1410 C.ar  1 <1>  -0.1500 
 23 C       10.5060     1.6810     0.5490 C.ar  1 <1>  -0.1500 
 24 C       10.7000     0.0280    -1.3370 C.3   1 <1>  -0.0970 
 25 C        8.5270     1.8670     1.8840 C.ar  1 <1>  -0.1500 
 26 C        9.8140     2.2790     1.5880 C.ar  1 <1>  -0.1500 
 27 H        1.4030     1.9560    -0.1280 H     1 <1>   0.0800 
 28 H        1.6070     0.4490    -1.0210 H     1 <1>   0.0800 
 29 H        2.8130     0.9500     0.1720 H     1 <1>   0.0800 
 30 H       -1.0970    -0.8140     1.5530 H     1 <1>   0.1500 
 31 H       -1.6420    -3.1980     1.5450 H     1 <1>   0.1500 
 32 H        0.0410    -4.8350     0.8820 H     1 <1>   0.1500 
 33 H        4.6300    -4.4580    -0.4910 H     1 <1>   0.1500 
 34 H        1.5340    -6.0130    -0.6440 H     1 <1>   0.0800 
 35 H        2.0490    -6.1870     1.0230 H     1 <1>   0.0800 
 36 H        3.2040    -6.3450    -0.2730 H     1 <1>   0.0800 
 37 H        6.3320    -3.3350     0.9020 H     1 <1>   0.0800 
 38 H        6.3030    -1.6860     1.4420 H     1 <1>   0.0800 
 39 H        5.3280     0.1060    -0.2130 H     1 <1>   0.0800 
 40 H        4.7690    -0.4740    -1.7520 H     1 <1>   0.0800 
 41 H        8.0330    -2.8640    -0.7340 H     1 <1>   0.0800 
 42 H        8.5660    -2.2120     0.7860 H     1 <1>   0.0800 
 43 H        7.0110     0.6450    -1.8570 H     1 <1>   0.0800 
 44 H        7.0030    -0.9770    -2.4790 H     1 <1>   0.0800 
 45 H        6.9420     0.5450     1.3730 H     1 <1>   0.1500 
 46 H       11.5060     2.0080     0.3270 H     1 <1>   0.1500 
 47 H       10.1660     0.1640    -2.2600 H     1 <1>   0.0800 
 48 H       10.8030    -1.0250    -1.1530 H     1 <1>   0.0800 
 49 H       11.6780     0.4610    -1.4350 H     1 <1>   0.0800 
 50 H        7.9860     2.3290     2.6900 H     1 <1>   0.1500 
 51 H       10.2770     3.0620     2.1630 H     1 <1>   0.1500 
@<TRIPOS>BOND
  1   1   2  1   
  2   1   3  1   
  3   2   4  ar  
  4   2   5  ar  
  5   3  27  1   
  6   3  28  1   
  7   3  29  1   
  8   4   6  ar  
  9   4   7  ar  
 10   5   8  ar  
 11   5  30  1   
 12   6   9  ar  
 13   7  10  ar  
 14   7  11  ar  
 15   8  11  ar  
 16   8  31  1   
 17   9  12  1   
 18   9  13  ar  
 19  10  13  ar  
 20  10  14  1   
 21  11  32  1   
 22  12  15  1   
 23  12  16  1   
 24  13  33  1   
 25  14  34  1   
 26  14  35  1   
 27  14  36  1   
 28  15  17  1   
 29  15  37  1   
 30  15  38  1   
 31  16  18  1   
 32  16  39  1   
 33  16  40  1   
 34  17  19  1   
 35  17  41  1   
 36  17  42  1   
 37  18  19  1   
 38  18  43  1   
 39  18  44  1   
 40  19  20  1   
 41  20  21  ar  
 42  20  22  ar  
 43  21  23  ar  
 44  21  24  1   
 45  22  25  ar  
 46  22  45  1   
 47  23  26  ar  
 48  23  46  1   
 49  24  47  1   
 50  24  48  1   
 51  24  49  1   
 52  25  26  ar  
 53  25  50  1   
 54  26  51  1   
@<TRIPOS>SUBSTRUCTURE
  1 ****  12 GROUP 4 **** **** 0

# MOE 2024.06 (io_trps.svl 2023.06)
