@<TRIPOS>MOLECULE
NONAME
32 32 1 0 0 
SMALL
USER_CHARGES


@<TRIPOS>ATOM
  1 CL      -0.0160    -0.5540     0.5140 Cl    1 <1>  -0.1770 
  2 C        1.6770    -0.9750     0.4950 C.ar  1 <1>   0.1770 
  3 C        2.2470    -1.4290    -0.6820 C.ar  1 <1>  -0.1500 
  4 C        2.4200    -0.8460     1.6550 C.ar  1 <1>  -0.1500 
  5 C        3.5910    -1.7650    -0.7030 C.ar  1 <1>  -0.1500 
  6 C        3.7640    -1.1810     1.6360 C.ar  1 <1>  -0.1500 
  7 C        4.3390    -1.6360     0.4610 C.ar  1 <1>   0.1020 
  8 S        6.0910    -2.0490     0.5240 S.3   1 <1>  -0.3320 
  9 C        6.5680    -2.6190    -1.1860 C.3   1 <1>   0.1310 
 10 C        8.0400    -2.9960    -1.2750 C.2   1 <1>   0.5690 
 11 O        8.4800    -3.3060    -2.3550 O.2   1 <1>  -0.5700 
 12 N        8.8140    -2.9790    -0.1590 N.am  1 <1>  -0.7300 
 13 C       10.2600    -3.2820    -0.0950 C.3   1 <1>   0.1400 
 14 C       11.0270    -2.1090     0.5360 C.3   1 <1>  -0.0800 
 15 C       12.5320    -2.4060     0.5320 C.3   1 <1>  -0.2400 
 16 C       10.5670    -1.8150     1.9730 C.3   1 <1>  -0.2400 
 17 H        1.6410    -1.5180    -1.5660 H     1 <1>   0.1500 
 18 H        1.9510    -0.4900     2.5550 H     1 <1>   0.1500 
 19 H        4.0270    -2.1160    -1.6170 H     1 <1>   0.1500 
 20 H        4.3630    -1.0900     2.5240 H     1 <1>   0.1500 
 21 H        6.3590    -1.8120    -1.8620 H     1 <1>   0.0800 
 22 H        5.9600    -3.4720    -1.4220 H     1 <1>   0.0800 
 23 H        8.3820    -2.6910     0.7240 H     1 <1>   0.3700 
 24 H       10.6330    -3.4660    -1.0890 H     1 <1>   0.0800 
 25 H       10.4050    -4.1760     0.4880 H     1 <1>   0.0800 
 26 H       10.8600    -1.2350    -0.0710 H     1 <1>   0.0800 
 27 H       12.7510    -3.2750     1.1270 H     1 <1>   0.0800 
 28 H       13.0800    -1.5700     0.9300 H     1 <1>   0.0800 
 29 H       12.8750    -2.5830    -0.4730 H     1 <1>   0.0800 
 30 H       10.6750    -2.6880     2.5930 H     1 <1>   0.0800 
 31 H        9.5370    -1.5040     1.9890 H     1 <1>   0.0800 
 32 H       11.1560    -1.0200     2.3960 H     1 <1>   0.0800 
@<TRIPOS>BOND
  1   1   2  1   
  2   2   3  ar  
  3   2   4  ar  
  4   3   5  ar  
  5   3  17  1   
  6   4   6  ar  
  7   4  18  1   
  8   5   7  ar  
  9   5  19  1   
 10   6   7  ar  
 11   6  20  1   
 12   7   8  1   
 13   8   9  1   
 14   9  10  1   
 15   9  21  1   
 16   9  22  1   
 17  10  11  2   
 18  10  12  am  
 19  12  13  1   
 20  12  23  1   
 21  13  14  1   
 22  13  24  1   
 23  13  25  1   
 24  14  15  1   
 25  14  16  1   
 26  14  26  1   
 27  15  27  1   
 28  15  28  1   
 29  15  29  1   
 30  16  30  1   
 31  16  31  1   
 32  16  32  1   
@<TRIPOS>SUBSTRUCTURE
  1 ****   8 GROUP 4 **** **** 0

# MOE 2024.06 (io_trps.svl 2023.06)
