@<TRIPOS>MOLECULE
Structure1685
40 40 1 0 0 
SMALL
USER_CHARGES


@<TRIPOS>ATOM
  1 F       -0.4330     0.2480     0.1710 F     1 <1>  -0.3400 
  2 C       -0.0790    -1.0180    -0.0020 C.3   1 <1>   1.1640 
  3 F       -0.7130    -1.7140     0.9360 F     1 <1>  -0.3400 
  4 F       -0.6080    -1.3980    -1.1600 F     1 <1>  -0.3400 
  5 C        1.4420    -1.2010     0.0410 C.ar  1 <1>  -0.1440 
  6 C        2.0880    -1.5850     1.2120 C.ar  1 <1>  -0.1500 
  7 C        2.2090    -0.9730    -1.0970 C.ar  1 <1>  -0.1500 
  8 C        3.4610    -1.7490     1.2390 C.ar  1 <1>  -0.1500 
  9 C        3.5820    -1.1380    -1.0660 C.ar  1 <1>  -0.1500 
 10 C        4.2190    -1.5320     0.1000 C.ar  1 <1>  -0.1430 
 11 C        5.7310    -1.7410     0.1410 C.3   1 <1>   0.3640 
 12 N        6.4260    -0.5890    -0.4410 N.am  1 <1>  -0.7300 
 13 C        6.0920    -2.9880    -0.6480 C.3   1 <1>  -0.2660 
 14 C        6.5850     0.5920     0.1830 C.2   1 <1>   0.7800 
 15 C        7.5670    -3.1990    -0.5730 C.2   1 <1>   0.9060 
 16 O        5.9710     0.8970     1.1870 O.2   1 <1>  -0.5700 
 17 O        7.4780     1.4130    -0.3670 O.3   1 <1>  -0.4300 
 18 O        8.0040    -4.0200     0.2330 O.co2 1 <1>  -0.9000 
 19 O        8.2830    -2.5060    -1.3030 O.co2 1 <1>  -0.9000 
 20 C        7.8740     2.6830     0.0990 C.3   1 <1>   0.2800 
 21 C        6.6830     3.6480     0.0850 C.3   1 <1>  -0.2400 
 22 C        8.9260     3.1630    -0.9010 C.3   1 <1>  -0.2400 
 23 C        8.5140     2.5600     1.4870 C.3   1 <1>  -0.2400 
 24 H        1.5300    -1.7600     2.1160 H     1 <1>   0.1500 
 25 H        1.7450    -0.6650    -2.0180 H     1 <1>   0.1500 
 26 H        3.9460    -2.0460     2.1540 H     1 <1>   0.1500 
 27 H        4.1650    -0.9570    -1.9530 H     1 <1>   0.1500 
 28 H        6.0610    -1.8610     1.1600 H     1 <1>   0.0800 
 29 H        7.2270    -0.9010    -1.0170 H     1 <1>   0.3700 
 30 H        5.8020    -2.8930    -1.6750 H     1 <1>   0.0800 
 31 H        5.6020    -3.8420    -0.2250 H     1 <1>   0.0800 
 32 H        6.2150     3.6470    -0.8830 H     1 <1>   0.0800 
 33 H        7.0150     4.6450     0.3050 H     1 <1>   0.0800 
 34 H        5.9550     3.3760     0.8270 H     1 <1>   0.0800 
 35 H        8.4990     3.2280    -1.8860 H     1 <1>   0.0800 
 36 H        9.7540     2.4770    -0.9250 H     1 <1>   0.0800 
 37 H        9.2940     4.1340    -0.6230 H     1 <1>   0.0800 
 38 H        7.7840     2.2910     2.2270 H     1 <1>   0.0800 
 39 H        8.9440     3.5010     1.7780 H     1 <1>   0.0800 
 40 H        9.2910     1.8170     1.4720 H     1 <1>   0.0800 
@<TRIPOS>BOND
  1   1   2  1   
  2   2   3  1   
  3   2   4  1   
  4   2   5  1   
  5   5   6  ar  
  6   5   7  ar  
  7   6   8  ar  
  8   6  24  1   
  9   7   9  ar  
 10   7  25  1   
 11   8  10  ar  
 12   8  26  1   
 13   9  10  ar  
 14   9  27  1   
 15  10  11  1   
 16  11  12  1   
 17  11  13  1   
 18  11  28  1   
 19  12  14  am  
 20  12  29  1   
 21  13  15  1   
 22  13  30  1   
 23  13  31  1   
 24  14  16  2   
 25  14  17  1   
 26  15  18  ar  
 27  15  19  ar  
 28  17  20  1   
 29  20  21  1   
 30  20  22  1   
 31  20  23  1   
 32  21  32  1   
 33  21  33  1   
 34  21  34  1   
 35  22  35  1   
 36  22  36  1   
 37  22  37  1   
 38  23  38  1   
 39  23  39  1   
 40  23  40  1   
@<TRIPOS>SUBSTRUCTURE
  1 ****  10 GROUP 4 **** **** 0

# MOE 2024.06 (io_trps.svl 2023.06)
