@<TRIPOS>MOLECULE
NONAME
51 54 1 0 0 
SMALL
USER_CHARGES


@<TRIPOS>ATOM
  1 CL       2.4080    -1.8660    -1.2410 Cl    1 <1>  -0.1770 
  2 C        0.8930    -2.7160    -1.0730 C.ar  1 <1>   0.1770 
  3 C        0.2630    -3.2070    -2.2030 C.ar  1 <1>  -0.1500 
  4 C        0.3460    -2.8830     0.1870 C.ar  1 <1>  -0.1500 
  5 C       -0.9380    -3.8830    -2.0670 C.ar  1 <1>  -0.1500 
  6 C       -0.8560    -3.5580     0.3200 C.ar  1 <1>  -0.1500 
  7 C       -1.4950    -4.0660    -0.8080 C.ar  1 <1>   0.0830 
  8 O       -2.6750    -4.7300    -0.7230 O.3   1 <1>  -0.1650 
  9 C       -2.9430    -5.5840     0.2960 C.ar  1 <1>   0.0830 
 10 C       -4.2360    -5.6250     0.7900 C.ar  1 <1>  -0.1500 
 11 C       -1.9720    -6.4210     0.8320 C.ar  1 <1>  -0.1500 
 12 C       -4.5700    -6.4890     1.8220 C.ar  1 <1>  -0.1430 
 13 C       -2.2980    -7.2800     1.8660 C.ar  1 <1>  -0.1500 
 14 C       -3.5910    -7.3130     2.3610 C.ar  1 <1>  -0.1500 
 15 C       -6.0000    -6.5330     2.3440 C.3   1 <1>   0.2530 
 16 N       -6.9600    -6.8310     1.2510 N.3   1 <1>  -0.8100 
 17 C       -8.3840    -6.8140     1.6720 C.3   1 <1>   0.1900 
 18 C       -6.6290    -8.1220     0.6000 C.3   1 <1>   0.1100 
 19 C       -9.3480    -7.1400     0.4830 C.3   1 <1>   0.4230 
 20 C       -8.7540    -5.4630     2.3030 C.3   1 <1>  -0.2400 
 21 C       -7.5100    -8.3750    -0.6340 C.3   1 <1>   0.3430 
 22 N       -8.9790    -8.3580    -0.3060 N.4   1 <1>  -0.9590 
 23 C       -9.4740    -6.0550    -0.5860 C.3   1 <1>  -0.1600 
 24 C       -9.7850    -8.2810    -1.5510 C.3   1 <1>   0.3430 
 25 C       -9.9300    -6.7900    -1.8500 C.3   1 <1>  -0.1600 
 26 H        0.7080    -3.0600    -3.1700 H     1 <1>   0.1500 
 27 H        0.8550    -2.4870     1.0470 H     1 <1>   0.1500 
 28 H       -1.4470    -4.2710    -2.9320 H     1 <1>   0.1500 
 29 H       -1.2960    -3.6860     1.2930 H     1 <1>   0.1500 
 30 H       -4.9830    -4.9810     0.3630 H     1 <1>   0.1500 
 31 H       -0.9690    -6.4070     0.4420 H     1 <1>   0.1500 
 32 H       -1.5440    -7.9240     2.2860 H     1 <1>   0.1500 
 33 H       -3.8280    -7.9860     3.1660 H     1 <1>   0.1500 
 34 H       -6.2070    -5.5680     2.7690 H     1 <1>   0.0800 
 35 H       -6.0890    -7.2700     3.1240 H     1 <1>   0.0800 
 36 H       -8.5310    -7.5740     2.4210 H     1 <1>   0.0800 
 37 H       -6.7350    -8.9310     1.3010 H     1 <1>   0.0800 
 38 H       -5.6070    -8.1130     0.2620 H     1 <1>   0.0800 
 39 H      -10.3320    -7.2930     0.8950 H     1 <1>   0.0800 
 40 H       -8.4290    -4.6480     1.6800 H     1 <1>   0.0800 
 41 H       -8.3140    -5.3600     3.2780 H     1 <1>   0.0800 
 42 H       -9.8190    -5.3900     2.4340 H     1 <1>   0.0800 
 43 H       -7.2430    -9.3220    -1.0730 H     1 <1>   0.0800 
 44 H       -7.2920    -7.6040    -1.3540 H     1 <1>   0.0800 
 45 H       -9.2100    -9.1980     0.2360 H     1 <1>   0.4500 
 46 H       -8.5160    -5.5910    -0.7500 H     1 <1>   0.0800 
 47 H      -10.1750    -5.2940    -0.2880 H     1 <1>   0.0800 
 48 H      -10.7610    -8.7060    -1.3780 H     1 <1>   0.0800 
 49 H       -9.3110    -8.8060    -2.3660 H     1 <1>   0.0800 
 50 H       -9.3200    -6.5130    -2.6920 H     1 <1>   0.0800 
 51 H      -10.9560    -6.5650    -2.0860 H     1 <1>   0.0800 
@<TRIPOS>BOND
  1   1   2  1   
  2   2   3  ar  
  3   2   4  ar  
  4   3   5  ar  
  5   3  26  1   
  6   4   6  ar  
  7   4  27  1   
  8   5   7  ar  
  9   5  28  1   
 10   6   7  ar  
 11   6  29  1   
 12   7   8  1   
 13   8   9  1   
 14   9  10  ar  
 15   9  11  ar  
 16  10  12  ar  
 17  10  30  1   
 18  11  13  ar  
 19  11  31  1   
 20  12  14  ar  
 21  12  15  1   
 22  13  14  ar  
 23  13  32  1   
 24  14  33  1   
 25  15  16  1   
 26  15  34  1   
 27  15  35  1   
 28  16  17  1   
 29  16  18  1   
 30  17  19  1   
 31  17  20  1   
 32  17  36  1   
 33  18  21  1   
 34  18  37  1   
 35  18  38  1   
 36  19  22  1   
 37  19  23  1   
 38  19  39  1   
 39  20  40  1   
 40  20  41  1   
 41  20  42  1   
 42  21  22  1   
 43  21  43  1   
 44  21  44  1   
 45  22  24  1   
 46  22  45  1   
 47  23  25  1   
 48  23  46  1   
 49  23  47  1   
 50  24  25  1   
 51  24  48  1   
 52  24  49  1   
 53  25  50  1   
 54  25  51  1   
@<TRIPOS>SUBSTRUCTURE
  1 ****  10 GROUP 4 **** **** 0

# MOE 2024.06 (io_trps.svl 2023.06)
