@<TRIPOS>MOLECULE
NONAME
39 41 1 0 0 
SMALL
USER_CHARGES


@<TRIPOS>ATOM
  1 S        0.0410     0.3720     0.3830 S.3   1 <1>  -0.1970 
  2 C        1.5100    -0.5650     0.2880 C.2   1 <1>   0.2420 
  3 C       -0.9050    -1.1180     0.0780 C.2   1 <1>   0.5050 
  4 N        2.7700    -0.3340     0.3870 N.2   1 <1>  -0.3380 
  5 N        1.1870    -1.8210     0.0520 N.pl3 1 <1>   0.5050 
  6 N       -0.1610    -2.1580    -0.0700 N.2   1 <1>  -0.6520 
  7 C       -2.3500    -1.0290     0.0280 C.ar  1 <1>   0.0860 
  8 N        3.3470    -1.5380     0.2020 N.2   1 <1>  -0.3380 
  9 C        2.3970    -2.4020     0.0060 C.2   1 <1>   0.0060 
 10 C       -3.1150    -2.1780    -0.1870 C.ar  1 <1>  -0.1500 
 11 C       -3.0550     0.1670     0.1840 C.ar  1 <1>  -0.1500 
 12 C        2.6000    -3.8840    -0.2440 C.3   1 <1>  -0.0600 
 13 C       -4.4980    -2.1560    -0.2390 C.ar  1 <1>  -0.1430 
 14 C       -4.4340     0.2030     0.1320 C.ar  1 <1>  -0.1500 
 15 C       -5.1820    -0.9500    -0.0740 C.ar  1 <1>   0.1170 
 16 C       -5.2480    -3.4630    -0.4700 C.3   1 <1>  -0.0960 
 17 N       -6.5820    -0.9260    -0.1370 N.am  1 <1>  -0.5470 
 18 C       -7.4940    -0.0510     0.3900 C.2   1 <1>   0.5690 
 19 O       -7.1880     0.8980     1.0700 O.2   1 <1>  -0.5700 
 20 C       -8.9770    -0.3210     0.1100 C.3   1 <1>  -0.0190 
 21 C       -9.6870     0.9170    -0.4630 C.3   1 <1>  -0.2400 
 22 C       -9.7030    -0.8040     1.3760 C.3   1 <1>  -0.2400 
 23 H       -2.6000    -3.1150    -0.3130 H     1 <1>   0.1500 
 24 H       -2.5360     1.0940     0.3500 H     1 <1>   0.1500 
 25 H        2.1910    -4.1540    -1.2010 H     1 <1>   0.0800 
 26 H        2.1100    -4.4560     0.5220 H     1 <1>   0.0800 
 27 H        3.6500    -4.1170    -0.2360 H     1 <1>   0.0800 
 28 H       -4.9320     1.1480     0.2510 H     1 <1>   0.1500 
 29 H       -4.5700    -4.2980    -0.5010 H     1 <1>   0.0800 
 30 H       -5.7770    -3.4260    -1.4050 H     1 <1>   0.0800 
 31 H       -5.9490    -3.6340     0.3280 H     1 <1>   0.0800 
 32 H       -6.9900    -1.7300    -0.6050 H     1 <1>   0.3700 
 33 H       -9.0450    -1.1010    -0.6270 H     1 <1>   0.0800 
 34 H       -9.6650     1.7230     0.2500 H     1 <1>   0.0800 
 35 H      -10.7120     0.6920    -0.6980 H     1 <1>   0.0800 
 36 H       -9.1930     1.2460    -1.3600 H     1 <1>   0.0800 
 37 H       -9.6670    -0.0420     2.1360 H     1 <1>   0.0800 
 38 H       -9.2310    -1.6900     1.7620 H     1 <1>   0.0800 
 39 H      -10.7320    -1.0280     1.1600 H     1 <1>   0.0800 
@<TRIPOS>BOND
  1   1   2  1   
  2   1   3  1   
  3   2   4  2   
  4   2   5  1   
  5   3   6  2   
  6   3   7  1   
  7   4   8  1   
  8   5   6  1   
  9   5   9  1   
 10   7  10  ar  
 11   7  11  ar  
 12   8   9  2   
 13   9  12  1   
 14  10  13  ar  
 15  10  23  1   
 16  11  14  ar  
 17  11  24  1   
 18  12  25  1   
 19  12  26  1   
 20  12  27  1   
 21  13  15  ar  
 22  13  16  1   
 23  14  15  ar  
 24  14  28  1   
 25  15  17  1   
 26  16  29  1   
 27  16  30  1   
 28  16  31  1   
 29  17  18  am  
 30  17  32  1   
 31  18  19  2   
 32  18  20  1   
 33  20  21  1   
 34  20  22  1   
 35  20  33  1   
 36  21  34  1   
 37  21  35  1   
 38  21  36  1   
 39  22  37  1   
 40  22  38  1   
 41  22  39  1   
@<TRIPOS>SUBSTRUCTURE
  1 ****   7 GROUP 4 **** **** 0

# MOE 2024.06 (io_trps.svl 2023.06)
