@<TRIPOS>MOLECULE
NONAME
52 53 1 0 0 
SMALL
USER_CHARGES


@<TRIPOS>ATOM
  1 S        0.5970     0.2670    -0.0090 S.o2  1 <1>   1.4470 
  2 O        1.0550    -0.2990     1.2380 O.2   1 <1>  -0.6500 
  3 O        1.5120     0.3360    -1.1290 O.2   1 <1>  -0.6500 
  4 N        0.1370     1.9060     0.3110 N.am  1 <1>  -0.6930 
  5 C       -0.9640    -0.4900    -0.5350 C.ar  1 <1>  -0.0090 
  6 C       -0.7570     2.1970     1.3360 C.ar  1 <1>   0.1990 
  7 C        1.1160     2.9700    -0.0670 C.3   1 <1>   0.2570 
  8 C       -1.9070    -0.8990     0.4000 C.ar  1 <1>  -0.1500 
  9 C       -1.2740    -0.6500    -1.8810 C.ar  1 <1>  -0.1500 
 10 C       -2.0820     2.5540     1.0660 C.ar  1 <1>  -0.1430 
 11 C       -0.3310     2.1350     2.6580 C.ar  1 <1>  -0.1500 
 12 C        2.4590     2.9000     0.6710 C.2   1 <1>   0.5690 
 13 C       -3.1150    -1.4500     0.0090 C.ar  1 <1>  -0.1500 
 14 C       -2.4800    -1.2000    -2.2790 C.ar  1 <1>  -0.1500 
 15 C       -2.9460     2.8230     2.1150 C.ar  1 <1>  -0.1500 
 16 C       -2.6100     2.6520    -0.3610 C.3   1 <1>  -0.0960 
 17 C       -1.1980     2.4080     3.6980 C.ar  1 <1>  -0.1500 
 18 O        2.6830     3.6960     1.5520 O.2   1 <1>  -0.5700 
 19 N        3.3720     1.9590     0.3090 N.am  1 <1>  -0.7300 
 20 C       -3.4080    -1.6040    -1.3350 C.ar  1 <1>  -0.1430 
 21 C       -2.5100     2.7510     3.4260 C.ar  1 <1>  -0.1500 
 22 C        4.6780     1.7330     0.9620 C.3   1 <1>   0.1400 
 23 C       -4.7330    -2.2070    -1.7670 C.3   1 <1>  -0.0970 
 24 C        5.7530     1.3950    -0.0840 C.3   1 <1>  -0.0800 
 25 C        7.0780     1.0630     0.6140 C.3   1 <1>  -0.2400 
 26 C        5.9710     2.5460    -1.0780 C.3   1 <1>  -0.2400 
 27 H        0.6780     3.9310     0.1360 H     1 <1>   0.0800 
 28 H        1.3030     2.9170    -1.1240 H     1 <1>   0.0800 
 29 H       -1.6950    -0.7800     1.4500 H     1 <1>   0.1500 
 30 H       -0.5640    -0.3400    -2.6290 H     1 <1>   0.1500 
 31 H        0.6890     1.8680     2.8700 H     1 <1>   0.1500 
 32 H       -3.8260    -1.7550     0.7570 H     1 <1>   0.1500 
 33 H       -2.6930    -1.3130    -3.3280 H     1 <1>   0.1500 
 34 H       -3.9690     3.0920     1.9190 H     1 <1>   0.1500 
 35 H       -2.8600     1.6730    -0.7280 H     1 <1>   0.0800 
 36 H       -1.8750     3.0900    -1.0110 H     1 <1>   0.0800 
 37 H       -3.4930     3.2640    -0.3980 H     1 <1>   0.0800 
 38 H       -0.8520     2.3530     4.7150 H     1 <1>   0.1500 
 39 H        3.1030     1.2510    -0.3900 H     1 <1>   0.3700 
 40 H       -3.1890     2.9630     4.2340 H     1 <1>   0.1500 
 41 H        4.5770     0.9180     1.6580 H     1 <1>   0.0800 
 42 H        4.9650     2.6120     1.5150 H     1 <1>   0.0800 
 43 H       -4.6280    -2.7100    -2.7110 H     1 <1>   0.0800 
 44 H       -5.4710    -1.4320    -1.8650 H     1 <1>   0.0800 
 45 H       -5.0750    -2.9220    -1.0400 H     1 <1>   0.0800 
 46 H        5.4360     0.5200    -0.6260 H     1 <1>   0.0800 
 47 H        7.4360     1.9110     1.1720 H     1 <1>   0.0800 
 48 H        7.8240     0.7890    -0.1110 H     1 <1>   0.0800 
 49 H        6.9480     0.2370     1.2910 H     1 <1>   0.0800 
 50 H        6.2600     3.4430    -0.5590 H     1 <1>   0.0800 
 51 H        5.0700     2.7470    -1.6290 H     1 <1>   0.0800 
 52 H        6.7430     2.2920    -1.7830 H     1 <1>   0.0800 
@<TRIPOS>BOND
  1   1   2  2   
  2   1   3  2   
  3   1   4  am  
  4   1   5  1   
  5   4   6  1   
  6   4   7  1   
  7   5   8  ar  
  8   5   9  ar  
  9   6  10  ar  
 10   6  11  ar  
 11   7  12  1   
 12   7  27  1   
 13   7  28  1   
 14   8  13  ar  
 15   8  29  1   
 16   9  14  ar  
 17   9  30  1   
 18  10  15  ar  
 19  10  16  1   
 20  11  17  ar  
 21  11  31  1   
 22  12  18  2   
 23  12  19  am  
 24  13  20  ar  
 25  13  32  1   
 26  14  20  ar  
 27  14  33  1   
 28  15  21  ar  
 29  15  34  1   
 30  16  35  1   
 31  16  36  1   
 32  16  37  1   
 33  17  21  ar  
 34  17  38  1   
 35  19  22  1   
 36  19  39  1   
 37  20  23  1   
 38  21  40  1   
 39  22  24  1   
 40  22  41  1   
 41  22  42  1   
 42  23  43  1   
 43  23  44  1   
 44  23  45  1   
 45  24  25  1   
 46  24  26  1   
 47  24  46  1   
 48  25  47  1   
 49  25  48  1   
 50  25  49  1   
 51  26  50  1   
 52  26  51  1   
 53  26  52  1   
@<TRIPOS>SUBSTRUCTURE
  1 ****   4 GROUP 4 **** **** 0

# MOE 2024.06 (io_trps.svl 2023.06)
