@<TRIPOS>MOLECULE
NONAME
52 54 1 0 0 
SMALL
USER_CHARGES


@<TRIPOS>ATOM
  1 O        1.9310     0.1190     0.2990 O.2   1 <1>  -0.5700 
  2 C        2.4670    -0.7190    -0.4020 C.2   1 <1>   0.5440 
  3 N        3.5000    -0.2860    -1.2030 N.am  1 <1>  -0.6600 
  4 C        2.0780    -2.1180    -0.3370 C.ar  1 <1>   0.0860 
  5 C        3.4830     1.1240    -1.6890 C.3   1 <1>   0.1400 
  6 C        4.8710    -0.8010    -0.9400 C.3   1 <1>   0.1400 
  7 C        1.4280    -2.6330     0.7870 C.ar  1 <1>  -0.1500 
  8 C        2.3370    -3.0040    -1.3850 C.ar  1 <1>  -0.1500 
  9 C        4.1840     2.0380    -0.6670 C.3   1 <1>   0.3430 
 10 C        5.5950     0.1210     0.0660 C.3   1 <1>   0.3430 
 11 C        1.0700    -3.9660     0.8740 C.ar  1 <1>  -0.1500 
 12 C        1.9830    -4.3380    -1.3050 C.ar  1 <1>  -0.1500 
 13 N        5.5900     1.5700    -0.3600 N.4   1 <1>  -0.9590 
 14 C        1.3510    -4.8330    -0.1770 C.ar  1 <1>   0.0830 
 15 C        6.2380     2.4170     0.6800 C.3   1 <1>   0.3430 
 16 O        1.0410    -6.1480    -0.1750 O.3   1 <1>  -0.3630 
 17 C        6.5550     3.8010     0.1150 C.3   1 <1>  -0.1600 
 18 C        0.3610    -6.7500     0.9050 C.3   1 <1>   0.0400 
 19 C        7.3320     4.6500     1.1280 C.3   1 <1>  -0.0170 
 20 C        7.6160     6.0140     0.5260 C.ar  1 <1>  -0.1430 
 21 C        6.7300     7.0640     0.7210 C.ar  1 <1>  -0.1500 
 22 C        8.7590     6.2210    -0.2310 C.ar  1 <1>  -0.1500 
 23 C        6.9830     8.3040     0.1600 C.ar  1 <1>  -0.1500 
 24 C        9.0120     7.4610    -0.7910 C.ar  1 <1>  -0.1500 
 25 C        8.1230     8.5020    -0.5970 C.ar  1 <1>  -0.1500 
 26 H        2.4640     1.4500    -1.8170 H     1 <1>   0.0800 
 27 H        3.9700     1.1870    -2.6460 H     1 <1>   0.0800 
 28 H        5.4220    -0.8510    -1.8640 H     1 <1>   0.0800 
 29 H        4.8200    -1.7970    -0.5340 H     1 <1>   0.0800 
 30 H        1.1990    -1.9730     1.6060 H     1 <1>   0.1500 
 31 H        2.8140    -2.6450    -2.2790 H     1 <1>   0.1500 
 32 H        3.5950     2.0390     0.2360 H     1 <1>   0.0800 
 33 H        4.2020     3.0430    -1.0520 H     1 <1>   0.0800 
 34 H        6.6090    -0.2210     0.1900 H     1 <1>   0.0800 
 35 H        5.0980     0.0290     1.0180 H     1 <1>   0.0800 
 36 H        0.5740    -4.3120     1.7610 H     1 <1>   0.1500 
 37 H        2.1900    -5.0100    -2.1200 H     1 <1>   0.1500 
 38 H        6.1410     1.6480    -1.2250 H     1 <1>   0.4500 
 39 H        7.1580     1.9550     1.0000 H     1 <1>   0.0800 
 40 H        5.5910     2.5080     1.5390 H     1 <1>   0.0800 
 41 H        5.6480     4.3230    -0.1310 H     1 <1>   0.0800 
 42 H        7.1510     3.7050    -0.7760 H     1 <1>   0.0800 
 43 H        0.2170    -7.7890     0.6710 H     1 <1>   0.0800 
 44 H       -0.5930    -6.2670     1.0290 H     1 <1>   0.0800 
 45 H        0.9600    -6.6550     1.7920 H     1 <1>   0.0800 
 46 H        8.2630     4.1740     1.3850 H     1 <1>   0.0800 
 47 H        6.7630     4.7710     2.0340 H     1 <1>   0.0800 
 48 H        5.8400     6.9270     1.3090 H     1 <1>   0.1500 
 49 H        9.4620     5.4220    -0.3890 H     1 <1>   0.1500 
 50 H        6.2930     9.1160     0.3140 H     1 <1>   0.1500 
 51 H        9.9010     7.6170    -1.3780 H     1 <1>   0.1500 
 52 H        8.3200     9.4670    -1.0330 H     1 <1>   0.1500 
@<TRIPOS>BOND
  1   1   2  2   
  2   2   3  am  
  3   2   4  1   
  4   3   5  1   
  5   3   6  1   
  6   4   7  ar  
  7   4   8  ar  
  8   5   9  1   
  9   5  26  1   
 10   5  27  1   
 11   6  10  1   
 12   6  28  1   
 13   6  29  1   
 14   7  11  ar  
 15   7  30  1   
 16   8  12  ar  
 17   8  31  1   
 18   9  13  1   
 19   9  32  1   
 20   9  33  1   
 21  10  13  1   
 22  10  34  1   
 23  10  35  1   
 24  11  14  ar  
 25  11  36  1   
 26  12  14  ar  
 27  12  37  1   
 28  13  15  1   
 29  13  38  1   
 30  14  16  1   
 31  15  17  1   
 32  15  39  1   
 33  15  40  1   
 34  16  18  1   
 35  17  19  1   
 36  17  41  1   
 37  17  42  1   
 38  18  43  1   
 39  18  44  1   
 40  18  45  1   
 41  19  20  1   
 42  19  46  1   
 43  19  47  1   
 44  20  21  ar  
 45  20  22  ar  
 46  21  23  ar  
 47  21  48  1   
 48  22  24  ar  
 49  22  49  1   
 50  23  25  ar  
 51  23  50  1   
 52  24  25  ar  
 53  24  51  1   
 54  25  52  1   
@<TRIPOS>SUBSTRUCTURE
  1 ****   9 GROUP 4 **** **** 0

# MOE 2024.06 (io_trps.svl 2023.06)
