@<TRIPOS>MOLECULE
NONAME
47 49 1 0 0 
SMALL
USER_CHARGES


@<TRIPOS>ATOM
  1 S       -0.5980     0.6980     1.2100 S.o2  1 <1>   1.4470 
  2 O        0.3100    -0.2830     1.7610 O.2   1 <1>  -0.6500 
  3 O       -1.1460     1.7230     2.0740 O.2   1 <1>  -0.6500 
  4 N        0.2170     1.5020    -0.0420 N.am  1 <1>  -0.8490 
  5 C       -1.9470    -0.1580     0.3480 C.ar  1 <1>  -0.0090 
  6 C       -0.5480     2.6450    -0.5530 C.3   1 <1>   0.1960 
  7 C        1.5600     1.9160     0.3760 C.3   1 <1>   0.1960 
  8 C       -3.2230    -0.2090     0.8880 C.ar  1 <1>  -0.1500 
  9 C       -1.7350    -0.7950    -0.8670 C.ar  1 <1>  -0.1500 
 10 C        0.1430     3.2350    -1.7850 C.3   1 <1>  -0.1600 
 11 C        2.3330     2.4970    -0.8140 C.3   1 <1>  -0.1600 
 12 C       -4.2860    -0.8500     0.2550 C.ar  1 <1>   0.0860 
 13 C       -2.7660    -1.4440    -1.5210 C.ar  1 <1>  -0.1500 
 14 C        1.5790     3.6630    -1.4630 C.3   1 <1>  -0.1600 
 15 C       -4.0360    -1.4740    -0.9720 C.ar  1 <1>  -0.1430 
 16 C       -5.5970    -0.8430     0.8780 C.2   1 <1>   0.5440 
 17 C       -5.1520    -2.1960    -1.7160 C.3   1 <1>  -0.0970 
 18 O       -6.0990    -1.8820     1.2650 O.2   1 <1>  -0.5700 
 19 N       -6.2930     0.3310     1.0470 N.am  1 <1>  -0.6600 
 20 C       -7.6330     0.3820     1.6660 C.3   1 <1>   0.1400 
 21 C       -5.9160     1.6400     0.4740 C.3   1 <1>   0.1400 
 22 C       -8.0180     1.8570     1.6430 C.3   1 <1>  -0.1600 
 23 C       -7.2070     2.4520     0.4940 C.3   1 <1>  -0.1600 
 24 H       -0.6360     3.4010     0.2120 H     1 <1>   0.0800 
 25 H       -1.5390     2.3270    -0.8270 H     1 <1>   0.0800 
 26 H        2.1040     1.0660     0.7540 H     1 <1>   0.0800 
 27 H        1.4880     2.6470     1.1650 H     1 <1>   0.0800 
 28 H       -3.4070     0.2640     1.8390 H     1 <1>   0.1500 
 29 H       -0.7500    -0.7810    -1.3050 H     1 <1>   0.1500 
 30 H       -0.4160     4.0840    -2.1370 H     1 <1>   0.0800 
 31 H        0.1490     2.4960    -2.5680 H     1 <1>   0.0800 
 32 H        2.4870     1.7150    -1.5380 H     1 <1>   0.0800 
 33 H        3.3000     2.8300    -0.4820 H     1 <1>   0.0800 
 34 H       -2.5680    -1.9280    -2.4620 H     1 <1>   0.1500 
 35 H        1.5600     4.4990    -0.7840 H     1 <1>   0.0800 
 36 H        2.0830     3.9740    -2.3620 H     1 <1>   0.0800 
 37 H       -5.9950    -1.5410    -1.8500 H     1 <1>   0.0800 
 38 H       -5.4720    -3.0530    -1.1500 H     1 <1>   0.0800 
 39 H       -4.8250    -2.5300    -2.6840 H     1 <1>   0.0800 
 40 H       -7.6040    -0.0110     2.6690 H     1 <1>   0.0800 
 41 H       -8.3160    -0.2010     1.0710 H     1 <1>   0.0800 
 42 H       -5.5320     1.5340    -0.5260 H     1 <1>   0.0800 
 43 H       -5.1760     2.1010     1.1060 H     1 <1>   0.0800 
 44 H       -7.7190     2.3080     2.5740 H     1 <1>   0.0800 
 45 H       -9.0770     1.9920     1.5140 H     1 <1>   0.0800 
 46 H       -7.7280     2.3010    -0.4350 H     1 <1>   0.0800 
 47 H       -7.0180     3.5020     0.6250 H     1 <1>   0.0800 
@<TRIPOS>BOND
  1   1   2  2   
  2   1   3  2   
  3   1   4  am  
  4   1   5  1   
  5   4   6  1   
  6   4   7  1   
  7   5   8  ar  
  8   5   9  ar  
  9   6  10  1   
 10   6  24  1   
 11   6  25  1   
 12   7  11  1   
 13   7  26  1   
 14   7  27  1   
 15   8  12  ar  
 16   8  28  1   
 17   9  13  ar  
 18   9  29  1   
 19  10  14  1   
 20  10  30  1   
 21  10  31  1   
 22  11  14  1   
 23  11  32  1   
 24  11  33  1   
 25  12  15  ar  
 26  12  16  1   
 27  13  15  ar  
 28  13  34  1   
 29  14  35  1   
 30  14  36  1   
 31  15  17  1   
 32  16  18  2   
 33  16  19  am  
 34  17  37  1   
 35  17  38  1   
 36  17  39  1   
 37  19  20  1   
 38  19  21  1   
 39  20  22  1   
 40  20  40  1   
 41  20  41  1   
 42  21  23  1   
 43  21  42  1   
 44  21  43  1   
 45  22  23  1   
 46  22  44  1   
 47  22  45  1   
 48  23  46  1   
 49  23  47  1   
@<TRIPOS>SUBSTRUCTURE
  1 ****   8 GROUP 4 **** **** 0

# MOE 2024.06 (io_trps.svl 2023.06)
