@<TRIPOS>MOLECULE
NONAME
39 40 1 0 0 
SMALL
USER_CHARGES


@<TRIPOS>ATOM
  1 S       -8.1380    -1.1690    -0.1020 S.3   1 <1>  -0.4600 
  2 C       -7.6920     0.3230    -1.0200 C.3   1 <1>   0.5940 
  3 C       -6.4730    -1.8420     0.0790 C.3   1 <1>   0.1310 
  4 N       -6.2370     0.1860    -1.2600 N.am  1 <1>  -0.6600 
  5 C       -7.9560     1.5810    -0.1900 C.ar  1 <1>  -0.1440 
  6 C       -5.5910    -0.8220    -0.6060 C.2   1 <1>   0.5690 
  7 C       -5.6090     1.1350    -2.2240 C.3   1 <1>   0.1400 
  8 C       -7.7270     1.6240     1.1820 C.ar  1 <1>  -0.1500 
  9 C       -8.4060     2.7290    -0.8270 C.ar  1 <1>  -0.1500 
 10 O       -4.3870    -0.8910    -0.5170 O.2   1 <1>  -0.5700 
 11 C       -4.4470     1.9200    -1.6000 C.3   1 <1>  -0.1600 
 12 C       -7.9350     2.7920     1.8960 C.ar  1 <1>  -0.1500 
 13 C       -8.6110     3.8980    -0.1150 C.ar  1 <1>  -0.1500 
 14 C       -4.7940     2.4430    -0.2040 C.3   1 <1>   0.3430 
 15 C       -8.3730     3.9310     1.2460 C.ar  1 <1>  -0.1500 
 16 N       -3.5580     2.7640     0.5620 N.4   1 <1>  -0.9590 
 17 C       -2.8930     1.5040     1.0320 C.3   1 <1>   0.2630 
 18 C       -3.8930     3.6420     1.7230 C.3   1 <1>   0.2630 
 19 H       -8.2500     0.3120    -1.9410 H     1 <1>   0.0800 
 20 H       -6.4360    -2.7960    -0.4140 H     1 <1>   0.0800 
 21 H       -6.2510    -1.9290     1.1260 H     1 <1>   0.0800 
 22 H       -6.3510     1.8290    -2.5820 H     1 <1>   0.0800 
 23 H       -5.2480     0.5790    -3.0740 H     1 <1>   0.0800 
 24 H       -7.3920     0.7490     1.7120 H     1 <1>   0.1500 
 25 H       -8.6070     2.7250    -1.8860 H     1 <1>   0.1500 
 26 H       -4.2020     2.7450    -2.2440 H     1 <1>   0.0800 
 27 H       -3.5950     1.2680    -1.5740 H     1 <1>   0.0800 
 28 H       -7.7700     2.8110     2.9600 H     1 <1>   0.1500 
 29 H       -8.9650     4.7820    -0.6190 H     1 <1>   0.1500 
 30 H       -5.3480     1.6950     0.3380 H     1 <1>   0.0800 
 31 H       -5.4230     3.3140    -0.2950 H     1 <1>   0.0800 
 32 H       -8.5440     4.8390     1.8010 H     1 <1>   0.1500 
 33 H       -2.9140     3.2670    -0.0660 H     1 <1>   0.4500 
 34 H       -3.5570     0.9470     1.6720 H     1 <1>   0.0800 
 35 H       -1.9930     1.7340     1.5790 H     1 <1>   0.0800 
 36 H       -2.6320     0.8750     0.1950 H     1 <1>   0.0800 
 37 H       -4.5800     3.1400     2.3840 H     1 <1>   0.0800 
 38 H       -4.3510     4.5560     1.3800 H     1 <1>   0.0800 
 39 H       -3.0000     3.8900     2.2740 H     1 <1>   0.0800 
@<TRIPOS>BOND
  1   1   2  1   
  2   1   3  1   
  3   2   4  1   
  4   2   5  1   
  5   2  19  1   
  6   3   6  1   
  7   3  20  1   
  8   3  21  1   
  9   4   6  am  
 10   4   7  1   
 11   5   8  ar  
 12   5   9  ar  
 13   6  10  2   
 14   7  11  1   
 15   7  22  1   
 16   7  23  1   
 17   8  12  ar  
 18   8  24  1   
 19   9  13  ar  
 20   9  25  1   
 21  11  14  1   
 22  11  26  1   
 23  11  27  1   
 24  12  15  ar  
 25  12  28  1   
 26  13  15  ar  
 27  13  29  1   
 28  14  16  1   
 29  14  30  1   
 30  14  31  1   
 31  15  32  1   
 32  16  17  1   
 33  16  18  1   
 34  16  33  1   
 35  17  34  1   
 36  17  35  1   
 37  17  36  1   
 38  18  37  1   
 39  18  38  1   
 40  18  39  1   
@<TRIPOS>SUBSTRUCTURE
  1 ****   5 GROUP 4 **** **** 0

# MOE 2024.06 (io_trps.svl 2023.06)
