@<TRIPOS>MOLECULE
NONAME
41 43 1 0 0 
SMALL
USER_CHARGES


@<TRIPOS>ATOM
  1 F        0.9060    -1.8540    -0.9510 F     1 <1>  -0.3400 
  2 C        0.5140    -2.5530     0.1070 C.3   1 <1>   0.7380 
  3 F        1.4310    -3.5020     0.2350 F     1 <1>  -0.3400 
  4 C       -0.8200    -3.1930    -0.1900 C.2   1 <1>  -0.1690 
  5 N       -1.7150    -3.2000     0.8480 N.pl3 1 <1>   0.6010 
  6 C       -1.2090    -3.7610    -1.3660 C.2   1 <1>  -0.1360 
  7 N       -1.5590    -2.6990     2.0890 N.2   1 <1>  -0.7070 
  8 C       -2.9560    -3.7570     0.6770 C.2   1 <1>  -0.0260 
  9 C       -2.5060    -4.3330    -1.4800 C.2   1 <1>   0.3750 
 10 C       -2.6850    -2.9680     2.6830 C.2   1 <1>   0.1390 
 11 N       -3.3540    -4.3360    -0.5050 N.2   1 <1>  -0.5760 
 12 C       -3.6160    -3.6140     1.8730 C.2   1 <1>  -0.0860 
 13 C       -2.9090    -4.9620    -2.7950 C.3   1 <1>  -0.1790 
 14 C       -4.9210    -4.0190     2.3120 C.2   1 <1>   0.7160 
 15 O       -5.0470    -4.4020     3.4630 O.2   1 <1>  -0.5700 
 16 N       -6.0530    -3.9510     1.5220 N.am  1 <1>  -0.6600 
 17 C       -6.1920    -3.0190     0.3700 C.3   1 <1>   0.1400 
 18 C       -7.2840    -4.7110     1.8700 C.3   1 <1>   0.1400 
 19 C       -6.6980    -3.7740    -0.8620 C.3   1 <1>  -0.1600 
 20 C       -7.7830    -5.4790     0.6420 C.3   1 <1>  -0.1600 
 21 C       -7.9950    -4.5470    -0.5650 C.3   1 <1>  -0.0190 
 22 C       -8.4750    -5.3240    -1.7880 C.2   1 <1>   0.5690 
 23 O       -7.7450    -6.0940    -2.3580 O.2   1 <1>  -0.5700 
 24 N       -9.7310    -5.1470    -2.2360 N.am  1 <1>  -0.8000 
 25 H        0.5500    -1.9140     0.9720 H     1 <1>   0.0800 
 26 H       -0.5590    -3.7950    -2.2230 H     1 <1>   0.1500 
 27 H       -2.8830    -2.7150     3.7130 H     1 <1>   0.1500 
 28 H       -2.9120    -4.2190    -3.5710 H     1 <1>   0.0800 
 29 H       -3.8950    -5.3850    -2.7190 H     1 <1>   0.0800 
 30 H       -2.2200    -5.7450    -3.0530 H     1 <1>   0.0800 
 31 H       -5.2560    -2.5420     0.1430 H     1 <1>   0.0800 
 32 H       -6.8960    -2.2490     0.6340 H     1 <1>   0.0800 
 33 H       -8.0370    -4.0230     2.2100 H     1 <1>   0.0800 
 34 H       -7.0840    -5.4100     2.6650 H     1 <1>   0.0800 
 35 H       -5.9390    -4.4640    -1.1850 H     1 <1>   0.0800 
 36 H       -6.8650    -3.0780    -1.6640 H     1 <1>   0.0800 
 37 H       -8.7050    -5.9760     0.8850 H     1 <1>   0.0800 
 38 H       -7.0600    -6.2370     0.3900 H     1 <1>   0.0800 
 39 H       -8.7540    -3.8320    -0.3040 H     1 <1>   0.0800 
 40 H      -10.0390    -5.6750    -3.0540 H     1 <1>   0.3700 
 41 H      -10.4140    -4.5220    -1.8110 H     1 <1>   0.3700 
@<TRIPOS>BOND
  1   1   2  1   
  2   2   3  1   
  3   2   4  1   
  4   2  25  1   
  5   4   5  1   
  6   4   6  2   
  7   5   7  1   
  8   5   8  1   
  9   6   9  1   
 10   6  26  1   
 11   7  10  2   
 12   8  11  1   
 13   8  12  2   
 14   9  11  2   
 15   9  13  1   
 16  10  12  1   
 17  10  27  1   
 18  12  14  1   
 19  13  28  1   
 20  13  29  1   
 21  13  30  1   
 22  14  15  2   
 23  14  16  am  
 24  16  17  1   
 25  16  18  1   
 26  17  19  1   
 27  17  31  1   
 28  17  32  1   
 29  18  20  1   
 30  18  33  1   
 31  18  34  1   
 32  19  21  1   
 33  19  35  1   
 34  19  36  1   
 35  20  21  1   
 36  20  37  1   
 37  20  38  1   
 38  21  22  1   
 39  21  39  1   
 40  22  23  2   
 41  22  24  am  
 42  24  40  1   
 43  24  41  1   
@<TRIPOS>SUBSTRUCTURE
  1 ****  11 GROUP 4 **** **** 0

# MOE 2024.06 (io_trps.svl 2023.06)
