@<TRIPOS>MOLECULE
NONAME
46 48 1 0 0 
SMALL
USER_CHARGES


@<TRIPOS>ATOM
  1 F        0.4320     1.6740     0.0070 F     1 <1>  -0.3400 
  2 C        1.4520     1.3530    -0.7810 C.3   1 <1>   1.1640 
  3 F        1.3480     0.0480    -1.0050 F     1 <1>  -0.3400 
  4 F        1.2270     1.9500    -1.9440 F     1 <1>  -0.3400 
  5 C        2.8150     1.7420    -0.1870 C.ar  1 <1>  -0.1440 
  6 C        3.9670     1.0570    -0.5560 C.ar  1 <1>  -0.1500 
  7 C        2.9310     2.7920     0.7200 C.ar  1 <1>  -0.1500 
  8 C        5.2120     1.3890    -0.0380 C.ar  1 <1>   0.1000 
  9 C        4.1650     3.1380     1.2420 C.ar  1 <1>  -0.1500 
 10 N        6.3340     0.6620    -0.4310 N.pl3 1 <1>  -0.8380 
 11 C        5.2970     2.4410     0.8660 C.ar  1 <1>  -0.1500 
 12 C        7.6030     1.3580    -0.8060 C.3   1 <1>   0.2090 
 13 C        6.4500    -0.7630    -0.0030 C.3   1 <1>   0.2090 
 14 C        8.7150     1.1170     0.2380 C.3   1 <1>   0.3430 
 15 C        7.5780    -0.9480     1.0340 C.3   1 <1>   0.3430 
 16 N        8.8840    -0.3440     0.5850 N.4   1 <1>  -0.9590 
 17 C        9.9670    -0.5510     1.5840 C.3   1 <1>   0.4860 
 18 C       11.2700    -0.0660     0.9840 C.ar  1 <1>  -0.1430 
 19 C       11.9080    -0.8060    -0.0010 C.ar  1 <1>  -0.1500 
 20 C       11.8320     1.1290     1.4080 C.ar  1 <1>  -0.1500 
 21 C       13.0860    -0.3470    -0.5640 C.ar  1 <1>  -0.1500 
 22 C       13.0100     1.5840     0.8430 C.ar  1 <1>  -0.1500 
 23 C       13.6420     0.8500    -0.1460 C.ar  1 <1>  -0.1430 
 24 C       14.9360     1.3500    -0.7650 C.3   1 <1>  -0.0970 
 25 H        3.9130     0.2500    -1.2660 H     1 <1>   0.1500 
 26 H        2.0600     3.3510     1.0250 H     1 <1>   0.1500 
 27 H        4.2390     3.9530     1.9420 H     1 <1>   0.1500 
 28 H        6.2450     2.7180     1.2830 H     1 <1>   0.1500 
 29 H        7.4230     2.4160    -0.9050 H     1 <1>   0.0800 
 30 H        7.9270     0.9980    -1.7670 H     1 <1>   0.0800 
 31 H        6.6410    -1.3760    -0.8660 H     1 <1>   0.0800 
 32 H        5.5170    -1.0890     0.4280 H     1 <1>   0.0800 
 33 H        8.4650     1.6710     1.1270 H     1 <1>   0.0800 
 34 H        9.6410     1.5130    -0.1470 H     1 <1>   0.0800 
 35 H        7.7050    -2.0010     1.2260 H     1 <1>   0.0800 
 36 H        7.2630    -0.4810     1.9530 H     1 <1>   0.0800 
 37 H        9.1830    -0.8140    -0.2780 H     1 <1>   0.4500 
 38 H       10.0560    -1.5970     1.8280 H     1 <1>   0.0800 
 39 H        9.7530    -0.0050     2.4890 H     1 <1>   0.0800 
 40 H       11.5080    -1.7460    -0.3420 H     1 <1>   0.1500 
 41 H       11.3690     1.7200     2.1800 H     1 <1>   0.1500 
 42 H       13.5760    -0.9270    -1.3290 H     1 <1>   0.1500 
 43 H       13.4400     2.5140     1.1770 H     1 <1>   0.1500 
 44 H       15.5580     0.5230    -1.0580 H     1 <1>   0.0800 
 45 H       15.4850     1.9490    -0.0610 H     1 <1>   0.0800 
 46 H       14.7190     1.9460    -1.6330 H     1 <1>   0.0800 
@<TRIPOS>BOND
  1   1   2  1   
  2   2   3  1   
  3   2   4  1   
  4   2   5  1   
  5   5   6  ar  
  6   5   7  ar  
  7   6   8  ar  
  8   6  25  1   
  9   7   9  ar  
 10   7  26  1   
 11   8  10  1   
 12   8  11  ar  
 13   9  11  ar  
 14   9  27  1   
 15  10  12  1   
 16  10  13  1   
 17  11  28  1   
 18  12  14  1   
 19  12  29  1   
 20  12  30  1   
 21  13  15  1   
 22  13  31  1   
 23  13  32  1   
 24  14  16  1   
 25  14  33  1   
 26  14  34  1   
 27  15  16  1   
 28  15  35  1   
 29  15  36  1   
 30  16  17  1   
 31  16  37  1   
 32  17  18  1   
 33  17  38  1   
 34  17  39  1   
 35  18  19  ar  
 36  18  20  ar  
 37  19  21  ar  
 38  19  40  1   
 39  20  22  ar  
 40  20  41  1   
 41  21  23  ar  
 42  21  42  1   
 43  22  23  ar  
 44  22  43  1   
 45  23  24  1   
 46  24  44  1   
 47  24  45  1   
 48  24  46  1   
@<TRIPOS>SUBSTRUCTURE
  1 ****  12 GROUP 4 **** **** 0

# MOE 2024.06 (io_trps.svl 2023.06)
