@<TRIPOS>MOLECULE
NONAME
55 58 1 0 0 
SMALL
USER_CHARGES


@<TRIPOS>ATOM
  1 O       -0.5260    -0.2660    -2.0090 O.2   1 <1>  -0.5700 
  2 C       -0.9700    -1.1690    -1.3430 C.2   1 <1>   0.5690 
  3 N       -0.2540    -2.0320    -0.5890 N.am  1 <1>  -0.6600 
  4 C       -2.4390    -1.4780    -1.2700 C.3   1 <1>  -0.0990 
  5 C        1.2320    -2.0720    -0.5590 C.3   1 <1>   0.2200 
  6 C       -1.1150    -3.0280     0.0820 C.3   1 <1>   0.1400 
  7 C       -2.5340    -2.4570    -0.0830 C.3   1 <1>  -0.0190 
  8 C        1.7580    -3.3300    -1.2630 C.3   1 <1>  -0.1600 
  9 C        1.7620    -2.1420     0.8750 C.3   1 <1>  -0.1600 
 10 C       -3.6110    -3.5250    -0.2250 C.2   1 <1>   0.5690 
 11 C        2.4760    -4.1790    -0.2060 C.3   1 <1>  -0.1600 
 12 C        2.0500    -3.6180     1.1470 C.3   1 <1>  -0.1600 
 13 O       -3.3530    -4.6650     0.0720 O.2   1 <1>  -0.5700 
 14 N       -4.8460    -3.1240    -0.6520 N.am  1 <1>  -0.5470 
 15 C       -6.0370    -3.8190    -0.9130 C.ar  1 <1>   0.1170 
 16 C       -7.2540    -3.1160    -0.9080 C.ar  1 <1>   0.0860 
 17 C       -6.0400    -5.1810    -1.2050 C.ar  1 <1>  -0.1500 
 18 C       -7.3020    -1.7060    -0.5750 C.2   1 <1>   0.5440 
 19 C       -8.4240    -3.8070    -1.2370 C.ar  1 <1>  -0.1500 
 20 C       -7.2110    -5.8470    -1.5050 C.ar  1 <1>  -0.1500 
 21 O       -6.5090    -0.9370    -1.0950 O.2   1 <1>  -0.5700 
 22 N       -8.1990    -1.1950     0.3390 N.am  1 <1>  -0.6600 
 23 C       -8.4090    -5.1560    -1.5270 C.ar  1 <1>  -0.1500 
 24 C       -8.8520    -1.9870     1.4240 C.3   1 <1>   0.1400 
 25 C       -8.4580     0.2710     0.4550 C.3   1 <1>   0.1400 
 26 C      -10.3350    -1.6000     1.5520 C.3   1 <1>   0.1200 
 27 C       -9.9610     0.5380     0.6490 C.3   1 <1>   0.1200 
 28 O      -10.4700    -0.2170     1.7140 O.3   1 <1>  -0.5600 
 29 H       -2.7310    -1.9430    -2.1930 H     1 <1>   0.0800 
 30 H       -3.0110    -0.5830    -1.1070 H     1 <1>   0.0800 
 31 H        1.6160    -1.1890    -1.0430 H     1 <1>   0.0800 
 32 H       -0.8660    -3.1290     1.1230 H     1 <1>   0.0800 
 33 H       -1.0100    -3.9780    -0.4130 H     1 <1>   0.0800 
 34 H       -2.7530    -1.8930     0.8050 H     1 <1>   0.0800 
 35 H        2.4530    -3.0500    -2.0350 H     1 <1>   0.0800 
 36 H        0.9570    -3.8850    -1.7170 H     1 <1>   0.0800 
 37 H        1.0840    -1.7080     1.5890 H     1 <1>   0.0800 
 38 H        2.6910    -1.6010     0.9160 H     1 <1>   0.0800 
 39 H        3.5410    -4.0590    -0.3190 H     1 <1>   0.0800 
 40 H        2.2330    -5.2240    -0.2990 H     1 <1>   0.0800 
 41 H        1.1540    -4.1150     1.4740 H     1 <1>   0.0800 
 42 H        2.8130    -3.7480     1.8950 H     1 <1>   0.0800 
 43 H       -4.9550    -2.1090    -0.7890 H     1 <1>   0.3700 
 44 H       -5.1160    -5.7320    -1.2080 H     1 <1>   0.1500 
 45 H       -9.3560    -3.2700    -1.2640 H     1 <1>   0.1500 
 46 H       -7.1910    -6.9010    -1.7270 H     1 <1>   0.1500 
 47 H       -9.3220    -5.6720    -1.7720 H     1 <1>   0.1500 
 48 H       -8.3580    -1.7750     2.3570 H     1 <1>   0.0800 
 49 H       -8.7670    -3.0430     1.2430 H     1 <1>   0.0800 
 50 H       -8.1190     0.7830    -0.4290 H     1 <1>   0.0800 
 51 H       -7.9140     0.6630     1.2970 H     1 <1>   0.0800 
 52 H      -10.7700    -2.0750     2.4140 H     1 <1>   0.0800 
 53 H      -10.8840    -1.9010     0.6770 H     1 <1>   0.0800 
 54 H      -10.5060     0.2870    -0.2440 H     1 <1>   0.0800 
 55 H      -10.1260     1.5770     0.8740 H     1 <1>   0.0800 
@<TRIPOS>BOND
  1   1   2  2   
  2   2   3  am  
  3   2   4  1   
  4   3   5  1   
  5   3   6  1   
  6   4   7  1   
  7   4  29  1   
  8   4  30  1   
  9   5   8  1   
 10   5   9  1   
 11   5  31  1   
 12   6   7  1   
 13   6  32  1   
 14   6  33  1   
 15   7  10  1   
 16   7  34  1   
 17   8  11  1   
 18   8  35  1   
 19   8  36  1   
 20   9  12  1   
 21   9  37  1   
 22   9  38  1   
 23  10  13  2   
 24  10  14  am  
 25  11  12  1   
 26  11  39  1   
 27  11  40  1   
 28  12  41  1   
 29  12  42  1   
 30  14  15  1   
 31  14  43  1   
 32  15  16  ar  
 33  15  17  ar  
 34  16  18  1   
 35  16  19  ar  
 36  17  20  ar  
 37  17  44  1   
 38  18  21  2   
 39  18  22  am  
 40  19  23  ar  
 41  19  45  1   
 42  20  23  ar  
 43  20  46  1   
 44  22  24  1   
 45  22  25  1   
 46  23  47  1   
 47  24  26  1   
 48  24  48  1   
 49  24  49  1   
 50  25  27  1   
 51  25  50  1   
 52  25  51  1   
 53  26  28  1   
 54  26  52  1   
 55  26  53  1   
 56  27  28  1   
 57  27  54  1   
 58  27  55  1   
@<TRIPOS>SUBSTRUCTURE
  1 ****  14 GROUP 4 **** **** 0

# MOE 2024.06 (io_trps.svl 2023.06)
