@<TRIPOS>MOLECULE
NONAME
34 35 1 0 0 
SMALL
USER_CHARGES


@<TRIPOS>ATOM
  1 S        0.1100     0.9650    -1.6240 S.3   1 <1>  -0.0800 
  2 C        0.8340     1.7350    -0.2640 C.2   1 <1>   0.4340 
  3 C       -1.3550     0.9730    -0.6990 C.2   1 <1>   0.1980 
  4 S        2.5620     2.1480    -0.3830 S.3   1 <1>  -0.2860 
  5 N        0.0470     1.9450     0.7130 N.2   1 <1>  -0.3380 
  6 N       -1.2240     1.5010     0.4530 N.2   1 <1>  -0.3380 
  7 C       -2.5940     0.3760    -1.3300 C.3   1 <1>  -0.0600 
  8 C        2.9320     2.8680     1.2860 C.3   1 <1>   0.1310 
  9 C        4.2150     3.6800     1.2280 C.2   1 <1>   0.4230 
 10 O        5.1680     3.2230     1.8090 O.2   1 <1>  -0.5700 
 11 C        4.2560     4.9460     0.5200 C.ar  1 <1>   0.0860 
 12 C        5.4620     5.6430     0.4080 C.ar  1 <1>  -0.1500 
 13 C        3.1360     5.5350    -0.0710 C.ar  1 <1>  -0.1500 
 14 C        5.5730     6.8630    -0.2510 C.ar  1 <1>   0.0830 
 15 C        3.2230     6.7440    -0.7300 C.ar  1 <1>  -0.1500 
 16 O        6.7740     7.5090    -0.3340 O.3   1 <1>  -0.3630 
 17 C        4.4230     7.4270    -0.8350 C.ar  1 <1>   0.0830 
 18 C        7.9610     6.9840     0.2200 C.3   1 <1>   0.0400 
 19 O        4.3360     8.6020    -1.5150 O.3   1 <1>  -0.3630 
 20 C        5.4270     9.4570    -1.7660 C.3   1 <1>   0.0400 
 21 H       -2.4230    -0.6590    -1.5620 H     1 <1>   0.0800 
 22 H       -2.8380     0.9070    -2.2320 H     1 <1>   0.0800 
 23 H       -3.4210     0.4490    -0.6470 H     1 <1>   0.0800 
 24 H        3.0350     2.0420     1.9660 H     1 <1>   0.0800 
 25 H        2.0980     3.4750     1.5820 H     1 <1>   0.0800 
 26 H        6.3230     5.1910     0.8620 H     1 <1>   0.1500 
 27 H        2.1740     5.0580    -0.0280 H     1 <1>   0.1500 
 28 H        2.3460     7.1780    -1.1780 H     1 <1>   0.1500 
 29 H        8.7590     7.6740     0.0140 H     1 <1>   0.0800 
 30 H        8.1740     6.0350    -0.2400 H     1 <1>   0.0800 
 31 H        7.8360     6.8790     1.2830 H     1 <1>   0.0800 
 32 H        5.0710    10.2990    -2.3300 H     1 <1>   0.0800 
 33 H        6.1660     8.9200    -2.3350 H     1 <1>   0.0800 
 34 H        5.8320     9.7900    -0.8270 H     1 <1>   0.0800 
@<TRIPOS>BOND
  1   1   2  1   
  2   1   3  1   
  3   2   4  1   
  4   2   5  2   
  5   3   6  2   
  6   3   7  1   
  7   4   8  1   
  8   5   6  1   
  9   7  21  1   
 10   7  22  1   
 11   7  23  1   
 12   8   9  1   
 13   8  24  1   
 14   8  25  1   
 15   9  10  2   
 16   9  11  1   
 17  11  12  ar  
 18  11  13  ar  
 19  12  14  ar  
 20  12  26  1   
 21  13  15  ar  
 22  13  27  1   
 23  14  16  1   
 24  14  17  ar  
 25  15  17  ar  
 26  15  28  1   
 27  16  18  1   
 28  17  19  1   
 29  18  29  1   
 30  18  30  1   
 31  18  31  1   
 32  19  20  1   
 33  20  32  1   
 34  20  33  1   
 35  20  34  1   
@<TRIPOS>SUBSTRUCTURE
  1 ****  13 GROUP 4 **** **** 0

# MOE 2024.06 (io_trps.svl 2023.06)
