@<TRIPOS>MOLECULE
NONAME
52 54 1 0 0 
SMALL
USER_CHARGES


@<TRIPOS>ATOM
  1 F       -0.6990     1.0850     1.5510 F     1 <1>  -0.1900 
  2 C       -1.5170     1.4250     0.5810 C.ar  1 <1>   0.1900 
  3 C       -1.1940     2.5120    -0.2410 C.ar  1 <1>   0.1000 
  4 C       -2.6690     0.6800     0.4230 C.ar  1 <1>  -0.1500 
  5 N       -0.0350     3.2910    -0.1100 N.pl3 1 <1>  -0.8380 
  6 C       -2.0970     2.8250    -1.2490 C.ar  1 <1>  -0.1500 
  7 C       -3.5470     1.0190    -0.5930 C.ar  1 <1>  -0.1500 
  8 C        1.2360     2.5810    -0.4290 C.3   1 <1>   0.2090 
  9 C        0.0250     4.1210     1.1280 C.3   1 <1>   0.2090 
 10 C       -3.2580     2.0890    -1.4250 C.ar  1 <1>  -0.1500 
 11 C        2.4180     3.5720    -0.4770 C.3   1 <1>   0.3430 
 12 C        1.2160     5.1000     1.0720 C.3   1 <1>   0.3430 
 13 N        2.5370     4.4090     0.7870 N.4   1 <1>  -0.9590 
 14 C        3.6900     5.3600     0.8310 C.3   1 <1>   0.4230 
 15 C        3.7070     6.3270    -0.3610 C.3   1 <1>  -0.1600 
 16 C        5.0130     4.5950     0.9090 C.3   1 <1>  -0.1600 
 17 C        4.8980     7.2820    -0.2610 C.3   1 <1>   0.3430 
 18 C        6.1930     5.5640     0.9970 C.3   1 <1>   0.3430 
 19 N        6.1710     6.5090    -0.1620 N.4   1 <1>  -0.9590 
 20 C        7.3260     7.4570    -0.1120 C.3   1 <1>   0.3430 
 21 C        8.6340     6.7290    -0.4340 C.3   1 <1>  -0.1600 
 22 C        9.8020     7.7180    -0.5060 C.3   1 <1>  -0.2400 
 23 H       -2.8740    -0.1470     1.0790 H     1 <1>   0.1500 
 24 H       -1.8840     3.6530    -1.9010 H     1 <1>   0.1500 
 25 H       -4.4520     0.4520    -0.7360 H     1 <1>   0.1500 
 26 H        1.1370     2.0970    -1.3860 H     1 <1>   0.0800 
 27 H        1.4260     1.8180     0.3060 H     1 <1>   0.0800 
 28 H        0.1120     3.4870     1.9930 H     1 <1>   0.0800 
 29 H       -0.8920     4.6790     1.2210 H     1 <1>   0.0800 
 30 H       -3.9420     2.3510    -2.2140 H     1 <1>   0.1500 
 31 H        2.2660     4.2160    -1.3260 H     1 <1>   0.0800 
 32 H        3.3240     3.0130    -0.6400 H     1 <1>   0.0800 
 33 H        1.2700     5.6280     2.0090 H     1 <1>   0.0800 
 34 H        1.0090     5.8200     0.2980 H     1 <1>   0.0800 
 35 H        2.6530     3.7320     1.5550 H     1 <1>   0.4500 
 36 H        3.6010     5.9480     1.7330 H     1 <1>   0.0800 
 37 H        2.8090     6.9180    -0.3720 H     1 <1>   0.0800 
 38 H        3.7730     5.7980    -1.2940 H     1 <1>   0.0800 
 39 H        5.1510     3.9640     0.0500 H     1 <1>   0.0800 
 40 H        5.0220     3.9750     1.7890 H     1 <1>   0.0800 
 41 H        4.7880     7.9130     0.6070 H     1 <1>   0.0800 
 42 H        4.9230     7.9180    -1.1330 H     1 <1>   0.0800 
 43 H        7.1150     5.0030     0.9980 H     1 <1>   0.0800 
 44 H        6.1430     6.1200     1.9200 H     1 <1>   0.0800 
 45 H        6.2950     5.9690    -1.0320 H     1 <1>   0.4500 
 46 H        7.3940     7.9200     0.8600 H     1 <1>   0.0800 
 47 H        7.1860     8.2380    -0.8440 H     1 <1>   0.0800 
 48 H        8.5540     6.2300    -1.3840 H     1 <1>   0.0800 
 49 H        8.8610     6.0000     0.3250 H     1 <1>   0.0800 
 50 H        9.6370     8.4530    -1.2760 H     1 <1>   0.0800 
 51 H       10.7140     7.1940    -0.7350 H     1 <1>   0.0800 
 52 H        9.9360     8.2260     0.4350 H     1 <1>   0.0800 
@<TRIPOS>BOND
  1   1   2  1   
  2   2   3  ar  
  3   2   4  ar  
  4   3   5  1   
  5   3   6  ar  
  6   4   7  ar  
  7   4  23  1   
  8   5   8  1   
  9   5   9  1   
 10   6  10  ar  
 11   6  24  1   
 12   7  10  ar  
 13   7  25  1   
 14   8  11  1   
 15   8  26  1   
 16   8  27  1   
 17   9  12  1   
 18   9  28  1   
 19   9  29  1   
 20  10  30  1   
 21  11  13  1   
 22  11  31  1   
 23  11  32  1   
 24  12  13  1   
 25  12  33  1   
 26  12  34  1   
 27  13  14  1   
 28  13  35  1   
 29  14  15  1   
 30  14  16  1   
 31  14  36  1   
 32  15  17  1   
 33  15  37  1   
 34  15  38  1   
 35  16  18  1   
 36  16  39  1   
 37  16  40  1   
 38  17  19  1   
 39  17  41  1   
 40  17  42  1   
 41  18  19  1   
 42  18  43  1   
 43  18  44  1   
 44  19  20  1   
 45  19  45  1   
 46  20  21  1   
 47  20  46  1   
 48  20  47  1   
 49  21  22  1   
 50  21  48  1   
 51  21  49  1   
 52  22  50  1   
 53  22  51  1   
 54  22  52  1   
@<TRIPOS>SUBSTRUCTURE
  1 ****  13 GROUP 4 **** **** 0

# MOE 2024.06 (io_trps.svl 2023.06)
