@<TRIPOS>MOLECULE
NONAME
44 46 1 0 0 
SMALL
USER_CHARGES


@<TRIPOS>ATOM
  1 I        1.3890     0.0880    -1.3230 I     1 <1>  -0.0810 
  2 C        0.4640    -1.7540    -0.7540 C.ar  1 <1>   0.0810 
  3 C        0.9710    -2.5100     0.2930 C.ar  1 <1>   0.0820 
  4 C       -0.6510    -2.1460    -1.4710 C.ar  1 <1>  -0.1500 
  5 O        2.0560    -2.1270     0.9960 O.3   1 <1>  -0.5330 
  6 C        0.3400    -3.7040     0.6270 C.ar  1 <1>   0.0830 
  7 C       -1.2920    -3.3280    -1.1260 C.ar  1 <1>  -0.1430 
  8 O        0.8770    -4.4240     1.6540 O.3   1 <1>  -0.3630 
  9 C       -0.7910    -4.1050    -0.0850 C.ar  1 <1>  -0.1500 
 10 C       -2.5350    -3.7600    -1.8830 C.3   1 <1>   0.4860 
 11 C        0.4640    -5.7450     1.9310 C.3   1 <1>   0.0400 
 12 N       -3.7340    -3.4210    -1.0700 N.4   1 <1>  -0.9590 
 13 C       -4.9960    -3.9850    -1.6710 C.3   1 <1>   0.3430 
 14 C       -3.8710    -1.9320    -0.8500 C.3   1 <1>   0.3430 
 15 C       -6.2480    -3.6450    -0.8370 C.3   1 <1>   0.2090 
 16 C       -5.1140    -1.5710    -0.0130 C.3   1 <1>   0.2090 
 17 N       -6.3560    -2.1780    -0.5790 N.pl3 1 <1>  -0.8380 
 18 C       -7.5030    -1.8170     0.0940 C.ar  1 <1>   0.4100 
 19 N       -7.6140    -2.2660     1.3360 N.ar  1 <1>  -0.6200 
 20 C       -8.4590    -1.0260    -0.5340 C.ar  1 <1>  -0.1500 
 21 C       -8.7200    -1.9120     1.9730 C.ar  1 <1>   0.1600 
 22 C       -9.6020    -0.6670     0.1400 C.ar  1 <1>  -0.1500 
 23 C       -9.7260    -1.1300     1.4350 C.ar  1 <1>  -0.1500 
 24 H       -0.9990    -1.5270    -2.2810 H     1 <1>   0.1500 
 25 H        2.2680    -2.7960     1.6790 H     1 <1>   0.4500 
 26 H       -1.2820    -5.0260     0.1710 H     1 <1>   0.1500 
 27 H       -2.4940    -4.8230    -2.0580 H     1 <1>   0.0800 
 28 H       -2.5780    -3.2590    -2.8370 H     1 <1>   0.0800 
 29 H        1.0930    -6.1330     2.7140 H     1 <1>   0.0800 
 30 H        0.5800    -6.3430     1.0450 H     1 <1>   0.0800 
 31 H       -0.5580    -5.7330     2.2630 H     1 <1>   0.0800 
 32 H       -3.6080    -3.8390    -0.1400 H     1 <1>   0.4500 
 33 H       -4.9180    -5.0560    -1.7570 H     1 <1>   0.0800 
 34 H       -5.1380    -3.5820    -2.6600 H     1 <1>   0.0800 
 35 H       -3.9520    -1.4310    -1.8000 H     1 <1>   0.0800 
 36 H       -2.9960    -1.5510    -0.3490 H     1 <1>   0.0800 
 37 H       -6.2140    -4.1750     0.1010 H     1 <1>   0.0800 
 38 H       -7.1280    -3.9740    -1.3640 H     1 <1>   0.0800 
 39 H       -5.2270    -0.5010     0.0140 H     1 <1>   0.0800 
 40 H       -4.9770    -1.9090     1.0010 H     1 <1>   0.0800 
 41 H       -8.2900    -0.7060    -1.5440 H     1 <1>   0.1500 
 42 H       -8.8310    -2.2660     2.9840 H     1 <1>   0.1500 
 43 H      -10.3630    -0.0570    -0.3150 H     1 <1>   0.1500 
 44 H      -10.5950    -0.8870     2.0200 H     1 <1>   0.1500 
@<TRIPOS>BOND
  1   1   2  1   
  2   2   3  ar  
  3   2   4  ar  
  4   3   5  1   
  5   3   6  ar  
  6   4   7  ar  
  7   4  24  1   
  8   5  25  1   
  9   6   8  1   
 10   6   9  ar  
 11   7   9  ar  
 12   7  10  1   
 13   8  11  1   
 14   9  26  1   
 15  10  12  1   
 16  10  27  1   
 17  10  28  1   
 18  11  29  1   
 19  11  30  1   
 20  11  31  1   
 21  12  13  1   
 22  12  14  1   
 23  12  32  1   
 24  13  15  1   
 25  13  33  1   
 26  13  34  1   
 27  14  16  1   
 28  14  35  1   
 29  14  36  1   
 30  15  17  1   
 31  15  37  1   
 32  15  38  1   
 33  16  17  1   
 34  16  39  1   
 35  16  40  1   
 36  17  18  1   
 37  18  19  ar  
 38  18  20  ar  
 39  19  21  ar  
 40  20  22  ar  
 41  20  41  1   
 42  21  23  ar  
 43  21  42  1   
 44  22  23  ar  
 45  22  43  1   
 46  23  44  1   
@<TRIPOS>SUBSTRUCTURE
  1 ****  14 GROUP 4 **** **** 0

# MOE 2024.06 (io_trps.svl 2023.06)
