@<TRIPOS>MOLECULE
NONAME
42 44 1 0 0 
SMALL
USER_CHARGES


@<TRIPOS>ATOM
  1 O       -2.2190     1.8890    -3.1030 O.2   1 <1>  -0.5700 
  2 C       -2.2380     2.4060    -1.9910 C.2   1 <1>   0.7670 
  3 N       -3.2890     2.1460    -1.1780 N.2   1 <1>  -0.6610 
  4 C       -1.1740     3.2560    -1.5870 C.2   1 <1>  -0.1360 
  5 C       -3.2850     2.7200    -0.0170 C.2   1 <1>   0.5500 
  6 C       -1.1940     3.8270    -0.3630 C.2   1 <1>  -0.0380 
  7 N       -2.2880     3.5320     0.4140 N.pl3 1 <1>  -0.5500 
  8 N       -4.3120     2.5310     0.8470 N.pl3 1 <1>  -0.7880 
  9 C       -0.1140     4.7450     0.2050 C.3   1 <1>   0.2580 
 10 C       -5.1720     3.6860     1.2570 C.3   1 <1>   0.2090 
 11 C       -5.0690     1.2350     0.8280 C.3   1 <1>   0.2090 
 12 O        0.8910     4.9440    -0.7410 O.3   1 <1>  -0.5600 
 13 C       -6.4530     3.7680     0.4020 C.3   1 <1>   0.2090 
 14 C       -6.3480     1.3370    -0.0250 C.3   1 <1>   0.2090 
 15 C        1.9320     5.7590    -0.3060 C.3   1 <1>   0.0400 
 16 N       -7.2100     2.4790     0.4180 N.pl3 1 <1>  -0.8380 
 17 C       -8.4840     2.5270    -0.1350 C.ar  1 <1>   0.1000 
 18 C       -9.5940     2.4200     0.6910 C.ar  1 <1>  -0.1500 
 19 C       -8.6810     2.6850    -1.5040 C.ar  1 <1>  -0.1500 
 20 C      -10.8730     2.4690     0.1680 C.ar  1 <1>  -0.1500 
 21 C       -9.9580     2.7330    -2.0320 C.ar  1 <1>  -0.1500 
 22 C      -11.0570     2.6260    -1.1960 C.ar  1 <1>  -0.1500 
 23 H       -0.3800     3.4040    -2.2930 H     1 <1>   0.1500 
 24 H       -2.3790     3.8380     1.3810 H     1 <1>   0.4000 
 25 H        0.3250     4.2970     1.0800 H     1 <1>   0.0800 
 26 H       -0.5390     5.7010     0.4560 H     1 <1>   0.0800 
 27 H       -4.6290     4.6080     1.1560 H     1 <1>   0.0800 
 28 H       -5.4500     3.5710     2.2900 H     1 <1>   0.0800 
 29 H       -5.3410     0.9700     1.8340 H     1 <1>   0.0800 
 30 H       -4.4440     0.4510     0.4380 H     1 <1>   0.0800 
 31 H       -6.1840     4.0120    -0.6110 H     1 <1>   0.0800 
 32 H       -7.0860     4.5530     0.7790 H     1 <1>   0.0800 
 33 H       -6.9050     0.4210     0.0530 H     1 <1>   0.0800 
 34 H       -6.0670     1.4710    -1.0560 H     1 <1>   0.0800 
 35 H        2.6450     5.8450    -1.1080 H     1 <1>   0.0800 
 36 H        2.4050     5.3090     0.5500 H     1 <1>   0.0800 
 37 H        1.5450     6.7330    -0.0610 H     1 <1>   0.0800 
 38 H       -9.4380     2.2980     1.7460 H     1 <1>   0.1500 
 39 H       -7.8280     2.7680    -2.1510 H     1 <1>   0.1500 
 40 H      -11.7240     2.3840     0.8200 H     1 <1>   0.1500 
 41 H      -10.0970     2.8550    -3.0910 H     1 <1>   0.1500 
 42 H      -12.0520     2.6630    -1.6050 H     1 <1>   0.1500 
@<TRIPOS>BOND
  1   1   2  2   
  2   2   3  1   
  3   2   4  1   
  4   3   5  2   
  5   4   6  2   
  6   4  23  1   
  7   5   7  1   
  8   5   8  1   
  9   6   7  1   
 10   6   9  1   
 11   7  24  1   
 12   8  10  1   
 13   8  11  1   
 14   9  12  1   
 15   9  25  1   
 16   9  26  1   
 17  10  13  1   
 18  10  27  1   
 19  10  28  1   
 20  11  14  1   
 21  11  29  1   
 22  11  30  1   
 23  12  15  1   
 24  13  16  1   
 25  13  31  1   
 26  13  32  1   
 27  14  16  1   
 28  14  33  1   
 29  14  34  1   
 30  15  35  1   
 31  15  36  1   
 32  15  37  1   
 33  16  17  1   
 34  17  18  ar  
 35  17  19  ar  
 36  18  20  ar  
 37  18  38  1   
 38  19  21  ar  
 39  19  39  1   
 40  20  22  ar  
 41  20  40  1   
 42  21  22  ar  
 43  21  41  1   
 44  22  42  1   
@<TRIPOS>SUBSTRUCTURE
  1 ****   8 GROUP 4 **** **** 0

# MOE 2024.06 (io_trps.svl 2023.06)
