@<TRIPOS>MOLECULE
NONAME
36 36 1 0 0 
SMALL
USER_CHARGES


@<TRIPOS>ATOM
  1 F       -1.0800     0.4790     1.1130 F     1 <1>  -0.3400 
  2 C        0.2340     0.6300     1.2360 C.3   1 <1>   1.0200 
  3 F        0.4810     0.7080     2.5380 F     1 <1>  -0.3400 
  4 F        0.7540    -0.5410     0.8760 F     1 <1>  -0.3400 
  5 C        0.8370     1.8000     0.3920 C.3   1 <1>   0.3000 
  6 N        2.3570     1.5850     0.2310 N.am  1 <1>  -0.7300 
  7 C        0.4390     3.0960     1.1870 C.3   1 <1>   1.0200 
  8 C        0.2200     1.8340    -1.0490 C.3   1 <1>  -0.1600 
  9 C        3.2570     2.4490    -0.2920 C.2   1 <1>   0.6900 
 10 F       -0.8110     3.0870     1.6370 F     1 <1>  -0.3400 
 11 F        0.5140     4.2120     0.4740 F     1 <1>  -0.3400 
 12 F        1.2040     3.3070     2.2550 F     1 <1>  -0.3400 
 13 C        0.4940     0.6130    -1.9480 C.3   1 <1>  -0.2400 
 14 O        2.8850     3.5060    -0.7470 O.2   1 <1>  -0.5700 
 15 N        4.5640     2.0680    -0.3020 N.am  1 <1>  -0.5470 
 16 C        5.7200     2.7620    -0.6930 C.ar  1 <1>   0.1170 
 17 C        6.8330     2.0520    -1.1510 C.ar  1 <1>  -0.1440 
 18 C        5.7990     4.1500    -0.6130 C.ar  1 <1>  -0.1500 
 19 C        7.9830     2.7330    -1.5180 C.ar  1 <1>  -0.1500 
 20 C        6.8130     0.5320    -1.2670 C.3   1 <1>  -0.0970 
 21 C        6.9490     4.8220    -0.9830 C.ar  1 <1>  -0.1500 
 22 C        8.0440     4.1120    -1.4360 C.ar  1 <1>  -0.1500 
 23 H        2.7020     0.6930     0.5880 H     1 <1>   0.3700 
 24 H        0.5890     2.7040    -1.5660 H     1 <1>   0.0800 
 25 H       -0.8470     1.9650    -0.9770 H     1 <1>   0.0800 
 26 H        1.5500     0.4480    -2.0680 H     1 <1>   0.0800 
 27 H        0.0780     0.7890    -2.9260 H     1 <1>   0.0800 
 28 H        0.0390    -0.2790    -1.5560 H     1 <1>   0.0800 
 29 H        4.7290     1.0960    -0.0750 H     1 <1>   0.3700 
 30 H        4.9580     4.7160    -0.2570 H     1 <1>   0.1500 
 31 H        8.8440     2.1950    -1.8730 H     1 <1>   0.1500 
 32 H        5.9880     0.2200    -1.8810 H     1 <1>   0.0800 
 33 H        6.7210     0.0890    -0.2920 H     1 <1>   0.0800 
 34 H        7.7190     0.1690    -1.7170 H     1 <1>   0.0800 
 35 H        6.9890     5.8950    -0.9170 H     1 <1>   0.1500 
 36 H        8.9410     4.6320    -1.7240 H     1 <1>   0.1500 
@<TRIPOS>BOND
  1   1   2  1   
  2   2   3  1   
  3   2   4  1   
  4   2   5  1   
  5   5   6  1   
  6   5   7  1   
  7   5   8  1   
  8   6   9  am  
  9   6  23  1   
 10   7  10  1   
 11   7  11  1   
 12   7  12  1   
 13   8  13  1   
 14   8  24  1   
 15   8  25  1   
 16   9  14  2   
 17   9  15  am  
 18  13  26  1   
 19  13  27  1   
 20  13  28  1   
 21  15  16  1   
 22  15  29  1   
 23  16  17  ar  
 24  16  18  ar  
 25  17  19  ar  
 26  17  20  1   
 27  18  21  ar  
 28  18  30  1   
 29  19  22  ar  
 30  19  31  1   
 31  20  32  1   
 32  20  33  1   
 33  20  34  1   
 34  21  22  ar  
 35  21  35  1   
 36  22  36  1   
@<TRIPOS>SUBSTRUCTURE
  1 ****   9 GROUP 4 **** **** 0

# MOE 2024.06 (io_trps.svl 2023.06)
