@<TRIPOS>MOLECULE
NONAME
38 38 1 0 0 
SMALL
USER_CHARGES


@<TRIPOS>ATOM
  1 CL       0.0190     0.1060    -0.1600 Cl    1 <1>  -0.1400 
  2 C        1.2590    -0.9330     0.4920 C.2   1 <1>   0.0020 
  3 C        1.0320    -2.2470     0.6060 C.2   1 <1>  -0.2880 
  4 C        2.4950    -0.1310     0.8550 C.3   1 <1>  -0.1020 
  5 C        1.9680    -3.3240     1.1420 C.3   1 <1>  -0.0220 
  6 C        2.4270    -4.2770     0.0220 C.3   1 <1>   0.0420 
  7 C        3.6610    -5.0370     0.4670 C.2   1 <1>   0.5690 
  8 C        1.3580    -5.2670    -0.4320 C.2   1 <1>   0.4480 
  9 O        3.5380    -5.9240     1.2750 O.2   1 <1>  -0.5700 
 10 N        4.8610    -4.6660    -0.0740 N.am  1 <1>  -0.5470 
 11 O        0.2400    -5.2510    -0.0130 O.2   1 <1>  -0.5700 
 12 C        1.7470    -6.2740    -1.4960 C.3   1 <1>  -0.1790 
 13 C        6.1800    -5.1330     0.0860 C.ar  1 <1>   0.1170 
 14 C        7.1900    -4.4780    -0.6300 C.ar  1 <1>   0.0830 
 15 C        6.5260    -6.2000     0.9080 C.ar  1 <1>  -0.1500 
 16 O        6.8090    -3.4340    -1.4280 O.3   1 <1>  -0.3630 
 17 C        8.5120    -4.8960    -0.5120 C.ar  1 <1>  -0.1500 
 18 C        7.8420    -6.6110     1.0200 C.ar  1 <1>  -0.1500 
 19 C        7.7560    -2.7190    -2.1950 C.3   1 <1>   0.0400 
 20 C        8.8350    -5.9600     0.3120 C.ar  1 <1>  -0.1500 
 21 H        0.0860    -2.6620     0.2990 H     1 <1>   0.1500 
 22 H        2.2410     0.5990     1.6020 H     1 <1>   0.0800 
 23 H        2.8590     0.3820    -0.0170 H     1 <1>   0.0800 
 24 H        3.2810    -0.7520     1.2370 H     1 <1>   0.0800 
 25 H        2.8310    -2.8700     1.5930 H     1 <1>   0.0800 
 26 H        1.4690    -3.8840     1.9160 H     1 <1>   0.0800 
 27 H        2.6880    -3.6800    -0.8310 H     1 <1>   0.0800 
 28 H        4.8450    -3.8780    -0.7230 H     1 <1>   0.3700 
 29 H        2.4230    -7.0020    -1.0870 H     1 <1>   0.0800 
 30 H        2.2110    -5.7800    -2.3290 H     1 <1>   0.0800 
 31 H        0.8680    -6.7860    -1.8440 H     1 <1>   0.0800 
 32 H        5.7750    -6.7230     1.4690 H     1 <1>   0.1500 
 33 H        9.3060    -4.4120    -1.0480 H     1 <1>   0.1500 
 34 H        8.0910    -7.4390     1.6620 H     1 <1>   0.1500 
 35 H        8.2340    -3.3960    -2.8810 H     1 <1>   0.0800 
 36 H        8.4750    -2.2700    -1.5330 H     1 <1>   0.0800 
 37 H        7.2360    -1.9530    -2.7420 H     1 <1>   0.0800 
 38 H        9.8590    -6.2830     0.4020 H     1 <1>   0.1500 
@<TRIPOS>BOND
  1   1   2  1   
  2   2   3  2   
  3   2   4  1   
  4   3   5  1   
  5   3  21  1   
  6   4  22  1   
  7   4  23  1   
  8   4  24  1   
  9   5   6  1   
 10   5  25  1   
 11   5  26  1   
 12   6   7  1   
 13   6   8  1   
 14   6  27  1   
 15   7   9  2   
 16   7  10  am  
 17   8  11  2   
 18   8  12  1   
 19  10  13  1   
 20  10  28  1   
 21  12  29  1   
 22  12  30  1   
 23  12  31  1   
 24  13  14  ar  
 25  13  15  ar  
 26  14  16  1   
 27  14  17  ar  
 28  15  18  ar  
 29  15  32  1   
 30  16  19  1   
 31  17  20  ar  
 32  17  33  1   
 33  18  20  ar  
 34  18  34  1   
 35  19  35  1   
 36  19  36  1   
 37  19  37  1   
 38  20  38  1   
@<TRIPOS>SUBSTRUCTURE
  1 ****  10 GROUP 4 **** **** 0

# MOE 2024.06 (io_trps.svl 2023.06)
