@<TRIPOS>MOLECULE
NONAME
32 32 1 0 0 
SMALL
USER_CHARGES


@<TRIPOS>ATOM
  1 CL       0.3040     0.6950     0.0150 Cl    1 <1>  -0.1770 
  2 C        1.4540    -0.6300     0.0090 C.ar  1 <1>   0.1770 
  3 C        1.0860    -1.9840     0.0050 C.ar  1 <1>   0.0830 
  4 C        2.7870    -0.2530     0.0080 C.ar  1 <1>  -0.1500 
  5 O       -0.1820    -2.4990     0.0050 O.3   1 <1>  -0.3630 
  6 C        2.1180    -2.9190     0.0000 C.ar  1 <1>   0.1770 
  7 C        3.7890    -1.2080     0.0030 C.ar  1 <1>  -0.1500 
  8 C       -1.3640    -1.7440     0.0070 C.3   1 <1>   0.1200 
  9 CL       1.7420    -4.6290    -0.0060 Cl    1 <1>  -0.1770 
 10 C        3.4510    -2.5500    -0.0010 C.ar  1 <1>  -0.1500 
 11 C       -2.5300    -2.7340     0.0050 C.3   1 <1>   0.3430 
 12 N       -3.8510    -2.0330     0.0070 N.4   1 <1>  -0.9060 
 13 C       -4.9810    -3.0120     0.0050 C.3   1 <1>   0.3430 
 14 C       -6.3450    -2.3140     0.0080 C.3   1 <1>   0.1200 
 15 O       -7.3050    -3.3120     0.0050 O.3   1 <1>  -0.5600 
 16 C       -8.6210    -2.8510     0.0070 C.3   1 <1>   0.0400 
 17 H        3.0410     0.7930     0.0120 H     1 <1>   0.1500 
 18 H        4.8240    -0.9100     0.0030 H     1 <1>   0.1500 
 19 H       -1.3750    -1.1380    -0.8810 H     1 <1>   0.0800 
 20 H       -1.3740    -1.1430     0.9000 H     1 <1>   0.0800 
 21 H        4.2140    -3.3080    -0.0050 H     1 <1>   0.1500 
 22 H       -2.4510    -3.3630     0.8770 H     1 <1>   0.0800 
 23 H       -2.4520    -3.3570    -0.8720 H     1 <1>   0.0800 
 24 H       -3.9230    -1.4270    -0.8210 H     1 <1>   0.4500 
 25 H       -3.9220    -1.4320     0.8390 H     1 <1>   0.4500 
 26 H       -4.9190    -3.6430     0.8770 H     1 <1>   0.0800 
 27 H       -4.9190    -3.6370    -0.8720 H     1 <1>   0.0800 
 28 H       -6.4770    -1.7150    -0.8770 H     1 <1>   0.0800 
 29 H       -6.4760    -1.7210     0.8960 H     1 <1>   0.0800 
 30 H       -9.2770    -3.7050     0.0050 H     1 <1>   0.0800 
 31 H       -8.7980    -2.2610    -0.8770 H     1 <1>   0.0800 
 32 H       -8.7970    -2.2670     0.8940 H     1 <1>   0.0800 
@<TRIPOS>BOND
  1   1   2  1   
  2   2   3  ar  
  3   2   4  ar  
  4   3   5  1   
  5   3   6  ar  
  6   4   7  ar  
  7   4  17  1   
  8   5   8  1   
  9   6   9  1   
 10   6  10  ar  
 11   7  10  ar  
 12   7  18  1   
 13   8  11  1   
 14   8  19  1   
 15   8  20  1   
 16  10  21  1   
 17  11  12  1   
 18  11  22  1   
 19  11  23  1   
 20  12  13  1   
 21  12  24  1   
 22  12  25  1   
 23  13  14  1   
 24  13  26  1   
 25  13  27  1   
 26  14  15  1   
 27  14  28  1   
 28  14  29  1   
 29  15  16  1   
 30  16  30  1   
 31  16  31  1   
 32  16  32  1   
@<TRIPOS>SUBSTRUCTURE
  1 ****   8 GROUP 4 **** **** 0

# MOE 2024.06 (io_trps.svl 2023.06)
