@<TRIPOS>MOLECULE
NONAME
40 41 1 0 0 
SMALL
USER_CHARGES


@<TRIPOS>ATOM
  1 O       -0.4090     1.7520    -3.2640 O.2   1 <1>  -0.5700 
  2 C        0.0880     1.7380    -2.1620 C.2   1 <1>   0.5690 
  3 N       -0.6390     1.4600    -1.0510 N.am  1 <1>  -0.7300 
  4 C        1.5730     2.0510    -2.0230 C.3   1 <1>   0.1810 
  5 C       -2.0930     1.2480    -0.9710 C.3   1 <1>   0.2200 
  6 O        1.9250     2.2600    -0.6620 O.3   1 <1>  -0.3630 
  7 C       -2.6820     2.2930     0.0080 C.3   1 <1>   0.2000 
  8 C       -2.3080    -0.2090    -0.5520 C.3   1 <1>  -0.2400 
  9 C        3.1830     2.6020    -0.2870 C.ar  1 <1>   0.0830 
 10 O       -2.1000     2.1870     1.2750 O.3   1 <1>  -0.5600 
 11 C       -4.1820     2.2230     0.2710 C.3   1 <1>  -0.1600 
 12 C        3.4020     2.8510     1.0650 C.ar  1 <1>  -0.1430 
 13 C        4.2390     2.7110    -1.1900 C.ar  1 <1>  -0.1500 
 14 C       -2.9320     2.7320     2.2520 C.3   1 <1>   0.1200 
 15 C       -4.3020     2.9320     1.6070 C.3   1 <1>  -0.1600 
 16 C        4.6700     3.2040     1.4990 C.ar  1 <1>  -0.1500 
 17 C        2.2620     2.7370     2.0680 C.3   1 <1>  -0.0970 
 18 C        5.5000     3.0660    -0.7450 C.ar  1 <1>  -0.1500 
 19 C        5.7150     3.3120     0.5990 C.ar  1 <1>  -0.1500 
 20 H       -0.1880     1.5540    -0.1350 H     1 <1>   0.3700 
 21 H        1.8000     2.9440    -2.5740 H     1 <1>   0.0800 
 22 H        2.1470     1.2250    -2.4000 H     1 <1>   0.0800 
 23 H       -2.5270     1.4000    -1.9450 H     1 <1>   0.0800 
 24 H       -2.4460     3.2760    -0.3620 H     1 <1>   0.0800 
 25 H       -1.9460    -0.3700     0.4480 H     1 <1>   0.0800 
 26 H       -1.7860    -0.8630    -1.2270 H     1 <1>   0.0800 
 27 H       -3.3500    -0.4640    -0.5870 H     1 <1>   0.0800 
 28 H       -4.5060     1.2040     0.3730 H     1 <1>   0.0800 
 29 H       -4.7490     2.7030    -0.5070 H     1 <1>   0.0800 
 30 H        4.1030     2.5250    -2.2380 H     1 <1>   0.1500 
 31 H       -2.5080     3.6650     2.5830 H     1 <1>   0.0800 
 32 H       -2.9770     2.0360     3.0720 H     1 <1>   0.0800 
 33 H       -5.0920     2.5270     2.2150 H     1 <1>   0.0800 
 34 H       -4.4760     3.9840     1.4620 H     1 <1>   0.0800 
 35 H        4.8510     3.3980     2.5420 H     1 <1>   0.1500 
 36 H        1.8840     1.7310     2.0780 H     1 <1>   0.0800 
 37 H        1.4630     3.4020     1.7900 H     1 <1>   0.0800 
 38 H        2.5890     2.9910     3.0600 H     1 <1>   0.0800 
 39 H        6.3140     3.1500    -1.4430 H     1 <1>   0.1500 
 40 H        6.6960     3.5880     0.9450 H     1 <1>   0.1500 
@<TRIPOS>BOND
  1   1   2  2   
  2   2   3  am  
  3   2   4  1   
  4   3   5  1   
  5   3  20  1   
  6   4   6  1   
  7   4  21  1   
  8   4  22  1   
  9   5   7  1   
 10   5   8  1   
 11   5  23  1   
 12   6   9  1   
 13   7  10  1   
 14   7  11  1   
 15   7  24  1   
 16   8  25  1   
 17   8  26  1   
 18   8  27  1   
 19   9  12  ar  
 20   9  13  ar  
 21  10  14  1   
 22  11  15  1   
 23  11  28  1   
 24  11  29  1   
 25  12  16  ar  
 26  12  17  1   
 27  13  18  ar  
 28  13  30  1   
 29  14  15  1   
 30  14  31  1   
 31  14  32  1   
 32  15  33  1   
 33  15  34  1   
 34  16  19  ar  
 35  16  35  1   
 36  17  36  1   
 37  17  37  1   
 38  17  38  1   
 39  18  19  ar  
 40  18  39  1   
 41  19  40  1   
@<TRIPOS>SUBSTRUCTURE
  1 ****   6 GROUP 4 **** **** 0

# MOE 2024.06 (io_trps.svl 2023.06)
