@<TRIPOS>MOLECULE
NONAME
41 43 1 0 0 
SMALL
USER_CHARGES


@<TRIPOS>ATOM
  1 O        0.0180     0.8740     0.0060 O.2   1 <1>  -0.5760 
  2 C        0.6670     1.8780    -0.2050 C.2   1 <1>   0.6850 
  3 N        0.0720     2.9910    -0.7920 N.am  1 <1>  -0.4270 
  4 N        2.0150     1.9060     0.1390 N.am  1 <1>  -0.4430 
  5 C        0.8070     4.1320    -1.0850 C.2   1 <1>   0.6990 
  6 C       -1.3930     2.9720    -1.0830 C.3   1 <1>   0.1310 
  7 C        2.7410     3.0410    -0.1600 C.2   1 <1>   0.4190 
  8 C        2.6540     0.7240     0.7910 C.3   1 <1>   0.0500 
  9 O        0.2930     5.1020    -1.6160 O.2   1 <1>  -0.5760 
 10 C        2.1920     4.1320    -0.7480 C.2   1 <1>   0.2690 
 11 C       -2.1730     3.5090     0.1210 C.3   1 <1>  -0.1690 
 12 N        4.0720     3.2680     0.0600 N.pl3 1 <1>  -0.7050 
 13 N        3.2290     5.0650    -0.8890 N.pl3 1 <1>  -0.6340 
 14 C       -3.6810     3.5020    -0.1540 C.3   1 <1>  -0.1690 
 15 C        4.3230     4.5020    -0.3950 C.cat 1 <1>   1.0680 
 16 C        3.5860     6.3250    -1.3300 C.2   1 <1>   0.2210 
 17 C       -4.4590     4.0430     1.0480 C.3   1 <1>  -0.2480 
 18 N        5.3820     5.3190    -0.4850 N.pl3 1 <1>  -0.5730 
 19 C        4.9060     6.4790    -1.0820 C.2   1 <1>   0.1560 
 20 C        6.7810     5.0670    -0.0490 C.3   1 <1>   0.0780 
 21 C        5.8020     7.6700    -1.3660 C.3   1 <1>  -0.1110 
 22 H       -1.7120     1.9670    -1.3040 H     1 <1>   0.0700 
 23 H       -1.6040     3.5740    -1.9510 H     1 <1>   0.0700 
 24 H        1.9240     0.1650     1.3530 H     1 <1>   0.0700 
 25 H        3.4260     1.0370     1.4710 H     1 <1>   0.0700 
 26 H        3.0740     0.0790     0.0390 H     1 <1>   0.0700 
 27 H       -1.8600     4.5170     0.3310 H     1 <1>   0.0700 
 28 H       -1.9700     2.8940     0.9810 H     1 <1>   0.0700 
 29 H        4.7560     2.6400     0.4730 H     1 <1>   0.4430 
 30 H       -4.0080     2.4970    -0.3610 H     1 <1>   0.0700 
 31 H       -3.8970     4.1100    -1.0160 H     1 <1>   0.0700 
 32 H        2.8770     7.0040    -1.7810 H     1 <1>   0.1410 
 33 H       -4.2750     3.4370     1.9180 H     1 <1>   0.0700 
 34 H       -5.5140     4.0280     0.8390 H     1 <1>   0.0700 
 35 H       -4.1680     5.0560     1.2610 H     1 <1>   0.0700 
 36 H        6.8740     4.0860     0.3830 H     1 <1>   0.0700 
 37 H        7.0720     5.8000     0.6850 H     1 <1>   0.0700 
 38 H        7.4450     5.1390    -0.8950 H     1 <1>   0.0700 
 39 H        6.6000     7.3860    -2.0300 H     1 <1>   0.0700 
 40 H        6.2260     8.0440    -0.4520 H     1 <1>   0.0700 
 41 H        5.2390     8.4610    -1.8290 H     1 <1>   0.0700 
@<TRIPOS>BOND
  1   1   2  2   
  2   2   3  am  
  3   2   4  am  
  4   3   5  am  
  5   3   6  1   
  6   4   7  1   
  7   4   8  1   
  8   5   9  2   
  9   5  10  1   
 10   6  11  1   
 11   6  22  1   
 12   6  23  1   
 13   7  10  2   
 14   7  12  1   
 15   8  24  1   
 16   8  25  1   
 17   8  26  1   
 18  10  13  1   
 19  11  14  1   
 20  11  27  1   
 21  11  28  1   
 22  12  15  ar  
 23  12  29  1   
 24  13  15  ar  
 25  13  16  1   
 26  14  17  1   
 27  14  30  1   
 28  14  31  1   
 29  15  18  ar  
 30  16  19  2   
 31  16  32  1   
 32  17  33  1   
 33  17  34  1   
 34  17  35  1   
 35  18  19  1   
 36  18  20  1   
 37  19  21  1   
 38  20  36  1   
 39  20  37  1   
 40  20  38  1   
 41  21  39  1   
 42  21  40  1   
 43  21  41  1   
@<TRIPOS>SUBSTRUCTURE
  1 ****  10 GROUP 4 **** **** 0

# MOE 2024.06 (io_trps.svl 2023.06)
