@<TRIPOS>MOLECULE
NONAME
49 51 1 0 0 
SMALL
USER_CHARGES


@<TRIPOS>ATOM
  1 S        0.3680     1.0630    -2.9060 S.o2  1 <1>   1.3330 
  2 O        0.6980    -0.1200    -2.1490 O.2   1 <1>  -0.6500 
  3 O        1.2120     1.4850    -3.9970 O.2   1 <1>  -0.6500 
  4 N        0.3190     2.3870    -1.7970 N.am  1 <1>  -0.6930 
  5 C       -1.3100     0.9810    -3.4940 C.3   1 <1>  -0.1350 
  6 C       -0.6450     2.5190    -0.7920 C.ar  1 <1>   0.1990 
  7 C        1.5640     3.2260    -1.7590 C.3   1 <1>   0.2570 
  8 C       -1.0240     1.4460     0.0090 C.ar  1 <1>  -0.1500 
  9 C       -1.2520     3.7550    -0.5800 C.ar  1 <1>  -0.1500 
 10 C        1.9380     3.8040    -0.3860 C.2   1 <1>   0.5690 
 11 C       -1.9900     1.6030     0.9860 C.ar  1 <1>   0.0820 
 12 C       -2.2140     3.9230     0.4010 C.ar  1 <1>  -0.1500 
 13 O        1.7730     4.9950    -0.2380 O.2   1 <1>  -0.5700 
 14 N        2.4510     3.0150     0.6210 N.am  1 <1>  -0.6600 
 15 O       -2.3420     0.5260     1.7340 O.3   1 <1>  -0.3630 
 16 C       -2.5840     2.8490     1.1890 C.ar  1 <1>   0.0830 
 17 C        2.7830     3.6230     1.9420 C.3   1 <1>   0.1400 
 18 C        2.6090     1.5370     0.5060 C.3   1 <1>   0.1400 
 19 C       -3.5220     0.6400     2.5080 C.3   1 <1>   0.1200 
 20 O       -3.5220     3.0340     2.1570 O.3   1 <1>  -0.3630 
 21 C        4.0070     3.0010     2.6330 C.3   1 <1>  -0.1600 
 22 C        4.0110     1.1970    -0.0110 C.3   1 <1>  -0.1600 
 23 C       -3.6060     2.0310     3.1510 C.3   1 <1>   0.1200 
 24 C        5.2000     2.7260     1.7020 C.3   1 <1>  -0.1600 
 25 C        5.1250     1.3430     1.0370 C.3   1 <1>  -0.1600 
 26 H       -1.4020     0.2100    -4.2330 H     1 <1>   0.0800 
 27 H       -1.5920     1.9170    -3.9350 H     1 <1>   0.0800 
 28 H       -1.9790     0.7630    -2.6850 H     1 <1>   0.0800 
 29 H        1.4420     4.0420    -2.4470 H     1 <1>   0.0800 
 30 H        2.3990     2.6450    -2.1030 H     1 <1>   0.0800 
 31 H       -0.5710     0.4810    -0.1110 H     1 <1>   0.1500 
 32 H       -0.9610     4.5950    -1.1850 H     1 <1>   0.1500 
 33 H       -2.6730     4.8820     0.5620 H     1 <1>   0.1500 
 34 H        1.9250     3.5410     2.5870 H     1 <1>   0.0800 
 35 H        2.9820     4.6730     1.8040 H     1 <1>   0.0800 
 36 H        1.8800     1.1370    -0.1720 H     1 <1>   0.0800 
 37 H        2.4340     1.0690     1.4590 H     1 <1>   0.0800 
 38 H       -3.5000    -0.1280     3.2600 H     1 <1>   0.0800 
 39 H       -4.3650     0.4760     1.8600 H     1 <1>   0.0800 
 40 H        3.7160     2.1000     3.1430 H     1 <1>   0.0800 
 41 H        4.3220     3.6920     3.3950 H     1 <1>   0.0800 
 42 H        4.2360     1.8070    -0.8670 H     1 <1>   0.0800 
 43 H        4.0010     0.1740    -0.3450 H     1 <1>   0.0800 
 44 H       -2.7940     2.1740     3.8410 H     1 <1>   0.0800 
 45 H       -4.5380     2.1570     3.6710 H     1 <1>   0.0800 
 46 H        6.1000     2.7570     2.2930 H     1 <1>   0.0800 
 47 H        5.2790     3.4990     0.9560 H     1 <1>   0.0800 
 48 H        6.0660     1.1470     0.5530 H     1 <1>   0.0800 
 49 H        4.9990     0.5910     1.7960 H     1 <1>   0.0800 
@<TRIPOS>BOND
  1   1   2  2   
  2   1   3  2   
  3   1   4  am  
  4   1   5  1   
  5   4   6  1   
  6   4   7  1   
  7   5  26  1   
  8   5  27  1   
  9   5  28  1   
 10   6   8  ar  
 11   6   9  ar  
 12   7  10  1   
 13   7  29  1   
 14   7  30  1   
 15   8  11  ar  
 16   8  31  1   
 17   9  12  ar  
 18   9  32  1   
 19  10  13  2   
 20  10  14  am  
 21  11  15  1   
 22  11  16  ar  
 23  12  16  ar  
 24  12  33  1   
 25  14  17  1   
 26  14  18  1   
 27  15  19  1   
 28  16  20  1   
 29  17  21  1   
 30  17  34  1   
 31  17  35  1   
 32  18  22  1   
 33  18  36  1   
 34  18  37  1   
 35  19  23  1   
 36  19  38  1   
 37  19  39  1   
 38  20  23  1   
 39  21  24  1   
 40  21  40  1   
 41  21  41  1   
 42  22  25  1   
 43  22  42  1   
 44  22  43  1   
 45  23  44  1   
 46  23  45  1   
 47  24  25  1   
 48  24  46  1   
 49  24  47  1   
 50  25  48  1   
 51  25  49  1   
@<TRIPOS>SUBSTRUCTURE
  1 ****   6 GROUP 4 **** **** 0

# MOE 2024.06 (io_trps.svl 2023.06)
