@<TRIPOS>MOLECULE
NONAME
33 34 1 0 0 
SMALL
USER_CHARGES


@<TRIPOS>ATOM
  1 O        0.6250    -1.2030     0.4700 O.2   1 <1>  -0.5700 
  2 C        0.5680    -2.4240     0.4730 C.2   1 <1>   0.7160 
  3 N        1.7480    -3.1150     0.7120 N.am  1 <1>  -0.6600 
  4 C       -0.7280    -3.0470     0.2130 C.2   1 <1>   0.2030 
  5 C        2.9770    -2.3940     1.1510 C.3   1 <1>   0.2840 
  6 C        1.9290    -4.5760     0.4860 C.3   1 <1>   0.1400 
  7 N       -1.1140    -4.2680     0.4530 N.2   1 <1>  -0.4100 
  8 C       -1.8030    -2.3710    -0.3500 C.2   1 <1>  -0.1500 
  9 C        3.9590    -2.2760    -0.0040 C.ar  1 <1>  -0.1430 
 10 C        1.9500    -4.8820    -1.0110 C.3   1 <1>  -0.2400 
 11 O       -2.3580    -4.4420     0.0810 O.3   1 <1>  -0.0190 
 12 C       -2.7680    -3.2910    -0.4010 C.2   1 <1>  -0.0400 
 13 C        3.7090    -1.4420    -1.0750 C.ar  1 <1>  -0.1500 
 14 C        5.1390    -2.9920    -0.0510 C.ar  1 <1>  -0.1500 
 15 C       -4.1900    -3.1820    -0.9110 C.3   1 <1>  -0.0600 
 16 C        4.6230    -1.3660    -2.1120 C.ar  1 <1>   0.1600 
 17 C        5.9860    -2.8430    -1.1370 C.ar  1 <1>   0.1600 
 18 N        5.7560    -2.0480    -2.1690 N.ar  1 <1>  -0.6200 
 19 H        3.4290    -2.9280     1.9680 H     1 <1>   0.0800 
 20 H        2.7360    -1.4090     1.5130 H     1 <1>   0.0800 
 21 H        1.1460    -5.1300     0.9730 H     1 <1>   0.0800 
 22 H        2.8590    -4.8990     0.9220 H     1 <1>   0.0800 
 23 H       -1.8040    -1.3400    -0.6540 H     1 <1>   0.1500 
 24 H        1.0140    -4.6180    -1.4690 H     1 <1>   0.0800 
 25 H        2.1090    -5.9350    -1.1600 H     1 <1>   0.0800 
 26 H        2.7470    -4.3480    -1.4960 H     1 <1>   0.0800 
 27 H        2.8090    -0.8540    -1.1080 H     1 <1>   0.1500 
 28 H        5.4080    -3.6640     0.7430 H     1 <1>   0.1500 
 29 H       -4.3820    -2.1870    -1.2700 H     1 <1>   0.0800 
 30 H       -4.8790    -3.4060    -0.1170 H     1 <1>   0.0800 
 31 H       -4.3430    -3.8800    -1.7130 H     1 <1>   0.0800 
 32 H        4.4090    -0.7100    -2.9390 H     1 <1>   0.1500 
 33 H        6.9020    -3.4080    -1.1580 H     1 <1>   0.1500 
@<TRIPOS>BOND
  1   1   2  2   
  2   2   3  am  
  3   2   4  1   
  4   3   5  1   
  5   3   6  1   
  6   4   7  2   
  7   4   8  1   
  8   5   9  1   
  9   5  19  1   
 10   5  20  1   
 11   6  10  1   
 12   6  21  1   
 13   6  22  1   
 14   7  11  1   
 15   8  12  2   
 16   8  23  1   
 17   9  13  ar  
 18   9  14  ar  
 19  10  24  1   
 20  10  25  1   
 21  10  26  1   
 22  11  12  1   
 23  12  15  1   
 24  13  16  ar  
 25  13  27  1   
 26  14  17  ar  
 27  14  28  1   
 28  15  29  1   
 29  15  30  1   
 30  15  31  1   
 31  16  18  ar  
 32  16  32  1   
 33  17  18  ar  
 34  17  33  1   
@<TRIPOS>SUBSTRUCTURE
  1 ****   3 GROUP 4 **** **** 0

# MOE 2024.06 (io_trps.svl 2023.06)
