@<TRIPOS>MOLECULE
NONAME
37 39 1 0 0 
SMALL
USER_CHARGES


@<TRIPOS>ATOM
  1 O       -0.6590     0.5320     0.5730 O.3   1 <1>  -0.2800 
  2 C       -1.6750     0.8800    -0.1950 C.2   1 <1>  -0.0400 
  3 C        0.4310     1.0780     0.0730 C.2   1 <1>  -0.0400 
  4 C       -1.2450     1.6610    -1.2110 C.2   1 <1>  -0.1500 
  5 C       -3.0610     0.3680     0.1660 C.3   1 <1>   0.2900 
  6 C        0.1370     1.7920    -1.0340 C.2   1 <1>  -0.1500 
  7 C        1.7490     0.8340     0.7710 C.3   1 <1>  -0.0600 
  8 N       -4.1280     1.0830    -0.5640 N.3   1 <1>  -0.8100 
  9 C       -5.4070     0.3410    -0.4840 C.3   1 <1>   0.1100 
 10 C       -4.3130     2.4540    -0.0270 C.3   1 <1>   0.1100 
 11 C       -6.5430     1.0590    -1.2350 C.3   1 <1>   0.2090 
 12 C       -5.4320     3.2260    -0.7520 C.3   1 <1>   0.2090 
 13 N       -6.7130     2.4530    -0.7200 N.pl3 1 <1>  -0.8380 
 14 C       -7.8490     2.8970    -0.0770 C.ar  1 <1>   0.7200 
 15 N       -7.9040     4.1920     0.2370 N.ar  1 <1>  -0.6200 
 16 N       -8.7990     1.9960     0.1780 N.ar  1 <1>  -0.6200 
 17 C       -8.9920     4.6030     0.8400 C.ar  1 <1>   0.1600 
 18 C       -9.8760     2.4350     0.7820 C.ar  1 <1>   0.1600 
 19 C      -10.0260     3.7510     1.1410 C.ar  1 <1>  -0.1500 
 20 H       -1.8290     2.0950    -2.0030 H     1 <1>   0.1500 
 21 H       -3.2150     0.4700     1.2260 H     1 <1>   0.0800 
 22 H       -3.0950    -0.6790    -0.0780 H     1 <1>   0.0800 
 23 H        0.7960     2.3530    -1.6720 H     1 <1>   0.1500 
 24 H        1.9580    -0.2200     0.7930 H     1 <1>   0.0800 
 25 H        1.6980     1.2020     1.7800 H     1 <1>   0.0800 
 26 H        2.5440     1.3390     0.2530 H     1 <1>   0.0800 
 27 H       -5.6990     0.2210     0.5460 H     1 <1>   0.0800 
 28 H       -5.2780    -0.6370    -0.9140 H     1 <1>   0.0800 
 29 H       -3.3970     3.0090    -0.1250 H     1 <1>   0.0800 
 30 H       -4.5590     2.4060     1.0200 H     1 <1>   0.0800 
 31 H       -7.4480     0.4890    -1.1390 H     1 <1>   0.0800 
 32 H       -6.2970     1.1020    -2.2810 H     1 <1>   0.0800 
 33 H       -5.1440     3.3840    -1.7760 H     1 <1>   0.0800 
 34 H       -5.5420     4.1900    -0.2910 H     1 <1>   0.0800 
 35 H       -9.0610     5.6450     1.1000 H     1 <1>   0.1500 
 36 H      -10.6580     1.7270     0.9970 H     1 <1>   0.1500 
 37 H      -10.9130     4.1000     1.6350 H     1 <1>   0.1500 
@<TRIPOS>BOND
  1   1   2  1   
  2   1   3  1   
  3   2   4  2   
  4   2   5  1   
  5   3   6  2   
  6   3   7  1   
  7   4   6  1   
  8   4  20  1   
  9   5   8  1   
 10   5  21  1   
 11   5  22  1   
 12   6  23  1   
 13   7  24  1   
 14   7  25  1   
 15   7  26  1   
 16   8   9  1   
 17   8  10  1   
 18   9  11  1   
 19   9  27  1   
 20   9  28  1   
 21  10  12  1   
 22  10  29  1   
 23  10  30  1   
 24  11  13  1   
 25  11  31  1   
 26  11  32  1   
 27  12  13  1   
 28  12  33  1   
 29  12  34  1   
 30  13  14  1   
 31  14  15  ar  
 32  14  16  ar  
 33  15  17  ar  
 34  16  18  ar  
 35  17  19  ar  
 36  17  35  1   
 37  18  19  ar  
 38  18  36  1   
 39  19  37  1   
@<TRIPOS>SUBSTRUCTURE
  1 ****  10 GROUP 4 **** **** 0

# MOE 2024.06 (io_trps.svl 2023.06)
