@<TRIPOS>MOLECULE
NONAME
42 44 1 0 0 
SMALL
USER_CHARGES


@<TRIPOS>ATOM
  1 S       -0.4840     0.3390     0.2440 S.o2  1 <1>   1.4470 
  2 O       -0.9540     0.2200     1.6070 O.2   1 <1>  -0.6500 
  3 O       -0.4630    -0.8280    -0.6090 O.2   1 <1>  -0.6500 
  4 N       -1.4640     1.4940    -0.5140 N.am  1 <1>  -0.8490 
  5 C        1.1580     1.1160     0.2170 C.ar  1 <1>  -0.0090 
  6 C       -1.7280     2.6630     0.3500 C.3   1 <1>   0.1960 
  7 C       -2.7480     0.9040    -0.9430 C.3   1 <1>   0.1960 
  8 C        1.6630     1.6570    -0.9640 C.ar  1 <1>  -0.1500 
  9 C        1.9460     1.1800     1.3680 C.ar  1 <1>  -0.1500 
 10 C       -2.5710     3.7430    -0.3560 C.3   1 <1>   0.2090 
 11 C       -3.6560     1.9090    -1.6810 C.3   1 <1>   0.2090 
 12 C        2.9130     2.2450    -0.9720 C.ar  1 <1>   0.1900 
 13 C        3.2030     1.7690     1.3620 C.ar  1 <1>  -0.1500 
 14 N       -3.8300     3.1870    -0.9290 N.pl3 1 <1>  -0.8380 
 15 F        3.3620     2.7520    -2.0910 F     1 <1>  -0.1900 
 16 C        3.6780     2.3020     0.1790 C.ar  1 <1>   0.1900 
 17 C       -5.0160     3.3860    -0.2210 C.ar  1 <1>   0.1000 
 18 F        4.8600     2.8620     0.1670 F     1 <1>  -0.1900 
 19 C       -5.9490     4.3350    -0.6440 C.ar  1 <1>  -0.1430 
 20 C       -5.2870     2.6430     0.9230 C.ar  1 <1>  -0.1500 
 21 C       -7.1190     4.5220     0.0740 C.ar  1 <1>  -0.1500 
 22 C       -5.6900     5.1670    -1.8910 C.3   1 <1>  -0.0970 
 23 C       -6.4550     2.8330     1.6360 C.ar  1 <1>  -0.1500 
 24 C       -7.3750     3.7750     1.2110 C.ar  1 <1>  -0.1500 
 25 H       -0.7960     3.1060     0.6540 H     1 <1>   0.0800 
 26 H       -2.2490     2.3540     1.2410 H     1 <1>   0.0800 
 27 H       -3.2750     0.5180    -0.0870 H     1 <1>   0.0800 
 28 H       -2.5600     0.0770    -1.6070 H     1 <1>   0.0800 
 29 H        1.0840     1.6180    -1.8710 H     1 <1>   0.1500 
 30 H        1.5680     0.7600     2.2870 H     1 <1>   0.1500 
 31 H       -1.9920     4.1800    -1.1500 H     1 <1>   0.0800 
 32 H       -2.8130     4.5230     0.3440 H     1 <1>   0.0800 
 33 H       -4.6190     1.4610    -1.8510 H     1 <1>   0.0800 
 34 H       -3.2240     2.1300    -2.6410 H     1 <1>   0.0800 
 35 H        3.8030     1.8150     2.2540 H     1 <1>   0.1500 
 36 H       -4.5780     1.9120     1.2570 H     1 <1>   0.1500 
 37 H       -7.8400     5.2520    -0.2470 H     1 <1>   0.1500 
 38 H       -5.5610     4.5170    -2.7380 H     1 <1>   0.0800 
 39 H       -4.7930     5.7440    -1.7610 H     1 <1>   0.0800 
 40 H       -6.5060     5.8360    -2.0910 H     1 <1>   0.0800 
 41 H       -6.6510     2.2500     2.5190 H     1 <1>   0.1500 
 42 H       -8.2860     3.9280     1.7620 H     1 <1>   0.1500 
@<TRIPOS>BOND
  1   1   2  2   
  2   1   3  2   
  3   1   4  am  
  4   1   5  1   
  5   4   6  1   
  6   4   7  1   
  7   5   8  ar  
  8   5   9  ar  
  9   6  10  1   
 10   6  25  1   
 11   6  26  1   
 12   7  11  1   
 13   7  27  1   
 14   7  28  1   
 15   8  12  ar  
 16   8  29  1   
 17   9  13  ar  
 18   9  30  1   
 19  10  14  1   
 20  10  31  1   
 21  10  32  1   
 22  11  14  1   
 23  11  33  1   
 24  11  34  1   
 25  12  15  1   
 26  12  16  ar  
 27  13  16  ar  
 28  13  35  1   
 29  14  17  1   
 30  16  18  1   
 31  17  19  ar  
 32  17  20  ar  
 33  19  21  ar  
 34  19  22  1   
 35  20  23  ar  
 36  20  36  1   
 37  21  24  ar  
 38  21  37  1   
 39  22  38  1   
 40  22  39  1   
 41  22  40  1   
 42  23  24  ar  
 43  23  41  1   
 44  24  42  1   
@<TRIPOS>SUBSTRUCTURE
  1 ****   6 GROUP 4 **** **** 0

# MOE 2024.06 (io_trps.svl 2023.06)
