@<TRIPOS>MOLECULE
NONAME
41 43 1 0 0 
SMALL
USER_CHARGES


@<TRIPOS>ATOM
  1 O       -0.8780     0.2200    -0.9810 O.3   1 <1>  -0.3630 
  2 C       -1.8490     0.9470    -0.3700 C.ar  1 <1>   0.0830 
  3 C        0.4390     0.7100    -1.0940 C.3   1 <1>   0.0400 
  4 C       -3.1170     0.3940    -0.3460 C.ar  1 <1>  -0.1500 
  5 C       -1.6290     2.1890     0.2190 C.ar  1 <1>  -0.1500 
  6 C       -4.1820     1.0550     0.2530 C.ar  1 <1>   0.1000 
  7 C       -2.6800     2.8580     0.8220 C.ar  1 <1>  -0.1500 
  8 N       -5.4400     0.4430     0.2670 N.pl3 1 <1>  -0.6000 
  9 C       -3.9430     2.2940     0.8410 C.ar  1 <1>  -0.1500 
 10 C       -6.7140     1.0010     0.3790 C.ar  1 <1>   0.4100 
 11 N       -6.9150     2.2630    -0.0060 N.ar  1 <1>  -0.3100 
 12 C       -7.7420     0.2150     0.8680 C.ar  1 <1>  -0.1500 
 13 N       -8.1130     2.8000     0.0800 N.ar  1 <1>  -0.3100 
 14 C       -8.9910     0.7750     0.9530 C.ar  1 <1>  -0.1500 
 15 C       -9.1450     2.0870     0.5410 C.ar  1 <1>   0.4100 
 16 N      -10.4050     2.6810     0.6090 N.pl3 1 <1>  -0.8380 
 17 C      -10.5070     4.1480     0.8600 C.3   1 <1>   0.2090 
 18 C      -11.4970     2.1140    -0.2260 C.3   1 <1>   0.2090 
 19 C      -10.6390     4.9210    -0.4580 C.3   1 <1>  -0.1600 
 20 C      -11.6010     2.8740    -1.5520 C.3   1 <1>  -0.1600 
 21 C      -11.7810     4.3810    -1.3290 C.3   1 <1>  -0.1600 
 22 H        1.0230    -0.0210    -1.6240 H     1 <1>   0.0800 
 23 H        0.8430     0.8560    -0.1080 H     1 <1>   0.0800 
 24 H        0.4210     1.6330    -1.6450 H     1 <1>   0.0800 
 25 H       -3.2690    -0.5620    -0.8080 H     1 <1>   0.1500 
 26 H       -0.6590     2.6470     0.2180 H     1 <1>   0.1500 
 27 H       -2.5180     3.8180     1.2780 H     1 <1>   0.1500 
 28 H       -5.4340    -0.5570     0.0780 H     1 <1>   0.4000 
 29 H       -4.7500     2.8210     1.3180 H     1 <1>   0.1500 
 30 H       -7.5610    -0.7960     1.1770 H     1 <1>   0.1500 
 31 H       -9.8330     0.2300     1.3320 H     1 <1>   0.1500 
 32 H       -9.6380     4.4900     1.3980 H     1 <1>   0.0800 
 33 H      -11.3700     4.3330     1.4760 H     1 <1>   0.0800 
 34 H      -12.4250     2.1920     0.3130 H     1 <1>   0.0800 
 35 H      -11.3110     1.0730    -0.4250 H     1 <1>   0.0800 
 36 H       -9.7100     4.8450    -0.9950 H     1 <1>   0.0800 
 37 H      -10.8060     5.9610    -0.2430 H     1 <1>   0.0800 
 38 H      -12.4310     2.4900    -2.1180 H     1 <1>   0.0800 
 39 H      -10.7040     2.6980    -2.1210 H     1 <1>   0.0800 
 40 H      -11.7890     4.8920    -2.2760 H     1 <1>   0.0800 
 41 H      -12.7230     4.5630    -0.8400 H     1 <1>   0.0800 
@<TRIPOS>BOND
  1   1   2  1   
  2   1   3  1   
  3   2   4  ar  
  4   2   5  ar  
  5   3  22  1   
  6   3  23  1   
  7   3  24  1   
  8   4   6  ar  
  9   4  25  1   
 10   5   7  ar  
 11   5  26  1   
 12   6   8  1   
 13   6   9  ar  
 14   7   9  ar  
 15   7  27  1   
 16   8  10  1   
 17   8  28  1   
 18   9  29  1   
 19  10  11  ar  
 20  10  12  ar  
 21  11  13  ar  
 22  12  14  ar  
 23  12  30  1   
 24  13  15  ar  
 25  14  15  ar  
 26  14  31  1   
 27  15  16  1   
 28  16  17  1   
 29  16  18  1   
 30  17  19  1   
 31  17  32  1   
 32  17  33  1   
 33  18  20  1   
 34  18  34  1   
 35  18  35  1   
 36  19  21  1   
 37  19  36  1   
 38  19  37  1   
 39  20  21  1   
 40  20  38  1   
 41  20  39  1   
 42  21  40  1   
 43  21  41  1   
@<TRIPOS>SUBSTRUCTURE
  1 ****  11 GROUP 4 **** **** 0

# MOE 2024.06 (io_trps.svl 2023.06)
