@<TRIPOS>MOLECULE
NONAME
37 38 1 0 0 
SMALL
USER_CHARGES


@<TRIPOS>ATOM
  1 S       -0.0560     0.4610    -0.9500 S.o2  1 <1>   1.4470 
  2 O        0.3370    -0.8470    -0.4750 O.2   1 <1>  -0.6500 
  3 O        0.1160     0.7890    -2.3490 O.2   1 <1>  -0.6500 
  4 N        0.8180     1.6110    -0.0620 N.am  1 <1>  -0.8490 
  5 C       -1.7750     0.7750    -0.4520 C.ar  1 <1>  -0.0090 
  6 C        2.2460     1.2740    -0.0160 C.3   1 <1>   0.1960 
  7 C        0.6190     2.9700    -0.5750 C.3   1 <1>   0.1960 
  8 C       -2.7980     0.8540    -1.3890 C.ar  1 <1>  -0.1500 
  9 C       -2.1180     0.9350     0.8840 C.ar  1 <1>  -0.1500 
 10 C        3.0040     2.2340     0.9180 C.3   1 <1>  -0.0800 
 11 C        1.2930     3.9860     0.3500 C.3   1 <1>  -0.1600 
 12 C       -4.1060     1.0940    -1.0080 C.ar  1 <1>  -0.1500 
 13 C       -3.4250     1.1770     1.2660 C.ar  1 <1>  -0.1500 
 14 C        2.7920     3.6950     0.4930 C.3   1 <1>  -0.1600 
 15 C        4.5010     1.9000     0.9470 C.3   1 <1>  -0.2400 
 16 C       -4.4560     1.2700     0.3320 C.ar  1 <1>   0.0860 
 17 C       -5.8230     1.5360     0.7530 C.2   1 <1>   0.5440 
 18 O       -6.1790     1.3710     1.8990 O.2   1 <1>  -0.5700 
 19 N       -6.7680     1.9960    -0.0990 N.am  1 <1>  -0.8000 
 20 H        2.6620     1.3160    -1.0090 H     1 <1>   0.0800 
 21 H        2.3700     0.2700     0.3560 H     1 <1>   0.0800 
 22 H       -0.4340     3.1900    -0.6270 H     1 <1>   0.0800 
 23 H        1.0300     3.0530    -1.5690 H     1 <1>   0.0800 
 24 H       -2.5630     0.7230    -2.4330 H     1 <1>   0.1500 
 25 H       -1.3470     0.8680     1.6340 H     1 <1>   0.1500 
 26 H        2.6120     2.1010     1.9120 H     1 <1>   0.0800 
 27 H        0.8190     3.9460     1.3150 H     1 <1>   0.0800 
 28 H        1.1540     4.9760    -0.0450 H     1 <1>   0.0800 
 29 H       -4.8670     1.1370    -1.7670 H     1 <1>   0.1500 
 30 H       -3.6590     1.2950     2.3110 H     1 <1>   0.1500 
 31 H        3.2780     3.8720    -0.4510 H     1 <1>   0.0800 
 32 H        3.2240     4.3580     1.2220 H     1 <1>   0.0800 
 33 H        4.9360     2.0090    -0.0310 H     1 <1>   0.0800 
 34 H        4.6510     0.8870     1.2790 H     1 <1>   0.0800 
 35 H        5.0160     2.5560     1.6270 H     1 <1>   0.0800 
 36 H       -7.7000     2.1850     0.2710 H     1 <1>   0.3700 
 37 H       -6.5870     2.2890    -1.0570 H     1 <1>   0.3700 
@<TRIPOS>BOND
  1   1   2  2   
  2   1   3  2   
  3   1   4  am  
  4   1   5  1   
  5   4   6  1   
  6   4   7  1   
  7   5   8  ar  
  8   5   9  ar  
  9   6  10  1   
 10   6  20  1   
 11   6  21  1   
 12   7  11  1   
 13   7  22  1   
 14   7  23  1   
 15   8  12  ar  
 16   8  24  1   
 17   9  13  ar  
 18   9  25  1   
 19  10  14  1   
 20  10  15  1   
 21  10  26  1   
 22  11  14  1   
 23  11  27  1   
 24  11  28  1   
 25  12  16  ar  
 26  12  29  1   
 27  13  16  ar  
 28  13  30  1   
 29  14  31  1   
 30  14  32  1   
 31  15  33  1   
 32  15  34  1   
 33  15  35  1   
 34  16  17  1   
 35  17  18  2   
 36  17  19  am  
 37  19  36  1   
 38  19  37  1   
@<TRIPOS>SUBSTRUCTURE
  1 ****   5 GROUP 4 **** **** 0

# MOE 2024.06 (io_trps.svl 2023.06)
