@<TRIPOS>MOLECULE
NONAME
39 39 1 0 0 
SMALL
USER_CHARGES


@<TRIPOS>ATOM
  1 CL       0.1650     0.9210     0.4950 Cl    1 <1>  -0.1770 
  2 C        1.8750     0.5770     0.3620 C.ar  1 <1>   0.1770 
  3 C        2.7690     1.5850     0.0300 C.ar  1 <1>  -0.1440 
  4 C        2.3020    -0.7180     0.5950 C.ar  1 <1>  -0.1500 
  5 C        4.1160     1.2670    -0.0650 C.ar  1 <1>  -0.1500 
  6 C        2.2930     3.0070    -0.2260 C.3   1 <1>  -0.0960 
  7 C        3.6480    -1.0250     0.4990 C.ar  1 <1>  -0.1500 
  8 C        4.5620    -0.0260     0.1660 C.ar  1 <1>   0.0830 
  9 O        5.8970    -0.2350     0.0490 O.3   1 <1>  -0.3630 
 10 C        6.4620    -1.5040     0.2680 C.3   1 <1>   0.1200 
 11 C        7.9740    -1.3710     0.0590 C.3   1 <1>   0.3430 
 12 N        8.7330    -2.6590     0.2400 N.4   1 <1>  -0.9590 
 13 C       10.1940    -2.4150     0.2350 C.3   1 <1>   0.4810 
 14 C        8.3690    -3.6950    -0.7510 C.3   1 <1>   0.4810 
 15 C       10.5290    -1.6000     1.4630 C.2   1 <1>  -0.2880 
 16 C        7.3470    -4.6320    -0.1290 C.2   1 <1>  -0.2880 
 17 C       10.9620    -0.3340     1.4580 C.2   1 <1>  -0.3000 
 18 C        6.8890    -4.6960     1.1300 C.2   1 <1>  -0.3000 
 19 H        1.5800    -1.4730     0.8500 H     1 <1>   0.1500 
 20 H        4.8340     2.0250    -0.3190 H     1 <1>   0.1500 
 21 H        1.8030     3.3940     0.6500 H     1 <1>   0.0800 
 22 H        1.5970     3.0200    -1.0460 H     1 <1>   0.0800 
 23 H        3.1170     3.6540    -0.4680 H     1 <1>   0.0800 
 24 H        3.9540    -2.0370     0.6850 H     1 <1>   0.1500 
 25 H        6.0240    -2.1850    -0.4400 H     1 <1>   0.0800 
 26 H        6.2380    -1.7990     1.2780 H     1 <1>   0.0800 
 27 H        8.3380    -0.6420     0.7650 H     1 <1>   0.0800 
 28 H        8.1500    -0.9880    -0.9330 H     1 <1>   0.0800 
 29 H        8.5030    -3.0540     1.1570 H     1 <1>   0.4500 
 30 H       10.4790    -1.8770    -0.6550 H     1 <1>   0.0800 
 31 H       10.7350    -3.3480     0.2650 H     1 <1>   0.0800 
 32 H        9.2370    -4.2700    -1.0330 H     1 <1>   0.0800 
 33 H        7.9630    -3.2360    -1.6390 H     1 <1>   0.0800 
 34 H       10.3930    -2.1490     2.3800 H     1 <1>   0.1500 
 35 H        6.9860    -5.3280    -0.8690 H     1 <1>   0.1500 
 36 H       11.1990     0.2210     2.3530 H     1 <1>   0.1500 
 37 H       11.1260     0.2650     0.5760 H     1 <1>   0.1500 
 38 H        6.1560    -5.4250     1.4430 H     1 <1>   0.1500 
 39 H        7.1690    -4.0730     1.9620 H     1 <1>   0.1500 
@<TRIPOS>BOND
  1   1   2  1   
  2   2   3  ar  
  3   2   4  ar  
  4   3   5  ar  
  5   3   6  1   
  6   4   7  ar  
  7   4  19  1   
  8   5   8  ar  
  9   5  20  1   
 10   6  21  1   
 11   6  22  1   
 12   6  23  1   
 13   7   8  ar  
 14   7  24  1   
 15   8   9  1   
 16   9  10  1   
 17  10  11  1   
 18  10  25  1   
 19  10  26  1   
 20  11  12  1   
 21  11  27  1   
 22  11  28  1   
 23  12  13  1   
 24  12  14  1   
 25  12  29  1   
 26  13  15  1   
 27  13  30  1   
 28  13  31  1   
 29  14  16  1   
 30  14  32  1   
 31  14  33  1   
 32  15  17  2   
 33  15  34  1   
 34  16  18  2   
 35  16  35  1   
 36  17  36  1   
 37  17  37  1   
 38  18  38  1   
 39  18  39  1   
@<TRIPOS>SUBSTRUCTURE
  1 ****   9 GROUP 4 **** **** 0

# MOE 2024.06 (io_trps.svl 2023.06)
