@<TRIPOS>MOLECULE
NONAME
42 43 1 0 0 
SMALL
USER_CHARGES


@<TRIPOS>ATOM
  1 O        0.1030    -0.1570    -1.1620 O.3   1 <1>  -0.0190 
  2 N        1.3140     0.2630    -0.9730 N.2   1 <1>  -0.4100 
  3 C        0.1900    -1.4550    -1.0230 C.2   1 <1>   0.2980 
  4 C        2.0560    -0.7600    -0.7310 C.2   1 <1>   0.4620 
  5 N        1.3530    -1.8970    -0.7660 N.2   1 <1>  -0.5650 
  6 C       -1.0760    -2.2860    -1.1990 C.3   1 <1>   0.2900 
  7 C        3.4840    -0.7240    -0.4560 C.ar  1 <1>   0.0540 
  8 N       -2.1480    -1.8830    -0.2720 N.3   1 <1>  -0.9000 
  9 C        4.2020    -1.8810    -0.1490 C.ar  1 <1>  -0.1500 
 10 C        4.1940     0.4760    -0.4890 C.ar  1 <1>  -0.1500 
 11 C       -3.4050    -2.5760    -0.5360 C.3   1 <1>   0.1100 
 12 C        5.5670    -1.8510     0.1140 C.ar  1 <1>   0.0830 
 13 C        5.5510     0.5270    -0.2320 C.ar  1 <1>  -0.1500 
 14 C       -4.5020    -2.0590     0.4070 C.3   1 <1>  -0.0800 
 15 O        6.2810    -2.9760     0.4150 O.3   1 <1>  -0.3630 
 16 C        6.2530    -0.6350     0.0720 C.ar  1 <1>   0.0830 
 17 C       -5.7920    -2.8630     0.2010 C.3   1 <1>  -0.2400 
 18 C       -4.7910    -0.5630     0.1990 C.3   1 <1>  -0.2400 
 19 C        5.6680    -4.2420     0.5130 C.3   1 <1>   0.0400 
 20 O        7.5900    -0.6370     0.3330 O.3   1 <1>  -0.3630 
 21 C        8.3580     0.5450     0.3070 C.3   1 <1>   0.0400 
 22 H       -0.8360    -3.3220    -1.0340 H     1 <1>   0.0800 
 23 H       -1.4150    -2.1740    -2.2150 H     1 <1>   0.0800 
 24 H       -2.3080    -0.8720    -0.3730 H     1 <1>   0.3600 
 25 H        3.6640    -2.8080    -0.1190 H     1 <1>   0.1500 
 26 H        3.6730     1.3890    -0.7210 H     1 <1>   0.1500 
 27 H       -3.2660    -3.6330    -0.3770 H     1 <1>   0.0800 
 28 H       -3.7070    -2.4190    -1.5580 H     1 <1>   0.0800 
 29 H        6.0420     1.4800    -0.2720 H     1 <1>   0.1500 
 30 H       -4.1720    -2.2120     1.4220 H     1 <1>   0.0800 
 31 H       -6.1620    -2.7390    -0.8020 H     1 <1>   0.0800 
 32 H       -6.5500    -2.5330     0.8900 H     1 <1>   0.0800 
 33 H       -5.6120    -3.9090     0.3770 H     1 <1>   0.0800 
 34 H       -5.0760    -0.3690    -0.8200 H     1 <1>   0.0800 
 35 H       -3.9240     0.0280     0.4360 H     1 <1>   0.0800 
 36 H       -5.5900    -0.2460     0.8450 H     1 <1>   0.0800 
 37 H        6.4270    -4.9580     0.7730 H     1 <1>   0.0800 
 38 H        5.2370    -4.4960    -0.4390 H     1 <1>   0.0800 
 39 H        4.9180    -4.2090     1.2830 H     1 <1>   0.0800 
 40 H        9.3740     0.2850     0.5420 H     1 <1>   0.0800 
 41 H        7.9750     1.2250     1.0470 H     1 <1>   0.0800 
 42 H        8.3070     0.9720    -0.6780 H     1 <1>   0.0800 
@<TRIPOS>BOND
  1   1   2  1   
  2   1   3  1   
  3   2   4  2   
  4   3   5  2   
  5   3   6  1   
  6   4   5  1   
  7   4   7  1   
  8   6   8  1   
  9   6  22  1   
 10   6  23  1   
 11   7   9  ar  
 12   7  10  ar  
 13   8  11  1   
 14   8  24  1   
 15   9  12  ar  
 16   9  25  1   
 17  10  13  ar  
 18  10  26  1   
 19  11  14  1   
 20  11  27  1   
 21  11  28  1   
 22  12  15  1   
 23  12  16  ar  
 24  13  16  ar  
 25  13  29  1   
 26  14  17  1   
 27  14  18  1   
 28  14  30  1   
 29  15  19  1   
 30  16  20  1   
 31  17  31  1   
 32  17  32  1   
 33  17  33  1   
 34  18  34  1   
 35  18  35  1   
 36  18  36  1   
 37  19  37  1   
 38  19  38  1   
 39  19  39  1   
 40  20  21  1   
 41  21  40  1   
 42  21  41  1   
 43  21  42  1   
@<TRIPOS>SUBSTRUCTURE
  1 ****   4 GROUP 4 **** **** 0

# MOE 2024.06 (io_trps.svl 2023.06)
