@<TRIPOS>MOLECULE
NONAME
35 35 1 0 0 
SMALL
USER_CHARGES


@<TRIPOS>ATOM
  1 CL       0.3210    -0.8840     1.9750 Cl    1 <1>  -0.1770 
  2 C        1.0510    -1.9520     0.7970 C.ar  1 <1>   0.1770 
  3 C        0.3140    -2.9810     0.2230 C.ar  1 <1>   0.0830 
  4 C        2.3760    -1.7390     0.4650 C.ar  1 <1>  -0.1500 
  5 O       -0.9830    -3.1340     0.6000 O.3   1 <1>  -0.3630 
  6 C        0.9410    -3.8050    -0.7090 C.ar  1 <1>  -0.1500 
  7 C        2.9960    -2.5670    -0.4590 C.ar  1 <1>  -0.1430 
  8 C       -1.8110    -4.1310     0.0430 C.3   1 <1>   0.0400 
  9 C        2.2700    -3.5970    -1.0440 C.ar  1 <1>  -0.1500 
 10 C        4.4510    -2.3550    -0.8170 C.3   1 <1>   0.4870 
 11 N        5.2360    -3.2290     0.0700 N.4   1 <1>  -0.9060 
 12 C        6.6970    -3.2120    -0.1450 C.3   1 <1>   0.4230 
 13 C        7.2540    -4.6110     0.2060 C.3   1 <1>   0.1200 
 14 C        7.3220    -2.0850     0.6880 C.3   1 <1>  -0.1600 
 15 O        6.3210    -5.5920    -0.1530 O.3   1 <1>  -0.6800 
 16 C        8.8310    -1.9330     0.4420 C.3   1 <1>  -0.2400 
 17 H        2.8950    -0.9240     0.9390 H     1 <1>   0.1500 
 18 H        0.4090    -4.6110    -1.1810 H     1 <1>   0.1500 
 19 H       -2.7860    -4.0400     0.4870 H     1 <1>   0.0800 
 20 H       -1.3970    -5.0980     0.2700 H     1 <1>   0.0800 
 21 H       -1.8790    -3.9780    -1.0200 H     1 <1>   0.0800 
 22 H        2.7250    -4.2500    -1.7700 H     1 <1>   0.1500 
 23 H        4.7210    -1.3220    -0.6670 H     1 <1>   0.0800 
 24 H        4.6190    -2.6150    -1.8500 H     1 <1>   0.0800 
 25 H        4.9710    -4.2150    -0.1080 H     1 <1>   0.4500 
 26 H        4.9970    -3.0570     1.0490 H     1 <1>   0.4500 
 27 H        6.9010    -3.0320    -1.1890 H     1 <1>   0.0800 
 28 H        7.4390    -4.6960     1.2630 H     1 <1>   0.0800 
 29 H        8.1730    -4.7940    -0.3250 H     1 <1>   0.0800 
 30 H        7.1620    -2.2690     1.7370 H     1 <1>   0.0800 
 31 H        6.8530    -1.1500     0.4350 H     1 <1>   0.0800 
 32 H        6.6890    -6.4950    -0.0130 H     1 <1>   0.4000 
 33 H        9.3720    -2.8090     0.7550 H     1 <1>   0.0800 
 34 H        9.2100    -1.0960     1.0040 H     1 <1>   0.0800 
 35 H        9.0360    -1.7520    -0.6000 H     1 <1>   0.0800 
@<TRIPOS>BOND
  1   1   2  1   
  2   2   3  ar  
  3   2   4  ar  
  4   3   5  1   
  5   3   6  ar  
  6   4   7  ar  
  7   4  17  1   
  8   5   8  1   
  9   6   9  ar  
 10   6  18  1   
 11   7   9  ar  
 12   7  10  1   
 13   8  19  1   
 14   8  20  1   
 15   8  21  1   
 16   9  22  1   
 17  10  11  1   
 18  10  23  1   
 19  10  24  1   
 20  11  12  1   
 21  11  25  1   
 22  11  26  1   
 23  12  13  1   
 24  12  14  1   
 25  12  27  1   
 26  13  15  1   
 27  13  28  1   
 28  13  29  1   
 29  14  16  1   
 30  14  30  1   
 31  14  31  1   
 32  15  32  1   
 33  16  33  1   
 34  16  34  1   
 35  16  35  1   
@<TRIPOS>SUBSTRUCTURE
  1 ****   7 GROUP 4 **** **** 0

# MOE 2024.06 (io_trps.svl 2023.06)
