@<TRIPOS>MOLECULE
NONAME
41 43 1 0 0 
SMALL
USER_CHARGES


@<TRIPOS>ATOM
  1 N        0.9260     0.1190    -0.5080 N.ar  1 <1>  -0.6200 
  2 C        1.5290     0.7870     0.4740 C.ar  1 <1>   0.7200 
  3 C       -0.0450     0.7570    -1.1210 C.ar  1 <1>   0.1600 
  4 N        1.2830     2.0360     0.8510 N.ar  1 <1>  -0.6200 
  5 N        2.5400     0.1330     1.1390 N.pl3 1 <1>  -0.8380 
  6 C       -0.4010     2.0410    -0.7870 C.ar  1 <1>  -0.1500 
  7 C        0.3080     2.6470     0.2210 C.ar  1 <1>   0.1600 
  8 C        2.6630    -1.3510     1.0570 C.3   1 <1>   0.2090 
  9 C        3.8450     0.8300     1.3270 C.3   1 <1>   0.2090 
 10 C        3.6000    -1.7270    -0.1090 C.3   1 <1>   0.3430 
 11 C        4.8060     0.4520     0.1790 C.3   1 <1>   0.3430 
 12 N        4.9450    -1.0450    -0.0100 N.4   1 <1>  -0.9590 
 13 C        5.8050    -1.3630    -1.1800 C.3   1 <1>   0.4860 
 14 C        7.1960    -0.8300    -0.9060 C.ar  1 <1>  -0.1430 
 15 C        8.0350    -1.4870    -0.0160 C.ar  1 <1>  -0.1500 
 16 C        7.6370     0.3240    -1.5370 C.ar  1 <1>  -0.1500 
 17 C        9.3000    -0.9910     0.2540 C.ar  1 <1>  -0.1430 
 18 C        8.8990     0.8220    -1.2670 C.ar  1 <1>  -0.1500 
 19 C        9.7250     0.1680    -0.3730 C.ar  1 <1>  -0.1500 
 20 C       10.2220    -1.7060     1.2260 C.3   1 <1>  -0.0970 
 21 H       -0.5720     0.2450    -1.9090 H     1 <1>   0.1500 
 22 H       -1.1990     2.5510    -1.2930 H     1 <1>   0.1500 
 23 H        0.0690     3.6550     0.5160 H     1 <1>   0.1500 
 24 H        1.6950    -1.8000     0.9090 H     1 <1>   0.0800 
 25 H        3.0540    -1.7300     1.9850 H     1 <1>   0.0800 
 26 H        4.2700     0.5480     2.2740 H     1 <1>   0.0800 
 27 H        3.7120     1.8980     1.3400 H     1 <1>   0.0800 
 28 H        3.1120    -1.4350    -1.0250 H     1 <1>   0.0800 
 29 H        3.7270    -2.7970    -0.1270 H     1 <1>   0.0800 
 30 H        5.7720     0.8890     0.3750 H     1 <1>   0.0800 
 31 H        4.4240     0.8930    -0.7270 H     1 <1>   0.0800 
 32 H        5.4340    -1.3990     0.8200 H     1 <1>   0.4500 
 33 H        5.4040    -0.9120    -2.0730 H     1 <1>   0.0800 
 34 H        5.8560    -2.4290    -1.3270 H     1 <1>   0.0800 
 35 H        7.7170    -2.3920     0.4720 H     1 <1>   0.1500 
 36 H        7.0140     0.8480    -2.2430 H     1 <1>   0.1500 
 37 H        9.2440     1.7190    -1.7550 H     1 <1>   0.1500 
 38 H       10.7070     0.5630    -0.1700 H     1 <1>   0.1500 
 39 H        9.9610    -2.7460     1.3090 H     1 <1>   0.0800 
 40 H       10.1550    -1.2510     2.1980 H     1 <1>   0.0800 
 41 H       11.2410    -1.6430     0.8860 H     1 <1>   0.0800 
@<TRIPOS>BOND
  1   1   2  ar  
  2   1   3  ar  
  3   2   4  ar  
  4   2   5  1   
  5   3   6  ar  
  6   3  21  1   
  7   4   7  ar  
  8   5   8  1   
  9   5   9  1   
 10   6   7  ar  
 11   6  22  1   
 12   7  23  1   
 13   8  10  1   
 14   8  24  1   
 15   8  25  1   
 16   9  11  1   
 17   9  26  1   
 18   9  27  1   
 19  10  12  1   
 20  10  28  1   
 21  10  29  1   
 22  11  12  1   
 23  11  30  1   
 24  11  31  1   
 25  12  13  1   
 26  12  32  1   
 27  13  14  1   
 28  13  33  1   
 29  13  34  1   
 30  14  15  ar  
 31  14  16  ar  
 32  15  17  ar  
 33  15  35  1   
 34  16  18  ar  
 35  16  36  1   
 36  17  19  ar  
 37  17  20  1   
 38  18  19  ar  
 39  18  37  1   
 40  19  38  1   
 41  20  39  1   
 42  20  40  1   
 43  20  41  1   
@<TRIPOS>SUBSTRUCTURE
  1 ****  11 GROUP 4 **** **** 0

# MOE 2024.06 (io_trps.svl 2023.06)
