@<TRIPOS>MOLECULE
NONAME
35 37 1 0 0 
SMALL
USER_CHARGES


@<TRIPOS>ATOM
  1 O       -1.0360     0.4290     1.7800 O.2   1 <1>  -0.5700 
  2 C       -1.1340     1.2150     0.8700 C.2   1 <1>   0.5690 
  3 N       -0.1190     1.9500     0.3200 N.am  1 <1>  -0.4200 
  4 C       -2.4530     1.4460     0.1530 C.3   1 <1>  -0.0190 
  5 C       -0.5150     2.6960    -0.7640 C.2   1 <1>   0.5690 
  6 C        1.0940     2.2950     1.1420 C.3   1 <1>   0.1140 
  7 C       -2.0010     2.5450    -1.0320 C.3   1 <1>  -0.0190 
  8 C       -3.6490     2.1550     1.0480 C.3   1 <1>   0.0580 
  9 O        0.1890     3.3400    -1.5010 O.2   1 <1>  -0.5700 
 10 C        0.9520     3.6700     1.8290 C.2   1 <1>   0.9060 
 11 C        2.4010     2.1380     0.3320 C.3   1 <1>  -0.1600 
 12 C       -2.9220     3.9000    -0.8190 C.3   1 <1>   0.0580 
 13 C       -4.5950     3.4790     1.0220 C.2   1 <1>  -0.2880 
 14 C       -3.2470     3.0110     0.1140 C.3   1 <1>  -0.1600 
 15 O       -0.1530     4.2350     1.8440 O.co2 1 <1>  -0.9000 
 16 O        1.9360     4.1630     2.3960 O.co2 1 <1>  -0.9000 
 17 C        2.5600     0.7500    -0.3090 C.3   1 <1>  -0.1600 
 18 C       -4.2130     4.3970     0.0390 C.2   1 <1>  -0.2880 
 19 C        3.9180     0.6170    -1.0020 C.3   1 <1>  -0.2400 
 20 H       -2.7850     0.5170    -0.2770 H     1 <1>   0.0800 
 21 H        1.1490     1.5930     1.9520 H     1 <1>   0.0800 
 22 H       -2.1350     2.1360    -2.0190 H     1 <1>   0.0800 
 23 H       -3.2280     2.1910     2.0450 H     1 <1>   0.0800 
 24 H        3.2230     2.3100     1.0060 H     1 <1>   0.0800 
 25 H        2.4520     2.9080    -0.4180 H     1 <1>   0.0800 
 26 H       -2.1900     4.6720    -0.6110 H     1 <1>   0.0800 
 27 H       -5.3990     3.5500     1.7350 H     1 <1>   0.1500 
 28 H       -2.4740     3.4830     0.8540 H     1 <1>   0.0800 
 29 H       -4.0250     2.4920    -0.6710 H     1 <1>   0.0800 
 30 H        1.7800     0.5930    -1.0340 H     1 <1>   0.0800 
 31 H        2.4690    -0.0080     0.4510 H     1 <1>   0.0800 
 32 H       -4.6470     5.3540    -0.1970 H     1 <1>   0.1500 
 33 H        4.0150     1.3600    -1.7740 H     1 <1>   0.0800 
 34 H        4.0120    -0.3570    -1.4480 H     1 <1>   0.0800 
 35 H        4.7160     0.7500    -0.2920 H     1 <1>   0.0800 
@<TRIPOS>BOND
  1   1   2  2   
  2   2   3  am  
  3   2   4  1   
  4   3   5  am  
  5   3   6  1   
  6   4   7  1   
  7   4   8  1   
  8   4  20  1   
  9   5   7  1   
 10   5   9  2   
 11   6  10  1   
 12   6  11  1   
 13   6  21  1   
 14   7  12  1   
 15   7  22  1   
 16   8  13  1   
 17   8  14  1   
 18   8  23  1   
 19  10  15  ar  
 20  10  16  ar  
 21  11  17  1   
 22  11  24  1   
 23  11  25  1   
 24  12  14  1   
 25  12  18  1   
 26  12  26  1   
 27  13  18  2   
 28  13  27  1   
 29  14  28  1   
 30  14  29  1   
 31  17  19  1   
 32  17  30  1   
 33  17  31  1   
 34  18  32  1   
 35  19  33  1   
 36  19  34  1   
 37  19  35  1   
@<TRIPOS>SUBSTRUCTURE
  1 ****   3 GROUP 4 **** **** 0

# MOE 2024.06 (io_trps.svl 2023.06)
