@<TRIPOS>MOLECULE
NONAME
51 53 1 0 0 
SMALL
USER_CHARGES


@<TRIPOS>ATOM
  1 O       -1.1540     1.0460    -0.1990 O.2   1 <1>  -0.5700 
  2 C       -0.6070     2.0150     0.2910 C.2   1 <1>   0.5440 
  3 N       -1.2940     2.7290     1.2530 N.am  1 <1>  -0.6600 
  4 C        0.7080     2.4220    -0.1750 C.ar  1 <1>   0.0860 
  5 C       -1.2710     4.2090     1.2940 C.3   1 <1>   0.1400 
  6 C       -2.4220     2.1080     1.9900 C.3   1 <1>   0.1400 
  7 C        1.0390     2.3600    -1.5280 C.ar  1 <1>  -0.1500 
  8 C        1.6850     2.8890     0.7060 C.ar  1 <1>  -0.1500 
  9 C       -2.5490     4.7150     0.6200 C.3   1 <1>  -0.1600 
 10 C       -3.7250     2.5600     1.3350 C.3   1 <1>  -0.1600 
 11 C        2.2790     2.7660    -1.9870 C.ar  1 <1>  -0.1500 
 12 C        2.9270     3.2970     0.2540 C.ar  1 <1>  -0.1500 
 13 C       -3.7980     4.0900     1.2690 C.3   1 <1>   0.4230 
 14 C        3.2260     3.2380    -1.0950 C.ar  1 <1>  -0.1500 
 15 N       -5.0540     4.4950     0.5740 N.4   1 <1>  -0.9590 
 16 C       -5.0830     4.2040    -0.8910 C.3   1 <1>   0.3430 
 17 C       -5.4290     5.9220     0.8560 C.3   1 <1>   0.3430 
 18 C       -6.5370     4.2520    -1.3960 C.3   1 <1>  -0.0800 
 19 C       -6.5660     6.4380    -0.0550 C.3   1 <1>  -0.0800 
 20 C       -7.4030     5.2840    -0.6390 C.3   1 <1>  -0.1600 
 21 C       -7.1880     2.8620    -1.3260 C.3   1 <1>  -0.2400 
 22 C       -6.0240     7.3540    -1.1680 C.3   1 <1>  -0.2400 
 23 H       -0.4110     4.5950     0.7730 H     1 <1>   0.0800 
 24 H       -1.2190     4.5380     2.3190 H     1 <1>   0.0800 
 25 H       -2.3840     2.4120     3.0230 H     1 <1>   0.0800 
 26 H       -2.3410     1.0330     1.9570 H     1 <1>   0.0800 
 27 H        0.3100     1.9840    -2.2250 H     1 <1>   0.1500 
 28 H        1.4670     2.9270     1.7580 H     1 <1>   0.1500 
 29 H       -2.4850     4.4560    -0.4210 H     1 <1>   0.0800 
 30 H       -2.5760     5.7850     0.7060 H     1 <1>   0.0800 
 31 H       -4.5480     2.1730     1.9070 H     1 <1>   0.0800 
 32 H       -3.7560     2.1230     0.3530 H     1 <1>   0.0800 
 33 H        2.5100     2.7100    -3.0370 H     1 <1>   0.1500 
 34 H        3.6650     3.6560     0.9510 H     1 <1>   0.1500 
 35 H       -3.8430     4.4440     2.2870 H     1 <1>   0.0800 
 36 H        4.1920     3.5540    -1.4500 H     1 <1>   0.1500 
 37 H       -5.8100     3.9190     0.9640 H     1 <1>   0.4500 
 38 H       -4.6640     3.2340    -1.1020 H     1 <1>   0.0800 
 39 H       -4.4950     4.9400    -1.4130 H     1 <1>   0.0800 
 40 H       -4.5720     6.5620     0.7270 H     1 <1>   0.0800 
 41 H       -5.7450     6.0040     1.8840 H     1 <1>   0.0800 
 42 H       -6.4970     4.5370    -2.4350 H     1 <1>   0.0800 
 43 H       -7.2150     7.0470     0.5530 H     1 <1>   0.0800 
 44 H       -7.9130     4.8010     0.1780 H     1 <1>   0.0800 
 45 H       -8.1660     5.6700    -1.2950 H     1 <1>   0.0800 
 46 H       -7.2390     2.5020    -0.3130 H     1 <1>   0.0800 
 47 H       -6.6290     2.1540    -1.9130 H     1 <1>   0.0800 
 48 H       -8.1880     2.9020    -1.7230 H     1 <1>   0.0800 
 49 H       -5.3460     6.8410    -1.8250 H     1 <1>   0.0800 
 50 H       -5.5090     8.1970    -0.7410 H     1 <1>   0.0800 
 51 H       -6.8390     7.7360    -1.7600 H     1 <1>   0.0800 
@<TRIPOS>BOND
  1   1   2  2   
  2   2   3  am  
  3   2   4  1   
  4   3   5  1   
  5   3   6  1   
  6   4   7  ar  
  7   4   8  ar  
  8   5   9  1   
  9   5  23  1   
 10   5  24  1   
 11   6  10  1   
 12   6  25  1   
 13   6  26  1   
 14   7  11  ar  
 15   7  27  1   
 16   8  12  ar  
 17   8  28  1   
 18   9  13  1   
 19   9  29  1   
 20   9  30  1   
 21  10  13  1   
 22  10  31  1   
 23  10  32  1   
 24  11  14  ar  
 25  11  33  1   
 26  12  14  ar  
 27  12  34  1   
 28  13  15  1   
 29  13  35  1   
 30  14  36  1   
 31  15  16  1   
 32  15  17  1   
 33  15  37  1   
 34  16  18  1   
 35  16  38  1   
 36  16  39  1   
 37  17  19  1   
 38  17  40  1   
 39  17  41  1   
 40  18  20  1   
 41  18  21  1   
 42  18  42  1   
 43  19  20  1   
 44  19  22  1   
 45  19  43  1   
 46  20  44  1   
 47  20  45  1   
 48  21  46  1   
 49  21  47  1   
 50  21  48  1   
 51  22  49  1   
 52  22  50  1   
 53  22  51  1   
@<TRIPOS>SUBSTRUCTURE
  1 ****   9 GROUP 4 **** **** 0

# MOE 2024.06 (io_trps.svl 2023.06)
