@<TRIPOS>MOLECULE
NONAME
47 48 1 0 0 
SMALL
USER_CHARGES


@<TRIPOS>ATOM
  1 O       -0.2010    -0.4150     0.1610 O.2   1 <1>  -0.5700 
  2 C       -0.3070    -1.6010    -0.0890 C.2   1 <1>   0.7800 
  3 O        0.7790    -2.3760    -0.0870 O.3   1 <1>  -0.4300 
  4 N       -1.5110    -2.1890    -0.3690 N.am  1 <1>  -0.6600 
  5 C        2.0510    -1.8380     0.1920 C.3   1 <1>   0.1200 
  6 C       -1.6820    -3.6540    -0.6110 C.3   1 <1>   0.1400 
  7 C       -2.7860    -1.4160    -0.3680 C.3   1 <1>   0.1400 
  8 C        3.0700    -2.9700     0.1190 C.3   1 <1>  -0.2400 
  9 C       -2.6910    -4.2530     0.3810 C.3   1 <1>   0.1400 
 10 C       -3.7940    -2.0220     0.6220 C.3   1 <1>   0.1400 
 11 N       -3.9790    -3.4880     0.3690 N.am  1 <1>  -0.6600 
 12 C       -5.1710    -4.1150     0.1050 C.2   1 <1>   0.5690 
 13 O       -5.2140    -5.2910    -0.1690 O.2   1 <1>  -0.5700 
 14 C       -6.4800    -3.3280     0.1510 C.3   1 <1>  -0.0990 
 15 C       -7.7480    -4.1860    -0.0310 C.3   1 <1>  -0.1600 
 16 C       -9.0180    -3.3360     0.0430 C.3   1 <1>   0.1200 
 17 O      -10.1270    -4.1860    -0.1290 O.3   1 <1>  -0.3630 
 18 C      -11.3950    -3.7070    -0.1080 C.ar  1 <1>   0.0820 
 19 C      -11.7170    -2.3650     0.0810 C.ar  1 <1>  -0.1500 
 20 C      -12.4120    -4.6320    -0.2890 C.ar  1 <1>  -0.1500 
 21 C      -13.0430    -1.9650     0.0870 C.ar  1 <1>  -0.1500 
 22 C      -13.7360    -4.2310    -0.2820 C.ar  1 <1>  -0.1500 
 23 C      -14.0520    -2.8960    -0.0940 C.ar  1 <1>  -0.1500 
 24 H        2.0270    -1.4000     1.1760 H     1 <1>   0.0800 
 25 H        2.2650    -1.0750    -0.5390 H     1 <1>   0.0800 
 26 H       -0.7440    -4.1720    -0.5150 H     1 <1>   0.0800 
 27 H       -2.0410    -3.8070    -1.6130 H     1 <1>   0.0800 
 28 H       -3.2060    -1.4310    -1.3590 H     1 <1>   0.0800 
 29 H       -2.6040    -0.3880    -0.1040 H     1 <1>   0.0800 
 30 H        2.8360    -3.7270     0.8460 H     1 <1>   0.0800 
 31 H        4.0520    -2.5860     0.3280 H     1 <1>   0.0800 
 32 H        3.0730    -3.4020    -0.8660 H     1 <1>   0.0800 
 33 H       -2.2730    -4.2230     1.3720 H     1 <1>   0.0800 
 34 H       -2.8560    -5.2860     0.1290 H     1 <1>   0.0800 
 35 H       -4.7230    -1.4910     0.5390 H     1 <1>   0.0800 
 36 H       -3.4240    -1.8840     1.6230 H     1 <1>   0.0800 
 37 H       -6.4480    -2.5860    -0.6250 H     1 <1>   0.0800 
 38 H       -6.5360    -2.8310     1.1010 H     1 <1>   0.0800 
 39 H       -7.7810    -4.9380     0.7380 H     1 <1>   0.0800 
 40 H       -7.7090    -4.6800    -0.9870 H     1 <1>   0.0800 
 41 H       -9.0320    -2.6010    -0.7420 H     1 <1>   0.0800 
 42 H       -9.1040    -2.8610     1.0050 H     1 <1>   0.0800 
 43 H      -10.9560    -1.6230     0.2230 H     1 <1>   0.1500 
 44 H      -12.1560    -5.6660    -0.4340 H     1 <1>   0.1500 
 45 H      -13.2920    -0.9290     0.2330 H     1 <1>   0.1500 
 46 H      -14.5190    -4.9560    -0.4230 H     1 <1>   0.1500 
 47 H      -15.0810    -2.5830    -0.0890 H     1 <1>   0.1500 
@<TRIPOS>BOND
  1   1   2  2   
  2   2   3  1   
  3   2   4  am  
  4   3   5  1   
  5   4   6  1   
  6   4   7  1   
  7   5   8  1   
  8   5  24  1   
  9   5  25  1   
 10   6   9  1   
 11   6  26  1   
 12   6  27  1   
 13   7  10  1   
 14   7  28  1   
 15   7  29  1   
 16   8  30  1   
 17   8  31  1   
 18   8  32  1   
 19   9  11  1   
 20   9  33  1   
 21   9  34  1   
 22  10  11  1   
 23  10  35  1   
 24  10  36  1   
 25  11  12  am  
 26  12  13  2   
 27  12  14  1   
 28  14  15  1   
 29  14  37  1   
 30  14  38  1   
 31  15  16  1   
 32  15  39  1   
 33  15  40  1   
 34  16  17  1   
 35  16  41  1   
 36  16  42  1   
 37  17  18  1   
 38  18  19  ar  
 39  18  20  ar  
 40  19  21  ar  
 41  19  43  1   
 42  20  22  ar  
 43  20  44  1   
 44  21  23  ar  
 45  21  45  1   
 46  22  23  ar  
 47  22  46  1   
 48  23  47  1   
@<TRIPOS>SUBSTRUCTURE
  1 ****  14 GROUP 4 **** **** 0

# MOE 2024.06 (io_trps.svl 2023.06)
