@<TRIPOS>MOLECULE
NONAME
40 41 1 0 0 
SMALL
USER_CHARGES


@<TRIPOS>ATOM
  1 S       -1.2950     0.6480     0.7670 S.o2  1 <1>   1.3330 
  2 O       -0.3120     0.9870    -0.2360 O.2   1 <1>  -0.6500 
  3 O       -1.1530    -0.5640     1.5410 O.2   1 <1>  -0.6500 
  4 N       -2.8180     0.6200     0.0280 N.am  1 <1>  -0.8490 
  5 C       -1.4330     2.0330     1.8760 C.3   1 <1>  -0.1350 
  6 C       -2.7500     0.0700    -1.3390 C.3   1 <1>   0.1960 
  7 C       -3.8130    -0.1330     0.8130 C.3   1 <1>   0.1960 
  8 C       -4.1120     0.1290    -2.0520 C.3   1 <1>   0.1400 
  9 C       -5.2150    -0.0790     0.1800 C.3   1 <1>   0.1400 
 10 N       -5.1880    -0.5280    -1.2470 N.am  1 <1>  -0.6600 
 11 C       -6.1110    -1.3590    -1.8380 C.2   1 <1>   0.5690 
 12 O       -6.0320    -1.6480    -3.0090 O.2   1 <1>  -0.5700 
 13 C       -7.2720    -1.9630    -1.0540 C.3   1 <1>   0.0440 
 14 C       -8.1970    -0.9260    -0.4190 C.ar  1 <1>  -0.1440 
 15 C       -8.6140    -1.0710     0.8960 C.ar  1 <1>  -0.1500 
 16 C       -8.6260     0.1710    -1.1500 C.ar  1 <1>  -0.1500 
 17 C       -9.4370    -0.1260     1.4860 C.ar  1 <1>  -0.1440 
 18 C       -9.4510     1.1170    -0.5680 C.ar  1 <1>  -0.1500 
 19 C       -9.8540     0.9690     0.7480 C.ar  1 <1>  -0.1500 
 20 C       -9.8920    -0.2880     2.9250 C.3   1 <1>  -0.0970 
 21 H       -1.6590     2.9230     1.3230 H     1 <1>   0.0800 
 22 H       -0.5070     2.1770     2.3970 H     1 <1>   0.0800 
 23 H       -2.2100     1.8620     2.5940 H     1 <1>   0.0800 
 24 H       -2.4060    -0.9510    -1.3090 H     1 <1>   0.0800 
 25 H       -2.0460     0.6370    -1.9240 H     1 <1>   0.0800 
 26 H       -3.8690     0.2730     1.8080 H     1 <1>   0.0800 
 27 H       -3.5120    -1.1640     0.8950 H     1 <1>   0.0800 
 28 H       -4.0200    -0.3430    -3.0140 H     1 <1>   0.0800 
 29 H       -4.3780     1.1580    -2.2150 H     1 <1>   0.0800 
 30 H       -5.5870     0.9300     0.2230 H     1 <1>   0.0800 
 31 H       -5.8690    -0.6980     0.7640 H     1 <1>   0.0800 
 32 H       -6.8650    -2.6130    -0.3040 H     1 <1>   0.0800 
 33 H       -7.8550    -2.5700    -1.7220 H     1 <1>   0.0800 
 34 H       -8.2990    -1.9260     1.4680 H     1 <1>   0.1500 
 35 H       -8.3200     0.2960    -2.1750 H     1 <1>   0.1500 
 36 H       -9.7810     1.9670    -1.1390 H     1 <1>   0.1500 
 37 H      -10.4960     1.7090     1.1920 H     1 <1>   0.1500 
 38 H       -9.9440     0.6700     3.4100 H     1 <1>   0.0800 
 39 H       -9.2070    -0.9100     3.4730 H     1 <1>   0.0800 
 40 H      -10.8660    -0.7420     2.9480 H     1 <1>   0.0800 
@<TRIPOS>BOND
  1   1   2  2   
  2   1   3  2   
  3   1   4  am  
  4   1   5  1   
  5   4   6  1   
  6   4   7  1   
  7   5  21  1   
  8   5  22  1   
  9   5  23  1   
 10   6   8  1   
 11   6  24  1   
 12   6  25  1   
 13   7   9  1   
 14   7  26  1   
 15   7  27  1   
 16   8  10  1   
 17   8  28  1   
 18   8  29  1   
 19   9  10  1   
 20   9  30  1   
 21   9  31  1   
 22  10  11  am  
 23  11  12  2   
 24  11  13  1   
 25  13  14  1   
 26  13  32  1   
 27  13  33  1   
 28  14  15  ar  
 29  14  16  ar  
 30  15  17  ar  
 31  15  34  1   
 32  16  18  ar  
 33  16  35  1   
 34  17  19  ar  
 35  17  20  1   
 36  18  19  ar  
 37  18  36  1   
 38  19  37  1   
 39  20  38  1   
 40  20  39  1   
 41  20  40  1   
@<TRIPOS>SUBSTRUCTURE
  1 ****   9 GROUP 4 **** **** 0

# MOE 2024.06 (io_trps.svl 2023.06)
