@<TRIPOS>MOLECULE
NONAME
34 37 1 0 0 
SMALL
USER_CHARGES


@<TRIPOS>ATOM
  1 BR       0.8020     0.3780     0.3680 Br    1 <1>  -0.1110 
  2 C       -1.0220     0.9860     0.2420 C.ar  1 <1>   0.1110 
  3 C       -2.0390     0.1190     0.5900 C.ar  1 <1>  -0.1500 
  4 C       -1.2680     2.2730    -0.1920 C.ar  1 <1>  -0.1500 
  5 C       -3.3470     0.5640     0.4970 C.ar  1 <1>  -0.1500 
  6 C       -2.5810     2.7030    -0.2790 C.ar  1 <1>  -0.1500 
  7 C       -3.6370     1.8560     0.0610 C.ar  1 <1>   0.1170 
  8 N       -4.9820     2.2500    -0.0030 N.am  1 <1>  -0.5470 
  9 C       -5.6000     3.2730    -0.6640 C.2   1 <1>   0.6300 
 10 O       -5.0350     4.0560    -1.3860 O.2   1 <1>  -0.5700 
 11 C       -7.1040     3.3950    -0.4800 C.3   1 <1>  -0.1000 
 12 C       -7.6840     4.5820     0.2320 C.3   1 <1>  -0.1950 
 13 C       -7.7380     3.2160     0.8730 C.3   1 <1>  -0.1950 
 14 C       -9.1460     5.0670     0.2780 C.3   1 <1>   0.0150 
 15 C       -9.2280     3.0400     1.2240 C.3   1 <1>   0.0150 
 16 C       -9.5950     4.4670     1.6010 C.3   1 <1>  -0.1600 
 17 C       -9.9980     4.2550    -0.7140 C.3   1 <1>  -0.1600 
 18 C      -10.0530     2.8570    -0.0620 C.3   1 <1>  -0.1600 
 19 H       -1.8100    -0.8770     0.9250 H     1 <1>   0.1500 
 20 H       -0.4540     2.9240    -0.4560 H     1 <1>   0.1500 
 21 H       -4.1480    -0.1010     0.7620 H     1 <1>   0.1500 
 22 H       -2.7790     3.7060    -0.6110 H     1 <1>   0.1500 
 23 H       -5.6290     1.6620     0.5160 H     1 <1>   0.3700 
 24 H       -7.6100     3.0360    -1.3550 H     1 <1>   0.1000 
 25 H       -6.9950     5.2950     0.6550 H     1 <1>   0.1000 
 26 H       -7.1020     3.0900     1.7340 H     1 <1>   0.1000 
 27 H       -9.2590     6.1340     0.1970 H     1 <1>   0.0800 
 28 H       -9.4200     2.3050     1.9870 H     1 <1>   0.0800 
 29 H      -10.6490     4.5950     1.7820 H     1 <1>   0.0800 
 30 H       -9.0260     4.8360     2.4370 H     1 <1>   0.0800 
 31 H       -9.5600     4.2400    -1.6960 H     1 <1>   0.0800 
 32 H      -10.9870     4.6740    -0.7800 H     1 <1>   0.0800 
 33 H      -11.0700     2.6030     0.1820 H     1 <1>   0.0800 
 34 H       -9.6450     2.0890    -0.6960 H     1 <1>   0.0800 
@<TRIPOS>BOND
  1   1   2  1   
  2   2   3  ar  
  3   2   4  ar  
  4   3   5  ar  
  5   3  19  1   
  6   4   6  ar  
  7   4  20  1   
  8   5   7  ar  
  9   5  21  1   
 10   6   7  ar  
 11   6  22  1   
 12   7   8  1   
 13   8   9  am  
 14   8  23  1   
 15   9  10  2   
 16   9  11  1   
 17  11  12  1   
 18  11  13  1   
 19  11  24  1   
 20  12  13  1   
 21  12  14  1   
 22  12  25  1   
 23  13  15  1   
 24  13  26  1   
 25  14  16  1   
 26  14  17  1   
 27  14  27  1   
 28  15  16  1   
 29  15  18  1   
 30  15  28  1   
 31  16  29  1   
 32  16  30  1   
 33  17  18  1   
 34  17  31  1   
 35  17  32  1   
 36  18  33  1   
 37  18  34  1   
@<TRIPOS>SUBSTRUCTURE
  1 ****   8 GROUP 4 **** **** 0

# MOE 2024.06 (io_trps.svl 2023.06)
