@<TRIPOS>MOLECULE
NONAME
39 39 1 0 0 
SMALL
USER_CHARGES


@<TRIPOS>ATOM
  1 O        0.7320     2.6430    -1.9310 O.2   1 <1>  -0.5700 
  2 C        0.4710     2.6690    -0.7400 C.2   1 <1>   0.6900 
  3 N        1.4520     2.3460     0.1660 N.am  1 <1>  -0.6600 
  4 N       -0.7940     3.0310    -0.3350 N.am  1 <1>  -0.6600 
  5 C        2.5190     1.3840    -0.2300 C.3   1 <1>   0.2840 
  6 C        1.7140     3.1540     1.3900 C.3   1 <1>   0.1400 
  7 C       -1.5140     4.1070    -1.0690 C.3   1 <1>   0.1400 
  8 C       -1.4190     2.5030     0.9080 C.3   1 <1>   0.1400 
  9 C        3.8710     2.0680    -0.3970 C.ar  1 <1>  -0.1440 
 10 C        2.0380     4.6020     1.0250 C.3   1 <1>  -0.2400 
 11 C       -2.2920     3.5460    -2.2610 C.3   1 <1>  -0.2400 
 12 C       -2.7550     1.8220     0.6240 C.3   1 <1>  -0.2400 
 13 C        4.0960     2.8980    -1.4840 C.ar  1 <1>  -0.1500 
 14 C        4.8880     1.8670     0.5250 C.ar  1 <1>  -0.1500 
 15 C        5.3200     3.5220    -1.6480 C.ar  1 <1>  -0.1500 
 16 C        6.1130     2.4910     0.3630 C.ar  1 <1>  -0.1500 
 17 C        6.3300     3.3190    -0.7240 C.ar  1 <1>  -0.1500 
 18 H        2.2540     0.9020    -1.1560 H     1 <1>   0.0800 
 19 H        2.5870     0.6170     0.5200 H     1 <1>   0.0800 
 20 H        2.5410     2.7310     1.9330 H     1 <1>   0.0800 
 21 H        0.8570     3.1320     2.0380 H     1 <1>   0.0800 
 22 H       -0.7930     4.8220    -1.4280 H     1 <1>   0.0800 
 23 H       -2.1820     4.6190    -0.3980 H     1 <1>   0.0800 
 24 H       -1.5550     3.3080     1.6090 H     1 <1>   0.0800 
 25 H       -0.7650     1.7730     1.3550 H     1 <1>   0.0800 
 26 H        2.9030     4.6430     0.3890 H     1 <1>   0.0800 
 27 H        2.2470     5.1620     1.9170 H     1 <1>   0.0800 
 28 H        1.2060     5.0610     0.5220 H     1 <1>   0.0800 
 29 H       -1.6200     3.0680    -2.9500 H     1 <1>   0.0800 
 30 H       -2.7860     4.3490    -2.7770 H     1 <1>   0.0800 
 31 H       -3.0340     2.8390    -1.9470 H     1 <1>   0.0800 
 32 H       -3.4920     2.5420     0.3200 H     1 <1>   0.0800 
 33 H       -3.1100     1.3400     1.5160 H     1 <1>   0.0800 
 34 H       -2.6340     1.0770    -0.1420 H     1 <1>   0.0800 
 35 H        3.3090     3.0620    -2.2020 H     1 <1>   0.1500 
 36 H        4.7320     1.2240     1.3740 H     1 <1>   0.1500 
 37 H        5.4820     4.1660    -2.4950 H     1 <1>   0.1500 
 38 H        6.8980     2.3320     1.0810 H     1 <1>   0.1500 
 39 H        7.2810     3.8050    -0.8520 H     1 <1>   0.1500 
@<TRIPOS>BOND
  1   1   2  2   
  2   2   3  am  
  3   2   4  am  
  4   3   5  1   
  5   3   6  1   
  6   4   7  1   
  7   4   8  1   
  8   5   9  1   
  9   5  18  1   
 10   5  19  1   
 11   6  10  1   
 12   6  20  1   
 13   6  21  1   
 14   7  11  1   
 15   7  22  1   
 16   7  23  1   
 17   8  12  1   
 18   8  24  1   
 19   8  25  1   
 20   9  13  ar  
 21   9  14  ar  
 22  10  26  1   
 23  10  27  1   
 24  10  28  1   
 25  11  29  1   
 26  11  30  1   
 27  11  31  1   
 28  12  32  1   
 29  12  33  1   
 30  12  34  1   
 31  13  15  ar  
 32  13  35  1   
 33  14  16  ar  
 34  14  36  1   
 35  15  17  ar  
 36  15  37  1   
 37  16  17  ar  
 38  16  38  1   
 39  17  39  1   
@<TRIPOS>SUBSTRUCTURE
  1 ****   3 GROUP 4 **** **** 0

# MOE 2024.06 (io_trps.svl 2023.06)
