@<TRIPOS>MOLECULE
NONAME
48 50 1 0 0 
SMALL
USER_CHARGES


@<TRIPOS>ATOM
  1 CL      -0.5840    -1.0540     1.4230 Cl    1 <1>  -0.1770 
  2 C        0.7340    -2.1780     1.2310 C.ar  1 <1>   0.1770 
  3 C        0.6440    -3.1720     0.2760 C.ar  1 <1>  -0.1500 
  4 C        1.8500    -2.0580     2.0360 C.ar  1 <1>  -0.1500 
  5 C        1.6940    -4.0630     0.1210 C.ar  1 <1>  -0.1500 
  6 C        2.8990    -2.9490     1.8800 C.ar  1 <1>  -0.1500 
  7 C        2.8280    -3.9510     0.9180 C.ar  1 <1>  -0.1430 
  8 C        3.9860    -4.9170     0.7420 C.3   1 <1>   0.4870 
  9 N        4.7400    -4.5440    -0.4860 N.4   1 <1>  -0.9590 
 10 C        5.7810    -5.5870    -0.8060 C.3   1 <1>   0.3430 
 11 C        5.3530    -3.1710    -0.3350 C.3   1 <1>   0.3430 
 12 C        6.6670    -5.1890    -2.0070 C.3   1 <1>   0.1400 
 13 C        6.2640    -2.7930    -1.5220 C.3   1 <1>   0.1400 
 14 N        7.2820    -3.8570    -1.7620 N.am  1 <1>  -0.6600 
 15 C        8.3820    -3.8530    -0.9580 C.2   1 <1>   0.6900 
 16 O        8.2230    -3.7140     0.2400 O.2   1 <1>  -0.5700 
 17 N        9.5960    -4.0510    -1.5350 N.am  1 <1>  -0.5470 
 18 C       10.8670    -4.2430    -0.9730 C.ar  1 <1>   0.1170 
 19 C       11.0560    -4.7250     0.3180 C.ar  1 <1>  -0.1500 
 20 C       11.9890    -3.9600    -1.7420 C.ar  1 <1>  -0.1500 
 21 C       12.3260    -4.9190     0.8330 C.ar  1 <1>   0.0830 
 22 C       13.2640    -4.1490    -1.2390 C.ar  1 <1>  -0.1500 
 23 O       12.4020    -5.3950     2.1010 O.3   1 <1>  -0.3630 
 24 C       13.4380    -4.6280     0.0480 C.ar  1 <1>  -0.1500 
 25 C       13.6440    -5.5720     2.7440 C.3   1 <1>   0.0400 
 26 H       -0.2420    -3.2440    -0.3310 H     1 <1>   0.1500 
 27 H        1.8890    -1.2770     2.7760 H     1 <1>   0.1500 
 28 H        1.6060    -4.8390    -0.6200 H     1 <1>   0.1500 
 29 H        3.7620    -2.8510     2.5190 H     1 <1>   0.1500 
 30 H        3.6010    -5.9190     0.6530 H     1 <1>   0.0800 
 31 H        4.6350    -4.8760     1.6020 H     1 <1>   0.0800 
 32 H        4.0620    -4.4940    -1.2560 H     1 <1>   0.4500 
 33 H        5.3070    -6.5320    -1.0140 H     1 <1>   0.0800 
 34 H        6.4260    -5.7220     0.0490 H     1 <1>   0.0800 
 35 H        5.9480    -3.1400     0.5640 H     1 <1>   0.0800 
 36 H        4.5760    -2.4290    -0.2370 H     1 <1>   0.0800 
 37 H        6.0840    -5.1620    -2.9110 H     1 <1>   0.0800 
 38 H        7.4430    -5.9260    -2.1350 H     1 <1>   0.0800 
 39 H        6.7650    -1.8650    -1.2990 H     1 <1>   0.0800 
 40 H        5.6760    -2.6450    -2.4110 H     1 <1>   0.0800 
 41 H        9.5760    -3.9540    -2.5470 H     1 <1>   0.3700 
 42 H       10.2170    -4.9600     0.9430 H     1 <1>   0.1500 
 43 H       11.8710    -3.5860    -2.7430 H     1 <1>   0.1500 
 44 H       14.1230    -3.9220    -1.8470 H     1 <1>   0.1500 
 45 H       14.4360    -4.7670     0.4180 H     1 <1>   0.1500 
 46 H       13.4570    -5.9310     3.7390 H     1 <1>   0.0800 
 47 H       14.1520    -4.6240     2.7870 H     1 <1>   0.0800 
 48 H       14.2210    -6.2960     2.1960 H     1 <1>   0.0800 
@<TRIPOS>BOND
  1   1   2  1   
  2   2   3  ar  
  3   2   4  ar  
  4   3   5  ar  
  5   3  26  1   
  6   4   6  ar  
  7   4  27  1   
  8   5   7  ar  
  9   5  28  1   
 10   6   7  ar  
 11   6  29  1   
 12   7   8  1   
 13   8   9  1   
 14   8  30  1   
 15   8  31  1   
 16   9  10  1   
 17   9  11  1   
 18   9  32  1   
 19  10  12  1   
 20  10  33  1   
 21  10  34  1   
 22  11  13  1   
 23  11  35  1   
 24  11  36  1   
 25  12  14  1   
 26  12  37  1   
 27  12  38  1   
 28  13  14  1   
 29  13  39  1   
 30  13  40  1   
 31  14  15  am  
 32  15  16  2   
 33  15  17  am  
 34  17  18  1   
 35  17  41  1   
 36  18  19  ar  
 37  18  20  ar  
 38  19  21  ar  
 39  19  42  1   
 40  20  22  ar  
 41  20  43  1   
 42  21  23  1   
 43  21  24  ar  
 44  22  24  ar  
 45  22  44  1   
 46  23  25  1   
 47  24  45  1   
 48  25  46  1   
 49  25  47  1   
 50  25  48  1   
@<TRIPOS>SUBSTRUCTURE
  1 ****  16 GROUP 4 **** **** 0

# MOE 2024.06 (io_trps.svl 2023.06)
