@<TRIPOS>MOLECULE
NONAME
29 31 1 0 0 
SMALL
USER_CHARGES


@<TRIPOS>ATOM
  1 O        0.3030    -1.8020    -2.2120 O.2   1 <1>  -0.5700 
  2 C        0.3380    -2.4310    -1.1610 C.2   1 <1>   0.8670 
  3 N       -0.8730    -2.8110    -0.6160 N.2   1 <1>  -0.6610 
  4 C        1.5670    -2.7740    -0.4950 C.2   1 <1>   0.1410 
  5 C       -0.8700    -3.4710     0.4880 C.2   1 <1>   0.4400 
  6 N        2.8910    -2.5380    -0.7910 N.2   1 <1>  -0.5650 
  7 C        1.4870    -3.4750     0.6690 C.2   1 <1>  -0.0680 
  8 N        0.2550    -3.8330     1.1750 N.pl3 1 <1>  -0.5340 
  9 C        3.5410    -3.0920     0.1830 C.2   1 <1>   0.2700 
 10 N        2.7410    -3.6810     1.1070 N.pl3 1 <1>   0.0330 
 11 N        4.9150    -3.1030     0.3040 N.pl3 1 <1>  -0.8220 
 12 C        5.5040    -1.7490     0.4770 C.3   1 <1>   0.2090 
 13 C        5.5980    -3.8530    -0.7830 C.3   1 <1>   0.2090 
 14 C        6.9820    -1.8740     0.8610 C.3   1 <1>  -0.1600 
 15 C        7.0790    -4.0350    -0.4320 C.3   1 <1>  -0.1600 
 16 C        7.7670    -2.6860    -0.1800 C.3   1 <1>  -0.1600 
 17 H       -1.8100    -3.7710     0.9180 H     1 <1>   0.0600 
 18 H        0.1650    -4.3600     2.0490 H     1 <1>   0.4000 
 19 H        3.0900    -4.1610     1.9350 H     1 <1>   0.2700 
 20 H        4.9690    -1.2190     1.2470 H     1 <1>   0.0800 
 21 H        5.4050    -1.1960    -0.4430 H     1 <1>   0.0800 
 22 H        5.4990    -3.3100    -1.7080 H     1 <1>   0.0800 
 23 H        5.1300    -4.8150    -0.9050 H     1 <1>   0.0800 
 24 H        7.0480    -2.3550     1.8220 H     1 <1>   0.0800 
 25 H        7.4100    -0.8920     0.9530 H     1 <1>   0.0800 
 26 H        7.5730    -4.5490    -1.2360 H     1 <1>   0.0800 
 27 H        7.1500    -4.6500     0.4480 H     1 <1>   0.0800 
 28 H        8.7750    -2.8450     0.1630 H     1 <1>   0.0800 
 29 H        7.8100    -2.1320    -1.1020 H     1 <1>   0.0800 
@<TRIPOS>BOND
  1   1   2  2   
  2   2   3  1   
  3   2   4  1   
  4   3   5  2   
  5   4   6  1   
  6   4   7  2   
  7   5   8  1   
  8   5  17  1   
  9   6   9  2   
 10   7   8  1   
 11   7  10  1   
 12   8  18  1   
 13   9  10  1   
 14   9  11  1   
 15  10  19  1   
 16  11  12  1   
 17  11  13  1   
 18  12  14  1   
 19  12  20  1   
 20  12  21  1   
 21  13  15  1   
 22  13  22  1   
 23  13  23  1   
 24  14  16  1   
 25  14  24  1   
 26  14  25  1   
 27  15  16  1   
 28  15  26  1   
 29  15  27  1   
 30  16  28  1   
 31  16  29  1   
@<TRIPOS>SUBSTRUCTURE
  1 ****   9 GROUP 4 **** **** 0

# MOE 2024.06 (io_trps.svl 2023.06)
