@<TRIPOS>MOLECULE
NONAME
40 42 1 0 0 
SMALL
USER_CHARGES


@<TRIPOS>ATOM
  1 CL       0.0230    -0.3280     0.4010 Cl    1 <1>  -0.1770 
  2 C        1.5700    -1.1250     0.2480 C.ar  1 <1>   0.1770 
  3 C        1.8980    -1.7490    -0.9410 C.ar  1 <1>  -0.1500 
  4 C        2.4450    -1.1200     1.3200 C.ar  1 <1>  -0.1500 
  5 C        3.1250    -2.3780    -1.0560 C.ar  1 <1>  -0.1500 
  6 C        3.6700    -1.7510     1.1960 C.ar  1 <1>  -0.1500 
  7 C        4.0210    -2.3870     0.0070 C.ar  1 <1>   0.1000 
  8 N        5.2460    -3.0270    -0.1380 N.pl3 1 <1>  -0.8380 
  9 C        5.4390    -4.2760     0.6540 C.3   1 <1>   0.2090 
 10 C        6.4490    -2.1470    -0.2020 C.3   1 <1>   0.2090 
 11 C        6.6700    -5.0570     0.1470 C.3   1 <1>   0.3430 
 12 C        7.6760    -2.9380    -0.7040 C.3   1 <1>   0.3430 
 13 N        7.9150    -4.2050     0.0880 N.4   1 <1>  -0.9590 
 14 C        9.0840    -4.9720    -0.4210 C.3   1 <1>   0.4860 
 15 C       10.3420    -4.1370    -0.2640 C.ar  1 <1>  -0.1430 
 16 C       10.8010    -3.7890     1.0000 C.ar  1 <1>   0.1900 
 17 C       11.0640    -3.7100    -1.3740 C.ar  1 <1>  -0.1500 
 18 F       10.1190    -4.1770     2.0450 F     1 <1>  -0.1900 
 19 C       11.9420    -3.0380     1.2030 C.ar  1 <1>  -0.1500 
 20 C       12.2130    -2.9520    -1.2030 C.ar  1 <1>  -0.1500 
 21 C       12.6300    -2.6310     0.0780 C.ar  1 <1>   0.1900 
 22 F       13.7100    -1.9170     0.2270 F     1 <1>  -0.1900 
 23 H        1.2010    -1.7390    -1.7590 H     1 <1>   0.1500 
 24 H        2.1630    -0.6260     2.2330 H     1 <1>   0.1500 
 25 H        3.3970    -2.8680    -1.9730 H     1 <1>   0.1500 
 26 H        4.3540    -1.7510     2.0230 H     1 <1>   0.1500 
 27 H        4.5600    -4.8920     0.5590 H     1 <1>   0.0800 
 28 H        5.5610    -4.0320     1.6950 H     1 <1>   0.0800 
 29 H        6.6510    -1.7340     0.7710 H     1 <1>   0.0800 
 30 H        6.2530    -1.3280    -0.8750 H     1 <1>   0.0800 
 31 H        6.4420    -5.4290    -0.8380 H     1 <1>   0.0800 
 32 H        6.8340    -5.9060     0.7910 H     1 <1>   0.0800 
 33 H        8.5450    -2.3020    -0.6540 H     1 <1>   0.0800 
 34 H        7.5090    -3.1870    -1.7380 H     1 <1>   0.0800 
 35 H        8.1530    -3.9250     1.0510 H     1 <1>   0.4500 
 36 H        8.9380    -5.2280    -1.4570 H     1 <1>   0.0800 
 37 H        9.1980    -5.8850     0.1430 H     1 <1>   0.0800 
 38 H       10.7510    -3.9620    -2.3750 H     1 <1>   0.1500 
 39 H       12.2840    -2.7790     2.1890 H     1 <1>   0.1500 
 40 H       12.7880    -2.6120    -2.0480 H     1 <1>   0.1500 
@<TRIPOS>BOND
  1   1   2  1   
  2   2   3  ar  
  3   2   4  ar  
  4   3   5  ar  
  5   3  23  1   
  6   4   6  ar  
  7   4  24  1   
  8   5   7  ar  
  9   5  25  1   
 10   6   7  ar  
 11   6  26  1   
 12   7   8  1   
 13   8   9  1   
 14   8  10  1   
 15   9  11  1   
 16   9  27  1   
 17   9  28  1   
 18  10  12  1   
 19  10  29  1   
 20  10  30  1   
 21  11  13  1   
 22  11  31  1   
 23  11  32  1   
 24  12  13  1   
 25  12  33  1   
 26  12  34  1   
 27  13  14  1   
 28  13  35  1   
 29  14  15  1   
 30  14  36  1   
 31  14  37  1   
 32  15  16  ar  
 33  15  17  ar  
 34  16  18  1   
 35  16  19  ar  
 36  17  20  ar  
 37  17  38  1   
 38  19  21  ar  
 39  19  39  1   
 40  20  21  ar  
 41  20  40  1   
 42  21  22  1   
@<TRIPOS>SUBSTRUCTURE
  1 ****  12 GROUP 4 **** **** 0

# MOE 2024.06 (io_trps.svl 2023.06)
