@<TRIPOS>MOLECULE
NONAME
36 38 1 0 0 
SMALL
USER_CHARGES


@<TRIPOS>ATOM
  1 O        0.9920    -1.1830    -1.4400 O.3   1 <1>  -0.5600 
  2 C        1.5740     0.0680    -1.1840 C.3   1 <1>   0.1200 
  3 C        0.4570    -1.8130    -0.3080 C.3   1 <1>   0.1200 
  4 C        2.6490    -0.0210    -0.0760 C.3   1 <1>   0.3430 
  5 C        1.5560    -2.0860     0.7450 C.3   1 <1>   0.3430 
  6 N        2.8580    -1.4440     0.3660 N.4   1 <1>  -0.9590 
  7 C        3.9230    -1.6020     1.3920 C.3   1 <1>   0.4860 
  8 C        5.2210    -1.0610     0.8280 C.ar  1 <1>  -0.1440 
  9 C        5.6880     0.1880     1.2340 C.ar  1 <1>  -0.1500 
 10 C        5.9440    -1.7990    -0.1020 C.ar  1 <1>  -0.1500 
 11 C        6.8590     0.7300     0.7190 C.ar  1 <1>   0.0820 
 12 C        7.1080    -1.2510    -0.6040 C.ar  1 <1>   0.0820 
 13 O        7.2030     1.9620     1.1820 O.3   1 <1>  -0.3630 
 14 C        7.5670    -0.0240    -0.2180 C.ar  1 <1>   0.0820 
 15 O        7.9290    -1.8000    -1.5030 O.3   1 <1>  -0.3630 
 16 C        8.4100     2.5750     0.7880 C.3   1 <1>   0.0400 
 17 O        8.7110     0.2450    -0.8740 O.3   1 <1>  -0.3620 
 18 C        8.9940    -0.8770    -1.7050 C.3   1 <1>   0.4000 
 19 H        0.7980     0.7610    -0.9060 H     1 <1>   0.0800 
 20 H        2.0180     0.4150    -2.1010 H     1 <1>   0.0800 
 21 H        0.0080    -2.7380    -0.6260 H     1 <1>   0.0800 
 22 H       -0.3170    -1.1860     0.1000 H     1 <1>   0.0800 
 23 H        2.3420     0.5840     0.7610 H     1 <1>   0.0800 
 24 H        3.5720     0.3920    -0.4520 H     1 <1>   0.0800 
 25 H        1.6880    -3.1510     0.8410 H     1 <1>   0.0800 
 26 H        1.2210    -1.7140     1.6990 H     1 <1>   0.0800 
 27 H        3.1700    -1.9260    -0.4890 H     1 <1>   0.4500 
 28 H        4.0480    -2.6440     1.6400 H     1 <1>   0.0800 
 29 H        3.6600    -1.0650     2.2890 H     1 <1>   0.0800 
 30 H        5.1520     0.7710     1.9630 H     1 <1>   0.1500 
 31 H        5.6370    -2.7720    -0.4430 H     1 <1>   0.1500 
 32 H        8.4930     3.5160     1.3010 H     1 <1>   0.0800 
 33 H        8.3890     2.7390    -0.2750 H     1 <1>   0.0800 
 34 H        9.2320     1.9370     1.0600 H     1 <1>   0.0800 
 35 H        9.0170    -0.5690    -2.7360 H     1 <1>   0.0800 
 36 H        9.9240    -1.3260    -1.4020 H     1 <1>   0.0800 
@<TRIPOS>BOND
  1   1   2  1   
  2   1   3  1   
  3   2   4  1   
  4   2  19  1   
  5   2  20  1   
  6   3   5  1   
  7   3  21  1   
  8   3  22  1   
  9   4   6  1   
 10   4  23  1   
 11   4  24  1   
 12   5   6  1   
 13   5  25  1   
 14   5  26  1   
 15   6   7  1   
 16   6  27  1   
 17   7   8  1   
 18   7  28  1   
 19   7  29  1   
 20   8   9  ar  
 21   8  10  ar  
 22   9  11  ar  
 23   9  30  1   
 24  10  12  ar  
 25  10  31  1   
 26  11  13  1   
 27  11  14  ar  
 28  12  14  ar  
 29  12  15  1   
 30  13  16  1   
 31  14  17  1   
 32  15  18  1   
 33  16  32  1   
 34  16  33  1   
 35  16  34  1   
 36  17  18  1   
 37  18  35  1   
 38  18  36  1   
@<TRIPOS>SUBSTRUCTURE
  1 ****   8 GROUP 4 **** **** 0

# MOE 2024.06 (io_trps.svl 2023.06)
