@<TRIPOS>MOLECULE
NONAME
29 30 1 0 0 
SMALL
USER_CHARGES


@<TRIPOS>ATOM
  1 N        1.1530     6.0880    -3.1830 N.1   1 <1>  -0.5570 
  2 C        0.7050     5.6190    -2.2490 C.1   1 <1>   0.3570 
  3 C        0.1370     4.9190    -1.0500 C.3   1 <1>   0.3440 
  4 C       -0.6050     5.9530    -0.1640 C.ar  1 <1>  -0.1440 
  5 C        1.2820     4.1900    -0.3090 C.3   1 <1>  -0.1600 
  6 C       -0.8290     3.8090    -1.5240 C.3   1 <1>  -0.1600 
  7 C       -1.8390     6.4560    -0.5750 C.ar  1 <1>  -0.1500 
  8 C       -0.0850     6.4380     1.0360 C.ar  1 <1>  -0.1500 
  9 C        0.7620     3.3650     0.8730 C.3   1 <1>   0.3430 
 10 C       -1.3920     3.0390    -0.3330 C.3   1 <1>   0.3430 
 11 C       -2.5460     7.3570     0.2010 C.ar  1 <1>  -0.1500 
 12 C       -0.7900     7.3400     1.8130 C.ar  1 <1>  -0.1500 
 13 N       -0.2710     2.3980     0.4080 N.4   1 <1>  -0.9060 
 14 C       -2.0260     7.7950     1.4010 C.ar  1 <1>  -0.1500 
 15 H        2.0140     4.8990     0.0340 H     1 <1>   0.0800 
 16 H        1.7990     3.5350    -0.9890 H     1 <1>   0.0800 
 17 H       -0.3190     3.1270    -2.1820 H     1 <1>   0.0800 
 18 H       -1.6410     4.2200    -2.0950 H     1 <1>   0.0800 
 19 H       -2.2800     6.1780    -1.5160 H     1 <1>   0.1500 
 20 H        0.8820     6.1530     1.4060 H     1 <1>   0.1500 
 21 H        0.3300     4.0220     1.6120 H     1 <1>   0.0800 
 22 H        1.5820     2.8370     1.3360 H     1 <1>   0.0800 
 23 H       -2.0850     2.2870    -0.6780 H     1 <1>   0.0800 
 24 H       -1.9260     3.7170     0.3180 H     1 <1>   0.0800 
 25 H       -3.5010     7.7280    -0.1340 H     1 <1>   0.1500 
 26 H       -0.3750     7.7000     2.7400 H     1 <1>   0.1500 
 27 H       -0.6510     1.8950     1.2230 H     1 <1>   0.4500 
 28 H        0.1690     1.6840    -0.1870 H     1 <1>   0.4500 
 29 H       -2.5760     8.4980     2.0060 H     1 <1>   0.1500 
@<TRIPOS>BOND
  1   1   2  3   
  2   2   3  1   
  3   3   4  1   
  4   3   5  1   
  5   3   6  1   
  6   4   7  ar  
  7   4   8  ar  
  8   5   9  1   
  9   5  15  1   
 10   5  16  1   
 11   6  10  1   
 12   6  17  1   
 13   6  18  1   
 14   7  11  ar  
 15   7  19  1   
 16   8  12  ar  
 17   8  20  1   
 18   9  13  1   
 19   9  21  1   
 20   9  22  1   
 21  10  13  1   
 22  10  23  1   
 23  10  24  1   
 24  11  14  ar  
 25  11  25  1   
 26  12  14  ar  
 27  12  26  1   
 28  13  27  1   
 29  13  28  1   
 30  14  29  1   
@<TRIPOS>SUBSTRUCTURE
  1 ****   4 GROUP 4 **** **** 0

# MOE 2024.06 (io_trps.svl 2023.06)
