@<TRIPOS>MOLECULE
NONAME
52 54 1 0 0 
SMALL
USER_CHARGES


@<TRIPOS>ATOM
  1 S       -0.1410    -0.0710     1.2280 S.3   1 <1>  -0.0800 
  2 C        0.7570     1.1290     0.3100 C.2   1 <1>   0.1040 
  3 C       -1.6640     0.6550     0.7730 C.2   1 <1>  -0.1400 
  4 N        2.1430     1.0910     0.2780 N.am  1 <1>  -0.4940 
  5 C       -0.0890     2.0170    -0.3060 C.2   1 <1>  -0.0860 
  6 C       -1.4790     1.7330    -0.0030 C.2   1 <1>  -0.1810 
  7 C       -2.9580     0.0480     1.2680 C.3   1 <1>   0.0200 
  8 C        3.0770     0.2470     0.8230 C.2   1 <1>   0.5690 
  9 C        0.3930     3.0790    -1.1540 C.2   1 <1>   0.8060 
 10 C       -2.6850     2.5350    -0.4830 C.3   1 <1>   0.0210 
 11 C       -4.1320     0.6380     0.4620 C.3   1 <1>  -0.0800 
 12 O        2.8060    -0.7290     1.4770 O.2   1 <1>  -0.5700 
 13 C        4.5460     0.5840     0.5580 C.3   1 <1>  -0.0190 
 14 O        1.5800     3.3380    -1.2740 O.2   1 <1>  -0.5700 
 15 O       -0.4790     3.8090    -1.8610 O.3   1 <1>  -0.4300 
 16 C       -3.9700     2.1620     0.2860 C.3   1 <1>  -0.1600 
 17 C       -5.4730     0.3070     1.1300 C.3   1 <1>  -0.2400 
 18 C        5.0660    -0.1610    -0.6840 C.3   1 <1>  -0.1600 
 19 C        5.4490     0.2790     1.7700 C.3   1 <1>  -0.1600 
 20 C       -0.0660     4.8550    -2.7200 C.3   1 <1>   0.0400 
 21 C        6.5400     0.1520    -0.9590 C.3   1 <1>   0.1400 
 22 C        6.9160     0.5980     1.4730 C.3   1 <1>   0.1400 
 23 N        7.3490    -0.1430     0.2560 N.am  1 <1>  -0.6600 
 24 C        8.3840    -1.0440     0.2080 C.2   1 <1>   0.5690 
 25 O        8.7240    -1.5850    -0.8160 O.2   1 <1>  -0.5700 
 26 C        9.1560    -1.3990     1.4580 C.3   1 <1>  -0.1790 
 27 H        2.5420     1.8590    -0.2710 H     1 <1>   0.3700 
 28 H       -3.0640     0.2730     2.3140 H     1 <1>   0.0800 
 29 H       -2.9320    -1.0200     1.1470 H     1 <1>   0.0800 
 30 H       -2.8270     2.3490    -1.5330 H     1 <1>   0.0800 
 31 H       -2.5060     3.5870    -0.3460 H     1 <1>   0.0800 
 32 H       -4.1220     0.1880    -0.5170 H     1 <1>   0.0800 
 33 H        4.6110     1.6400     0.3650 H     1 <1>   0.0800 
 34 H       -4.8190     2.5650    -0.2380 H     1 <1>   0.0800 
 35 H       -3.9350     2.6220     1.2580 H     1 <1>   0.0800 
 36 H       -5.5310     0.7520     2.1080 H     1 <1>   0.0800 
 37 H       -5.5860    -0.7590     1.2300 H     1 <1>   0.0800 
 38 H       -6.2880     0.6780     0.5350 H     1 <1>   0.0800 
 39 H        4.4820     0.1100    -1.5460 H     1 <1>   0.0800 
 40 H        4.9590    -1.2230    -0.5400 H     1 <1>   0.0800 
 41 H        5.3680    -0.7620     2.0340 H     1 <1>   0.0800 
 42 H        5.1220     0.8550     2.6180 H     1 <1>   0.0800 
 43 H       -0.9390     5.2880    -3.1740 H     1 <1>   0.0800 
 44 H        0.5830     4.4500    -3.4770 H     1 <1>   0.0800 
 45 H        0.4560     5.5980    -2.1400 H     1 <1>   0.0800 
 46 H        6.6570     1.1910    -1.2140 H     1 <1>   0.0800 
 47 H        6.8790    -0.4340    -1.7960 H     1 <1>   0.0800 
 48 H        7.5160     0.3390     2.3260 H     1 <1>   0.0800 
 49 H        7.0320     1.6530     1.2970 H     1 <1>   0.0800 
 50 H        8.4890    -1.7990     2.1970 H     1 <1>   0.0800 
 51 H        9.6520    -0.5280     1.8410 H     1 <1>   0.0800 
 52 H        9.8970    -2.1430     1.2260 H     1 <1>   0.0800 
@<TRIPOS>BOND
  1   1   2  1   
  2   1   3  1   
  3   2   4  1   
  4   2   5  2   
  5   3   6  2   
  6   3   7  1   
  7   4   8  am  
  8   4  27  1   
  9   5   6  1   
 10   5   9  1   
 11   6  10  1   
 12   7  11  1   
 13   7  28  1   
 14   7  29  1   
 15   8  12  2   
 16   8  13  1   
 17   9  14  2   
 18   9  15  1   
 19  10  16  1   
 20  10  30  1   
 21  10  31  1   
 22  11  16  1   
 23  11  17  1   
 24  11  32  1   
 25  13  18  1   
 26  13  19  1   
 27  13  33  1   
 28  15  20  1   
 29  16  34  1   
 30  16  35  1   
 31  17  36  1   
 32  17  37  1   
 33  17  38  1   
 34  18  21  1   
 35  18  39  1   
 36  18  40  1   
 37  19  22  1   
 38  19  41  1   
 39  19  42  1   
 40  20  43  1   
 41  20  44  1   
 42  20  45  1   
 43  21  23  1   
 44  21  46  1   
 45  21  47  1   
 46  22  23  1   
 47  22  48  1   
 48  22  49  1   
 49  23  24  am  
 50  24  25  2   
 51  24  26  1   
 52  26  50  1   
 53  26  51  1   
 54  26  52  1   
@<TRIPOS>SUBSTRUCTURE
  1 ****   4 GROUP 4 **** **** 0

# MOE 2024.06 (io_trps.svl 2023.06)
