@<TRIPOS>MOLECULE
NONAME
45 46 1 0 0 
SMALL
USER_CHARGES


@<TRIPOS>ATOM
  1 BR      -1.6380     1.2570    -1.3850 Br    1 <1>  -0.1110 
  2 C       -0.1260     1.9860    -0.4330 C.ar  1 <1>   0.1110 
  3 C        0.5160     3.1140    -0.9140 C.ar  1 <1>   0.0830 
  4 C        0.2750     1.3520     0.7240 C.ar  1 <1>  -0.1500 
  5 O        0.0560     3.6910    -2.0550 O.3   1 <1>  -0.3630 
  6 C        1.6040     3.5950    -0.1940 C.ar  1 <1>  -0.1500 
  7 C        1.3620     1.8460     1.4330 C.ar  1 <1>  -0.1430 
  8 C        0.5820     4.9090    -2.5350 C.3   1 <1>   0.0400 
  9 C        2.0570     2.9710     0.9690 C.ar  1 <1>  -0.0090 
 10 C        1.7520     1.1260     2.7180 C.3   1 <1>  -0.0960 
 11 S        3.5060     3.6800     1.8250 S.o2  1 <1>   1.4470 
 12 O        4.2950     2.6650     2.4880 O.2   1 <1>  -0.6500 
 13 O        3.0810     4.8410     2.5750 O.2   1 <1>  -0.6500 
 14 N        4.4720     4.2530     0.5530 N.am  1 <1>  -0.8490 
 15 C        5.1220     3.1540    -0.1910 C.3   1 <1>   0.1960 
 16 C        5.4930     5.1970     1.0420 C.3   1 <1>   0.1960 
 17 C        5.9200     3.6800    -1.3950 C.3   1 <1>   0.1400 
 18 C        6.3240     5.7910    -0.1090 C.3   1 <1>   0.1400 
 19 N        6.9040     4.7140    -0.9650 N.am  1 <1>  -0.6600 
 20 C        8.2340     4.6210    -1.2730 C.2   1 <1>   0.7800 
 21 O        8.6910     3.7070    -1.9320 O.2   1 <1>  -0.5700 
 22 O        9.0430     5.5790    -0.8200 O.3   1 <1>  -0.4300 
 23 C       10.4250     5.5480    -1.0950 C.3   1 <1>   0.1200 
 24 C       11.0650     6.7670    -0.4390 C.3   1 <1>  -0.2400 
 25 H       -0.2640     0.4850     1.0590 H     1 <1>   0.1500 
 26 H        2.1220     4.4730    -0.5290 H     1 <1>   0.1500 
 27 H        0.0270     5.1880    -3.4130 H     1 <1>   0.0800 
 28 H        1.6180     4.7680    -2.7880 H     1 <1>   0.0800 
 29 H        0.4680     5.6630    -1.7770 H     1 <1>   0.0800 
 30 H        0.9940     0.4240     3.0150 H     1 <1>   0.0800 
 31 H        1.8800     1.8290     3.5220 H     1 <1>   0.0800 
 32 H        2.6720     0.5860     2.5770 H     1 <1>   0.0800 
 33 H        4.3770     2.4640    -0.5460 H     1 <1>   0.0800 
 34 H        5.7920     2.6120     0.4570 H     1 <1>   0.0800 
 35 H        6.1510     4.6990     1.7350 H     1 <1>   0.0800 
 36 H        5.0170     6.0080     1.5660 H     1 <1>   0.0800 
 37 H        5.2430     4.1130    -2.1100 H     1 <1>   0.0800 
 38 H        6.4230     2.8560    -1.8720 H     1 <1>   0.0800 
 39 H        7.1000     6.4120     0.3040 H     1 <1>   0.0800 
 40 H        5.6900     6.4160    -0.7140 H     1 <1>   0.0800 
 41 H       10.5600     5.5670    -2.1640 H     1 <1>   0.0800 
 42 H       10.8320     4.6350    -0.6950 H     1 <1>   0.0800 
 43 H       10.6420     7.6700    -0.8430 H     1 <1>   0.0800 
 44 H       12.1230     6.7690    -0.6330 H     1 <1>   0.0800 
 45 H       10.9110     6.7400     0.6240 H     1 <1>   0.0800 
@<TRIPOS>BOND
  1   1   2  1   
  2   2   3  ar  
  3   2   4  ar  
  4   3   5  1   
  5   3   6  ar  
  6   4   7  ar  
  7   4  25  1   
  8   5   8  1   
  9   6   9  ar  
 10   6  26  1   
 11   7   9  ar  
 12   7  10  1   
 13   8  27  1   
 14   8  28  1   
 15   8  29  1   
 16   9  11  1   
 17  10  30  1   
 18  10  31  1   
 19  10  32  1   
 20  11  12  2   
 21  11  13  2   
 22  11  14  am  
 23  14  15  1   
 24  14  16  1   
 25  15  17  1   
 26  15  33  1   
 27  15  34  1   
 28  16  18  1   
 29  16  35  1   
 30  16  36  1   
 31  17  19  1   
 32  17  37  1   
 33  17  38  1   
 34  18  19  1   
 35  18  39  1   
 36  18  40  1   
 37  19  20  am  
 38  20  21  2   
 39  20  22  1   
 40  22  23  1   
 41  23  24  1   
 42  23  41  1   
 43  23  42  1   
 44  24  43  1   
 45  24  44  1   
 46  24  45  1   
@<TRIPOS>SUBSTRUCTURE
  1 ****  14 GROUP 4 **** **** 0

# MOE 2024.06 (io_trps.svl 2023.06)
