@<TRIPOS>MOLECULE
NONAME
37 38 1 0 0 
SMALL
USER_CHARGES


@<TRIPOS>ATOM
  1 N        1.3100    -2.7410    -3.9340 N.1   1 <1>  -0.5570 
  2 C        1.4220    -2.6220    -2.8040 C.1   1 <1>   0.3570 
  3 C        1.4770    -2.3950    -1.3190 C.3   1 <1>   0.5340 
  4 N        2.8830    -2.3230    -0.7770 N.pl3 1 <1>  -0.4870 
  5 C        0.6520    -3.4570    -0.5760 C.ar  1 <1>  -0.1440 
  6 N        3.9530    -2.9380    -1.3680 N.2   1 <1>  -0.5030 
  7 C        3.2740    -1.5610     0.4350 C.3   1 <1>   0.2700 
  8 C       -0.6260    -3.1970    -0.0790 C.ar  1 <1>  -0.1440 
  9 C        1.1990    -4.7230    -0.3970 C.ar  1 <1>  -0.1500 
 10 C        4.9940    -2.7120    -0.7010 C.2   1 <1>   0.3280 
 11 C        4.7810    -1.8560     0.5210 C.3   1 <1>  -0.0990 
 12 C        3.0130    -0.0670     0.2230 C.3   1 <1>  -0.2400 
 13 C        2.5330    -2.0810     1.6700 C.3   1 <1>  -0.2400 
 14 C       -1.3160    -4.1960     0.5920 C.ar  1 <1>  -0.1500 
 15 C       -1.3080    -1.8450    -0.2500 C.3   1 <1>  -0.0970 
 16 C        0.5030    -5.7130     0.2710 C.ar  1 <1>  -0.1500 
 17 C        6.3790    -3.2190    -1.0260 C.3   1 <1>  -0.1790 
 18 C       -0.7570    -5.4480     0.7690 C.ar  1 <1>  -0.1500 
 19 H        1.0380    -1.4330    -1.1610 H     1 <1>   0.0800 
 20 H        2.1810    -4.9430    -0.7820 H     1 <1>   0.1500 
 21 H        5.0350    -2.4050     1.4080 H     1 <1>   0.0800 
 22 H        5.3740    -0.9630     0.4660 H     1 <1>   0.0800 
 23 H        3.4780     0.2670    -0.6880 H     1 <1>   0.0800 
 24 H        3.4240     0.4970     1.0420 H     1 <1>   0.0800 
 25 H        1.9600     0.1390     0.1780 H     1 <1>   0.0800 
 26 H        2.6660    -3.1450     1.7640 H     1 <1>   0.0800 
 27 H        1.4830    -1.8680     1.6050 H     1 <1>   0.0800 
 28 H        2.9150    -1.6100     2.5570 H     1 <1>   0.0800 
 29 H       -2.3010    -4.0090     0.9830 H     1 <1>   0.1500 
 30 H       -0.7710    -1.0870     0.2910 H     1 <1>   0.0800 
 31 H       -2.3150    -1.8720     0.1250 H     1 <1>   0.0800 
 32 H       -1.3520    -1.5790    -1.2910 H     1 <1>   0.0800 
 33 H        0.9440    -6.6860     0.4010 H     1 <1>   0.1500 
 34 H        7.0460    -2.3910    -1.1780 H     1 <1>   0.0800 
 35 H        6.3460    -3.8080    -1.9250 H     1 <1>   0.0800 
 36 H        6.7440    -3.8310    -0.2220 H     1 <1>   0.0800 
 37 H       -1.3030    -6.2150     1.2900 H     1 <1>   0.1500 
@<TRIPOS>BOND
  1   1   2  3   
  2   2   3  1   
  3   3   4  1   
  4   3   5  1   
  5   3  19  1   
  6   4   6  1   
  7   4   7  1   
  8   5   8  ar  
  9   5   9  ar  
 10   6  10  2   
 11   7  11  1   
 12   7  12  1   
 13   7  13  1   
 14   8  14  ar  
 15   8  15  1   
 16   9  16  ar  
 17   9  20  1   
 18  10  11  1   
 19  10  17  1   
 20  11  21  1   
 21  11  22  1   
 22  12  23  1   
 23  12  24  1   
 24  12  25  1   
 25  13  26  1   
 26  13  27  1   
 27  13  28  1   
 28  14  18  ar  
 29  14  29  1   
 30  15  30  1   
 31  15  31  1   
 32  15  32  1   
 33  16  18  ar  
 34  16  33  1   
 35  17  34  1   
 36  17  35  1   
 37  17  36  1   
 38  18  37  1   
@<TRIPOS>SUBSTRUCTURE
  1 ****   3 GROUP 4 **** **** 0

# MOE 2024.06 (io_trps.svl 2023.06)
