@<TRIPOS>MOLECULE
NONAME
49 52 1 0 0 
SMALL
USER_CHARGES


@<TRIPOS>ATOM
  1 O        1.5710     0.2970     1.1420 O.3   1 <1>  -0.3630 
  2 C        2.2310     0.9680     0.1660 C.ar  1 <1>   0.0830 
  3 C        0.2560     0.6520     1.5130 C.3   1 <1>   0.0400 
  4 C        3.4910     0.4980    -0.1620 C.ar  1 <1>  -0.1500 
  5 C        1.7180     2.0760    -0.5000 C.ar  1 <1>  -0.1500 
  6 C        4.2500     1.1220    -1.1390 C.ar  1 <1>  -0.1430 
  7 C        2.4690     2.6980    -1.4820 C.ar  1 <1>  -0.1500 
  8 C        3.7300     2.2240    -1.8010 C.ar  1 <1>  -0.1500 
  9 C        5.6370     0.6050    -1.4610 C.3   1 <1>  -0.0170 
 10 C        6.6020     1.1290    -0.4010 C.3   1 <1>   0.3430 
 11 N        7.9800     0.6240    -0.6440 N.4   1 <1>  -0.9060 
 12 C        8.9690     1.0810     0.3610 C.3   1 <1>   0.4230 
 13 C        9.2500     2.5970     0.2200 C.3   1 <1>  -0.0800 
 14 C       10.2850     0.2960     0.1690 C.3   1 <1>  -0.0800 
 15 C        9.8860     2.9140    -1.1540 C.3   1 <1>  -0.1600 
 16 C       10.2410     3.0120     1.3270 C.3   1 <1>  -0.1600 
 17 C       10.9230     0.6120    -1.2050 C.3   1 <1>  -0.1600 
 18 C       11.2720     0.7190     1.2760 C.3   1 <1>  -0.1600 
 19 C       11.1990     2.1230    -1.3210 C.3   1 <1>  -0.0800 
 20 C       11.5590     2.2290     1.1780 C.3   1 <1>  -0.0800 
 21 C       12.1730     2.5360    -0.2010 C.3   1 <1>  -0.1600 
 22 H       -0.0680    -0.0280     2.2800 H     1 <1>   0.0800 
 23 H       -0.3840     0.5650     0.6530 H     1 <1>   0.0800 
 24 H        0.2590     1.6580     1.8930 H     1 <1>   0.0800 
 25 H        3.8570    -0.3650     0.3640 H     1 <1>   0.1500 
 26 H        0.7440     2.4650    -0.2710 H     1 <1>   0.1500 
 27 H        2.0690     3.5530    -2.0000 H     1 <1>   0.1500 
 28 H        4.2930     2.7250    -2.5700 H     1 <1>   0.1500 
 29 H        5.9320     0.9440    -2.4390 H     1 <1>   0.0800 
 30 H        5.6200    -0.4710    -1.4570 H     1 <1>   0.0800 
 31 H        6.2600     0.8120     0.5720 H     1 <1>   0.0800 
 32 H        6.5900     2.2070    -0.4220 H     1 <1>   0.0800 
 33 H        8.3230     0.9390    -1.5580 H     1 <1>   0.4500 
 34 H        7.9820    -0.4010    -0.6560 H     1 <1>   0.4500 
 35 H        8.5910     0.8840     1.3520 H     1 <1>   0.0800 
 36 H        8.3470     3.1660     0.3510 H     1 <1>   0.0800 
 37 H       10.1020    -0.7610     0.2610 H     1 <1>   0.0800 
 38 H        9.2120     2.6860    -1.9590 H     1 <1>   0.0800 
 39 H       10.0990     3.9690    -1.2150 H     1 <1>   0.0800 
 40 H        9.8160     2.8270     2.2980 H     1 <1>   0.0800 
 41 H       10.4420     4.0690     1.2620 H     1 <1>   0.0800 
 42 H       10.2930     0.2890    -2.0140 H     1 <1>   0.0800 
 43 H       11.8520     0.0740    -1.3010 H     1 <1>   0.0800 
 44 H       10.8670     0.4880     2.2470 H     1 <1>   0.0800 
 45 H       12.1940     0.1700     1.1750 H     1 <1>   0.0800 
 46 H       11.6420     2.3440    -2.2790 H     1 <1>   0.0800 
 47 H       12.2490     2.5220     1.9530 H     1 <1>   0.0800 
 48 H       12.3930     3.5870    -0.2760 H     1 <1>   0.0800 
 49 H       13.1040     2.0060    -0.3120 H     1 <1>   0.0800 
@<TRIPOS>BOND
  1   1   2  1   
  2   1   3  1   
  3   2   4  ar  
  4   2   5  ar  
  5   3  22  1   
  6   3  23  1   
  7   3  24  1   
  8   4   6  ar  
  9   4  25  1   
 10   5   7  ar  
 11   5  26  1   
 12   6   8  ar  
 13   6   9  1   
 14   7   8  ar  
 15   7  27  1   
 16   8  28  1   
 17   9  10  1   
 18   9  29  1   
 19   9  30  1   
 20  10  11  1   
 21  10  31  1   
 22  10  32  1   
 23  11  12  1   
 24  11  33  1   
 25  11  34  1   
 26  12  13  1   
 27  12  14  1   
 28  12  35  1   
 29  13  15  1   
 30  13  16  1   
 31  13  36  1   
 32  14  17  1   
 33  14  18  1   
 34  14  37  1   
 35  15  19  1   
 36  15  38  1   
 37  15  39  1   
 38  16  20  1   
 39  16  40  1   
 40  16  41  1   
 41  17  19  1   
 42  17  42  1   
 43  17  43  1   
 44  18  20  1   
 45  18  44  1   
 46  18  45  1   
 47  19  21  1   
 48  19  46  1   
 49  20  21  1   
 50  20  47  1   
 51  21  48  1   
 52  21  49  1   
@<TRIPOS>SUBSTRUCTURE
  1 ****  10 GROUP 4 **** **** 0

# MOE 2024.06 (io_trps.svl 2023.06)
