@<TRIPOS>MOLECULE
NONAME
50 51 1 0 0 
SMALL
USER_CHARGES


@<TRIPOS>ATOM
  1 O       -0.1180     1.0250     1.5520 O.2   1 <1>  -0.5700 
  2 C       -0.1480     1.9240     0.7340 C.2   1 <1>   0.5440 
  3 N        1.0230     2.2710     0.1190 N.am  1 <1>  -0.7300 
  4 C       -1.3740     2.6220     0.3940 C.ar  1 <1>   0.0860 
  5 C        2.3190     1.6540     0.4290 C.3   1 <1>   0.2200 
  6 C       -2.5350     1.9640    -0.0340 C.ar  1 <1>  -0.1440 
  7 C       -1.4070     4.0150     0.4770 C.ar  1 <1>  -0.1500 
  8 C        3.4430     2.6390     0.1340 C.3   1 <1>  -0.1600 
  9 C        2.4930     0.4050    -0.4280 C.3   1 <1>  -0.1600 
 10 C       -3.6650     2.6930    -0.3660 C.ar  1 <1>  -0.1500 
 11 C       -2.5840     0.4450    -0.1440 C.3   1 <1>  -0.0970 
 12 C       -2.5340     4.7430     0.1420 C.ar  1 <1>  -0.1430 
 13 C        4.8230     2.0230     0.4040 C.3   1 <1>   0.5030 
 14 C        3.8380    -0.2820    -0.1700 C.3   1 <1>   0.5030 
 15 C       -3.6660     4.0730    -0.2820 C.ar  1 <1>  -0.1500 
 16 C       -2.5460     6.2580     0.2410 C.3   1 <1>  -0.0960 
 17 N        4.9480     0.6880    -0.2070 N.4   1 <1>  -0.9060 
 18 C        5.1370     1.9450     1.9000 C.3   1 <1>  -0.2400 
 19 C        5.9000     2.8790    -0.2610 C.3   1 <1>  -0.2400 
 20 C        3.8510    -1.0470     1.1560 C.3   1 <1>  -0.2400 
 21 C        4.1260    -1.2760    -1.2940 C.3   1 <1>  -0.2400 
 22 H        0.9860     2.9560    -0.6380 H     1 <1>   0.3700 
 23 H        2.3250     1.3900     1.4740 H     1 <1>   0.0800 
 24 H       -0.5280     4.5320     0.8190 H     1 <1>   0.1500 
 25 H        3.3180     3.5150     0.7480 H     1 <1>   0.0800 
 26 H        3.3800     2.9490    -0.8940 H     1 <1>   0.0800 
 27 H        2.4120     0.6750    -1.4660 H     1 <1>   0.0800 
 28 H        1.6960    -0.2850    -0.2100 H     1 <1>   0.0800 
 29 H       -4.5590     2.1900    -0.6930 H     1 <1>   0.1500 
 30 H       -1.7530     0.0850    -0.7230 H     1 <1>   0.0800 
 31 H       -3.4920     0.1180    -0.6170 H     1 <1>   0.0800 
 32 H       -2.5360     0.0080     0.8380 H     1 <1>   0.0800 
 33 H       -4.5540     4.6210    -0.5440 H     1 <1>   0.1500 
 34 H       -1.5610     6.6400     0.4340 H     1 <1>   0.0800 
 35 H       -3.1970     6.5640     1.0400 H     1 <1>   0.0800 
 36 H       -2.9030     6.6840    -0.6800 H     1 <1>   0.0800 
 37 H        5.7710     0.2340     0.1920 H     1 <1>   0.4500 
 38 H        5.1570     0.8410    -1.1940 H     1 <1>   0.4500 
 39 H        4.3560     1.4740     2.4610 H     1 <1>   0.0800 
 40 H        5.2380     2.9400     2.3000 H     1 <1>   0.0800 
 41 H        6.0640     1.4290     2.0800 H     1 <1>   0.0800 
 42 H        5.7470     2.9480    -1.3240 H     1 <1>   0.0800 
 43 H        6.8840     2.4840    -0.0720 H     1 <1>   0.0800 
 44 H        5.8700     3.8790     0.1350 H     1 <1>   0.0800 
 45 H        3.5190    -0.4480     1.9800 H     1 <1>   0.0800 
 46 H        4.8270    -1.4430     1.3720 H     1 <1>   0.0800 
 47 H        3.1690    -1.8780     1.0970 H     1 <1>   0.0800 
 48 H        4.1540    -0.7890    -2.2530 H     1 <1>   0.0800 
 49 H        3.3460    -2.0180    -1.3320 H     1 <1>   0.0800 
 50 H        5.0560    -1.7910    -1.1310 H     1 <1>   0.0800 
@<TRIPOS>BOND
  1   1   2  2   
  2   2   3  am  
  3   2   4  1   
  4   3   5  1   
  5   3  22  1   
  6   4   6  ar  
  7   4   7  ar  
  8   5   8  1   
  9   5   9  1   
 10   5  23  1   
 11   6  10  ar  
 12   6  11  1   
 13   7  12  ar  
 14   7  24  1   
 15   8  13  1   
 16   8  25  1   
 17   8  26  1   
 18   9  14  1   
 19   9  27  1   
 20   9  28  1   
 21  10  15  ar  
 22  10  29  1   
 23  11  30  1   
 24  11  31  1   
 25  11  32  1   
 26  12  15  ar  
 27  12  16  1   
 28  13  17  1   
 29  13  18  1   
 30  13  19  1   
 31  14  17  1   
 32  14  20  1   
 33  14  21  1   
 34  15  33  1   
 35  16  34  1   
 36  16  35  1   
 37  16  36  1   
 38  17  37  1   
 39  17  38  1   
 40  18  39  1   
 41  18  40  1   
 42  18  41  1   
 43  19  42  1   
 44  19  43  1   
 45  19  44  1   
 46  20  45  1   
 47  20  46  1   
 48  20  47  1   
 49  21  48  1   
 50  21  49  1   
 51  21  50  1   
@<TRIPOS>SUBSTRUCTURE
  1 ****   3 GROUP 4 **** **** 0

# MOE 2024.06 (io_trps.svl 2023.06)
