@<TRIPOS>MOLECULE
NONAME
40 41 1 0 0 
SMALL
USER_CHARGES


@<TRIPOS>ATOM
  1 S        0.4080    -0.4990    -0.1030 S.o2  1 <1>   1.3330 
  2 O        0.1290    -0.6900     1.2970 O.2   1 <1>  -0.6500 
  3 O        1.5000    -1.1730    -0.7570 O.2   1 <1>  -0.6500 
  4 N       -0.9720    -0.9830    -1.0000 N.am  1 <1>  -0.7570 
  5 C        0.5050     1.2380    -0.4750 C.3   1 <1>  -0.1350 
  6 C       -2.3210    -0.8500    -0.7160 C.ar  1 <1>   0.1990 
  7 C       -3.2470    -1.4250    -1.5770 C.ar  1 <1>  -0.1500 
  8 C       -2.8100    -0.1640     0.3930 C.ar  1 <1>  -0.1500 
  9 C       -4.6040    -1.3160    -1.3450 C.ar  1 <1>  -0.1500 
 10 C       -4.1680    -0.0570     0.6240 C.ar  1 <1>  -0.1500 
 11 C       -5.1080    -0.6250    -0.2410 C.ar  1 <1>   0.0860 
 12 C       -6.5370    -0.5130    -0.0110 C.2   1 <1>   0.5440 
 13 O       -7.3320    -1.2240    -0.5980 O.2   1 <1>  -0.5700 
 14 N       -7.0710     0.4360     0.8300 N.am  1 <1>  -0.6600 
 15 C       -7.0440     1.8580     0.3870 C.3   1 <1>   0.1400 
 16 C       -8.3010     0.0830     1.5980 C.3   1 <1>   0.1400 
 17 C       -8.3090     2.1800    -0.4400 C.3   1 <1>   0.3430 
 18 C       -9.5570     0.3930     0.7610 C.3   1 <1>   0.3430 
 19 N       -9.5830     1.8280     0.2890 N.4   1 <1>  -0.9590 
 20 C      -10.7730     2.0660    -0.5820 C.3   1 <1>   0.2630 
 21 H       -0.6880    -1.6480    -1.7140 H     1 <1>   0.4200 
 22 H        1.3650     1.6670     0.0020 H     1 <1>   0.0800 
 23 H       -0.3720     1.7440    -0.1230 H     1 <1>   0.0800 
 24 H        0.5910     1.3860    -1.5330 H     1 <1>   0.0800 
 25 H       -2.9000    -1.9660    -2.4390 H     1 <1>   0.1500 
 26 H       -2.1310     0.2840     1.0940 H     1 <1>   0.1500 
 27 H       -5.2950    -1.7790    -2.0300 H     1 <1>   0.1500 
 28 H       -4.5060     0.4670     1.5000 H     1 <1>   0.1500 
 29 H       -6.1700     2.0350    -0.2180 H     1 <1>   0.0800 
 30 H       -6.9860     2.5030     1.2460 H     1 <1>   0.0800 
 31 H       -8.3210     0.6290     2.5250 H     1 <1>   0.0800 
 32 H       -8.2850    -0.9680     1.8360 H     1 <1>   0.0800 
 33 H       -8.2580     1.6180    -1.3590 H     1 <1>   0.0800 
 34 H       -8.3080     3.2270    -0.6940 H     1 <1>   0.0800 
 35 H      -10.4360     0.1810     1.3480 H     1 <1>   0.0800 
 36 H       -9.5600    -0.2690    -0.0900 H     1 <1>   0.0800 
 37 H       -9.6520     2.4300     1.1210 H     1 <1>   0.4500 
 38 H      -10.7270     1.4380    -1.4580 H     1 <1>   0.0800 
 39 H      -10.8070     3.0960    -0.8980 H     1 <1>   0.0800 
 40 H      -11.6810     1.8420    -0.0460 H     1 <1>   0.0800 
@<TRIPOS>BOND
  1   1   2  2   
  2   1   3  2   
  3   1   4  am  
  4   1   5  1   
  5   4   6  1   
  6   4  21  1   
  7   5  22  1   
  8   5  23  1   
  9   5  24  1   
 10   6   7  ar  
 11   6   8  ar  
 12   7   9  ar  
 13   7  25  1   
 14   8  10  ar  
 15   8  26  1   
 16   9  11  ar  
 17   9  27  1   
 18  10  11  ar  
 19  10  28  1   
 20  11  12  1   
 21  12  13  2   
 22  12  14  am  
 23  14  15  1   
 24  14  16  1   
 25  15  17  1   
 26  15  29  1   
 27  15  30  1   
 28  16  18  1   
 29  16  31  1   
 30  16  32  1   
 31  17  19  1   
 32  17  33  1   
 33  17  34  1   
 34  18  19  1   
 35  18  35  1   
 36  18  36  1   
 37  19  20  1   
 38  19  37  1   
 39  20  38  1   
 40  20  39  1   
 41  20  40  1   
@<TRIPOS>SUBSTRUCTURE
  1 ****  11 GROUP 4 **** **** 0

# MOE 2024.06 (io_trps.svl 2023.06)
