@<TRIPOS>MOLECULE
NONAME
34 34 1 0 0 
SMALL
USER_CHARGES


@<TRIPOS>ATOM
  1 O       -0.2840    -0.0310    -0.1880 O.3   1 <1>  -0.6800 
  2 C       -1.3630     0.6000     0.4150 C.3   1 <1>   0.1200 
  3 C       -2.6610    -0.1150     0.0150 C.3   1 <1>  -0.1600 
  4 C       -2.6610    -1.6200     0.3150 C.3   1 <1>   0.5660 
  5 N       -1.7420    -2.3040    -0.5870 N.4   1 <1>  -0.8530 
  6 C       -4.0190    -2.2680     0.1250 C.ar  1 <1>  -0.1440 
  7 C       -4.7620    -2.0980    -1.0370 C.ar  1 <1>  -0.1500 
  8 C       -4.5290    -3.0680     1.1370 C.ar  1 <1>  -0.1500 
  9 C       -5.9880    -2.7220    -1.1810 C.ar  1 <1>  -0.1500 
 10 C       -5.7560    -3.6890     0.9870 C.ar  1 <1>  -0.1500 
 11 C       -6.4970    -3.5240    -0.1730 C.ar  1 <1>  -0.1440 
 12 C       -7.8540    -4.2030    -0.3500 C.3   1 <1>   0.0630 
 13 C       -8.8510    -3.7170     0.7070 C.3   1 <1>  -0.2400 
 14 C       -7.7140    -5.7280    -0.3050 C.3   1 <1>  -0.2400 
 15 H        0.5260     0.5220    -0.0850 H     1 <1>   0.4000 
 16 H       -1.3840     1.6270     0.0860 H     1 <1>   0.0800 
 17 H       -1.2160     0.5770     1.4830 H     1 <1>   0.0800 
 18 H       -2.8640     0.0700    -1.0240 H     1 <1>   0.0800 
 19 H       -3.4640     0.3340     0.5730 H     1 <1>   0.0800 
 20 H       -2.3400    -1.7650     1.3350 H     1 <1>   0.0800 
 21 H       -2.1660    -2.3750    -1.5120 H     1 <1>   0.4500 
 22 H       -1.5180    -3.2390    -0.2430 H     1 <1>   0.4500 
 23 H       -0.8930    -1.7140    -0.6420 H     1 <1>   0.4500 
 24 H       -4.4140    -1.4810    -1.8470 H     1 <1>   0.1500 
 25 H       -3.9880    -3.2220     2.0550 H     1 <1>   0.1500 
 26 H       -6.5520    -2.5770    -2.0870 H     1 <1>   0.1500 
 27 H       -6.1370    -4.3060     1.7830 H     1 <1>   0.1500 
 28 H       -8.2500    -3.9400    -1.3170 H     1 <1>   0.0800 
 29 H       -8.5340    -4.0000     1.6940 H     1 <1>   0.0800 
 30 H       -9.8220    -4.1400     0.5240 H     1 <1>   0.0800 
 31 H       -8.9330    -2.6450     0.6680 H     1 <1>   0.0800 
 32 H       -7.3720    -6.0550     0.6600 H     1 <1>   0.0800 
 33 H       -7.0090    -6.0530    -1.0490 H     1 <1>   0.0800 
 34 H       -8.6620    -6.1940    -0.5080 H     1 <1>   0.0800 
@<TRIPOS>BOND
  1   1   2  1   
  2   1  15  1   
  3   2   3  1   
  4   2  16  1   
  5   2  17  1   
  6   3   4  1   
  7   3  18  1   
  8   3  19  1   
  9   4   5  1   
 10   4   6  1   
 11   4  20  1   
 12   5  21  1   
 13   5  22  1   
 14   5  23  1   
 15   6   7  ar  
 16   6   8  ar  
 17   7   9  ar  
 18   7  24  1   
 19   8  10  ar  
 20   8  25  1   
 21   9  11  ar  
 22   9  26  1   
 23  10  11  ar  
 24  10  27  1   
 25  11  12  1   
 26  12  13  1   
 27  12  14  1   
 28  12  28  1   
 29  13  29  1   
 30  13  30  1   
 31  13  31  1   
 32  14  32  1   
 33  14  33  1   
 34  14  34  1   
@<TRIPOS>SUBSTRUCTURE
  1 ****   6 GROUP 4 **** **** 0

# MOE 2024.06 (io_trps.svl 2023.06)
