@<TRIPOS>MOLECULE
NONAME
41 42 1 0 0 
SMALL
USER_CHARGES


@<TRIPOS>ATOM
  1 O        0.2960     0.1790     1.5300 O.2   1 <1>  -0.5700 
  2 C        0.3630     1.1940     0.8970 C.2   1 <1>   0.4480 
  3 C       -0.8070     1.6990     0.0140 C.3   1 <1>   0.3410 
  4 C        1.6230     2.0420     0.9820 C.3   1 <1>  -0.0990 
  5 O       -0.3270     2.3640    -1.1080 O.3   1 <1>  -0.6800 
  6 C       -1.6790     0.5400    -0.5130 C.3   1 <1>  -0.1600 
  7 C       -1.6820     2.7060     0.7850 C.3   1 <1>  -0.1600 
  8 C        2.6760     1.5800    -0.0300 C.3   1 <1>  -0.0170 
  9 C       -2.9100     1.0060    -1.3130 C.3   1 <1>  -0.1600 
 10 C       -2.9150     3.1840    -0.0040 C.3   1 <1>  -0.1600 
 11 C        3.9050     2.4710     0.0450 C.ar  1 <1>  -0.1430 
 12 C       -3.7520     1.9980    -0.5010 C.3   1 <1>  -0.1600 
 13 C        3.9890     3.6090    -0.7420 C.ar  1 <1>  -0.1500 
 14 C        4.9480     2.1580     0.9020 C.ar  1 <1>  -0.1500 
 15 C        5.1020     4.4280    -0.6770 C.ar  1 <1>  -0.1500 
 16 C        6.0620     2.9760     0.9700 C.ar  1 <1>  -0.1500 
 17 C        6.1500     4.1130     0.1840 C.ar  1 <1>   0.0820 
 18 O        7.2760     4.8600     0.3100 O.3   1 <1>  -0.3630 
 19 C        7.4690     6.0280    -0.4560 C.3   1 <1>   0.0400 
 20 H        2.0280     1.9570     1.9740 H     1 <1>   0.0800 
 21 H        1.3820     3.0760     0.8120 H     1 <1>   0.0800 
 22 H       -1.0950     2.6230    -1.6500 H     1 <1>   0.4000 
 23 H       -2.0250    -0.0340     0.3290 H     1 <1>   0.0800 
 24 H       -1.0740    -0.1180    -1.1120 H     1 <1>   0.0800 
 25 H       -1.0860     3.5530     1.0790 H     1 <1>   0.0800 
 26 H       -2.0210     2.2290     1.6890 H     1 <1>   0.0800 
 27 H        2.2700     1.6120    -1.0260 H     1 <1>   0.0800 
 28 H        2.9510     0.5590     0.1760 H     1 <1>   0.0800 
 29 H       -3.5130     0.1500    -1.5650 H     1 <1>   0.0800 
 30 H       -2.6000     1.4630    -2.2370 H     1 <1>   0.0800 
 31 H       -2.6050     3.7840    -0.8430 H     1 <1>   0.0800 
 32 H       -3.5230     3.8080     0.6290 H     1 <1>   0.0800 
 33 H       -4.1770     1.4870     0.3470 H     1 <1>   0.0800 
 34 H       -4.5680     2.3590    -1.1050 H     1 <1>   0.0800 
 35 H        3.1820     3.8600    -1.4100 H     1 <1>   0.1500 
 36 H        4.8960     1.2790     1.5200 H     1 <1>   0.1500 
 37 H        5.1350     5.3010    -1.3000 H     1 <1>   0.1500 
 38 H        6.8730     2.7360     1.6330 H     1 <1>   0.1500 
 39 H        8.4250     6.4430    -0.1950 H     1 <1>   0.0800 
 40 H        6.6880     6.7300    -0.2230 H     1 <1>   0.0800 
 41 H        7.4550     5.7670    -1.4990 H     1 <1>   0.0800 
@<TRIPOS>BOND
  1   1   2  2   
  2   2   3  1   
  3   2   4  1   
  4   3   5  1   
  5   3   6  1   
  6   3   7  1   
  7   4   8  1   
  8   4  20  1   
  9   4  21  1   
 10   5  22  1   
 11   6   9  1   
 12   6  23  1   
 13   6  24  1   
 14   7  10  1   
 15   7  25  1   
 16   7  26  1   
 17   8  11  1   
 18   8  27  1   
 19   8  28  1   
 20   9  12  1   
 21   9  29  1   
 22   9  30  1   
 23  10  12  1   
 24  10  31  1   
 25  10  32  1   
 26  11  13  ar  
 27  11  14  ar  
 28  12  33  1   
 29  12  34  1   
 30  13  15  ar  
 31  13  35  1   
 32  14  16  ar  
 33  14  36  1   
 34  15  17  ar  
 35  15  37  1   
 36  16  17  ar  
 37  16  38  1   
 38  17  18  1   
 39  18  19  1   
 40  19  39  1   
 41  19  40  1   
 42  19  41  1   
@<TRIPOS>SUBSTRUCTURE
  1 ****   4 GROUP 4 **** **** 0

# MOE 2024.06 (io_trps.svl 2023.06)
