@<TRIPOS>MOLECULE
NONAME
44 45 1 0 0 
SMALL
USER_CHARGES


@<TRIPOS>ATOM
  1 CL       2.6440     2.6800     1.7200 Cl    1 <1>  -0.1770 
  2 C        3.0260     1.0450     1.2190 C.ar  1 <1>   0.1770 
  3 C        4.2950     0.7200     0.7470 C.ar  1 <1>   0.0820 
  4 C        2.0280     0.0950     1.3070 C.ar  1 <1>  -0.1500 
  5 O        5.2420     1.6860     0.6430 O.3   1 <1>  -0.3630 
  6 C        4.5800    -0.6020     0.3970 C.ar  1 <1>  -0.1440 
  7 C        2.2990    -1.2080     0.9290 C.ar  1 <1>  -0.1500 
  8 C        5.5320     2.1770    -0.6510 C.3   1 <1>   0.1200 
  9 C        3.5650    -1.5480     0.4810 C.ar  1 <1>  -0.1500 
 10 C        5.9700    -1.0370    -0.0650 C.3   1 <1>   0.1220 
 11 C        4.8360     3.5240    -0.8580 C.3   1 <1>  -0.1600 
 12 C        6.3950    -2.3460     0.5830 C.2   1 <1>  -0.2880 
 13 C        5.2510     4.5390     0.2120 C.3   1 <1>   0.1100 
 14 C        6.7100    -3.4690    -0.0710 C.2   1 <1>  -0.3000 
 15 N        4.5940     5.8390    -0.0160 N.3   1 <1>  -0.8100 
 16 C        5.3380     6.9170     0.6650 C.3   1 <1>   0.1100 
 17 C        3.1770     5.8130     0.4120 C.3   1 <1>   0.1100 
 18 C        4.6840     8.2910     0.4220 C.3   1 <1>   0.3430 
 19 C        2.4900     7.1700     0.1680 C.3   1 <1>   0.3430 
 20 N        3.2390     8.2900     0.8280 N.4   1 <1>  -0.9060 
 21 H        1.0540     0.3710     1.6690 H     1 <1>   0.1500 
 22 H        1.5300    -1.9580     0.9880 H     1 <1>   0.1500 
 23 H        5.2070     1.4620    -1.3880 H     1 <1>   0.0800 
 24 H        6.6000     2.2920    -0.7210 H     1 <1>   0.0800 
 25 H        3.7600    -2.5700     0.2000 H     1 <1>   0.1500 
 26 H        6.7040    -0.2950     0.1890 H     1 <1>   0.0800 
 27 H        5.9650    -1.1430    -1.1360 H     1 <1>   0.0800 
 28 H        3.7760     3.3560    -0.8490 H     1 <1>   0.0800 
 29 H        5.1060     3.9060    -1.8260 H     1 <1>   0.0800 
 30 H        6.4180    -2.2760     1.6580 H     1 <1>   0.1500 
 31 H        6.3200     4.6600     0.1560 H     1 <1>   0.0800 
 32 H        5.0140     4.1700     1.1970 H     1 <1>   0.0800 
 33 H        7.0080    -4.3810     0.4170 H     1 <1>   0.1500 
 34 H        6.6980    -3.5750    -1.1420 H     1 <1>   0.1500 
 35 H        6.3450     6.9450     0.2840 H     1 <1>   0.0800 
 36 H        5.3910     6.7180     1.7220 H     1 <1>   0.0800 
 37 H        3.1100     5.5530     1.4550 H     1 <1>   0.0800 
 38 H        2.6420     5.0650    -0.1460 H     1 <1>   0.0800 
 39 H        4.7650     8.5210    -0.6280 H     1 <1>   0.0800 
 40 H        5.2230     9.0460     0.9720 H     1 <1>   0.0800 
 41 H        1.4800     7.1290     0.5410 H     1 <1>   0.0800 
 42 H        2.4470     7.3390    -0.8950 H     1 <1>   0.0800 
 43 H        2.8050     9.1910     0.5940 H     1 <1>   0.4500 
 44 H        3.1830     8.1660     1.8450 H     1 <1>   0.4500 
@<TRIPOS>BOND
  1   1   2  1   
  2   2   3  ar  
  3   2   4  ar  
  4   3   5  1   
  5   3   6  ar  
  6   4   7  ar  
  7   4  21  1   
  8   5   8  1   
  9   6   9  ar  
 10   6  10  1   
 11   7   9  ar  
 12   7  22  1   
 13   8  11  1   
 14   8  23  1   
 15   8  24  1   
 16   9  25  1   
 17  10  12  1   
 18  10  26  1   
 19  10  27  1   
 20  11  13  1   
 21  11  28  1   
 22  11  29  1   
 23  12  14  2   
 24  12  30  1   
 25  13  15  1   
 26  13  31  1   
 27  13  32  1   
 28  14  33  1   
 29  14  34  1   
 30  15  16  1   
 31  15  17  1   
 32  16  18  1   
 33  16  35  1   
 34  16  36  1   
 35  17  19  1   
 36  17  37  1   
 37  17  38  1   
 38  18  20  1   
 39  18  39  1   
 40  18  40  1   
 41  19  20  1   
 42  19  41  1   
 43  19  42  1   
 44  20  43  1   
 45  20  44  1   
@<TRIPOS>SUBSTRUCTURE
  1 ****   5 GROUP 4 **** **** 0

# MOE 2024.06 (io_trps.svl 2023.06)
