@<TRIPOS>MOLECULE
NONAME
40 41 1 0 0 
SMALL
USER_CHARGES


@<TRIPOS>ATOM
  1 CL      -0.5990     0.5730    -1.3860 Cl    1 <1>  -0.1770 
  2 C       -1.9220    -0.3900    -0.7840 C.ar  1 <1>   0.1770 
  3 C       -2.2930    -0.2810     0.5420 C.ar  1 <1>  -0.1500 
  4 C       -2.5810    -1.2490    -1.6430 C.ar  1 <1>  -0.1500 
  5 C       -3.3460    -1.0430     1.0170 C.ar  1 <1>  -0.1500 
  6 C       -3.6340    -2.0110    -1.1650 C.ar  1 <1>  -0.1500 
  7 C       -4.0250    -1.9070     0.1650 C.ar  1 <1>  -0.1430 
  8 C       -5.1870    -2.7340     0.6870 C.3   1 <1>   0.4870 
  9 N       -6.4590    -2.1680     0.1580 N.4   1 <1>  -0.9590 
 10 C       -6.6980    -0.7810     0.6540 C.3   1 <1>   0.3430 
 11 C       -7.6100    -3.0720     0.4320 C.3   1 <1>   0.3430 
 12 C       -7.9280    -0.1960    -0.0380 C.3   1 <1>  -0.1600 
 13 C       -8.8570    -2.5360    -0.2670 C.3   1 <1>  -0.1600 
 14 C       -9.1740    -1.0850     0.1420 C.3   1 <1>  -0.0190 
 15 C      -10.3540    -0.5370    -0.6540 C.2   1 <1>   0.6590 
 16 O      -10.3130    -0.4620    -1.8540 O.2   1 <1>  -0.5700 
 17 O      -11.4060    -0.1560     0.0530 O.3   1 <1>  -0.4300 
 18 C      -12.5580     0.3670    -0.5670 C.3   1 <1>   0.1200 
 19 C      -13.5710     0.7040     0.5220 C.3   1 <1>  -0.2400 
 20 H       -1.7560     0.3930     1.1880 H     1 <1>   0.1500 
 21 H       -2.2640    -1.3170    -2.6690 H     1 <1>   0.1500 
 22 H       -3.6220    -0.9540     2.0550 H     1 <1>   0.1500 
 23 H       -4.1320    -2.6830    -1.8430 H     1 <1>   0.1500 
 24 H       -5.1920    -2.7240     1.7650 H     1 <1>   0.0800 
 25 H       -5.0680    -3.7530     0.3570 H     1 <1>   0.0800 
 26 H       -6.3430    -2.0960    -0.8620 H     1 <1>   0.4500 
 27 H       -5.8430    -0.1570     0.4430 H     1 <1>   0.0800 
 28 H       -6.8530    -0.7940     1.7210 H     1 <1>   0.0800 
 29 H       -7.7880    -3.1290     1.4940 H     1 <1>   0.0800 
 30 H       -7.3980    -4.0660     0.0690 H     1 <1>   0.0800 
 31 H       -7.7140    -0.0690    -1.0860 H     1 <1>   0.0800 
 32 H       -8.1260     0.7810     0.3660 H     1 <1>   0.0800 
 33 H       -9.6960    -3.1650    -0.0220 H     1 <1>   0.0800 
 34 H       -8.7180    -2.5950    -1.3340 H     1 <1>   0.0800 
 35 H       -9.4500    -1.0770     1.1830 H     1 <1>   0.0800 
 36 H      -12.9500    -0.3740    -1.2440 H     1 <1>   0.0800 
 37 H      -12.2790     1.2480    -1.1210 H     1 <1>   0.0800 
 38 H      -13.8350    -0.1810     1.0710 H     1 <1>   0.0800 
 39 H      -14.4620     1.1070     0.0750 H     1 <1>   0.0800 
 40 H      -13.1650     1.4390     1.1940 H     1 <1>   0.0800 
@<TRIPOS>BOND
  1   1   2  1   
  2   2   3  ar  
  3   2   4  ar  
  4   3   5  ar  
  5   3  20  1   
  6   4   6  ar  
  7   4  21  1   
  8   5   7  ar  
  9   5  22  1   
 10   6   7  ar  
 11   6  23  1   
 12   7   8  1   
 13   8   9  1   
 14   8  24  1   
 15   8  25  1   
 16   9  10  1   
 17   9  11  1   
 18   9  26  1   
 19  10  12  1   
 20  10  27  1   
 21  10  28  1   
 22  11  13  1   
 23  11  29  1   
 24  11  30  1   
 25  12  14  1   
 26  12  31  1   
 27  12  32  1   
 28  13  14  1   
 29  13  33  1   
 30  13  34  1   
 31  14  15  1   
 32  14  35  1   
 33  15  16  2   
 34  15  17  1   
 35  17  18  1   
 36  18  19  1   
 37  18  36  1   
 38  18  37  1   
 39  19  38  1   
 40  19  39  1   
 41  19  40  1   
@<TRIPOS>SUBSTRUCTURE
  1 ****  10 GROUP 4 **** **** 0

# MOE 2024.06 (io_trps.svl 2023.06)
