@<TRIPOS>MOLECULE
NONAME
39 40 1 0 0 
SMALL
USER_CHARGES


@<TRIPOS>ATOM
  1 BR      -0.0760    -0.3400     1.1840 Br    1 <1>  -0.1110 
  2 C       -1.9420    -0.1110     0.7650 C.ar  1 <1>   0.1110 
  3 C       -2.6660    -1.2030     0.3300 C.ar  1 <1>  -0.1500 
  4 C       -2.5090     1.1380     0.9090 C.ar  1 <1>  -0.1500 
  5 C       -4.0110    -1.0470     0.0270 C.ar  1 <1>  -0.1440 
  6 C       -3.8490     1.2890     0.6040 C.ar  1 <1>  -0.1500 
  7 C       -4.6160     0.2090     0.1640 C.ar  1 <1>   0.1170 
  8 C       -4.8000    -2.2630    -0.4440 C.3   1 <1>  -0.0960 
  9 N       -5.9740     0.3580    -0.1640 N.am  1 <1>  -0.5470 
 10 C       -6.9160     1.2490     0.2760 C.2   1 <1>   0.5690 
 11 O       -6.6890     2.1020     1.0990 O.2   1 <1>  -0.5700 
 12 C       -8.3220     1.1200    -0.3120 C.3   1 <1>  -0.0190 
 13 C       -9.1110     2.4470    -0.2760 C.3   1 <1>  -0.1600 
 14 C       -9.1220     0.0180     0.4080 C.3   1 <1>  -0.1600 
 15 C      -10.5220     2.2820    -0.8440 C.3   1 <1>   0.1400 
 16 C      -10.5360    -0.1230    -0.1630 C.3   1 <1>   0.1400 
 17 N      -11.2280     1.1940    -0.1120 N.am  1 <1>  -0.6600 
 18 C      -12.3970     1.3450     0.5900 C.2   1 <1>   0.5690 
 19 O      -12.9410     0.4210     1.1440 O.2   1 <1>  -0.5700 
 20 C      -13.0640     2.6970     0.6990 C.3   1 <1>  -0.1790 
 21 H       -2.1750    -2.1550     0.2350 H     1 <1>   0.1500 
 22 H       -1.9190     1.9690     1.2500 H     1 <1>   0.1500 
 23 H       -4.2980     2.2600     0.7070 H     1 <1>   0.1500 
 24 H       -4.1950    -3.1510    -0.4060 H     1 <1>   0.0800 
 25 H       -5.1260    -2.1220    -1.4590 H     1 <1>   0.0800 
 26 H       -5.6560    -2.4160     0.1880 H     1 <1>   0.0800 
 27 H       -6.3230    -0.3650    -0.7870 H     1 <1>   0.3700 
 28 H       -8.2160     0.8380    -1.3450 H     1 <1>   0.0800 
 29 H       -8.5830     3.1950    -0.8400 H     1 <1>   0.0800 
 30 H       -9.1870     2.7990     0.7380 H     1 <1>   0.0800 
 31 H       -9.1960     0.2520     1.4570 H     1 <1>   0.0800 
 32 H       -8.6140    -0.9260     0.3210 H     1 <1>   0.0800 
 33 H      -10.4690     2.0220    -1.8870 H     1 <1>   0.0800 
 34 H      -11.0490     3.2160    -0.7650 H     1 <1>   0.0800 
 35 H      -11.0780    -0.8620     0.4040 H     1 <1>   0.0800 
 36 H      -10.4950    -0.4560    -1.1850 H     1 <1>   0.0800 
 37 H      -13.3480     3.0440    -0.2760 H     1 <1>   0.0800 
 38 H      -12.3930     3.3980     1.1590 H     1 <1>   0.0800 
 39 H      -13.9460     2.6170     1.3070 H     1 <1>   0.0800 
@<TRIPOS>BOND
  1   1   2  1   
  2   2   3  ar  
  3   2   4  ar  
  4   3   5  ar  
  5   3  21  1   
  6   4   6  ar  
  7   4  22  1   
  8   5   7  ar  
  9   5   8  1   
 10   6   7  ar  
 11   6  23  1   
 12   7   9  1   
 13   8  24  1   
 14   8  25  1   
 15   8  26  1   
 16   9  10  am  
 17   9  27  1   
 18  10  11  2   
 19  10  12  1   
 20  12  13  1   
 21  12  14  1   
 22  12  28  1   
 23  13  15  1   
 24  13  29  1   
 25  13  30  1   
 26  14  16  1   
 27  14  31  1   
 28  14  32  1   
 29  15  17  1   
 30  15  33  1   
 31  15  34  1   
 32  16  17  1   
 33  16  35  1   
 34  16  36  1   
 35  17  18  am  
 36  18  19  2   
 37  18  20  1   
 38  20  37  1   
 39  20  38  1   
 40  20  39  1   
@<TRIPOS>SUBSTRUCTURE
  1 ****  10 GROUP 4 **** **** 0

# MOE 2024.06 (io_trps.svl 2023.06)
