@<TRIPOS>MOLECULE
NONAME
43 47 1 0 0 
SMALL
USER_CHARGES


@<TRIPOS>ATOM
  1 O        0.0610     0.7550    -2.0010 O.2   1 <1>  -0.5700 
  2 C        0.2180     1.5300    -1.0780 C.2   1 <1>   0.5440 
  3 N        1.4580     1.6400    -0.5170 N.am  1 <1>  -0.7300 
  4 C       -0.8940     2.3130    -0.5690 C.ar  1 <1>   0.0860 
  5 C        2.6710     0.9060    -0.9400 C.3   1 <1>   0.2200 
  6 C       -2.2060     1.8370    -0.6800 C.ar  1 <1>  -0.1500 
  7 C       -0.6970     3.5630     0.0440 C.ar  1 <1>  -0.1500 
  8 C        3.0980    -0.0950     0.1550 C.3   1 <1>  -0.0800 
  9 C        3.8250     1.8950    -1.2100 C.3   1 <1>  -0.0800 
 10 C       -3.2440     2.5930    -0.1800 C.ar  1 <1>   0.0830 
 11 C       -1.7520     4.3130     0.5440 C.ar  1 <1>  -0.1500 
 12 C        4.3140    -0.8920    -0.3620 C.3   1 <1>  -0.1600 
 13 C        3.5090     0.6440     1.4490 C.3   1 <1>  -0.1600 
 14 C        5.0410     1.0950    -1.7250 C.3   1 <1>  -0.1600 
 15 C        4.2360     2.6330     0.0850 C.3   1 <1>  -0.1600 
 16 O       -4.5520     2.3130    -0.1840 O.3   1 <1>  -0.3630 
 17 C       -3.0260     3.7980     0.4190 C.ar  1 <1>   0.0830 
 18 C        5.4840     0.0660    -0.6660 C.3   1 <1>  -0.0800 
 19 C        4.6700     1.6140     1.1570 C.3   1 <1>  -0.0800 
 20 C       -5.2080     3.4130     0.4460 C.3   1 <1>   0.4000 
 21 O       -4.1820     4.3310     0.8170 O.3   1 <1>  -0.3620 
 22 C        5.8730     0.8100     0.6260 C.3   1 <1>  -0.1600 
 23 H        1.5820     2.1820     0.3350 H     1 <1>   0.3700 
 24 H        2.4550     0.3640    -1.8460 H     1 <1>   0.0800 
 25 H       -2.4040     0.8900    -1.1520 H     1 <1>   0.1500 
 26 H        0.2990     3.9590     0.1230 H     1 <1>   0.1500 
 27 H        2.2870    -0.7740     0.3520 H     1 <1>   0.0800 
 28 H        3.5200     2.6010    -1.9630 H     1 <1>   0.0800 
 29 H       -1.6000     5.2680     1.0140 H     1 <1>   0.1500 
 30 H        4.0440    -1.4310    -1.2540 H     1 <1>   0.0800 
 31 H        4.6170    -1.6150     0.3750 H     1 <1>   0.0800 
 32 H        3.8150    -0.0730     2.1910 H     1 <1>   0.0800 
 33 H        2.6720     1.1830     1.8550 H     1 <1>   0.0800 
 34 H        5.8530     1.7660    -1.9440 H     1 <1>   0.0800 
 35 H        4.7830     0.5880    -2.6390 H     1 <1>   0.0800 
 36 H        3.4200     3.2280     0.4530 H     1 <1>   0.0800 
 37 H        5.0510     3.3040    -0.1260 H     1 <1>   0.0800 
 38 H        6.3280    -0.4930    -1.0320 H     1 <1>   0.0800 
 39 H        4.9510     2.1300     2.0600 H     1 <1>   0.0800 
 40 H       -5.7240     3.0700     1.3250 H     1 <1>   0.0800 
 41 H       -5.8780     3.8820    -0.2530 H     1 <1>   0.0800 
 42 H        6.6970     1.4740     0.4300 H     1 <1>   0.0800 
 43 H        6.1950     0.1030     1.3700 H     1 <1>   0.0800 
@<TRIPOS>BOND
  1   1   2  2   
  2   2   3  am  
  3   2   4  1   
  4   3   5  1   
  5   3  23  1   
  6   4   6  ar  
  7   4   7  ar  
  8   5   8  1   
  9   5   9  1   
 10   5  24  1   
 11   6  10  ar  
 12   6  25  1   
 13   7  11  ar  
 14   7  26  1   
 15   8  12  1   
 16   8  13  1   
 17   8  27  1   
 18   9  14  1   
 19   9  15  1   
 20   9  28  1   
 21  10  16  1   
 22  10  17  ar  
 23  11  17  ar  
 24  11  29  1   
 25  12  18  1   
 26  12  30  1   
 27  12  31  1   
 28  13  19  1   
 29  13  32  1   
 30  13  33  1   
 31  14  18  1   
 32  14  34  1   
 33  14  35  1   
 34  15  19  1   
 35  15  36  1   
 36  15  37  1   
 37  16  20  1   
 38  17  21  1   
 39  18  22  1   
 40  18  38  1   
 41  19  22  1   
 42  19  39  1   
 43  20  21  1   
 44  20  40  1   
 45  20  41  1   
 46  22  42  1   
 47  22  43  1   
@<TRIPOS>SUBSTRUCTURE
  1 ****   3 GROUP 4 **** **** 0

# MOE 2024.06 (io_trps.svl 2023.06)
