@<TRIPOS>MOLECULE
NONAME
28 28 1 0 0 
SMALL
USER_CHARGES


@<TRIPOS>ATOM
  1 F       -0.0340    -0.2820     0.7590 F     1 <1>  -0.3400 
  2 C        0.5760    -1.3160     0.1910 C.3   1 <1>   1.1640 
  3 F        0.1300    -2.4000     0.8110 F     1 <1>  -0.3400 
  4 F        0.1160    -1.3830    -1.0520 F     1 <1>  -0.3400 
  5 C        2.0970    -1.2160     0.2310 C.ar  1 <1>  -0.1430 
  6 C        2.8400    -2.2510    -0.3130 C.ar  1 <1>   0.1600 
  7 C        2.7760    -0.1410     0.7890 C.ar  1 <1>  -0.1500 
  8 N        4.1620    -2.3040    -0.3490 N.ar  1 <1>  -0.6200 
  9 C        4.1500    -0.1850     0.7600 C.ar  1 <1>  -0.1500 
 10 C        4.7920    -1.2760     0.1830 C.ar  1 <1>   0.4100 
 11 N        6.1480    -1.3830     0.1240 N.pl3 1 <1>  -0.8690 
 12 C        6.9280    -0.3970    -0.6330 C.3   1 <1>   0.2090 
 13 C        8.1990    -0.1140     0.1650 C.3   1 <1>  -0.1600 
 14 C        9.0860     0.9010    -0.5470 C.3   1 <1>   0.3430 
 15 N       10.2950     1.1440     0.2760 N.4   1 <1>  -0.8530 
 16 H        2.3230    -3.0920    -0.7470 H     1 <1>   0.1500 
 17 H        2.2580     0.6950     1.2330 H     1 <1>   0.1500 
 18 H        4.7360     0.6050     1.1860 H     1 <1>   0.1500 
 19 H        6.3630    -2.3470    -0.1570 H     1 <1>   0.4000 
 20 H        6.3510     0.5040    -0.7690 H     1 <1>   0.0800 
 21 H        7.1630    -0.8040    -1.6040 H     1 <1>   0.0800 
 22 H        8.7330    -1.0400     0.2910 H     1 <1>   0.0800 
 23 H        7.9100     0.2640     1.1310 H     1 <1>   0.0800 
 24 H        8.5440     1.8240    -0.6860 H     1 <1>   0.0800 
 25 H        9.3690     0.5220    -1.5170 H     1 <1>   0.0800 
 26 H       10.0380     1.5000     1.2040 H     1 <1>   0.4500 
 27 H       10.9190     1.8290    -0.1670 H     1 <1>   0.4500 
 28 H       10.8240     0.2740     0.4120 H     1 <1>   0.4500 
@<TRIPOS>BOND
  1   1   2  1   
  2   2   3  1   
  3   2   4  1   
  4   2   5  1   
  5   5   6  ar  
  6   5   7  ar  
  7   6   8  ar  
  8   6  16  1   
  9   7   9  ar  
 10   7  17  1   
 11   8  10  ar  
 12   9  10  ar  
 13   9  18  1   
 14  10  11  1   
 15  11  12  1   
 16  11  19  1   
 17  12  13  1   
 18  12  20  1   
 19  12  21  1   
 20  13  14  1   
 21  13  22  1   
 22  13  23  1   
 23  14  15  1   
 24  14  24  1   
 25  14  25  1   
 26  15  26  1   
 27  15  27  1   
 28  15  28  1   
@<TRIPOS>SUBSTRUCTURE
  1 ****  10 GROUP 4 **** **** 0

# MOE 2024.06 (io_trps.svl 2023.06)
