@<TRIPOS>MOLECULE
NONAME
40 40 1 0 0 
SMALL
USER_CHARGES


@<TRIPOS>ATOM
  1 S       -0.2030    -0.1620     0.0420 S.o2  1 <1>   1.4470 
  2 O       -0.9360    -0.5310     1.2310 O.2   1 <1>  -0.6500 
  3 O       -0.3250    -0.9760    -1.1460 O.2   1 <1>  -0.6500 
  4 N       -0.7210     1.3420    -0.4790 N.am  1 <1>  -0.9140 
  5 C        1.5550     0.0720     0.4650 C.ar  1 <1>  -0.0090 
  6 C       -2.1210     1.6650    -0.3850 C.3   1 <1>   0.5560 
  7 C        2.4150    -1.0110     0.6700 C.ar  1 <1>  -0.1440 
  8 C        2.0860     1.3510     0.6140 C.ar  1 <1>  -0.1500 
  9 C       -2.2340     2.8740    -1.2570 C.1   1 <1>  -0.2000 
 10 C       -2.5260     2.0610     1.0570 C.3   1 <1>  -0.1600 
 11 C       -3.0280     0.5530    -0.9760 C.3   1 <1>  -0.1600 
 12 C        3.7480    -0.8010     0.9920 C.ar  1 <1>  -0.1500 
 13 C        1.9190    -2.4470     0.5500 C.3   1 <1>  -0.0970 
 14 C        3.4140     1.5560     0.9370 C.ar  1 <1>  -0.1500 
 15 C       -2.3160     3.8360    -1.9540 C.1   1 <1>  -0.1770 
 16 C       -1.5490     2.9940     1.8020 C.3   1 <1>  -0.2400 
 17 C       -4.5240     0.9040    -1.1080 C.3   1 <1>  -0.2400 
 18 C        4.2560     0.4780     1.1270 C.ar  1 <1>  -0.1430 
 19 C        5.7170     0.6890     1.4790 C.3   1 <1>  -0.0970 
 20 H       -0.5400     1.3270    -1.4760 H     1 <1>   0.4200 
 21 H        1.4570     2.2140     0.4810 H     1 <1>   0.1500 
 22 H       -2.6750     1.1750     1.6460 H     1 <1>   0.0800 
 23 H       -3.4810     2.5530     1.0150 H     1 <1>   0.0800 
 24 H       -2.9700    -0.3240    -0.3580 H     1 <1>   0.0800 
 25 H       -2.6630     0.2910    -1.9530 H     1 <1>   0.0800 
 26 H        4.4030    -1.6420     1.1410 H     1 <1>   0.1500 
 27 H        1.0580    -2.6020     1.1760 H     1 <1>   0.0800 
 28 H        2.6770    -3.1450     0.8540 H     1 <1>   0.0800 
 29 H        1.6540    -2.6650    -0.4700 H     1 <1>   0.0800 
 30 H        3.7880     2.5610     1.0400 H     1 <1>   0.1500 
 31 H       -2.3900     4.7080    -2.5790 H     1 <1>   0.1770 
 32 H       -0.6100     2.4990     1.9720 H     1 <1>   0.0800 
 33 H       -1.9620     3.2680     2.7560 H     1 <1>   0.0800 
 34 H       -1.3720     3.8910     1.2360 H     1 <1>   0.0800 
 35 H       -4.9570     1.1160    -0.1460 H     1 <1>   0.0800 
 36 H       -5.0530     0.0690    -1.5340 H     1 <1>   0.0800 
 37 H       -4.6710     1.7540    -1.7510 H     1 <1>   0.0800 
 38 H        6.0500    -0.0690     2.1650 H     1 <1>   0.0800 
 39 H        5.8610     1.6490     1.9410 H     1 <1>   0.0800 
 40 H        6.3160     0.6390     0.5880 H     1 <1>   0.0800 
@<TRIPOS>BOND
  1   1   2  2   
  2   1   3  2   
  3   1   4  am  
  4   1   5  1   
  5   4   6  1   
  6   4  20  1   
  7   5   7  ar  
  8   5   8  ar  
  9   6   9  1   
 10   6  10  1   
 11   6  11  1   
 12   7  12  ar  
 13   7  13  1   
 14   8  14  ar  
 15   8  21  1   
 16   9  15  3   
 17  10  16  1   
 18  10  22  1   
 19  10  23  1   
 20  11  17  1   
 21  11  24  1   
 22  11  25  1   
 23  12  18  ar  
 24  12  26  1   
 25  13  27  1   
 26  13  28  1   
 27  13  29  1   
 28  14  18  ar  
 29  14  30  1   
 30  15  31  1   
 31  16  32  1   
 32  16  33  1   
 33  16  34  1   
 34  17  35  1   
 35  17  36  1   
 36  17  37  1   
 37  18  19  1   
 38  19  38  1   
 39  19  39  1   
 40  19  40  1   
@<TRIPOS>SUBSTRUCTURE
  1 ****   1 GROUP 4 **** **** 0

# MOE 2024.06 (io_trps.svl 2023.06)
