@<TRIPOS>MOLECULE
NONAME
36 36 1 0 0 
SMALL
USER_CHARGES


@<TRIPOS>ATOM
  1 F       -0.6560    -0.7340     1.9040 F     1 <1>  -0.1900 
  2 C       -1.7260    -1.1490     1.2850 C.ar  1 <1>   0.1900 
  3 C       -2.0880    -0.5420     0.0980 C.ar  1 <1>  -0.1500 
  4 C       -2.4590    -2.1810     1.8380 C.ar  1 <1>  -0.1500 
  5 C       -3.2280    -0.9820    -0.5530 C.ar  1 <1>  -0.1500 
  6 C       -3.5970    -2.6150     1.1800 C.ar  1 <1>  -0.1500 
  7 C       -3.9910    -2.0120    -0.0110 C.ar  1 <1>  -0.1430 
  8 C       -5.2500    -2.4770    -0.7180 C.3   1 <1>   0.4870 
  9 N       -6.4320    -1.9470     0.0370 N.4   1 <1>  -0.9590 
 10 C       -7.6990    -2.6580    -0.3720 C.3   1 <1>   0.3430 
 11 C       -6.4990    -0.4510    -0.1130 C.3   1 <1>   0.2630 
 12 C       -8.9390    -2.3270     0.5130 C.3   1 <1>   0.3430 
 13 N      -10.2140    -3.0270     0.1020 N.4   1 <1>  -0.9590 
 14 C      -11.3740    -2.4950     0.8970 C.3   1 <1>   0.2630 
 15 C      -10.1660    -4.5210     0.2670 C.3   1 <1>   0.2630 
 16 H       -1.4820     0.2530    -0.3010 H     1 <1>   0.1500 
 17 H       -2.1340    -2.6300     2.7600 H     1 <1>   0.1500 
 18 H       -3.5020    -0.5110    -1.4830 H     1 <1>   0.1500 
 19 H       -4.1560    -3.4300     1.6100 H     1 <1>   0.1500 
 20 H       -5.2620    -3.5550    -0.7310 H     1 <1>   0.0800 
 21 H       -5.2570    -2.1220    -1.7360 H     1 <1>   0.0800 
 22 H       -6.1990    -2.1430     1.0250 H     1 <1>   0.4500 
 23 H       -7.5280    -3.7210    -0.3250 H     1 <1>   0.0800 
 24 H       -7.9260    -2.4020    -1.3940 H     1 <1>   0.0800 
 25 H       -6.6600    -0.1780    -1.1440 H     1 <1>   0.0800 
 26 H       -5.5730    -0.0010     0.2140 H     1 <1>   0.0800 
 27 H       -7.2960    -0.0390     0.4850 H     1 <1>   0.0800 
 28 H       -9.1060    -1.2630     0.4730 H     1 <1>   0.0800 
 29 H       -8.7150    -2.5880     1.5340 H     1 <1>   0.0800 
 30 H      -10.4310    -2.8230    -0.8900 H     1 <1>   0.4500 
 31 H      -11.2360    -2.6910     1.9490 H     1 <1>   0.0800 
 32 H      -12.2920    -2.9670     0.5820 H     1 <1>   0.0800 
 33 H      -11.4770    -1.4310     0.7550 H     1 <1>   0.0800 
 34 H       -9.9750    -4.7820     1.2960 H     1 <1>   0.0800 
 35 H       -9.3950    -4.9520    -0.3510 H     1 <1>   0.0800 
 36 H      -11.1100    -4.9580    -0.0210 H     1 <1>   0.0800 
@<TRIPOS>BOND
  1   1   2  1   
  2   2   3  ar  
  3   2   4  ar  
  4   3   5  ar  
  5   3  16  1   
  6   4   6  ar  
  7   4  17  1   
  8   5   7  ar  
  9   5  18  1   
 10   6   7  ar  
 11   6  19  1   
 12   7   8  1   
 13   8   9  1   
 14   8  20  1   
 15   8  21  1   
 16   9  10  1   
 17   9  11  1   
 18   9  22  1   
 19  10  12  1   
 20  10  23  1   
 21  10  24  1   
 22  11  25  1   
 23  11  26  1   
 24  11  27  1   
 25  12  13  1   
 26  12  28  1   
 27  12  29  1   
 28  13  14  1   
 29  13  15  1   
 30  13  30  1   
 31  14  31  1   
 32  14  32  1   
 33  14  33  1   
 34  15  34  1   
 35  15  35  1   
 36  15  36  1   
@<TRIPOS>SUBSTRUCTURE
  1 ****   9 GROUP 4 **** **** 0

# MOE 2024.06 (io_trps.svl 2023.06)
