@<TRIPOS>MOLECULE
NONAME
44 45 1 0 0 
SMALL
USER_CHARGES


@<TRIPOS>ATOM
  1 S        0.0970    -0.2870     1.5710 S.o2  1 <1>   1.4470 
  2 O        0.6710    -0.8460     2.7770 O.2   1 <1>  -0.6500 
  3 O       -0.2730     1.1110     1.5410 O.2   1 <1>  -0.6500 
  4 N        1.2150    -0.5400     0.3230 N.am  1 <1>  -0.8490 
  5 C       -1.3300    -1.2730     1.0450 C.ar  1 <1>  -0.0090 
  6 C        2.3140     0.4240     0.3600 C.3   1 <1>   0.1960 
  7 C        1.7250    -1.9210     0.2860 C.3   1 <1>   0.1960 
  8 C       -1.8260    -1.1630    -0.2460 C.ar  1 <1>  -0.1500 
  9 C       -1.9630    -2.1550     1.9120 C.ar  1 <1>  -0.1500 
 10 C        3.1080     0.3860    -0.9570 C.3   1 <1>  -0.1600 
 11 C        2.8890    -2.1020    -0.7060 C.3   1 <1>  -0.1600 
 12 C       -2.9260    -1.8900    -0.6800 C.ar  1 <1>   0.1170 
 13 C       -3.0480    -2.9110     1.5010 C.ar  1 <1>  -0.1500 
 14 C        2.9850    -0.9500    -1.7140 C.3   1 <1>  -0.0800 
 15 N       -3.4280    -1.7660    -1.9880 N.am  1 <1>  -0.5470 
 16 C       -3.5310    -2.7890     0.2030 C.ar  1 <1>   0.0820 
 17 C        4.1530    -1.1490    -2.6860 C.3   1 <1>  -0.2400 
 18 C       -3.5990    -0.7120    -2.8270 C.2   1 <1>   0.5690 
 19 O       -4.5850    -3.5180    -0.2660 O.3   1 <1>  -0.3630 
 20 O       -4.0700    -0.8890    -3.9200 O.2   1 <1>  -0.5700 
 21 C       -3.2440     0.6990    -2.4190 C.3   1 <1>  -0.1790 
 22 C       -5.3170    -4.3830     0.5750 C.3   1 <1>   0.0400 
 23 H        2.9620     0.1920     1.1900 H     1 <1>   0.0800 
 24 H        1.9370     1.4230     0.5050 H     1 <1>   0.0800 
 25 H        0.9200    -2.5760    -0.0010 H     1 <1>   0.0800 
 26 H        2.0610    -2.2230     1.2660 H     1 <1>   0.0800 
 27 H       -1.3260    -0.4970    -0.9260 H     1 <1>   0.1500 
 28 H       -1.5990    -2.2540     2.9220 H     1 <1>   0.1500 
 29 H        4.1380     0.5920    -0.7270 H     1 <1>   0.0800 
 30 H        2.7620     1.1790    -1.5960 H     1 <1>   0.0800 
 31 H        2.7690    -3.0380    -1.2220 H     1 <1>   0.0800 
 32 H        3.8070    -2.1620    -0.1480 H     1 <1>   0.0800 
 33 H       -3.4960    -3.5850     2.2060 H     1 <1>   0.1500 
 34 H        2.0690    -0.9310    -2.2820 H     1 <1>   0.0800 
 35 H       -3.9100    -2.6030    -2.3220 H     1 <1>   0.3700 
 36 H        5.0880    -1.1930    -2.1560 H     1 <1>   0.0800 
 37 H        4.1940    -0.3350    -3.3890 H     1 <1>   0.0800 
 38 H        4.0270    -2.0650    -3.2360 H     1 <1>   0.0800 
 39 H       -2.2010     0.8770    -2.5980 H     1 <1>   0.0800 
 40 H       -3.4710     0.8590    -1.3820 H     1 <1>   0.0800 
 41 H       -3.8170     1.3940    -3.0050 H     1 <1>   0.0800 
 42 H       -6.1140    -4.8140    -0.0040 H     1 <1>   0.0800 
 43 H       -5.7270    -3.8150     1.3910 H     1 <1>   0.0800 
 44 H       -4.6650    -5.1610     0.9320 H     1 <1>   0.0800 
@<TRIPOS>BOND
  1   1   2  2   
  2   1   3  2   
  3   1   4  am  
  4   1   5  1   
  5   4   6  1   
  6   4   7  1   
  7   5   8  ar  
  8   5   9  ar  
  9   6  10  1   
 10   6  23  1   
 11   6  24  1   
 12   7  11  1   
 13   7  25  1   
 14   7  26  1   
 15   8  12  ar  
 16   8  27  1   
 17   9  13  ar  
 18   9  28  1   
 19  10  14  1   
 20  10  29  1   
 21  10  30  1   
 22  11  14  1   
 23  11  31  1   
 24  11  32  1   
 25  12  15  1   
 26  12  16  ar  
 27  13  16  ar  
 28  13  33  1   
 29  14  17  1   
 30  14  34  1   
 31  15  18  am  
 32  15  35  1   
 33  16  19  1   
 34  17  36  1   
 35  17  37  1   
 36  17  38  1   
 37  18  20  2   
 38  18  21  1   
 39  19  22  1   
 40  21  39  1   
 41  21  40  1   
 42  21  41  1   
 43  22  42  1   
 44  22  43  1   
 45  22  44  1   
@<TRIPOS>SUBSTRUCTURE
  1 ****   8 GROUP 4 **** **** 0

# MOE 2024.06 (io_trps.svl 2023.06)
