@<TRIPOS>MOLECULE
NONAME
28 27 1 0 0 
SMALL
USER_CHARGES


@<TRIPOS>ATOM
  1 O        0.3870    -0.2930     0.5530 O.2   1 <1>  -0.5700 
  2 C        1.5210    -0.7240     0.6040 C.2   1 <1>   0.6160 
  3 N        1.6440    -1.9830     1.0940 N.am  1 <1>  -0.8000 
  4 C        2.6500     0.0530     0.1980 C.2   1 <1>   0.0790 
  5 C        2.6790     1.3140     0.8590 C.1   1 <1>   0.4920 
  6 C        3.6100    -0.3430    -0.7050 C.2   1 <1>  -0.0380 
  7 N        2.7790     2.3180     1.3950 N.1   1 <1>  -0.5570 
  8 N        4.7650     0.3160    -1.0740 N.pl3 1 <1>  -0.8690 
  9 C        3.4840    -1.6470    -1.4820 C.3   1 <1>  -0.1020 
 10 C        5.3280     1.6550    -0.6370 C.3   1 <1>   0.2700 
 11 C        6.8150     1.8600    -0.9720 C.2   1 <1>   0.6590 
 12 O        7.1440     2.6260    -1.8380 O.2   1 <1>  -0.5700 
 13 O        7.7440     1.1770    -0.3050 O.3   1 <1>  -0.4300 
 14 C        7.4840     0.2390     0.7140 C.3   1 <1>   0.1200 
 15 C        8.8230    -0.3030     1.2020 C.3   1 <1>  -0.2400 
 16 H        0.8020    -2.4630     1.4160 H     1 <1>   0.3700 
 17 H        2.5370    -2.4390     1.2800 H     1 <1>   0.3700 
 18 H        5.3110    -0.0720    -1.8590 H     1 <1>   0.4000 
 19 H        3.6840    -1.4720    -2.5250 H     1 <1>   0.0800 
 20 H        2.4990    -2.0730    -1.4220 H     1 <1>   0.0800 
 21 H        4.1950    -2.3650    -1.1140 H     1 <1>   0.0800 
 22 H        4.7690     2.4370    -1.1190 H     1 <1>   0.0800 
 23 H        5.2150     1.7750     0.4230 H     1 <1>   0.0800 
 24 H        6.9630     0.7340     1.5160 H     1 <1>   0.0800 
 25 H        6.8790    -0.5550     0.3110 H     1 <1>   0.0800 
 26 H        9.4270     0.4970     1.5920 H     1 <1>   0.0800 
 27 H        9.3450    -0.7830     0.3930 H     1 <1>   0.0800 
 28 H        8.6630    -1.0240     1.9830 H     1 <1>   0.0800 
@<TRIPOS>BOND
  1   1   2  2   
  2   2   3  am  
  3   2   4  1   
  4   3  16  1   
  5   3  17  1   
  6   4   5  1   
  7   4   6  2   
  8   5   7  3   
  9   6   8  1   
 10   6   9  1   
 11   8  10  1   
 12   8  18  1   
 13   9  19  1   
 14   9  20  1   
 15   9  21  1   
 16  10  11  1   
 17  10  22  1   
 18  10  23  1   
 19  11  12  2   
 20  11  13  1   
 21  13  14  1   
 22  14  15  1   
 23  14  24  1   
 24  14  25  1   
 25  15  26  1   
 26  15  27  1   
 27  15  28  1   
@<TRIPOS>SUBSTRUCTURE
  1 ****   8 GROUP 4 **** **** 0

# MOE 2024.06 (io_trps.svl 2023.06)
