@<TRIPOS>MOLECULE
NONAME
52 53 1 0 0 
SMALL
USER_CHARGES


@<TRIPOS>ATOM
  1 O        3.4480    -7.2530    -0.3680 O.3   1 <1>  -0.3630 
  2 C        4.8020    -7.1100    -0.3620 C.ar  1 <1>   0.0830 
  3 C        2.8190    -8.4600    -0.0330 C.3   1 <1>   0.1200 
  4 C        5.3290    -5.8400    -0.6030 C.ar  1 <1>   0.0820 
  5 C        5.6690    -8.1720    -0.1270 C.ar  1 <1>  -0.1500 
  6 C        1.3160    -8.1970    -0.0850 C.3   1 <1>  -0.1600 
  7 O        4.4490    -4.8200    -0.8300 O.3   1 <1>  -0.3630 
  8 C        6.7080    -5.6570    -0.6010 C.ar  1 <1>  -0.1500 
  9 C        7.0370    -7.9690    -0.1310 C.ar  1 <1>  -0.1500 
 10 C        0.5260    -9.4440     0.3010 C.3   1 <1>   0.3430 
 11 C        4.8890    -3.5090    -1.1030 C.3   1 <1>   0.0400 
 12 C        7.5860    -6.7110    -0.3650 C.ar  1 <1>   0.0280 
 13 N       -0.9330    -9.1760     0.1760 N.4   1 <1>  -0.9590 
 14 C        9.0150    -6.4780    -0.3720 C.2   1 <1>  -0.1780 
 15 C       -1.4440    -8.2910     1.2570 C.3   1 <1>   0.3430 
 16 C       -1.7130   -10.4420     0.1440 C.3   1 <1>   0.3430 
 17 C       10.0010    -7.3180    -0.0140 C.2   1 <1>  -0.2880 
 18 C       -2.3800    -7.2330     0.6720 C.3   1 <1>  -0.1600 
 19 C       -3.0310   -10.2560    -0.6140 C.3   1 <1>  -0.1600 
 20 C       11.4790    -6.9790    -0.0590 C.3   1 <1>  -0.1020 
 21 C       -3.3890    -7.7250    -0.3820 C.3   1 <1>  -0.1600 
 22 C       -3.9530    -9.1290    -0.1130 C.3   1 <1>  -0.1600 
 23 H        3.1150    -9.2050    -0.7520 H     1 <1>   0.0800 
 24 H        3.1370    -8.7400     0.9570 H     1 <1>   0.0800 
 25 H        5.3060    -9.1640     0.0570 H     1 <1>   0.1500 
 26 H        1.0970    -7.3900     0.5910 H     1 <1>   0.0800 
 27 H        1.0600    -7.9010    -1.0870 H     1 <1>   0.0800 
 28 H        7.1290    -4.6890    -0.7820 H     1 <1>   0.1500 
 29 H        7.6850    -8.8050     0.0490 H     1 <1>   0.1500 
 30 H        0.7650    -9.7400     1.3100 H     1 <1>   0.0800 
 31 H        0.8030   -10.2470    -0.3630 H     1 <1>   0.0800 
 32 H        4.0220    -2.8920    -1.2550 H     1 <1>   0.0800 
 33 H        5.4900    -3.5210    -1.9950 H     1 <1>   0.0800 
 34 H        5.4520    -3.1470    -0.2610 H     1 <1>   0.0800 
 35 H       -1.1020    -8.6890    -0.7140 H     1 <1>   0.4500 
 36 H        9.2810    -5.4930    -0.7140 H     1 <1>   0.1500 
 37 H       -1.9780    -8.8780     1.9860 H     1 <1>   0.0800 
 38 H       -0.6300    -7.7970     1.7630 H     1 <1>   0.0800 
 39 H       -1.1420   -11.2090    -0.3540 H     1 <1>   0.0800 
 40 H       -1.9130   -10.7770     1.1490 H     1 <1>   0.0800 
 41 H        9.8220    -8.3170     0.3440 H     1 <1>   0.1500 
 42 H       -2.9280    -6.8050     1.4950 H     1 <1>   0.0800 
 43 H       -1.7930    -6.4360     0.2510 H     1 <1>   0.0800 
 44 H       -2.8190   -10.1110    -1.6590 H     1 <1>   0.0800 
 45 H       -3.5740   -11.1830    -0.5420 H     1 <1>   0.0800 
 46 H       11.9920    -7.6600    -0.7140 H     1 <1>   0.0800 
 47 H       11.9040    -7.0590     0.9260 H     1 <1>   0.0800 
 48 H       11.6320    -5.9770    -0.4180 H     1 <1>   0.0800 
 49 H       -4.2090    -7.0250    -0.4030 H     1 <1>   0.0800 
 50 H       -2.9440    -7.6980    -1.3620 H     1 <1>   0.0800 
 51 H       -4.8860    -9.2140    -0.6470 H     1 <1>   0.0800 
 52 H       -4.1830    -9.2540     0.9320 H     1 <1>   0.0800 
@<TRIPOS>BOND
  1   1   2  1   
  2   1   3  1   
  3   2   4  ar  
  4   2   5  ar  
  5   3   6  1   
  6   3  23  1   
  7   3  24  1   
  8   4   7  1   
  9   4   8  ar  
 10   5   9  ar  
 11   5  25  1   
 12   6  10  1   
 13   6  26  1   
 14   6  27  1   
 15   7  11  1   
 16   8  12  ar  
 17   8  28  1   
 18   9  12  ar  
 19   9  29  1   
 20  10  13  1   
 21  10  30  1   
 22  10  31  1   
 23  11  32  1   
 24  11  33  1   
 25  11  34  1   
 26  12  14  1   
 27  13  15  1   
 28  13  16  1   
 29  13  35  1   
 30  14  17  2   
 31  14  36  1   
 32  15  18  1   
 33  15  37  1   
 34  15  38  1   
 35  16  19  1   
 36  16  39  1   
 37  16  40  1   
 38  17  20  1   
 39  17  41  1   
 40  18  21  1   
 41  18  42  1   
 42  18  43  1   
 43  19  22  1   
 44  19  44  1   
 45  19  45  1   
 46  20  46  1   
 47  20  47  1   
 48  20  48  1   
 49  21  22  1   
 50  21  49  1   
 51  21  50  1   
 52  22  51  1   
 53  22  52  1   
@<TRIPOS>SUBSTRUCTURE
  1 ****   1 GROUP 4 **** **** 0

# MOE 2024.06 (io_trps.svl 2023.06)
