@<TRIPOS>MOLECULE
NONAME
36 36 1 0 0 
SMALL
USER_CHARGES


@<TRIPOS>ATOM
  1 O       -0.7620    -0.4510    -1.8030 O.2   1 <1>  -0.5700 
  2 C       -1.0920    -1.1670    -0.8770 C.2   1 <1>   0.5440 
  3 N       -0.1460    -1.9630    -0.2910 N.am  1 <1>  -0.7300 
  4 C       -2.4600    -1.1630    -0.3900 C.ar  1 <1>   0.0860 
  5 C        1.2890    -2.0100    -0.6600 C.3   1 <1>   0.1400 
  6 C       -3.2630    -0.0310    -0.5280 C.ar  1 <1>  -0.1500 
  7 C       -3.0260    -2.2750     0.2320 C.ar  1 <1>  -0.1500 
  8 C        2.1730    -1.7790     0.5770 C.3   1 <1>  -0.0800 
  9 C       -4.5740     0.0180    -0.0630 C.ar  1 <1>   0.0830 
 10 C       -4.3230    -2.2450     0.7060 C.ar  1 <1>  -0.1500 
 11 C        1.9430    -0.3910     1.1950 C.3   1 <1>  -0.2400 
 12 C        3.6520    -1.9320     0.2000 C.3   1 <1>  -0.2400 
 13 O       -5.3280     1.1460    -0.2230 O.3   1 <1>  -0.3630 
 14 C       -5.1120    -1.1150     0.5750 C.ar  1 <1>   0.0830 
 15 C       -4.8930     2.2440    -0.9970 C.3   1 <1>   0.0400 
 16 O       -6.3620    -1.2490     1.1000 O.3   1 <1>  -0.3630 
 17 C       -7.3260    -0.2210     1.1170 C.3   1 <1>   0.0400 
 18 H       -0.3910    -2.4770     0.5540 H     1 <1>   0.3700 
 19 H        1.5040    -1.2620    -1.4050 H     1 <1>   0.0800 
 20 H        1.5030    -2.9750    -1.0870 H     1 <1>   0.0800 
 21 H       -2.8160     0.8150    -1.0150 H     1 <1>   0.1500 
 22 H       -2.4530    -3.1770     0.3410 H     1 <1>   0.1500 
 23 H        1.9390    -2.5320     1.3110 H     1 <1>   0.0800 
 24 H       -4.7420    -3.1120     1.1850 H     1 <1>   0.1500 
 25 H        2.1400     0.3800     0.4700 H     1 <1>   0.0800 
 26 H        2.5910    -0.2430     2.0400 H     1 <1>   0.0800 
 27 H        0.9270    -0.2870     1.5300 H     1 <1>   0.0800 
 28 H        3.9340    -1.1970    -0.5330 H     1 <1>   0.0800 
 29 H        3.8370    -2.9110    -0.2070 H     1 <1>   0.0800 
 30 H        4.2740    -1.8060     1.0680 H     1 <1>   0.0800 
 31 H       -5.6890     2.9650    -1.0310 H     1 <1>   0.0800 
 32 H       -4.6660     1.9030    -1.9920 H     1 <1>   0.0800 
 33 H       -4.0270     2.6800    -0.5310 H     1 <1>   0.0800 
 34 H       -8.2040    -0.5940     1.6130 H     1 <1>   0.0800 
 35 H       -7.5640     0.0490     0.1040 H     1 <1>   0.0800 
 36 H       -6.9290     0.6200     1.6570 H     1 <1>   0.0800 
@<TRIPOS>BOND
  1   1   2  2   
  2   2   3  am  
  3   2   4  1   
  4   3   5  1   
  5   3  18  1   
  6   4   6  ar  
  7   4   7  ar  
  8   5   8  1   
  9   5  19  1   
 10   5  20  1   
 11   6   9  ar  
 12   6  21  1   
 13   7  10  ar  
 14   7  22  1   
 15   8  11  1   
 16   8  12  1   
 17   8  23  1   
 18   9  13  1   
 19   9  14  ar  
 20  10  14  ar  
 21  10  24  1   
 22  11  25  1   
 23  11  26  1   
 24  11  27  1   
 25  12  28  1   
 26  12  29  1   
 27  12  30  1   
 28  13  15  1   
 29  14  16  1   
 30  15  31  1   
 31  15  32  1   
 32  15  33  1   
 33  16  17  1   
 34  17  34  1   
 35  17  35  1   
 36  17  36  1   
@<TRIPOS>SUBSTRUCTURE
  1 ****   4 GROUP 4 **** **** 0

# MOE 2024.06 (io_trps.svl 2023.06)
