@<TRIPOS>MOLECULE
NONAME
30 31 1 0 0 
SMALL
USER_CHARGES


@<TRIPOS>ATOM
  1 S       -0.0980    -0.0680     0.2930 S.3   1 <1>  -0.3320 
  2 C       -1.5510     0.9570     0.1260 C.ar  1 <1>   0.7220 
  3 C       -0.7060    -1.8050     0.1140 C.3   1 <1>  -0.0100 
  4 N       -1.3430     2.2360     0.2350 N.ar  1 <1>  -0.6200 
  5 N       -2.6710     0.3350    -0.0950 N.ar  1 <1>  -0.6200 
  6 C       -2.4450     2.9390     0.1020 C.ar  1 <1>   0.7030 
  7 C       -3.6810     1.1510    -0.2090 C.ar  1 <1>   0.7200 
  8 O       -2.3960     4.2730     0.1960 O.3   1 <1>  -0.1650 
  9 N       -3.6370     2.4550    -0.1270 N.ar  1 <1>  -0.6200 
 10 N       -4.8670     0.5570    -0.4430 N.pl3 1 <1>  -0.8690 
 11 C       -1.2520     5.0010     0.2760 C.ar  1 <1>   0.3930 
 12 C       -6.1810     1.2140    -0.5570 C.3   1 <1>   0.2090 
 13 N       -1.1870     5.8530     1.2940 N.ar  1 <1>  -0.3100 
 14 C       -0.2680     4.8730    -0.6940 C.ar  1 <1>  -0.1500 
 15 C       -7.2400     0.2560    -0.0290 C.3   1 <1>  -0.2400 
 16 N       -0.1340     6.6300     1.4150 N.ar  1 <1>  -0.3100 
 17 C        0.8280     5.6780    -0.5720 C.ar  1 <1>  -0.1500 
 18 C        0.8660     6.5600     0.5040 C.ar  1 <1>   0.1390 
 19 O        1.8580     7.3160     0.6260 O.3   1 <1>  -0.8290 
 20 H        0.1400    -2.4610     0.2130 H     1 <1>   0.0800 
 21 H       -1.1550    -1.8990    -0.8590 H     1 <1>   0.0800 
 22 H       -1.4270    -1.9850     0.8910 H     1 <1>   0.0800 
 23 H       -4.8460    -0.4580    -0.5220 H     1 <1>   0.4000 
 24 H       -6.3730     1.4520    -1.5890 H     1 <1>   0.0800 
 25 H       -6.1930     2.1270     0.0160 H     1 <1>   0.0800 
 26 H       -0.3650     4.1770    -1.5030 H     1 <1>   0.1500 
 27 H       -7.2560    -0.6460    -0.6130 H     1 <1>   0.0800 
 28 H       -8.2080     0.7200    -0.0920 H     1 <1>   0.0800 
 29 H       -7.0440     0.0180     1.0010 H     1 <1>   0.0800 
 30 H        1.6540     5.6710    -1.2540 H     1 <1>   0.1500 
@<TRIPOS>BOND
  1   1   2  1   
  2   1   3  1   
  3   2   4  ar  
  4   2   5  ar  
  5   3  20  1   
  6   3  21  1   
  7   3  22  1   
  8   4   6  ar  
  9   5   7  ar  
 10   6   8  1   
 11   6   9  ar  
 12   7   9  ar  
 13   7  10  1   
 14   8  11  1   
 15  10  12  1   
 16  10  23  1   
 17  11  13  ar  
 18  11  14  ar  
 19  12  15  1   
 20  12  24  1   
 21  12  25  1   
 22  13  16  ar  
 23  14  17  ar  
 24  14  26  1   
 25  15  27  1   
 26  15  28  1   
 27  15  29  1   
 28  16  18  ar  
 29  17  18  ar  
 30  17  30  1   
 31  18  19  1   
@<TRIPOS>SUBSTRUCTURE
  1 ****   6 GROUP 4 **** **** 0

# MOE 2024.06 (io_trps.svl 2023.06)
