@<TRIPOS>MOLECULE
NONAME
36 37 1 0 0 
SMALL
USER_CHARGES


@<TRIPOS>ATOM
  1 S        0.2810    -0.0740     2.0530 S.o2  1 <1>   1.4470 
  2 O        0.4770     1.1100     2.8610 O.2   1 <1>  -0.6500 
  3 O        0.4600    -1.3880     2.6310 O.2   1 <1>  -0.6500 
  4 N        1.3640     0.0390     0.7520 N.am  1 <1>  -0.8490 
  5 C       -1.3610     0.0040     1.2780 C.ar  1 <1>  -0.0090 
  6 C        1.3330    -1.1070    -0.1670 C.3   1 <1>   0.1960 
  7 C        1.3100     1.3140     0.0240 C.3   1 <1>   0.1960 
  8 C       -2.0200    -1.1470     0.8610 C.ar  1 <1>  -0.1500 
  9 C       -1.9960     1.2210     1.0570 C.ar  1 <1>  -0.1500 
 10 C        2.4120    -0.9650    -1.2570 C.3   1 <1>   0.1200 
 11 C        2.3880     1.3670    -1.0740 C.3   1 <1>   0.1200 
 12 C       -3.2530    -1.0850     0.2360 C.ar  1 <1>  -0.1500 
 13 C       -3.2280     1.2880     0.4330 C.ar  1 <1>  -0.1500 
 14 O        2.2770     0.2590    -1.9230 O.3   1 <1>  -0.5600 
 15 C       -3.8750     0.1350     0.0040 C.ar  1 <1>   0.1170 
 16 N       -5.1230     0.1560    -0.6300 N.am  1 <1>  -0.5470 
 17 C       -5.7190     1.1360    -1.3780 C.2   1 <1>   0.7800 
 18 O       -5.1760     2.1790    -1.6660 O.2   1 <1>  -0.5700 
 19 O       -6.9610     0.9390    -1.8240 O.3   1 <1>  -0.4300 
 20 C       -7.7690    -0.1750    -1.5050 C.3   1 <1>   0.0400 
 21 H        0.3700    -1.1800    -0.6420 H     1 <1>   0.0800 
 22 H        1.5110    -2.0160     0.3820 H     1 <1>   0.0800 
 23 H        1.4710     2.1290     0.7100 H     1 <1>   0.0800 
 24 H        0.3450     1.4440    -0.4350 H     1 <1>   0.0800 
 25 H       -1.5600    -2.1070     1.0310 H     1 <1>   0.1500 
 26 H       -1.5210     2.1330     1.3810 H     1 <1>   0.1500 
 27 H        2.3130    -1.7500    -1.9850 H     1 <1>   0.0800 
 28 H        3.3950    -1.0160    -0.8220 H     1 <1>   0.0800 
 29 H        3.3710     1.3710    -0.6360 H     1 <1>   0.0800 
 30 H        2.2700     2.2530    -1.6710 H     1 <1>   0.0800 
 31 H       -3.7320    -1.9960    -0.0760 H     1 <1>   0.1500 
 32 H       -3.6880     2.2490     0.2830 H     1 <1>   0.1500 
 33 H       -5.6510    -0.7070    -0.5960 H     1 <1>   0.3700 
 34 H       -8.7330    -0.0270    -1.9600 H     1 <1>   0.0800 
 35 H       -7.8810    -0.2360    -0.4360 H     1 <1>   0.0800 
 36 H       -7.3160    -1.0670    -1.9020 H     1 <1>   0.0800 
@<TRIPOS>BOND
  1   1   2  2   
  2   1   3  2   
  3   1   4  am  
  4   1   5  1   
  5   4   6  1   
  6   4   7  1   
  7   5   8  ar  
  8   5   9  ar  
  9   6  10  1   
 10   6  21  1   
 11   6  22  1   
 12   7  11  1   
 13   7  23  1   
 14   7  24  1   
 15   8  12  ar  
 16   8  25  1   
 17   9  13  ar  
 18   9  26  1   
 19  10  14  1   
 20  10  27  1   
 21  10  28  1   
 22  11  14  1   
 23  11  29  1   
 24  11  30  1   
 25  12  15  ar  
 26  12  31  1   
 27  13  15  ar  
 28  13  32  1   
 29  15  16  1   
 30  16  17  am  
 31  16  33  1   
 32  17  18  2   
 33  17  19  1   
 34  19  20  1   
 35  20  34  1   
 36  20  35  1   
 37  20  36  1   
@<TRIPOS>SUBSTRUCTURE
  1 ****   5 GROUP 4 **** **** 0

# MOE 2024.06 (io_trps.svl 2023.06)
