@<TRIPOS>MOLECULE
NONAME
40 44 1 0 0 
SMALL
USER_CHARGES


@<TRIPOS>ATOM
  1 S       -0.1620     0.4310    -0.4610 S.3   1 <1>  -0.3710 
  2 C       -1.7160    -0.3770    -0.3010 C.2   1 <1>   0.6510 
  3 C        0.8310    -1.1130    -0.4890 C.3   1 <1>   0.0700 
  4 N       -2.8120     0.2700    -0.1900 N.2   1 <1>  -0.6210 
  5 N       -1.5640    -1.7160    -0.3260 N.am  1 <1>  -0.4200 
  6 C       -0.1970    -2.2540    -0.5690 C.3   1 <1>   0.1400 
  7 C       -3.9630    -0.4720    -0.0570 C.2   1 <1>   0.1430 
  8 C       -2.6800    -2.4980    -0.2470 C.2   1 <1>   0.6160 
  9 C       -5.2080     0.2730    -0.0160 C.ar  1 <1>   0.0280 
 10 C       -3.9290    -1.8460     0.0000 C.2   1 <1>  -0.1240 
 11 O       -2.5350    -3.6960    -0.4470 O.2   1 <1>  -0.5700 
 12 C       -6.3580    -0.3370     0.4780 C.ar  1 <1>  -0.1430 
 13 C       -5.3230     1.5840    -0.4820 C.ar  1 <1>  -0.1500 
 14 C       -5.2390    -2.6360     0.2590 C.3   1 <1>   0.1380 
 15 C       -7.5730     0.3280     0.4920 C.ar  1 <1>  -0.1500 
 16 C       -6.2450    -1.7420     1.0330 C.3   1 <1>  -0.0160 
 17 C       -6.5330     2.2530    -0.4680 C.ar  1 <1>  -0.1500 
 18 C       -5.8490    -3.0970    -1.0710 C.3   1 <1>  -0.1600 
 19 C       -5.1450    -3.9580     1.0540 C.3   1 <1>  -0.1600 
 20 C       -7.6630     1.6240     0.0170 C.ar  1 <1>  -0.1500 
 21 C       -6.7770    -4.2740    -0.7450 C.3   1 <1>  -0.1600 
 22 C       -6.3740    -4.7780     0.6460 C.3   1 <1>  -0.1600 
 23 H        1.3990    -1.1490     0.4230 H     1 <1>   0.0800 
 24 H        1.4840    -1.0840    -1.3430 H     1 <1>   0.0800 
 25 H        0.0290    -3.0140     0.1580 H     1 <1>   0.0800 
 26 H       -0.1720    -2.7010    -1.5480 H     1 <1>   0.0800 
 27 H       -4.4530     2.0850    -0.8670 H     1 <1>   0.1500 
 28 H       -8.4540    -0.1540     0.8760 H     1 <1>   0.1500 
 29 H       -7.2200    -2.1950     1.0550 H     1 <1>   0.0800 
 30 H       -5.9150    -1.6470     2.0520 H     1 <1>   0.0800 
 31 H       -6.5920     3.2620    -0.8360 H     1 <1>   0.1500 
 32 H       -5.0620    -3.4530    -1.7140 H     1 <1>   0.0800 
 33 H       -6.3680    -2.3030    -1.5790 H     1 <1>   0.0800 
 34 H       -5.1030    -3.8040     2.1180 H     1 <1>   0.0800 
 35 H       -4.2920    -4.5420     0.7820 H     1 <1>   0.0800 
 36 H       -8.6070     2.1410     0.0280 H     1 <1>   0.1500 
 37 H       -6.6700    -5.0510    -1.4830 H     1 <1>   0.0800 
 38 H       -7.8030    -3.9480    -0.7340 H     1 <1>   0.0800 
 39 H       -7.1780    -4.6110     1.3410 H     1 <1>   0.0800 
 40 H       -6.1470    -5.8300     0.6300 H     1 <1>   0.0800 
@<TRIPOS>BOND
  1   1   2  1   
  2   1   3  1   
  3   2   4  2   
  4   2   5  1   
  5   3   6  1   
  6   3  23  1   
  7   3  24  1   
  8   4   7  1   
  9   5   6  1   
 10   5   8  am  
 11   6  25  1   
 12   6  26  1   
 13   7   9  1   
 14   7  10  2   
 15   8  10  1   
 16   8  11  2   
 17   9  12  ar  
 18   9  13  ar  
 19  10  14  1   
 20  12  15  ar  
 21  12  16  1   
 22  13  17  ar  
 23  13  27  1   
 24  14  16  1   
 25  14  18  1   
 26  14  19  1   
 27  15  20  ar  
 28  15  28  1   
 29  16  29  1   
 30  16  30  1   
 31  17  20  ar  
 32  17  31  1   
 33  18  21  1   
 34  18  32  1   
 35  18  33  1   
 36  19  22  1   
 37  19  34  1   
 38  19  35  1   
 39  20  36  1   
 40  21  22  1   
 41  21  37  1   
 42  21  38  1   
 43  22  39  1   
 44  22  40  1   
@<TRIPOS>SUBSTRUCTURE
  1 ****  10 GROUP 4 **** **** 0

# MOE 2024.06 (io_trps.svl 2023.06)
