@<TRIPOS>MOLECULE
NONAME
37 37 1 0 0 
SMALL
USER_CHARGES


@<TRIPOS>ATOM
  1 O        0.1460     0.3590    -1.2630 O.2   1 <1>  -0.5700 
  2 C        0.0850     1.0730    -0.2820 C.2   1 <1>   0.6900 
  3 N        1.2060     1.4710     0.3830 N.am  1 <1>  -0.5470 
  4 N       -1.1030     1.5230     0.1990 N.am  1 <1>  -0.7300 
  5 C        2.5470     1.0870     0.2310 C.ar  1 <1>   0.1170 
  6 C       -2.4520     1.2890    -0.3230 C.3   1 <1>   0.3000 
  7 C        3.5470     1.9710     0.6190 C.ar  1 <1>  -0.1500 
  8 C        2.9220    -0.1550    -0.2730 C.ar  1 <1>  -0.1500 
  9 C       -2.5650     1.8330    -1.7480 C.3   1 <1>  -0.2400 
 10 C       -3.4080     2.0550     0.5900 C.3   1 <1>  -0.2400 
 11 C       -2.7800    -0.2040    -0.2660 C.3   1 <1>  -0.2400 
 12 C        4.8850     1.6340     0.5060 C.ar  1 <1>  -0.1500 
 13 C        4.2570    -0.4980    -0.3880 C.ar  1 <1>  -0.1500 
 14 C        5.2470     0.3900    -0.0020 C.ar  1 <1>   0.0830 
 15 O        6.5330    -0.0270    -0.1480 O.3   1 <1>  -0.3620 
 16 C        7.6100     0.8190     0.1800 C.3   1 <1>   0.1200 
 17 C        8.9050     0.0690    -0.1170 C.3   1 <1>  -0.2400 
 18 H        1.0510     2.2520     1.0080 H     1 <1>   0.3700 
 19 H       -1.1070     1.9490     1.1190 H     1 <1>   0.3700 
 20 H        3.2800     2.9360     1.0090 H     1 <1>   0.1500 
 21 H        2.1700    -0.8600    -0.5760 H     1 <1>   0.1500 
 22 H       -1.9330     1.2810    -2.4180 H     1 <1>   0.0800 
 23 H       -2.2830     2.8700    -1.7790 H     1 <1>   0.0800 
 24 H       -3.5760     1.7430    -2.1010 H     1 <1>   0.0800 
 25 H       -3.1830     3.1070     0.5750 H     1 <1>   0.0800 
 26 H       -3.3430     1.6910     1.6000 H     1 <1>   0.0800 
 27 H       -4.4210     1.9260     0.2540 H     1 <1>   0.0800 
 28 H       -2.6560    -0.5810     0.7330 H     1 <1>   0.0800 
 29 H       -2.1410    -0.7580    -0.9290 H     1 <1>   0.0800 
 30 H       -3.7970    -0.3720    -0.5720 H     1 <1>   0.0800 
 31 H        5.6240     2.3470     0.8160 H     1 <1>   0.1500 
 32 H        4.5380    -1.4580    -0.7810 H     1 <1>   0.1500 
 33 H        7.5450     1.0650     1.2260 H     1 <1>   0.0800 
 34 H        7.5400     1.7090    -0.4210 H     1 <1>   0.0800 
 35 H        8.9570    -0.8270     0.4750 H     1 <1>   0.0800 
 36 H        9.7490     0.6900     0.1230 H     1 <1>   0.0800 
 37 H        8.9520    -0.1870    -1.1600 H     1 <1>   0.0800 
@<TRIPOS>BOND
  1   1   2  2   
  2   2   3  am  
  3   2   4  am  
  4   3   5  1   
  5   3  18  1   
  6   4   6  1   
  7   4  19  1   
  8   5   7  ar  
  9   5   8  ar  
 10   6   9  1   
 11   6  10  1   
 12   6  11  1   
 13   7  12  ar  
 14   7  20  1   
 15   8  13  ar  
 16   8  21  1   
 17   9  22  1   
 18   9  23  1   
 19   9  24  1   
 20  10  25  1   
 21  10  26  1   
 22  10  27  1   
 23  11  28  1   
 24  11  29  1   
 25  11  30  1   
 26  12  14  ar  
 27  12  31  1   
 28  13  14  ar  
 29  13  32  1   
 30  14  15  1   
 31  15  16  1   
 32  16  17  1   
 33  16  33  1   
 34  16  34  1   
 35  17  35  1   
 36  17  36  1   
 37  17  37  1   
@<TRIPOS>SUBSTRUCTURE
  1 ****   5 GROUP 4 **** **** 0

# MOE 2024.06 (io_trps.svl 2023.06)
