@<TRIPOS>MOLECULE
NONAME
27 27 1 0 0 
SMALL
USER_CHARGES


@<TRIPOS>ATOM
  1 I        0.4630    -0.5600    -3.1530 I     1 <1>  -0.0810 
  2 C        1.7820    -1.1600    -1.5810 C.ar  1 <1>   0.0810 
  3 C        1.4700    -2.2540    -0.7800 C.ar  1 <1>   0.0830 
  4 C        2.9340    -0.4150    -1.4120 C.ar  1 <1>  -0.1500 
  5 O        0.3180    -2.9390    -1.0060 O.3   1 <1>  -0.3630 
  6 C        2.3730    -2.5890     0.2240 C.ar  1 <1>  -0.1500 
  7 C        3.8350    -0.7530    -0.4090 C.ar  1 <1>  -0.0090 
  8 C       -0.0530    -4.0490    -0.2180 C.3   1 <1>   0.0400 
  9 C        3.5310    -1.8460     0.3980 C.ar  1 <1>  -0.1500 
 10 S        5.3610     0.1940    -0.1560 S.o2  1 <1>   1.4470 
 11 O        5.5570     1.1400    -1.2290 O.2   1 <1>  -0.6500 
 12 O        5.4580     0.6170     1.2220 O.2   1 <1>  -0.6500 
 13 N        6.5630    -0.9470    -0.4100 N.am  1 <1>  -0.9140 
 14 C        7.8260    -0.5750     0.1920 C.3   1 <1>   0.1960 
 15 C        8.8720    -1.5940    -0.2370 C.3   1 <1>  -0.2400 
 16 H        3.1320     0.4250    -2.0570 H     1 <1>   0.1500 
 17 H        2.1950    -3.4210     0.8790 H     1 <1>   0.1500 
 18 H       -0.9950    -4.4160    -0.5840 H     1 <1>   0.0800 
 19 H       -0.1560    -3.7330     0.8040 H     1 <1>   0.0800 
 20 H        0.6990    -4.8130    -0.3140 H     1 <1>   0.0800 
 21 H        4.2210    -2.1190     1.1810 H     1 <1>   0.1500 
 22 H        6.7020    -0.9220    -1.4180 H     1 <1>   0.4200 
 23 H        7.7330    -0.5750     1.2670 H     1 <1>   0.0800 
 24 H        8.1160     0.4140    -0.1300 H     1 <1>   0.0800 
 25 H        8.5830    -2.5790     0.0850 H     1 <1>   0.0800 
 26 H        9.8160    -1.3530     0.2170 H     1 <1>   0.0800 
 27 H        8.9960    -1.5850    -1.3040 H     1 <1>   0.0800 
@<TRIPOS>BOND
  1   1   2  1   
  2   2   3  ar  
  3   2   4  ar  
  4   3   5  1   
  5   3   6  ar  
  6   4   7  ar  
  7   4  16  1   
  8   5   8  1   
  9   6   9  ar  
 10   6  17  1   
 11   7   9  ar  
 12   7  10  1   
 13   8  18  1   
 14   8  19  1   
 15   8  20  1   
 16   9  21  1   
 17  10  11  2   
 18  10  12  2   
 19  10  13  am  
 20  13  14  1   
 21  13  22  1   
 22  14  15  1   
 23  14  23  1   
 24  14  24  1   
 25  15  25  1   
 26  15  26  1   
 27  15  27  1   
@<TRIPOS>SUBSTRUCTURE
  1 ****   7 GROUP 4 **** **** 0

# MOE 2024.06 (io_trps.svl 2023.06)
