@<TRIPOS>MOLECULE
NONAME
33 35 1 0 0 
SMALL
USER_CHARGES


@<TRIPOS>ATOM
  1 BR       0.2450     0.3950    -1.5200 Br    1 <1>  -0.1110 
  2 C        1.5910     1.3560    -0.5200 C.ar  1 <1>   0.1110 
  3 C        1.4600     2.7260    -0.3000 C.ar  1 <1>   0.1170 
  4 C        2.6810     0.6330    -0.0720 C.ar  1 <1>  -0.1500 
  5 N        0.3710     3.4930    -0.7250 N.am  1 <1>  -0.5470 
  6 C        2.4900     3.3670     0.3770 C.ar  1 <1>  -0.1500 
  7 C        3.6890     1.2940     0.6120 C.ar  1 <1>  -0.1500 
  8 C       -0.9060     3.4460    -0.2470 C.2   1 <1>   0.5690 
  9 C        3.5920     2.6600     0.8300 C.ar  1 <1>  -0.1500 
 10 O       -1.2740     2.5430     0.4690 O.2   1 <1>  -0.5700 
 11 C       -1.9280     4.5130    -0.6880 C.3   1 <1>  -0.0190 
 12 C       -1.4030     6.1450    -0.8480 C.3   1 <1>  -0.1860 
 13 C       -3.3040     4.5690     0.2470 C.3   1 <1>   0.0580 
 14 C        0.0540     6.3820    -0.4920 C.2   1 <1>   0.9060 
 15 C       -2.4880     7.0800    -0.0140 C.3   1 <1>   0.0580 
 16 C       -4.3500     5.6400     0.8570 C.2   1 <1>  -0.2880 
 17 C       -2.7880     5.7840     0.0670 C.3   1 <1>  -0.1600 
 18 O        0.3890     6.7300     0.6400 O.co2 1 <1>  -0.9000 
 19 O        0.8870     6.1090    -1.3630 O.co2 1 <1>  -0.9000 
 20 C       -3.9220     6.9540     0.7210 C.2   1 <1>  -0.2880 
 21 H        2.7390    -0.4240    -0.2580 H     1 <1>   0.1500 
 22 H        0.6470     4.4070    -1.1370 H     1 <1>   0.3700 
 23 H        2.4120     4.4300     0.5470 H     1 <1>   0.1500 
 24 H        4.5460     0.7500     0.9700 H     1 <1>   0.1500 
 25 H        4.3730     3.1810     1.3560 H     1 <1>   0.1500 
 26 H       -2.2220     4.1800    -1.6720 H     1 <1>   0.0800 
 27 H       -1.4670     6.4150    -1.8910 H     1 <1>   0.0800 
 28 H       -3.0540     4.0000     1.1320 H     1 <1>   0.0800 
 29 H       -1.8910     7.5620     0.7490 H     1 <1>   0.0800 
 30 H       -5.2550     5.2690     1.3070 H     1 <1>   0.1500 
 31 H       -2.2120     5.7040     1.0780 H     1 <1>   0.0800 
 32 H       -3.4370     5.8880    -0.9590 H     1 <1>   0.0800 
 33 H       -4.4100     7.8590     1.0400 H     1 <1>   0.1500 
@<TRIPOS>BOND
  1   1   2  1   
  2   2   3  ar  
  3   2   4  ar  
  4   3   5  1   
  5   3   6  ar  
  6   4   7  ar  
  7   4  21  1   
  8   5   8  am  
  9   5  22  1   
 10   6   9  ar  
 11   6  23  1   
 12   7   9  ar  
 13   7  24  1   
 14   8  10  2   
 15   8  11  1   
 16   9  25  1   
 17  11  12  1   
 18  11  13  1   
 19  11  26  1   
 20  12  14  1   
 21  12  15  1   
 22  12  27  1   
 23  13  16  1   
 24  13  17  1   
 25  13  28  1   
 26  14  18  ar  
 27  14  19  ar  
 28  15  17  1   
 29  15  20  1   
 30  15  29  1   
 31  16  20  2   
 32  16  30  1   
 33  17  31  1   
 34  17  32  1   
 35  20  33  1   
@<TRIPOS>SUBSTRUCTURE
  1 ****   8 GROUP 4 **** **** 0

# MOE 2024.06 (io_trps.svl 2023.06)
