@<TRIPOS>MOLECULE
NONAME
35 35 1 0 0 
SMALL
USER_CHARGES


@<TRIPOS>ATOM
  1 O        4.3010    -6.0430    -0.0170 O.3   1 <1>  -0.3630 
  2 C        5.5460    -5.4950    -0.0460 C.ar  1 <1>   0.0830 
  3 C        3.1440    -5.2490     0.0020 C.3   1 <1>   0.1200 
  4 C        6.6320    -6.3660    -0.0630 C.ar  1 <1>  -0.1440 
  5 C        5.7670    -4.1190    -0.0610 C.ar  1 <1>  -0.1500 
  6 C        1.9480    -6.2020     0.0330 C.3   1 <1>  -0.1600 
  7 C        7.9200    -5.8550    -0.0930 C.ar  1 <1>  -0.1500 
  8 C        6.4230    -7.8740    -0.0480 C.3   1 <1>  -0.0970 
  9 C        7.0570    -3.6210    -0.0910 C.ar  1 <1>  -0.1500 
 10 C        0.6350    -5.4300     0.0550 C.3   1 <1>   0.3430 
 11 C        8.1340    -4.4880    -0.1070 C.ar  1 <1>  -0.1500 
 12 N       -0.4890    -6.3980     0.0850 N.4   1 <1>  -0.9060 
 13 C       -1.8180    -5.7130     0.1080 C.3   1 <1>   0.3430 
 14 C       -2.9800    -6.7140     0.1390 C.3   1 <1>   0.1200 
 15 O       -4.1530    -5.9840     0.1580 O.3   1 <1>  -0.6800 
 16 H        3.1400    -4.6420    -0.8880 H     1 <1>   0.0800 
 17 H        3.1770    -4.6300     0.8820 H     1 <1>   0.0800 
 18 H        4.9570    -3.4170    -0.0490 H     1 <1>   0.1500 
 19 H        2.0280    -6.8140     0.9150 H     1 <1>   0.0800 
 20 H        1.9910    -6.8260    -0.8430 H     1 <1>   0.0800 
 21 H        8.7670    -6.5190    -0.1060 H     1 <1>   0.1500 
 22 H        5.8510    -8.1700    -0.9090 H     1 <1>   0.0800 
 23 H        5.8870    -8.1580     0.8400 H     1 <1>   0.0800 
 24 H        7.3610    -8.3970    -0.0640 H     1 <1>   0.0800 
 25 H        7.2260    -2.5580    -0.1020 H     1 <1>   0.1500 
 26 H        0.5640    -4.8080    -0.8230 H     1 <1>   0.0800 
 27 H        0.6000    -4.7960     0.9280 H     1 <1>   0.0800 
 28 H        9.1380    -4.1010    -0.1310 H     1 <1>   0.1500 
 29 H       -0.3930    -6.9990     0.9140 H     1 <1>   0.4500 
 30 H       -0.4270    -7.0100    -0.7390 H     1 <1>   0.4500 
 31 H       -1.9230    -5.0940    -0.7680 H     1 <1>   0.0800 
 32 H       -1.8860    -5.0820     0.9800 H     1 <1>   0.0800 
 33 H       -2.9520    -7.3210     1.0280 H     1 <1>   0.0800 
 34 H       -2.9890    -7.3320    -0.7420 H     1 <1>   0.0800 
 35 H       -4.9470    -6.5620     0.1790 H     1 <1>   0.4000 
@<TRIPOS>BOND
  1   1   2  1   
  2   1   3  1   
  3   2   4  ar  
  4   2   5  ar  
  5   3   6  1   
  6   3  16  1   
  7   3  17  1   
  8   4   7  ar  
  9   4   8  1   
 10   5   9  ar  
 11   5  18  1   
 12   6  10  1   
 13   6  19  1   
 14   6  20  1   
 15   7  11  ar  
 16   7  21  1   
 17   8  22  1   
 18   8  23  1   
 19   8  24  1   
 20   9  11  ar  
 21   9  25  1   
 22  10  12  1   
 23  10  26  1   
 24  10  27  1   
 25  11  28  1   
 26  12  13  1   
 27  12  29  1   
 28  12  30  1   
 29  13  14  1   
 30  13  31  1   
 31  13  32  1   
 32  14  15  1   
 33  14  33  1   
 34  14  34  1   
 35  15  35  1   
@<TRIPOS>SUBSTRUCTURE
  1 ****   3 GROUP 4 **** **** 0

# MOE 2024.06 (io_trps.svl 2023.06)
