@<TRIPOS>MOLECULE
NONAME
39 43 1 0 0 
SMALL
USER_CHARGES


@<TRIPOS>ATOM
  1 O        1.3040    -1.1510     2.2240 O.2   1 <1>  -0.5700 
  2 C        1.7830    -1.3220     1.1250 C.2   1 <1>   0.7800 
  3 O        2.9810    -0.7890     0.8830 O.3   1 <1>  -0.4300 
  4 N        1.1350    -2.0240     0.1650 N.am  1 <1>  -0.6550 
  5 C        3.7760    -0.8120    -0.2820 C.3   1 <1>   0.2800 
  6 C       -0.1980    -2.6250     0.3140 C.3   1 <1>   0.2250 
  7 C        5.0340    -0.0240     0.0840 C.3   1 <1>  -0.2400 
  8 C        4.1710    -2.2530    -0.6310 C.3   1 <1>  -0.2400 
  9 C        3.0550    -0.1000    -1.4340 C.3   1 <1>  -0.2400 
 10 C       -1.5230    -1.8200     0.3870 C.3   1 <1>   0.0000 
 11 C       -0.8180    -3.5980    -0.7250 C.3   1 <1>   0.0000 
 12 C       -0.6560    -3.5410     1.4820 C.3   1 <1>   0.0000 
 13 C       -2.1600    -2.7990    -0.6490 C.3   1 <1>   0.0000 
 14 C       -1.9980    -2.7450     1.5530 C.3   1 <1>   0.0000 
 15 C       -1.2930    -4.5200     0.4460 C.3   1 <1>   0.0000 
 16 C       -2.6310    -3.7240     0.5140 C.3   1 <1>   0.0530 
 17 C       -4.0260    -4.3200     0.6750 C.2   1 <1>   0.6670 
 18 O       -4.7000    -4.0390     1.6290 O.2   1 <1>  -0.5700 
 19 O       -4.5050    -5.1550    -0.2460 O.3   1 <1>  -0.4300 
 20 C       -3.8430    -5.5850    -1.4160 C.3   1 <1>   0.0400 
 21 H        1.5660    -2.0900    -0.7510 H     1 <1>   0.3700 
 22 H        5.5390    -0.4910     0.9100 H     1 <1>   0.0800 
 23 H        4.7750     0.9830     0.3600 H     1 <1>   0.0800 
 24 H        5.7110     0.0160    -0.7490 H     1 <1>   0.0800 
 25 H        4.9050    -2.2470    -1.4170 H     1 <1>   0.0800 
 26 H        3.3370    -2.8320    -0.9750 H     1 <1>   0.0800 
 27 H        4.6050    -2.7340     0.2280 H     1 <1>   0.0800 
 28 H        3.7290     0.0210    -2.2630 H     1 <1>   0.0800 
 29 H        2.7340     0.8780    -1.1200 H     1 <1>   0.0800 
 30 H        2.2070    -0.6520    -1.7880 H     1 <1>   0.0800 
 31 H       -1.5990    -0.7480     0.3710 H     1 <1>   0.0000 
 32 H       -0.3370    -3.9300    -1.6270 H     1 <1>   0.0000 
 33 H       -0.0520    -3.8260     2.3250 H     1 <1>   0.0000 
 34 H       -2.7580    -2.5050    -1.4930 H     1 <1>   0.0000 
 35 H       -2.4690    -2.4070     2.4590 H     1 <1>   0.0000 
 36 H       -1.2020    -5.5920     0.4700 H     1 <1>   0.0000 
 37 H       -4.5030    -6.2500    -1.9440 H     1 <1>   0.0800 
 38 H       -2.9450    -6.1100    -1.1440 H     1 <1>   0.0800 
 39 H       -3.6220    -4.7330    -2.0330 H     1 <1>   0.0800 
@<TRIPOS>BOND
  1   1   2  2   
  2   2   3  1   
  3   2   4  am  
  4   3   5  1   
  5   4   6  1   
  6   4  21  1   
  7   5   7  1   
  8   5   8  1   
  9   5   9  1   
 10   6  10  1   
 11   6  11  1   
 12   6  12  1   
 13   7  22  1   
 14   7  23  1   
 15   7  24  1   
 16   8  25  1   
 17   8  26  1   
 18   8  27  1   
 19   9  28  1   
 20   9  29  1   
 21   9  30  1   
 22  10  13  1   
 23  10  14  1   
 24  10  31  1   
 25  11  13  1   
 26  11  15  1   
 27  11  32  1   
 28  12  14  1   
 29  12  15  1   
 30  12  33  1   
 31  13  16  1   
 32  13  34  1   
 33  14  16  1   
 34  14  35  1   
 35  15  16  1   
 36  15  36  1   
 37  16  17  1   
 38  17  18  2   
 39  17  19  1   
 40  19  20  1   
 41  20  37  1   
 42  20  38  1   
 43  20  39  1   
@<TRIPOS>SUBSTRUCTURE
  1 ****   6 GROUP 4 **** **** 0

# MOE 2024.06 (io_trps.svl 2023.06)
