@<TRIPOS>MOLECULE
NONAME
43 45 1 0 0 
SMALL
USER_CHARGES


@<TRIPOS>ATOM
  1 O       -4.0840    -3.0110     0.8460 O.2   1 <1>  -0.5700 
  2 C       -4.8160    -2.2360     0.2980 C.2   1 <1>   0.4480 
  3 C       -6.3490    -2.3800     0.2920 C.3   1 <1>   0.0610 
  4 C       -4.2090    -1.0390    -0.4460 C.3   1 <1>   0.4040 
  5 C       -6.7930    -3.5150     1.3160 C.3   1 <1>  -0.1600 
  6 C       -6.8420    -2.6800    -1.2000 C.3   1 <1>  -0.1600 
  7 C       -7.0380    -1.0590     0.7690 C.3   1 <1>  -0.1600 
  8 N       -2.7110    -1.1570    -0.6170 N.4   1 <1>  -0.9590 
  9 C       -8.3310    -3.7090     1.6120 C.3   1 <1>  -0.0800 
 10 C       -8.3870    -2.7470    -1.2760 C.3   1 <1>  -0.0800 
 11 C       -8.5860    -1.1690     0.7550 C.3   1 <1>  -0.0800 
 12 C       -2.0560     0.1540    -0.9080 C.3   1 <1>   0.2630 
 13 C       -2.3530    -2.1960    -1.6340 C.3   1 <1>   0.2630 
 14 C       -9.0590    -4.6100     0.5080 C.3   1 <1>  -0.1600 
 15 C       -9.0070    -2.2960     1.7740 C.3   1 <1>  -0.1600 
 16 C       -9.0970    -4.1060    -1.0230 C.3   1 <1>  -0.1600 
 17 C       -9.0560    -1.4590    -0.7340 C.3   1 <1>  -0.1600 
 18 H       -4.4340    -0.1540     0.1240 H     1 <1>   0.0800 
 19 H       -4.6770    -0.9430    -1.4100 H     1 <1>   0.0800 
 20 H       -6.3270    -3.2960     2.2610 H     1 <1>   0.0800 
 21 H       -6.3860    -4.4580     0.9930 H     1 <1>   0.0800 
 22 H       -6.4290    -3.6170    -1.5350 H     1 <1>   0.0800 
 23 H       -6.5120    -1.9140    -1.8770 H     1 <1>   0.0800 
 24 H       -6.7620    -0.2370     0.1350 H     1 <1>   0.0800 
 25 H       -6.7140    -0.8230     1.7690 H     1 <1>   0.0800 
 26 H       -2.3710    -1.5230     0.2930 H     1 <1>   0.4500 
 27 H       -8.4280    -4.2340     2.5480 H     1 <1>   0.0800 
 28 H       -8.2750    -2.9040    -0.3940 H     1 <1>   0.0800 
 29 H       -9.0170    -0.2350     1.0770 H     1 <1>   0.0800 
 30 H       -2.4050     0.5480    -1.8480 H     1 <1>   0.0800 
 31 H       -0.9860     0.0320    -0.9610 H     1 <1>   0.0800 
 32 H       -2.2790     0.8650    -0.1290 H     1 <1>   0.0800 
 33 H       -2.7220    -1.9160    -2.6080 H     1 <1>   0.0800 
 34 H       -2.7820    -3.1480    -1.3600 H     1 <1>   0.0800 
 35 H       -1.2830    -2.3110    -1.6900 H     1 <1>   0.0800 
 36 H      -10.0760    -4.7610     0.8280 H     1 <1>   0.0800 
 37 H       -8.5960    -5.5820     0.5220 H     1 <1>   0.0800 
 38 H      -10.0770    -2.4130     1.7440 H     1 <1>   0.0800 
 39 H       -8.7690    -1.9390     2.7610 H     1 <1>   0.0800 
 40 H       -8.6450    -4.8570    -1.6480 H     1 <1>   0.0800 
 41 H      -10.1240    -4.0210    -1.3340 H     1 <1>   0.0800 
 42 H      -10.1270    -1.5670    -0.7590 H     1 <1>   0.0800 
 43 H       -8.8000    -0.6280    -1.3670 H     1 <1>   0.0800 
@<TRIPOS>BOND
  1   1   2  2   
  2   2   3  1   
  3   2   4  1   
  4   3   5  1   
  5   3   6  1   
  6   3   7  1   
  7   4   8  1   
  8   4  18  1   
  9   4  19  1   
 10   5   9  1   
 11   5  20  1   
 12   5  21  1   
 13   6  10  1   
 14   6  22  1   
 15   6  23  1   
 16   7  11  1   
 17   7  24  1   
 18   7  25  1   
 19   8  12  1   
 20   8  13  1   
 21   8  26  1   
 22   9  14  1   
 23   9  15  1   
 24   9  27  1   
 25  10  16  1   
 26  10  17  1   
 27  10  28  1   
 28  11  15  1   
 29  11  17  1   
 30  11  29  1   
 31  12  30  1   
 32  12  31  1   
 33  12  32  1   
 34  13  33  1   
 35  13  34  1   
 36  13  35  1   
 37  14  16  1   
 38  14  36  1   
 39  14  37  1   
 40  15  38  1   
 41  15  39  1   
 42  16  40  1   
 43  16  41  1   
 44  17  42  1   
 45  17  43  1   
@<TRIPOS>SUBSTRUCTURE
  1 ****   3 GROUP 4 **** **** 0

# MOE 2024.06 (io_trps.svl 2023.06)
