@<TRIPOS>MOLECULE
NONAME
40 42 1 0 0 
SMALL
USER_CHARGES


@<TRIPOS>ATOM
  1 BR      -1.3120    -0.5700    -2.9970 Br    1 <1>  -0.1110 
  2 C       -2.2130    -0.9340    -1.3370 C.ar  1 <1>   0.1110 
  3 C       -3.4230    -0.3160    -1.0920 C.ar  1 <1>  -0.1500 
  4 C       -1.6280    -1.8030    -0.4370 C.ar  1 <1>  -0.1500 
  5 C       -4.0820    -0.5830     0.1010 C.ar  1 <1>  -0.1440 
  6 C       -2.2830    -2.0570     0.7550 C.ar  1 <1>  -0.1500 
  7 C       -3.5010    -1.4490     1.0230 C.ar  1 <1>  -0.1500 
  8 C       -5.4220     0.0650     0.3910 C.3   1 <1>   0.4870 
  9 N       -6.4740    -0.6250    -0.4180 N.4   1 <1>  -0.9590 
 10 C       -7.8040     0.0800    -0.4220 C.3   1 <1>   0.5660 
 11 C       -6.5390    -2.0810    -0.0490 C.3   1 <1>   0.3430 
 12 C       -7.6290     1.5920    -0.3620 C.ar  1 <1>  -0.1430 
 13 C       -8.7200    -0.4960     0.6660 C.3   1 <1>  -0.1600 
 14 C       -7.9070    -2.6810    -0.3780 C.3   1 <1>  -0.1600 
 15 C       -7.4030     2.2690    -1.5520 C.ar  1 <1>   0.1600 
 16 C       -7.6670     2.3240     0.8150 C.ar  1 <1>  -0.1500 
 17 C       -9.0340    -1.9800     0.4020 C.3   1 <1>  -0.1600 
 18 N       -7.1920     3.5660    -1.6560 N.ar  1 <1>  -0.6200 
 19 C       -7.4620     3.6840     0.7170 C.ar  1 <1>  -0.1500 
 20 C       -7.2290     4.2490    -0.5240 C.ar  1 <1>   0.1600 
 21 H       -3.8200     0.3610    -1.8280 H     1 <1>   0.1500 
 22 H       -0.6820    -2.2640    -0.6630 H     1 <1>   0.1500 
 23 H       -1.8400    -2.7250     1.4760 H     1 <1>   0.1500 
 24 H       -3.9830    -1.6600     1.9630 H     1 <1>   0.1500 
 25 H       -5.3600     1.1080     0.1260 H     1 <1>   0.0800 
 26 H       -5.6510    -0.0050     1.4410 H     1 <1>   0.0800 
 27 H       -6.1290    -0.5860    -1.3820 H     1 <1>   0.4500 
 28 H       -8.2880    -0.1390    -1.3600 H     1 <1>   0.0800 
 29 H       -6.3700    -2.1910     1.0100 H     1 <1>   0.0800 
 30 H       -5.7620    -2.6250    -0.5640 H     1 <1>   0.0800 
 31 H       -9.6420     0.0600     0.6930 H     1 <1>   0.0800 
 32 H       -8.2490    -0.3910     1.6270 H     1 <1>   0.0800 
 33 H       -7.9050    -3.7290    -0.1320 H     1 <1>   0.0800 
 34 H       -8.0810    -2.6060    -1.4380 H     1 <1>   0.0800 
 35 H       -7.3870     1.7220    -2.4800 H     1 <1>   0.1500 
 36 H       -7.8480     1.8830     1.7810 H     1 <1>   0.1500 
 37 H       -9.9510    -2.0680    -0.1590 H     1 <1>   0.0800 
 38 H       -9.1910    -2.4760     1.3460 H     1 <1>   0.0800 
 39 H       -7.4820     4.3090     1.5920 H     1 <1>   0.1500 
 40 H       -7.0690     5.3130    -0.5900 H     1 <1>   0.1500 
@<TRIPOS>BOND
  1   1   2  1   
  2   2   3  ar  
  3   2   4  ar  
  4   3   5  ar  
  5   3  21  1   
  6   4   6  ar  
  7   4  22  1   
  8   5   7  ar  
  9   5   8  1   
 10   6   7  ar  
 11   6  23  1   
 12   7  24  1   
 13   8   9  1   
 14   8  25  1   
 15   8  26  1   
 16   9  10  1   
 17   9  11  1   
 18   9  27  1   
 19  10  12  1   
 20  10  13  1   
 21  10  28  1   
 22  11  14  1   
 23  11  29  1   
 24  11  30  1   
 25  12  15  ar  
 26  12  16  ar  
 27  13  17  1   
 28  13  31  1   
 29  13  32  1   
 30  14  17  1   
 31  14  33  1   
 32  14  34  1   
 33  15  18  ar  
 34  15  35  1   
 35  16  19  ar  
 36  16  36  1   
 37  17  37  1   
 38  17  38  1   
 39  18  20  ar  
 40  19  20  ar  
 41  19  39  1   
 42  20  40  1   
@<TRIPOS>SUBSTRUCTURE
  1 ****   8 GROUP 4 **** **** 0

# MOE 2024.06 (io_trps.svl 2023.06)
