@<TRIPOS>MOLECULE
NONAME
33 34 1 0 0 
SMALL
USER_CHARGES


@<TRIPOS>ATOM
  1 S       -0.2330     0.2650     0.6700 S.3   1 <1>  -0.2860 
  2 C        1.0370    -1.0090     0.6400 C.2   1 <1>   0.2420 
  3 C       -1.7660    -0.6770     1.1270 C.3   1 <1>   0.1310 
  4 N        0.7990    -2.2350     0.8950 N.2   1 <1>  -0.3380 
  5 N        2.3160    -0.7950     0.3420 N.pl3 1 <1>   0.5930 
  6 C       -2.9610     0.2530     1.1730 C.2   1 <1>   0.6590 
  7 N        1.9750    -2.8370     0.7490 N.2   1 <1>   0.0000 
  8 N        2.8890    -1.9930     0.4160 N.2   1 <1>  -0.4180 
  9 C        3.0040     0.4010    -0.0150 C.ar  1 <1>  -0.0230 
 10 O       -3.4940     0.5400     2.2150 O.2   1 <1>  -0.5700 
 11 O       -3.3860     0.7120     0.0020 O.3   1 <1>  -0.4300 
 12 C        3.8280     0.4270    -1.1380 C.ar  1 <1>  -0.1500 
 13 C        2.8790     1.5610     0.7450 C.ar  1 <1>  -0.1500 
 14 C       -4.4670     1.6050    -0.1180 C.3   1 <1>   0.2000 
 15 C        4.5000     1.5810    -1.4960 C.ar  1 <1>  -0.1500 
 16 C        3.5510     2.7160     0.3870 C.ar  1 <1>  -0.1500 
 17 C       -5.0610     1.4110    -1.5100 C.3   1 <1>  -0.2400 
 18 C       -3.9410     3.0270     0.0730 C.3   1 <1>  -0.2400 
 19 C        4.3620     2.7280    -0.7340 C.ar  1 <1>  -0.1500 
 20 H       -1.5960    -1.1200     2.0900 H     1 <1>   0.0800 
 21 H       -1.9100    -1.4400     0.3860 H     1 <1>   0.0800 
 22 H        3.9470    -0.4610    -1.7360 H     1 <1>   0.1500 
 23 H        2.2570     1.5710     1.6240 H     1 <1>   0.1500 
 24 H       -5.2050     1.3660     0.6310 H     1 <1>   0.0800 
 25 H        5.1340     1.5890    -2.3670 H     1 <1>   0.1500 
 26 H        3.4450     3.6080     0.9800 H     1 <1>   0.1500 
 27 H       -4.3250     1.6190    -2.2660 H     1 <1>   0.0800 
 28 H       -5.8940     2.0760    -1.6490 H     1 <1>   0.0800 
 29 H       -5.4120     0.4010    -1.6220 H     1 <1>   0.0800 
 30 H       -3.1780     3.2480    -0.6510 H     1 <1>   0.0800 
 31 H       -3.5390     3.1430     1.0640 H     1 <1>   0.0800 
 32 H       -4.7430     3.7330    -0.0460 H     1 <1>   0.0800 
 33 H        4.8850     3.6270    -1.0130 H     1 <1>   0.1500 
@<TRIPOS>BOND
  1   1   2  1   
  2   1   3  1   
  3   2   4  2   
  4   2   5  1   
  5   3   6  1   
  6   3  20  1   
  7   3  21  1   
  8   4   7  1   
  9   5   8  1   
 10   5   9  1   
 11   6  10  2   
 12   6  11  1   
 13   7   8  2   
 14   9  12  ar  
 15   9  13  ar  
 16  11  14  1   
 17  12  15  ar  
 18  12  22  1   
 19  13  16  ar  
 20  13  23  1   
 21  14  17  1   
 22  14  18  1   
 23  14  24  1   
 24  15  19  ar  
 25  15  25  1   
 26  16  19  ar  
 27  16  26  1   
 28  17  27  1   
 29  17  28  1   
 30  17  29  1   
 31  18  30  1   
 32  18  31  1   
 33  18  32  1   
 34  19  33  1   
@<TRIPOS>SUBSTRUCTURE
  1 ****   1 GROUP 4 **** **** 0

# MOE 2024.06 (io_trps.svl 2023.06)
