@<TRIPOS>MOLECULE
NONAME
31 33 1 0 0 
SMALL
USER_CHARGES


@<TRIPOS>ATOM
  1 N       -5.3580     1.8080     0.4660 N.pl3 1 <1>  -0.8440 
  2 C       -6.6480     2.0230     0.2490 C.cat 1 <1>   1.2000 
  3 C       -4.3300     2.8730     0.3880 C.3   1 <1>   0.1680 
  4 N       -7.1150     3.2320    -0.0510 N.pl3 1 <1>  -0.7050 
  5 N       -7.6200     1.1080     0.2830 N.pl3 1 <1>  -0.7050 
  6 C       -4.9860     4.2410     0.6320 C.3   1 <1>  -0.1600 
  7 C       -8.4790     3.1080    -0.2420 C.ar  1 <1>   0.3110 
  8 C       -6.2710     4.4390    -0.1850 C.3   1 <1>   0.1680 
  9 C       -8.7980     1.7760    -0.0320 C.ar  1 <1>   0.3110 
 10 C       -7.5250    -0.3340     0.5960 C.3   1 <1>   0.1680 
 11 C       -9.4590     4.0330    -0.5790 C.ar  1 <1>  -0.1500 
 12 C      -10.1120     1.3370    -0.1550 C.ar  1 <1>  -0.1500 
 13 C       -7.3870    -1.1200    -0.7040 C.3   1 <1>  -0.2400 
 14 C      -10.7650     3.5970    -0.7010 C.ar  1 <1>  -0.1500 
 15 C      -11.0900     2.2560    -0.4900 C.ar  1 <1>  -0.1500 
 16 H       -5.0440     0.8560     0.6350 H     1 <1>   0.4500 
 17 H       -3.8720     2.8530    -0.5890 H     1 <1>   0.0800 
 18 H       -3.5640     2.7010     1.1270 H     1 <1>   0.0800 
 19 H       -4.2860     5.0220     0.3920 H     1 <1>   0.0800 
 20 H       -5.2170     4.3380     1.6790 H     1 <1>   0.0800 
 21 H       -6.8050     5.3040     0.1720 H     1 <1>   0.0800 
 22 H       -6.0310     4.5870    -1.2250 H     1 <1>   0.0800 
 23 H       -8.4090    -0.6500     1.1250 H     1 <1>   0.0800 
 24 H       -6.6760    -0.5220     1.2330 H     1 <1>   0.0800 
 25 H       -9.2000     5.0640    -0.7410 H     1 <1>   0.1500 
 26 H      -10.3570     0.3030     0.0060 H     1 <1>   0.1500 
 27 H       -8.2450    -0.9630    -1.3340 H     1 <1>   0.0800 
 28 H       -7.3220    -2.1720    -0.4850 H     1 <1>   0.0800 
 29 H       -6.4980    -0.8310    -1.2350 H     1 <1>   0.0800 
 30 H      -11.5460     4.2940    -0.9610 H     1 <1>   0.1500 
 31 H      -12.1160     1.9400    -0.5910 H     1 <1>   0.1500 
@<TRIPOS>BOND
  1   1   2  ar  
  2   1   3  1   
  3   1  16  1   
  4   2   4  ar  
  5   2   5  ar  
  6   3   6  1   
  7   3  17  1   
  8   3  18  1   
  9   4   7  1   
 10   4   8  1   
 11   5   9  1   
 12   5  10  1   
 13   6   8  1   
 14   6  19  1   
 15   6  20  1   
 16   7   9  ar  
 17   7  11  ar  
 18   8  21  1   
 19   8  22  1   
 20   9  12  ar  
 21  10  13  1   
 22  10  23  1   
 23  10  24  1   
 24  11  14  ar  
 25  11  25  1   
 26  12  15  ar  
 27  12  26  1   
 28  13  27  1   
 29  13  28  1   
 30  13  29  1   
 31  14  15  ar  
 32  14  30  1   
 33  15  31  1   
@<TRIPOS>SUBSTRUCTURE
  1 ****   4 GROUP 4 **** **** 0

# MOE 2024.06 (io_trps.svl 2023.06)
