@<TRIPOS>MOLECULE
NONAME
37 37 1 0 0 
SMALL
USER_CHARGES


@<TRIPOS>ATOM
  1 O        0.7290     1.0840     2.2170 O.2   1 <1>  -0.5700 
  2 C        0.2350     1.7000     1.2970 C.2   1 <1>   0.5690 
  3 N       -0.6900     1.0960     0.4680 N.am  1 <1>  -0.6600 
  4 C        0.7260     3.1530     1.1590 C.3   1 <1>   0.2610 
  5 C       -1.1570    -0.2980     0.7050 C.3   1 <1>   0.0600 
  6 C       -1.3160     1.7430    -0.7200 C.3   1 <1>   0.0600 
  7 O       -0.1410     4.0580     0.5510 O.3   1 <1>  -0.5600 
  8 C        2.0160     3.3210     0.3900 C.3   1 <1>   0.2610 
  9 C        0.6130     5.0840     0.0060 C.3   1 <1>   0.5600 
 10 O        1.9200     4.6290    -0.0950 O.3   1 <1>  -0.5600 
 11 C        2.2310     2.2790    -0.7310 C.2   1 <1>   0.5690 
 12 C        0.5820     6.2790     0.9480 C.3   1 <1>  -0.2400 
 13 C        0.0820     5.4090    -1.3810 C.3   1 <1>  -0.2400 
 14 O        1.7560     2.4970    -1.8260 O.2   1 <1>  -0.5700 
 15 N        2.9510     1.1210    -0.5050 N.am  1 <1>  -0.6600 
 16 C        3.1810     0.1370    -1.6010 C.3   1 <1>   0.0600 
 17 C        3.4730     0.6530     0.8130 C.3   1 <1>   0.0600 
 18 H        0.8890     3.5190     2.1560 H     1 <1>   0.0800 
 19 H       -0.7620    -0.6890     1.6270 H     1 <1>   0.0800 
 20 H       -0.8310    -0.9300    -0.1030 H     1 <1>   0.0800 
 21 H       -2.2310    -0.3170     0.7600 H     1 <1>   0.0800 
 22 H       -2.1700     2.3170    -0.4090 H     1 <1>   0.0800 
 23 H       -1.6290     0.9980    -1.4290 H     1 <1>   0.0800 
 24 H       -0.6200     2.3940    -1.2120 H     1 <1>   0.0800 
 25 H        2.8540     3.2970     1.0580 H     1 <1>   0.0800 
 26 H        0.9780     6.0110     1.9090 H     1 <1>   0.0800 
 27 H       -0.4280     6.6230     1.0640 H     1 <1>   0.0800 
 28 H        1.1700     7.0780     0.5360 H     1 <1>   0.0800 
 29 H        0.1300     4.5410    -2.0100 H     1 <1>   0.0800 
 30 H        0.6720     6.1910    -1.8210 H     1 <1>   0.0800 
 31 H       -0.9360     5.7420    -1.3140 H     1 <1>   0.0800 
 32 H        2.9250     0.5560    -2.5590 H     1 <1>   0.0800 
 33 H        2.5750    -0.7360    -1.4350 H     1 <1>   0.0800 
 34 H        4.2180    -0.1490    -1.6240 H     1 <1>   0.0800 
 35 H        3.2570     1.3420     1.6060 H     1 <1>   0.0800 
 36 H        4.5390     0.5210     0.7530 H     1 <1>   0.0800 
 37 H        3.0170    -0.2910     1.0620 H     1 <1>   0.0800 
@<TRIPOS>BOND
  1   1   2  2   
  2   2   3  am  
  3   2   4  1   
  4   3   5  1   
  5   3   6  1   
  6   4   7  1   
  7   4   8  1   
  8   4  18  1   
  9   5  19  1   
 10   5  20  1   
 11   5  21  1   
 12   6  22  1   
 13   6  23  1   
 14   6  24  1   
 15   7   9  1   
 16   8  10  1   
 17   8  11  1   
 18   8  25  1   
 19   9  10  1   
 20   9  12  1   
 21   9  13  1   
 22  11  14  2   
 23  11  15  am  
 24  12  26  1   
 25  12  27  1   
 26  12  28  1   
 27  13  29  1   
 28  13  30  1   
 29  13  31  1   
 30  15  16  1   
 31  15  17  1   
 32  16  32  1   
 33  16  33  1   
 34  16  34  1   
 35  17  35  1   
 36  17  36  1   
 37  17  37  1   
@<TRIPOS>SUBSTRUCTURE
  1 ****   4 GROUP 4 **** **** 0

# MOE 2024.06 (io_trps.svl 2023.06)
