@<TRIPOS>MOLECULE
22258
51 53 1 0 0 
SMALL
USER_CHARGES


@<TRIPOS>ATOM
  1 S       -3.1900     0.1580     0.3730 S.3   1 <1>  -0.0800 
  2 C       -3.1460    -0.4140    -1.2850 C.2   1 <1>   0.1040 
  3 C       -2.1190    -1.1240     0.8880 C.2   1 <1>  -0.1400 
  4 N       -3.9670     0.2750    -2.1620 N.am  1 <1>  -0.4940 
  5 C       -2.2930    -1.4790    -1.4210 C.2   1 <1>  -0.0860 
  6 C       -1.7590    -1.8980    -0.1450 C.2   1 <1>  -0.1810 
  7 C       -1.7270    -1.2500     2.3430 C.3   1 <1>   0.0200 
  8 C       -4.8400    -0.1740    -3.1160 C.2   1 <1>   0.5690 
  9 C       -1.9140    -2.0720    -2.6780 C.2   1 <1>   0.7160 
 10 C       -0.8470    -3.1010     0.0710 C.3   1 <1>   0.0210 
 11 C       -0.5210    -2.2030     2.4570 C.3   1 <1>  -0.0800 
 12 O       -5.4130     0.6350    -3.8010 O.2   1 <1>  -0.5700 
 13 C       -5.1540    -1.6580    -3.3370 C.3   1 <1>   0.1810 
 14 O       -1.6450    -3.2470    -2.8180 O.2   1 <1>  -0.5700 
 15 N       -1.8110    -1.3160    -3.7930 N.am  1 <1>  -0.8000 
 16 C       -0.7120    -3.4510     1.5680 C.3   1 <1>  -0.1600 
 17 C       -0.2820    -2.6070     3.9160 C.3   1 <1>  -0.2400 
 18 O       -5.2610    -2.3970    -2.1290 O.3   1 <1>  -0.3630 
 19 C       -6.1300    -2.0290    -1.1530 C.ar  1 <1>   0.0820 
 20 C       -7.2850    -1.2900    -1.3900 C.ar  1 <1>  -0.1500 
 21 C       -5.8170    -2.4160     0.1390 C.ar  1 <1>  -0.1500 
 22 C       -8.1120    -0.9400    -0.3370 C.ar  1 <1>  -0.1500 
 23 C       -6.6440    -2.0670     1.1910 C.ar  1 <1>  -0.1500 
 24 C       -7.7940    -1.3270     0.9630 C.ar  1 <1>   0.0820 
 25 O       -8.5500    -1.0250     2.0510 O.3   1 <1>  -0.3620 
 26 C       -9.7340    -0.2740     1.9280 C.3   1 <1>   0.1200 
 27 C      -10.3360    -0.1100     3.3200 C.3   1 <1>  -0.2400 
 28 H       -4.1270     1.2590    -1.9430 H     1 <1>   0.3700 
 29 H       -2.5680    -1.6340     2.8930 H     1 <1>   0.0800 
 30 H       -1.4690    -0.2840     2.7390 H     1 <1>   0.0800 
 31 H        0.1210    -2.8800    -0.3420 H     1 <1>   0.0800 
 32 H       -1.2420    -3.9610    -0.4410 H     1 <1>   0.0800 
 33 H        0.3510    -1.6770     2.1040 H     1 <1>   0.0800 
 34 H       -4.3790    -2.1100    -3.9240 H     1 <1>   0.0800 
 35 H       -6.0790    -1.7600    -3.8740 H     1 <1>   0.0800 
 36 H       -1.4090    -1.7340    -4.6310 H     1 <1>   0.3700 
 37 H       -1.8770    -0.2990    -3.7580 H     1 <1>   0.3700 
 38 H        0.1170    -4.1250     1.6940 H     1 <1>   0.0800 
 39 H       -1.6040    -3.9660     1.8800 H     1 <1>   0.0800 
 40 H       -1.1250    -3.1520     4.3030 H     1 <1>   0.0800 
 41 H       -0.1270    -1.7330     4.5250 H     1 <1>   0.0800 
 42 H        0.5920    -3.2300     3.9920 H     1 <1>   0.0800 
 43 H       -7.5550    -0.9840    -2.3830 H     1 <1>   0.1500 
 44 H       -4.9200    -2.9840     0.3150 H     1 <1>   0.1500 
 45 H       -8.9960    -0.3690    -0.5470 H     1 <1>   0.1500 
 46 H       -6.4010    -2.3630     2.1950 H     1 <1>   0.1500 
 47 H      -10.4100    -0.8070     1.2820 H     1 <1>   0.0800 
 48 H       -9.4880     0.6850     1.5050 H     1 <1>   0.0800 
 49 H      -10.5620    -1.0740     3.7400 H     1 <1>   0.0800 
 50 H      -11.2440     0.4600     3.2600 H     1 <1>   0.0800 
 51 H       -9.6450     0.4080     3.9620 H     1 <1>   0.0800 
@<TRIPOS>BOND
  1   1   2  1   
  2   1   3  1   
  3   2   4  1   
  4   2   5  2   
  5   3   6  2   
  6   3   7  1   
  7   4   8  am  
  8   4  28  1   
  9   5   6  1   
 10   5   9  1   
 11   6  10  1   
 12   7  11  1   
 13   7  29  1   
 14   7  30  1   
 15   8  12  2   
 16   8  13  1   
 17   9  14  2   
 18   9  15  am  
 19  10  16  1   
 20  10  31  1   
 21  10  32  1   
 22  11  16  1   
 23  11  17  1   
 24  11  33  1   
 25  13  18  1   
 26  13  34  1   
 27  13  35  1   
 28  15  36  1   
 29  15  37  1   
 30  16  38  1   
 31  16  39  1   
 32  17  40  1   
 33  17  41  1   
 34  17  42  1   
 35  18  19  1   
 36  19  20  ar  
 37  19  21  ar  
 38  20  22  ar  
 39  20  43  1   
 40  21  23  ar  
 41  21  44  1   
 42  22  24  ar  
 43  22  45  1   
 44  23  24  ar  
 45  23  46  1   
 46  24  25  1   
 47  25  26  1   
 48  26  27  1   
 49  26  47  1   
 50  26  48  1   
 51  27  49  1   
 52  27  50  1   
 53  27  51  1   
@<TRIPOS>SUBSTRUCTURE
  1 ****  21 GROUP 4 **** **** 0

# MOE 2024.06 (io_trps.svl 2023.06)
