@<TRIPOS>MOLECULE
NONAME
42 43 1 0 0 
SMALL
USER_CHARGES


@<TRIPOS>ATOM
  1 N        1.6730     1.2900    -1.3260 N.ar  1 <1>  -0.6200 
  2 C        1.4340     1.2390    -0.0250 C.ar  1 <1>   0.1660 
  3 C        0.7220     1.8500    -2.0610 C.ar  1 <1>   0.1600 
  4 C        0.2850     1.7300     0.5770 C.ar  1 <1>  -0.1500 
  5 C        2.5200     0.5920     0.8100 C.3   1 <1>  -0.0160 
  6 C       -0.4570     2.3700    -1.5560 C.ar  1 <1>  -0.1500 
  7 C       -0.6920     2.3140    -0.2000 C.ar  1 <1>  -0.1500 
  8 C        3.8770     1.1410     0.3700 C.3   1 <1>   0.3430 
  9 N        4.9940     0.4820     1.1050 N.4   1 <1>  -0.9060 
 10 C        6.3180     0.9720     0.6700 C.3   1 <1>   0.4230 
 11 C        7.3930     0.0060     1.1790 C.3   1 <1>  -0.1600 
 12 C        6.5290     2.4180     1.1550 C.3   1 <1>  -0.1600 
 13 C        8.6000    -0.0910     0.2300 C.3   1 <1>  -0.1600 
 14 C        6.6680     3.3910    -0.0240 C.3   1 <1>  -0.1600 
 15 C        9.3220     1.2360    -0.0610 C.3   1 <1>  -0.1600 
 16 C        8.0840     3.4470    -0.6200 C.3   1 <1>  -0.1600 
 17 C        8.6550     2.1160    -1.1420 C.3   1 <1>  -0.1600 
 18 H        0.8900     1.8990    -3.1240 H     1 <1>   0.1500 
 19 H        0.1420     1.6590     1.6400 H     1 <1>   0.1500 
 20 H        2.4790    -0.4690     0.6420 H     1 <1>   0.0800 
 21 H        2.3540     0.7970     1.8520 H     1 <1>   0.0800 
 22 H       -1.1810     2.8110    -2.2190 H     1 <1>   0.1500 
 23 H       -1.5980     2.7070     0.2300 H     1 <1>   0.1500 
 24 H        3.8950     2.2060     0.5360 H     1 <1>   0.0800 
 25 H        3.9920     0.9720    -0.6900 H     1 <1>   0.0800 
 26 H        4.9560    -0.5290     0.9320 H     1 <1>   0.4500 
 27 H        4.9060     0.6290     2.1160 H     1 <1>   0.4500 
 28 H        6.3460     0.9550    -0.4080 H     1 <1>   0.0800 
 29 H        6.9880    -0.9870     1.2610 H     1 <1>   0.0800 
 30 H        7.7320     0.2980     2.1580 H     1 <1>   0.0800 
 31 H        7.4110     2.5000     1.7670 H     1 <1>   0.0800 
 32 H        5.7060     2.7400     1.7690 H     1 <1>   0.0800 
 33 H        8.3040    -0.5470    -0.7000 H     1 <1>   0.0800 
 34 H        9.3150    -0.7590     0.6830 H     1 <1>   0.0800 
 35 H        6.4290     4.3820     0.3240 H     1 <1>   0.0800 
 36 H        5.9580     3.1520    -0.7980 H     1 <1>   0.0800 
 37 H       10.3030     0.9810    -0.4280 H     1 <1>   0.0800 
 38 H        9.4850     1.7850     0.8510 H     1 <1>   0.0800 
 39 H        8.7640     3.8740     0.0980 H     1 <1>   0.0800 
 40 H        8.0520     4.1350    -1.4490 H     1 <1>   0.0800 
 41 H        7.9140     1.5740    -1.7020 H     1 <1>   0.0800 
 42 H        9.4270     2.3720    -1.8500 H     1 <1>   0.0800 
@<TRIPOS>BOND
  1   1   2  ar  
  2   1   3  ar  
  3   2   4  ar  
  4   2   5  1   
  5   3   6  ar  
  6   3  18  1   
  7   4   7  ar  
  8   4  19  1   
  9   5   8  1   
 10   5  20  1   
 11   5  21  1   
 12   6   7  ar  
 13   6  22  1   
 14   7  23  1   
 15   8   9  1   
 16   8  24  1   
 17   8  25  1   
 18   9  10  1   
 19   9  26  1   
 20   9  27  1   
 21  10  11  1   
 22  10  12  1   
 23  10  28  1   
 24  11  13  1   
 25  11  29  1   
 26  11  30  1   
 27  12  14  1   
 28  12  31  1   
 29  12  32  1   
 30  13  15  1   
 31  13  33  1   
 32  13  34  1   
 33  14  16  1   
 34  14  35  1   
 35  14  36  1   
 36  15  17  1   
 37  15  37  1   
 38  15  38  1   
 39  16  17  1   
 40  16  39  1   
 41  16  40  1   
 42  17  41  1   
 43  17  42  1   
@<TRIPOS>SUBSTRUCTURE
  1 ****   8 GROUP 4 **** **** 0

# MOE 2024.06 (io_trps.svl 2023.06)
