@<TRIPOS>MOLECULE
NONAME
37 37 1 0 0 
SMALL
USER_CHARGES


@<TRIPOS>ATOM
  1 O        0.2900     0.2780    -0.9080 O.2   1 <1>  -0.5700 
  2 C        0.7200    -0.6780    -0.2950 C.2   1 <1>   0.6900 
  3 N       -0.0810    -1.6860     0.1520 N.am  1 <1>  -0.5470 
  4 N        2.0410    -0.7680    -0.0230 N.am  1 <1>  -0.7300 
  5 C       -1.4440    -1.9440    -0.0540 C.ar  1 <1>   0.1170 
  6 C        3.0270     0.2290    -0.4520 C.3   1 <1>   0.2780 
  7 C       -2.1170    -2.7510     0.8560 C.ar  1 <1>  -0.1500 
  8 C       -2.1550    -1.4470    -1.1410 C.ar  1 <1>  -0.1500 
  9 C        4.2630     0.0310     0.4000 C.2   1 <1>  -0.2880 
 10 C       -3.4580    -3.0490     0.6900 C.ar  1 <1>  -0.1500 
 11 C       -3.4960    -1.7420    -1.3090 C.ar  1 <1>  -0.1500 
 12 C        5.4580    -0.3640    -0.0490 C.2   1 <1>  -0.3000 
 13 C       -4.1570    -2.5470    -0.3950 C.ar  1 <1>  -0.1430 
 14 C       -5.6320    -2.8690    -0.5790 C.3   1 <1>  -0.0170 
 15 C       -6.5020    -1.8200     0.1220 C.3   1 <1>  -0.1600 
 16 C       -7.9970    -2.1210    -0.0510 C.3   1 <1>  -0.1600 
 17 C       -8.8540    -1.0660     0.6530 C.3   1 <1>  -0.2400 
 18 H        0.3710    -2.2910     0.8260 H     1 <1>   0.3700 
 19 H        2.4440    -1.6460     0.2910 H     1 <1>   0.3700 
 20 H        2.6320     1.2230    -0.3200 H     1 <1>   0.0800 
 21 H        3.2550     0.0820    -1.4940 H     1 <1>   0.0800 
 22 H       -1.5930    -3.1470     1.7050 H     1 <1>   0.1500 
 23 H       -1.6630    -0.8250    -1.8660 H     1 <1>   0.1500 
 24 H        4.0750     0.2500     1.4380 H     1 <1>   0.1500 
 25 H       -3.9590    -3.6720     1.4110 H     1 <1>   0.1500 
 26 H       -4.0230    -1.3400    -2.1560 H     1 <1>   0.1500 
 27 H        6.3220    -0.4950     0.5810 H     1 <1>   0.1500 
 28 H        5.6780    -0.5890    -1.0790 H     1 <1>   0.1500 
 29 H       -5.8400    -3.8450    -0.1760 H     1 <1>   0.0800 
 30 H       -5.8650    -2.8930    -1.6300 H     1 <1>   0.0800 
 31 H       -6.2800    -0.8490    -0.2870 H     1 <1>   0.0800 
 32 H       -6.2560    -1.8020     1.1690 H     1 <1>   0.0800 
 33 H       -8.2210    -3.0910     0.3600 H     1 <1>   0.0800 
 34 H       -8.2440    -2.1360    -1.0990 H     1 <1>   0.0800 
 35 H       -8.6390    -1.0490     1.7070 H     1 <1>   0.0800 
 36 H       -9.8980    -1.2910     0.5200 H     1 <1>   0.0800 
 37 H       -8.6600    -0.0900     0.2440 H     1 <1>   0.0800 
@<TRIPOS>BOND
  1   1   2  2   
  2   2   3  am  
  3   2   4  am  
  4   3   5  1   
  5   3  18  1   
  6   4   6  1   
  7   4  19  1   
  8   5   7  ar  
  9   5   8  ar  
 10   6   9  1   
 11   6  20  1   
 12   6  21  1   
 13   7  10  ar  
 14   7  22  1   
 15   8  11  ar  
 16   8  23  1   
 17   9  12  2   
 18   9  24  1   
 19  10  13  ar  
 20  10  25  1   
 21  11  13  ar  
 22  11  26  1   
 23  12  27  1   
 24  12  28  1   
 25  13  14  1   
 26  14  15  1   
 27  14  29  1   
 28  14  30  1   
 29  15  16  1   
 30  15  31  1   
 31  15  32  1   
 32  16  17  1   
 33  16  33  1   
 34  16  34  1   
 35  17  35  1   
 36  17  36  1   
 37  17  37  1   
@<TRIPOS>SUBSTRUCTURE
  1 ****   5 GROUP 4 **** **** 0

# MOE 2024.06 (io_trps.svl 2023.06)
