@<TRIPOS>MOLECULE
NONAME
41 42 1 0 0 
SMALL
USER_CHARGES


@<TRIPOS>ATOM
  1 CL       3.2340    -1.2010     3.3360 Cl    1 <1>  -0.1770 
  2 C        3.3400    -1.3330     1.5940 C.ar  1 <1>   0.1770 
  3 C        4.1860    -0.5140     0.8550 C.ar  1 <1>  -0.1440 
  4 C        2.5430    -2.2920     0.9940 C.ar  1 <1>  -0.1500 
  5 C        4.2260    -0.6840    -0.5320 C.ar  1 <1>   0.1000 
  6 C        5.0650     0.5490     1.5160 C.3   1 <1>  -0.0960 
  7 C        2.5790    -2.4460    -0.3800 C.ar  1 <1>  -0.1500 
  8 N        5.0610     0.0910    -1.3260 N.pl3 1 <1>  -0.8690 
  9 C        3.4150    -1.6420    -1.1310 C.ar  1 <1>  -0.1500 
 10 C        6.1380    -0.6010    -2.0600 C.3   1 <1>   0.3530 
 11 C        7.4570    -0.0150    -1.5920 C.ar  1 <1>  -0.1430 
 12 C        8.1060    -0.5540    -0.4940 C.ar  1 <1>  -0.1500 
 13 C        8.0210     1.0690    -2.2430 C.ar  1 <1>  -0.1500 
 14 C        9.3050    -0.0330    -0.0390 C.ar  1 <1>   0.0830 
 15 C        9.2160     1.6080    -1.8000 C.ar  1 <1>  -0.1500 
 16 O        9.8260    -0.6720     1.0470 O.3   1 <1>  -0.3630 
 17 C        9.8730     1.0740    -0.6920 C.ar  1 <1>   0.0830 
 18 C       11.2170    -0.7610     1.2470 C.3   1 <1>   0.1200 
 19 O       11.0350     1.6190    -0.2260 O.3   1 <1>  -0.3630 
 20 C       11.4840    -1.9310     2.1900 C.3   1 <1>  -0.2400 
 21 C       11.5740     2.8100    -0.7570 C.3   1 <1>   0.0400 
 22 H        1.9020    -2.9060     1.5990 H     1 <1>   0.1500 
 23 H        4.8780     0.6420     2.5680 H     1 <1>   0.0800 
 24 H        4.8780     1.5080     1.0670 H     1 <1>   0.0800 
 25 H        6.1020     0.3000     1.3830 H     1 <1>   0.0800 
 26 H        1.9600    -3.1830    -0.8600 H     1 <1>   0.1500 
 27 H        5.4910     0.8600    -0.8030 H     1 <1>   0.4000 
 28 H        3.4410    -1.7480    -2.2000 H     1 <1>   0.1500 
 29 H        6.0080    -0.4450    -3.1160 H     1 <1>   0.0800 
 30 H        6.1110    -1.6600    -1.8610 H     1 <1>   0.0800 
 31 H        7.6790    -1.3920     0.0280 H     1 <1>   0.1500 
 32 H        7.5270     1.5020    -3.0970 H     1 <1>   0.1500 
 33 H        9.6150     2.4470    -2.3350 H     1 <1>   0.1500 
 34 H       11.5560     0.1620     1.6830 H     1 <1>   0.0800 
 35 H       11.6940    -0.9200     0.2950 H     1 <1>   0.0800 
 36 H       10.9910    -1.7650     3.1310 H     1 <1>   0.0800 
 37 H       12.5400    -2.0220     2.3660 H     1 <1>   0.0800 
 38 H       11.1260    -2.8450     1.7530 H     1 <1>   0.0800 
 39 H       12.4520     3.0600    -0.1900 H     1 <1>   0.0800 
 40 H       10.8440     3.5950    -0.6650 H     1 <1>   0.0800 
 41 H       11.8400     2.6460    -1.7860 H     1 <1>   0.0800 
@<TRIPOS>BOND
  1   1   2  1   
  2   2   3  ar  
  3   2   4  ar  
  4   3   5  ar  
  5   3   6  1   
  6   4   7  ar  
  7   4  22  1   
  8   5   8  1   
  9   5   9  ar  
 10   6  23  1   
 11   6  24  1   
 12   6  25  1   
 13   7   9  ar  
 14   7  26  1   
 15   8  10  1   
 16   8  27  1   
 17   9  28  1   
 18  10  11  1   
 19  10  29  1   
 20  10  30  1   
 21  11  12  ar  
 22  11  13  ar  
 23  12  14  ar  
 24  12  31  1   
 25  13  15  ar  
 26  13  32  1   
 27  14  16  1   
 28  14  17  ar  
 29  15  17  ar  
 30  15  33  1   
 31  16  18  1   
 32  17  19  1   
 33  18  20  1   
 34  18  34  1   
 35  18  35  1   
 36  19  21  1   
 37  20  36  1   
 38  20  37  1   
 39  20  38  1   
 40  21  39  1   
 41  21  40  1   
 42  21  41  1   
@<TRIPOS>SUBSTRUCTURE
  1 ****  12 GROUP 4 **** **** 0

# MOE 2024.06 (io_trps.svl 2023.06)
