@<TRIPOS>MOLECULE
NONAME
49 51 1 0 0 
SMALL
USER_CHARGES


@<TRIPOS>ATOM
  1 O       -1.6160     0.3680     1.2730 O.3   1 <1>  -0.3630 
  2 C       -2.2830     1.0470     0.3100 C.ar  1 <1>   0.0830 
  3 C       -0.9720    -0.8330     0.9040 C.3   1 <1>   0.1200 
  4 C       -1.7450     2.2030    -0.2590 C.ar  1 <1>   0.0830 
  5 C       -3.5330     0.5910    -0.0730 C.ar  1 <1>  -0.1500 
  6 C        0.3510    -0.5180     0.2080 C.3   1 <1>  -0.2400 
  7 O       -0.5190     2.6190     0.1640 O.3   1 <1>  -0.3620 
  8 C       -2.4790     2.8770    -1.2310 C.ar  1 <1>  -0.1500 
  9 C       -4.2680     1.2790    -1.0270 C.ar  1 <1>  -0.1440 
 10 C        0.1200     3.7460    -0.3920 C.3   1 <1>   0.0400 
 11 C       -3.7300     2.4170    -1.6110 C.ar  1 <1>  -0.1500 
 12 C       -5.6560     0.8000    -1.4070 C.3   1 <1>   0.4860 
 13 N       -6.5560     1.0340    -0.2480 N.4   1 <1>  -0.9590 
 14 C       -7.9030     0.3750    -0.4400 C.3   1 <1>   0.3430 
 15 C       -6.6910     2.5140     0.0530 C.3   1 <1>   0.3430 
 16 C       -8.8830     0.6670     0.7170 C.3   1 <1>   0.2090 
 17 C       -7.6660     2.7900     1.2140 C.3   1 <1>   0.2090 
 18 N       -8.9790     2.1380     0.9320 N.pl3 1 <1>  -0.8380 
 19 C       -9.9820     2.8350     0.2990 C.ar  1 <1>   0.7200 
 20 N      -11.2030     2.3220     0.3840 N.ar  1 <1>  -0.6200 
 21 N       -9.6240     3.9280    -0.3720 N.ar  1 <1>  -0.6200 
 22 C      -12.1560     2.9990    -0.2110 C.ar  1 <1>   0.1600 
 23 C      -10.5980     4.5840    -0.9580 C.ar  1 <1>   0.1600 
 24 C      -11.9030     4.1570    -0.9040 C.ar  1 <1>  -0.1500 
 25 H       -1.6230    -1.4030     0.2640 H     1 <1>   0.0800 
 26 H       -0.7900    -1.3890     1.8070 H     1 <1>   0.0800 
 27 H       -3.9100    -0.3000     0.3940 H     1 <1>   0.1500 
 28 H        0.1770    -0.0070    -0.7210 H     1 <1>   0.0800 
 29 H        0.8800    -1.4300     0.0000 H     1 <1>   0.0800 
 30 H        0.9630     0.0980     0.8440 H     1 <1>   0.0800 
 31 H       -2.0920     3.7620    -1.7010 H     1 <1>   0.1500 
 32 H        1.0730     3.8610     0.0930 H     1 <1>   0.0800 
 33 H       -0.4860     4.6160    -0.2140 H     1 <1>   0.0800 
 34 H        0.2650     3.5820    -1.4450 H     1 <1>   0.0800 
 35 H       -4.2730     2.9620    -2.3650 H     1 <1>   0.1500 
 36 H       -5.6160    -0.2510    -1.6440 H     1 <1>   0.0800 
 37 H       -6.0110     1.3360    -2.2720 H     1 <1>   0.0800 
 38 H       -6.1010     0.6140     0.5720 H     1 <1>   0.4500 
 39 H       -7.7820    -0.6910    -0.5350 H     1 <1>   0.0800 
 40 H       -8.3530     0.7390    -1.3490 H     1 <1>   0.0800 
 41 H       -7.0630     3.0290    -0.8180 H     1 <1>   0.0800 
 42 H       -5.7280     2.9300     0.2980 H     1 <1>   0.0800 
 43 H       -8.5420     0.1950     1.6220 H     1 <1>   0.0800 
 44 H       -9.8470     0.2500     0.4810 H     1 <1>   0.0800 
 45 H       -7.7930     3.8520     1.3410 H     1 <1>   0.0800 
 46 H       -7.2640     2.4040     2.1340 H     1 <1>   0.0800 
 47 H      -13.1630     2.6210    -0.1450 H     1 <1>   0.1500 
 48 H      -10.3540     5.4860    -1.4940 H     1 <1>   0.1500 
 49 H      -12.6920     4.7040    -1.3850 H     1 <1>   0.1500 
@<TRIPOS>BOND
  1   1   2  1   
  2   1   3  1   
  3   2   4  ar  
  4   2   5  ar  
  5   3   6  1   
  6   3  25  1   
  7   3  26  1   
  8   4   7  1   
  9   4   8  ar  
 10   5   9  ar  
 11   5  27  1   
 12   6  28  1   
 13   6  29  1   
 14   6  30  1   
 15   7  10  1   
 16   8  11  ar  
 17   8  31  1   
 18   9  11  ar  
 19   9  12  1   
 20  10  32  1   
 21  10  33  1   
 22  10  34  1   
 23  11  35  1   
 24  12  13  1   
 25  12  36  1   
 26  12  37  1   
 27  13  14  1   
 28  13  15  1   
 29  13  38  1   
 30  14  16  1   
 31  14  39  1   
 32  14  40  1   
 33  15  17  1   
 34  15  41  1   
 35  15  42  1   
 36  16  18  1   
 37  16  43  1   
 38  16  44  1   
 39  17  18  1   
 40  17  45  1   
 41  17  46  1   
 42  18  19  1   
 43  19  20  ar  
 44  19  21  ar  
 45  20  22  ar  
 46  21  23  ar  
 47  22  24  ar  
 48  22  47  1   
 49  23  24  ar  
 50  23  48  1   
 51  24  49  1   
@<TRIPOS>SUBSTRUCTURE
  1 ****  15 GROUP 4 **** **** 0

# MOE 2024.06 (io_trps.svl 2023.06)
