@<TRIPOS>MOLECULE
NONAME
39 39 1 0 0 
SMALL
USER_CHARGES


@<TRIPOS>ATOM
  1 CL      -2.4730     1.1320     1.9810 Cl    1 <1>  -0.1770 
  2 C       -1.3130     2.2020     1.2280 C.ar  1 <1>   0.1770 
  3 C       -1.5050     2.6050    -0.0890 C.ar  1 <1>  -0.1440 
  4 C       -0.2330     2.6350     1.9720 C.ar  1 <1>  -0.1500 
  5 C       -0.5790     3.4640    -0.6690 C.ar  1 <1>  -0.1500 
  6 C       -2.7010     2.1040    -0.8780 C.3   1 <1>   0.4870 
  7 C        0.6710     3.4910     1.3750 C.ar  1 <1>   0.1770 
  8 C        0.5090     3.9090     0.0660 C.ar  1 <1>  -0.1500 
  9 N       -3.9520     2.6420    -0.2560 N.4   1 <1>  -0.9590 
 10 CL       2.0410     4.0590     2.2900 Cl    1 <1>  -0.1770 
 11 C       -5.1530     1.8330    -0.6840 C.3   1 <1>   0.3430 
 12 C       -4.0590     4.1110    -0.5000 C.3   1 <1>   0.3430 
 13 C       -6.4410     2.0890     0.1530 C.3   1 <1>   0.3430 
 14 C       -4.4460     4.7980     0.8030 C.3   1 <1>  -0.2400 
 15 N       -7.6040     1.1840    -0.1830 N.4   1 <1>  -0.9590 
 16 C       -8.8410     1.6480     0.5340 C.3   1 <1>   0.2630 
 17 C       -7.3610    -0.2590     0.1650 C.3   1 <1>   0.2630 
 18 H       -0.0920     2.3170     2.9900 H     1 <1>   0.1500 
 19 H       -0.6810     3.7940    -1.6910 H     1 <1>   0.1500 
 20 H       -2.7020     1.0260    -0.8480 H     1 <1>   0.0800 
 21 H       -2.6250     2.4150    -1.9080 H     1 <1>   0.0800 
 22 H        1.2370     4.5740    -0.3680 H     1 <1>   0.1500 
 23 H       -3.7850     2.5170     0.7570 H     1 <1>   0.4500 
 24 H       -4.9050     0.7880    -0.5960 H     1 <1>   0.0800 
 25 H       -5.3630     2.0390    -1.7210 H     1 <1>   0.0800 
 26 H       -4.7820     4.3230    -1.2720 H     1 <1>   0.0800 
 27 H       -3.1060     4.5070    -0.8200 H     1 <1>   0.0800 
 28 H       -6.7450     3.1110    -0.0020 H     1 <1>   0.0800 
 29 H       -6.2020     1.9690     1.1970 H     1 <1>   0.0800 
 30 H       -5.4110     4.4890     1.1570 H     1 <1>   0.0800 
 31 H       -4.4860     5.8610     0.6370 H     1 <1>   0.0800 
 32 H       -3.7050     4.6190     1.5630 H     1 <1>   0.0800 
 33 H       -7.8210     1.2390    -1.1940 H     1 <1>   0.4500 
 34 H       -8.7010     1.5990     1.6020 H     1 <1>   0.0800 
 35 H       -9.6820     1.0250     0.2720 H     1 <1>   0.0800 
 36 H       -9.0770     2.6650     0.2640 H     1 <1>   0.0800 
 37 H       -7.1600    -0.3650     1.2200 H     1 <1>   0.0800 
 38 H       -6.5260    -0.6530    -0.3890 H     1 <1>   0.0800 
 39 H       -8.2320    -0.8500    -0.0730 H     1 <1>   0.0800 
@<TRIPOS>BOND
  1   1   2  1   
  2   2   3  ar  
  3   2   4  ar  
  4   3   5  ar  
  5   3   6  1   
  6   4   7  ar  
  7   4  18  1   
  8   5   8  ar  
  9   5  19  1   
 10   6   9  1   
 11   6  20  1   
 12   6  21  1   
 13   7   8  ar  
 14   7  10  1   
 15   8  22  1   
 16   9  11  1   
 17   9  12  1   
 18   9  23  1   
 19  11  13  1   
 20  11  24  1   
 21  11  25  1   
 22  12  14  1   
 23  12  26  1   
 24  12  27  1   
 25  13  15  1   
 26  13  28  1   
 27  13  29  1   
 28  14  30  1   
 29  14  31  1   
 30  14  32  1   
 31  15  16  1   
 32  15  17  1   
 33  15  33  1   
 34  16  34  1   
 35  16  35  1   
 36  16  36  1   
 37  17  37  1   
 38  17  38  1   
 39  17  39  1   
@<TRIPOS>SUBSTRUCTURE
  1 ****   9 GROUP 4 **** **** 0

# MOE 2024.06 (io_trps.svl 2023.06)
