@<TRIPOS>MOLECULE
NONAME
50 51 1 0 0 
SMALL
USER_CHARGES


@<TRIPOS>ATOM
  1 O        0.4460    -0.7620     0.5970 O.2   1 <1>  -0.5700 
  2 C        0.9630     0.3320     0.5140 C.2   1 <1>   0.5440 
  3 N        2.3270     0.3520     0.5890 N.am  1 <1>  -0.5470 
  4 C        0.1550     1.5260     0.3440 C.ar  1 <1>   0.0860 
  5 C        3.2410     1.3700     0.2950 C.ar  1 <1>   0.1170 
  6 C       -0.9580     1.5100    -0.4950 C.ar  1 <1>  -0.1500 
  7 C        0.4470     2.7220     1.0010 C.ar  1 <1>  -0.1500 
  8 C        3.0770     2.1970    -0.8110 C.ar  1 <1>  -0.1500 
  9 C        4.3410     1.5650     1.1190 C.ar  1 <1>  -0.1500 
 10 C       -1.7410     2.6400    -0.6960 C.ar  1 <1>   0.0830 
 11 C       -0.3170     3.8580     0.8110 C.ar  1 <1>  -0.1500 
 12 C        3.9800     3.2110    -1.0710 C.ar  1 <1>  -0.1500 
 13 C        5.2450     2.5790     0.8590 C.ar  1 <1>  -0.1500 
 14 O       -2.8300     2.6380    -1.5170 O.3   1 <1>  -0.3630 
 15 C       -1.4150     3.8320    -0.0430 C.ar  1 <1>   0.0830 
 16 C        5.0680     3.4170    -0.2340 C.ar  1 <1>   0.1170 
 17 C       -3.3480     1.4450    -2.0580 C.3   1 <1>   0.1200 
 18 O       -2.1930     4.9250    -0.2690 O.3   1 <1>  -0.3630 
 19 N        5.9710     4.4600    -0.4860 N.am  1 <1>  -0.4770 
 20 C       -4.6230     1.7910    -2.8200 C.3   1 <1>  -0.2400 
 21 C       -1.9370     6.1710     0.3330 C.3   1 <1>   0.1200 
 22 C        5.7480     5.7720    -0.1420 C.2   1 <1>   0.5690 
 23 C        7.2380     4.0990    -1.1720 C.3   1 <1>   0.0600 
 24 C       -2.9960     7.1550    -0.1560 C.3   1 <1>  -0.2400 
 25 O        6.5370     6.6500    -0.3950 O.2   1 <1>  -0.5700 
 26 C        4.4770     6.1540     0.5840 C.3   1 <1>  -0.1790 
 27 H        2.7140    -0.5600     0.8340 H     1 <1>   0.3700 
 28 H       -1.1880     0.5830    -0.9850 H     1 <1>   0.1500 
 29 H        1.2880     2.7610     1.6710 H     1 <1>   0.1500 
 30 H        2.2420     2.0480    -1.4720 H     1 <1>   0.1500 
 31 H        4.4860     0.9250     1.9720 H     1 <1>   0.1500 
 32 H       -0.0440     4.7520     1.3380 H     1 <1>   0.1500 
 33 H        3.8450     3.8480    -1.9270 H     1 <1>   0.1500 
 34 H        6.0920     2.7300     1.5040 H     1 <1>   0.1500 
 35 H       -3.5600     0.7670    -1.2490 H     1 <1>   0.0800 
 36 H       -2.6130     1.0220    -2.7200 H     1 <1>   0.0800 
 37 H       -5.3420     2.2300    -2.1530 H     1 <1>   0.0800 
 38 H       -5.0460     0.9000    -3.2460 H     1 <1>   0.0800 
 39 H       -4.4010     2.4820    -3.6140 H     1 <1>   0.0800 
 40 H       -0.9540     6.4960     0.0410 H     1 <1>   0.0800 
 41 H       -1.9940     6.0520     1.4010 H     1 <1>   0.0800 
 42 H        7.2310     3.0610    -1.4540 H     1 <1>   0.0800 
 43 H        8.0680     4.2840    -0.5130 H     1 <1>   0.0800 
 44 H        7.3530     4.7030    -2.0550 H     1 <1>   0.0800 
 45 H       -2.9440     7.2510    -1.2260 H     1 <1>   0.0800 
 46 H       -2.8320     8.1210     0.2850 H     1 <1>   0.0800 
 47 H       -3.9750     6.8100     0.1240 H     1 <1>   0.0800 
 48 H        4.3770     5.5690     1.4780 H     1 <1>   0.0800 
 49 H        3.6300     5.9860    -0.0540 H     1 <1>   0.0800 
 50 H        4.5100     7.1940     0.8510 H     1 <1>   0.0800 
@<TRIPOS>BOND
  1   1   2  2   
  2   2   3  am  
  3   2   4  1   
  4   3   5  1   
  5   3  27  1   
  6   4   6  ar  
  7   4   7  ar  
  8   5   8  ar  
  9   5   9  ar  
 10   6  10  ar  
 11   6  28  1   
 12   7  11  ar  
 13   7  29  1   
 14   8  12  ar  
 15   8  30  1   
 16   9  13  ar  
 17   9  31  1   
 18  10  14  1   
 19  10  15  ar  
 20  11  15  ar  
 21  11  32  1   
 22  12  16  ar  
 23  12  33  1   
 24  13  16  ar  
 25  13  34  1   
 26  14  17  1   
 27  15  18  1   
 28  16  19  1   
 29  17  20  1   
 30  17  35  1   
 31  17  36  1   
 32  18  21  1   
 33  19  22  am  
 34  19  23  1   
 35  20  37  1   
 36  20  38  1   
 37  20  39  1   
 38  21  24  1   
 39  21  40  1   
 40  21  41  1   
 41  22  25  2   
 42  22  26  1   
 43  23  42  1   
 44  23  43  1   
 45  23  44  1   
 46  24  45  1   
 47  24  46  1   
 48  24  47  1   
 49  26  48  1   
 50  26  49  1   
 51  26  50  1   
@<TRIPOS>SUBSTRUCTURE
  1 ****   7 GROUP 4 **** **** 0

# MOE 2024.06 (io_trps.svl 2023.06)
