@<TRIPOS>MOLECULE
NONAME
51 53 1 0 0 
SMALL
USER_CHARGES


@<TRIPOS>ATOM
  1 O       -0.0340     0.0150     1.1370 O.2   1 <1>  -0.5700 
  2 C       -0.0990    -0.8610     0.2980 C.2   1 <1>   0.6900 
  3 N        0.9980    -1.4750    -0.2210 N.am  1 <1>  -0.5470 
  4 N       -1.3140    -1.2530    -0.1590 N.am  1 <1>  -0.7300 
  5 C        2.3830    -1.3150    -0.0300 C.ar  1 <1>   0.1170 
  6 C       -2.5770    -0.7040     0.3470 C.3   1 <1>   0.2200 
  7 C        3.2350    -2.2480    -0.6330 C.ar  1 <1>   0.0820 
  8 C        2.9430    -0.2820     0.7140 C.ar  1 <1>  -0.1500 
  9 C       -3.6880    -1.7410     0.2100 C.3   1 <1>  -0.1600 
 10 C       -2.9200     0.5660    -0.4290 C.3   1 <1>  -0.1600 
 11 O        2.6490    -3.2480    -1.3630 O.3   1 <1>  -0.3630 
 12 C        4.6140    -2.1370    -0.4790 C.ar  1 <1>  -0.1500 
 13 C        4.3140    -0.1760     0.8640 C.ar  1 <1>  -0.1500 
 14 C       -5.0180    -1.1510     0.6740 C.3   1 <1>   0.3430 
 15 C       -4.2510     1.1330     0.0500 C.3   1 <1>   0.3430 
 16 C        3.4250    -4.2520    -1.9800 C.3   1 <1>   0.0400 
 17 C        5.1500    -1.1030     0.2690 C.ar  1 <1>  -0.1500 
 18 N       -5.3180     0.1000    -0.0900 N.4   1 <1>  -0.9590 
 19 C       -6.6540     0.6500     0.2710 C.3   1 <1>   0.4860 
 20 C       -7.7120    -0.3550    -0.1370 C.ar  1 <1>  -0.1440 
 21 C       -8.0350    -0.5280    -1.4760 C.ar  1 <1>  -0.1500 
 22 C       -8.3600    -1.1160     0.8260 C.ar  1 <1>  -0.1500 
 23 C       -8.9860    -1.4630    -1.8470 C.ar  1 <1>  -0.1500 
 24 C       -9.3110    -2.0500     0.4520 C.ar  1 <1>  -0.1500 
 25 C       -9.6220    -2.2250    -0.8840 C.ar  1 <1>  -0.1500 
 26 H        0.8050    -2.2710    -0.8230 H     1 <1>   0.3700 
 27 H       -1.3580    -1.9060    -0.9390 H     1 <1>   0.3700 
 28 H       -2.4530    -0.4570     1.3910 H     1 <1>   0.0800 
 29 H        2.3150     0.4520     1.1830 H     1 <1>   0.1500 
 30 H       -3.4550    -2.5940     0.8220 H     1 <1>   0.0800 
 31 H       -3.7790    -2.0690    -0.8100 H     1 <1>   0.0800 
 32 H       -2.9660     0.3660    -1.4850 H     1 <1>   0.0800 
 33 H       -2.1510     1.3000    -0.2600 H     1 <1>   0.0800 
 34 H        5.2890    -2.8390    -0.9290 H     1 <1>   0.1500 
 35 H        4.7270     0.6300     1.4450 H     1 <1>   0.1500 
 36 H       -4.9640    -0.9300     1.7290 H     1 <1>   0.0800 
 37 H       -5.8010    -1.8770     0.5210 H     1 <1>   0.0800 
 38 H       -4.4980     2.0060    -0.5330 H     1 <1>   0.0800 
 39 H       -4.1610     1.4300     1.0830 H     1 <1>   0.0800 
 40 H        2.7580    -4.9300    -2.4820 H     1 <1>   0.0800 
 41 H        3.9800    -4.7790    -1.2250 H     1 <1>   0.0800 
 42 H        4.0850    -3.7930    -2.6960 H     1 <1>   0.0800 
 43 H        6.2160    -1.0180     0.3880 H     1 <1>   0.1500 
 44 H       -5.3830    -0.1700    -1.0800 H     1 <1>   0.4500 
 45 H       -6.8290     1.5770    -0.2510 H     1 <1>   0.0800 
 46 H       -6.7100     0.8380     1.3310 H     1 <1>   0.0800 
 47 H       -7.5620     0.0580    -2.2450 H     1 <1>   0.1500 
 48 H       -8.1410    -0.9950     1.8740 H     1 <1>   0.1500 
 49 H       -9.2370    -1.5980    -2.8860 H     1 <1>   0.1500 
 50 H       -9.8150    -2.6410     1.1990 H     1 <1>   0.1500 
 51 H      -10.3630    -2.9510    -1.1740 H     1 <1>   0.1500 
@<TRIPOS>BOND
  1   1   2  2   
  2   2   3  am  
  3   2   4  am  
  4   3   5  1   
  5   3  26  1   
  6   4   6  1   
  7   4  27  1   
  8   5   7  ar  
  9   5   8  ar  
 10   6   9  1   
 11   6  10  1   
 12   6  28  1   
 13   7  11  1   
 14   7  12  ar  
 15   8  13  ar  
 16   8  29  1   
 17   9  14  1   
 18   9  30  1   
 19   9  31  1   
 20  10  15  1   
 21  10  32  1   
 22  10  33  1   
 23  11  16  1   
 24  12  17  ar  
 25  12  34  1   
 26  13  17  ar  
 27  13  35  1   
 28  14  18  1   
 29  14  36  1   
 30  14  37  1   
 31  15  18  1   
 32  15  38  1   
 33  15  39  1   
 34  16  40  1   
 35  16  41  1   
 36  16  42  1   
 37  17  43  1   
 38  18  19  1   
 39  18  44  1   
 40  19  20  1   
 41  19  45  1   
 42  19  46  1   
 43  20  21  ar  
 44  20  22  ar  
 45  21  23  ar  
 46  21  47  1   
 47  22  24  ar  
 48  22  48  1   
 49  23  25  ar  
 50  23  49  1   
 51  24  25  ar  
 52  24  50  1   
 53  25  51  1   
@<TRIPOS>SUBSTRUCTURE
  1 ****   6 GROUP 4 **** **** 0

# MOE 2024.06 (io_trps.svl 2023.06)
