@<TRIPOS>MOLECULE
NONAME
42 42 1 0 0 
SMALL
USER_CHARGES


@<TRIPOS>ATOM
  1 N        0.0070    -0.1940    -0.5210 N.4   1 <1>  -0.9590 
  2 C       -1.1670     0.7090    -0.3800 C.3   1 <1>   0.3430 
  3 C       -0.0740    -1.3850     0.3680 C.3   1 <1>   0.3430 
  4 C        1.2760     0.5620    -0.2520 C.3   1 <1>   0.2630 
  5 C       -2.4610    -0.0530    -0.6810 C.3   1 <1>  -0.1600 
  6 C       -1.3530    -2.1740     0.0750 C.3   1 <1>  -0.1600 
  7 C       -2.6180    -1.3050     0.2010 C.3   1 <1>   0.4230 
  8 N       -3.8540    -2.0940    -0.1900 N.4   1 <1>  -0.9590 
  9 C       -5.1400    -1.2780    -0.1250 C.3   1 <1>   0.3430 
 10 C       -3.9930    -3.3480     0.6450 C.3   1 <1>   0.2630 
 11 C       -6.4230    -2.0080    -0.6370 C.3   1 <1>   0.3430 
 12 N       -7.6740    -1.1580    -0.6560 N.4   1 <1>  -0.9590 
 13 C       -8.1420    -0.7280     0.7070 C.3   1 <1>   0.2630 
 14 C       -8.7930    -1.9040    -1.3300 C.3   1 <1>   0.2630 
 15 H        0.0660    -0.5160    -1.5010 H     1 <1>   0.4500 
 16 H       -1.0700     1.5420    -1.0600 H     1 <1>   0.0800 
 17 H       -1.2000     1.1050     0.6240 H     1 <1>   0.0800 
 18 H       -0.0680    -1.0680     1.4000 H     1 <1>   0.0800 
 19 H        0.7850    -2.0190     0.2110 H     1 <1>   0.0800 
 20 H        1.2910     0.9320     0.7610 H     1 <1>   0.0800 
 21 H        1.3640     1.4020    -0.9240 H     1 <1>   0.0800 
 22 H        2.1330    -0.0770    -0.3950 H     1 <1>   0.0800 
 23 H       -2.4660    -0.3210    -1.7230 H     1 <1>   0.0800 
 24 H       -3.2670     0.6340    -0.5050 H     1 <1>   0.0800 
 25 H       -1.3770    -2.9810     0.7840 H     1 <1>   0.0800 
 26 H       -1.2780    -2.5950    -0.9120 H     1 <1>   0.0800 
 27 H       -2.7130    -0.9900     1.2290 H     1 <1>   0.0800 
 28 H       -3.7040    -2.3980    -1.1670 H     1 <1>   0.4500 
 29 H       -5.0200    -0.3900    -0.7220 H     1 <1>   0.0800 
 30 H       -5.3050    -0.9710     0.8950 H     1 <1>   0.0800 
 31 H       -4.0680    -3.1020     1.6920 H     1 <1>   0.0800 
 32 H       -3.1410    -3.9960     0.5080 H     1 <1>   0.0800 
 33 H       -4.8690    -3.9070     0.3600 H     1 <1>   0.0800 
 34 H       -6.6060    -2.8700    -0.0170 H     1 <1>   0.0800 
 35 H       -6.2340    -2.3550    -1.6400 H     1 <1>   0.0800 
 36 H       -7.5250    -0.3060    -1.2250 H     1 <1>   0.4500 
 37 H       -8.3490    -1.5870     1.3250 H     1 <1>   0.0800 
 38 H       -9.0480    -0.1480     0.6230 H     1 <1>   0.0800 
 39 H       -7.4000    -0.1190     1.1960 H     1 <1>   0.0800 
 40 H       -9.0360    -2.8010    -0.7830 H     1 <1>   0.0800 
 41 H       -8.5170    -2.1780    -2.3360 H     1 <1>   0.0800 
 42 H       -9.6780    -1.2870    -1.3800 H     1 <1>   0.0800 
@<TRIPOS>BOND
  1   1   2  1   
  2   1   3  1   
  3   1   4  1   
  4   1  15  1   
  5   2   5  1   
  6   2  16  1   
  7   2  17  1   
  8   3   6  1   
  9   3  18  1   
 10   3  19  1   
 11   4  20  1   
 12   4  21  1   
 13   4  22  1   
 14   5   7  1   
 15   5  23  1   
 16   5  24  1   
 17   6   7  1   
 18   6  25  1   
 19   6  26  1   
 20   7   8  1   
 21   7  27  1   
 22   8   9  1   
 23   8  10  1   
 24   8  28  1   
 25   9  11  1   
 26   9  29  1   
 27   9  30  1   
 28  10  31  1   
 29  10  32  1   
 30  10  33  1   
 31  11  12  1   
 32  11  34  1   
 33  11  35  1   
 34  12  13  1   
 35  12  14  1   
 36  12  36  1   
 37  13  37  1   
 38  13  38  1   
 39  13  39  1   
 40  14  40  1   
 41  14  41  1   
 42  14  42  1   
@<TRIPOS>SUBSTRUCTURE
  1 ****   8 GROUP 4 **** **** 0

# MOE 2024.06 (io_trps.svl 2023.06)
