@<TRIPOS>MOLECULE
NONAME
44 45 1 0 0 
SMALL
USER_CHARGES


@<TRIPOS>ATOM
  1 CL      -0.2070     0.3670    -0.2110 Cl    1 <1>  -0.1770 
  2 C        1.4130     1.0240    -0.0730 C.ar  1 <1>   0.1770 
  3 C        2.5020     0.2060    -0.3460 C.ar  1 <1>  -0.1440 
  4 C        1.5750     2.3500     0.3070 C.ar  1 <1>  -0.1440 
  5 C        3.7800     0.7320    -0.2340 C.ar  1 <1>  -0.1500 
  6 C        2.3040    -1.2450    -0.7610 C.3   1 <1>  -0.0960 
  7 C        2.8590     2.8580     0.4120 C.ar  1 <1>  -0.1500 
  8 C        0.3750     3.2390     0.6030 C.3   1 <1>  -0.0960 
  9 C        3.9620     2.0610     0.1460 C.ar  1 <1>   0.0830 
 10 O        5.1780     2.6480     0.2790 O.3   1 <1>  -0.3630 
 11 C        6.3680     1.9290     0.0760 C.3   1 <1>   0.1200 
 12 C        7.5290     2.8970     0.3220 C.3   1 <1>   0.3430 
 13 N        8.8700     2.2460     0.1550 N.4   1 <1>  -0.9590 
 14 C        9.1660     1.2730     1.2420 C.3   1 <1>   0.3430 
 15 C        9.9430     3.2760     0.0950 C.3   1 <1>   0.3430 
 16 C        9.8000     0.0090     0.6610 C.3   1 <1>  -0.1600 
 17 C       11.1580     2.7600    -0.6810 C.3   1 <1>  -0.1600 
 18 C       10.8780     0.2220    -0.4180 C.3   1 <1>  -0.1600 
 19 C       11.7790     1.4430    -0.1790 C.3   1 <1>  -0.1600 
 20 H        4.6160     0.0960    -0.4480 H     1 <1>   0.1500 
 21 H        1.7790    -1.7790     0.0110 H     1 <1>   0.0800 
 22 H        3.2450    -1.7350    -0.9350 H     1 <1>   0.0800 
 23 H        1.7250    -1.2910    -1.6670 H     1 <1>   0.0800 
 24 H        3.0170     3.8800     0.7030 H     1 <1>   0.1500 
 25 H       -0.2530     3.3090    -0.2670 H     1 <1>   0.0800 
 26 H        0.6860     4.2300     0.8800 H     1 <1>   0.0800 
 27 H       -0.1990     2.8230     1.4120 H     1 <1>   0.0800 
 28 H        6.3730     1.5730    -0.9400 H     1 <1>   0.0800 
 29 H        6.3820     1.1100     0.7730 H     1 <1>   0.0800 
 30 H        7.4440     3.3000     1.3180 H     1 <1>   0.0800 
 31 H        7.4370     3.7090    -0.3810 H     1 <1>   0.0800 
 32 H        8.8970     1.7340    -0.7360 H     1 <1>   0.4500 
 33 H        8.2670     1.0040     1.7710 H     1 <1>   0.0800 
 34 H        9.8450     1.7180     1.9520 H     1 <1>   0.0800 
 35 H       10.2390     3.5580     1.0930 H     1 <1>   0.0800 
 36 H        9.5730     4.1590    -0.4020 H     1 <1>   0.0800 
 37 H        9.0270    -0.6260     0.2640 H     1 <1>   0.0800 
 38 H       10.2430    -0.5280     1.4820 H     1 <1>   0.0800 
 39 H       11.9160     3.5230    -0.6290 H     1 <1>   0.0800 
 40 H       10.8980     2.6640    -1.7210 H     1 <1>   0.0800 
 41 H       10.4220     0.2960    -1.3910 H     1 <1>   0.0800 
 42 H       11.4980    -0.6600    -0.4420 H     1 <1>   0.0800 
 43 H       12.0550     1.5170     0.8600 H     1 <1>   0.0800 
 44 H       12.6930     1.2870    -0.7310 H     1 <1>   0.0800 
@<TRIPOS>BOND
  1   1   2  1   
  2   2   3  ar  
  3   2   4  ar  
  4   3   5  ar  
  5   3   6  1   
  6   4   7  ar  
  7   4   8  1   
  8   5   9  ar  
  9   5  20  1   
 10   6  21  1   
 11   6  22  1   
 12   6  23  1   
 13   7   9  ar  
 14   7  24  1   
 15   8  25  1   
 16   8  26  1   
 17   8  27  1   
 18   9  10  1   
 19  10  11  1   
 20  11  12  1   
 21  11  28  1   
 22  11  29  1   
 23  12  13  1   
 24  12  30  1   
 25  12  31  1   
 26  13  14  1   
 27  13  15  1   
 28  13  32  1   
 29  14  16  1   
 30  14  33  1   
 31  14  34  1   
 32  15  17  1   
 33  15  35  1   
 34  15  36  1   
 35  16  18  1   
 36  16  37  1   
 37  16  38  1   
 38  17  19  1   
 39  17  39  1   
 40  17  40  1   
 41  18  19  1   
 42  18  41  1   
 43  18  42  1   
 44  19  43  1   
 45  19  44  1   
@<TRIPOS>SUBSTRUCTURE
  1 ****  11 GROUP 4 **** **** 0

# MOE 2024.06 (io_trps.svl 2023.06)
