@<TRIPOS>MOLECULE
NONAME
47 48 1 0 0 
SMALL
USER_CHARGES


@<TRIPOS>ATOM
  1 O       -0.3390    -1.6620     2.5590 O.2   1 <1>  -0.5700 
  2 C       -0.0460    -2.5500     1.8210 C.2   1 <1>   0.4480 
  3 C        1.4020    -2.9250     1.5850 C.3   1 <1>   0.0420 
  4 C       -1.1230    -3.3630     1.1230 C.3   1 <1>  -0.0990 
  5 C        2.0990    -1.7630     0.9110 C.2   1 <1>   0.6590 
  6 C        1.5080    -4.2670     0.8320 C.3   1 <1>   0.0630 
  7 C       -0.7590    -3.7070    -0.3290 C.3   1 <1>   0.2800 
  8 O        3.0900    -1.2640     1.3740 O.2   1 <1>  -0.5700 
  9 O        1.5660    -1.3290    -0.2280 O.3   1 <1>  -0.4300 
 10 C        2.9610    -4.6980     0.6170 C.ar  1 <1>  -0.1440 
 11 C        0.6620    -4.3400    -0.4690 C.3   1 <1>  -0.0190 
 12 O       -0.7620    -2.5150    -1.0250 O.3   1 <1>  -0.6800 
 13 C       -1.8990    -4.5090    -0.9710 C.3   1 <1>  -0.2400 
 14 C        2.1170    -0.2340    -0.9330 C.3   1 <1>   0.0400 
 15 C        3.5010    -5.6820     1.4330 C.ar  1 <1>  -0.1500 
 16 C        3.7610    -4.1410    -0.3740 C.ar  1 <1>  -0.1500 
 17 C        0.6320    -5.7760    -0.9710 C.2   1 <1>   0.6590 
 18 C        4.8080    -6.1010     1.2640 C.ar  1 <1>  -0.1500 
 19 C        5.0700    -4.5580    -0.5460 C.ar  1 <1>  -0.1500 
 20 O        0.9460    -6.0550    -2.0980 O.2   1 <1>  -0.5700 
 21 O        0.2430    -6.7040    -0.1000 O.3   1 <1>  -0.4300 
 22 C        5.6020    -5.5460     0.2760 C.ar  1 <1>   0.0830 
 23 C        0.2160    -8.0730    -0.4480 C.3   1 <1>   0.0400 
 24 O        6.8710    -6.0140     0.1750 O.3   1 <1>  -0.3630 
 25 C        7.7590    -5.5160    -0.8010 C.3   1 <1>   0.0400 
 26 H        1.8630    -3.0470     2.5480 H     1 <1>   0.0800 
 27 H       -2.0500    -2.8160     1.1470 H     1 <1>   0.0800 
 28 H       -1.2750    -4.2700     1.6790 H     1 <1>   0.0800 
 29 H        1.0810    -4.9880     1.5090 H     1 <1>   0.0800 
 30 H        1.1790    -3.7960    -1.2390 H     1 <1>   0.0800 
 31 H       -0.0110    -1.9350    -0.7660 H     1 <1>   0.4000 
 32 H       -2.0560    -5.4400    -0.4580 H     1 <1>   0.0800 
 33 H       -1.6810    -4.7170    -2.0050 H     1 <1>   0.0800 
 34 H       -2.8190    -3.9520    -0.9250 H     1 <1>   0.0800 
 35 H        3.1360    -0.4650    -1.1960 H     1 <1>   0.0800 
 36 H        2.0880     0.6370    -0.3000 H     1 <1>   0.0800 
 37 H        1.5330    -0.0670    -1.8210 H     1 <1>   0.0800 
 38 H        2.9130    -6.1380     2.2110 H     1 <1>   0.1500 
 39 H        3.3850    -3.3750    -1.0280 H     1 <1>   0.1500 
 40 H        5.2230    -6.8630     1.8970 H     1 <1>   0.1500 
 41 H        5.6560    -4.1050    -1.3210 H     1 <1>   0.1500 
 42 H        1.2110    -8.3810    -0.7210 H     1 <1>   0.0800 
 43 H       -0.4540    -8.2080    -1.2800 H     1 <1>   0.0800 
 44 H       -0.1270    -8.6370     0.4010 H     1 <1>   0.0800 
 45 H        8.6960    -6.0310    -0.6920 H     1 <1>   0.0800 
 46 H        7.9000    -4.4620    -0.6390 H     1 <1>   0.0800 
 47 H        7.3480    -5.7070    -1.7760 H     1 <1>   0.0800 
@<TRIPOS>BOND
  1   1   2  2   
  2   2   3  1   
  3   2   4  1   
  4   3   5  1   
  5   3   6  1   
  6   3  26  1   
  7   4   7  1   
  8   4  27  1   
  9   4  28  1   
 10   5   8  2   
 11   5   9  1   
 12   6  10  1   
 13   6  11  1   
 14   6  29  1   
 15   7  11  1   
 16   7  12  1   
 17   7  13  1   
 18   9  14  1   
 19  10  15  ar  
 20  10  16  ar  
 21  11  17  1   
 22  11  30  1   
 23  12  31  1   
 24  13  32  1   
 25  13  33  1   
 26  13  34  1   
 27  14  35  1   
 28  14  36  1   
 29  14  37  1   
 30  15  18  ar  
 31  15  38  1   
 32  16  19  ar  
 33  16  39  1   
 34  17  20  2   
 35  17  21  1   
 36  18  22  ar  
 37  18  40  1   
 38  19  22  ar  
 39  19  41  1   
 40  21  23  1   
 41  22  24  1   
 42  23  42  1   
 43  23  43  1   
 44  23  44  1   
 45  24  25  1   
 46  25  45  1   
 47  25  46  1   
 48  25  47  1   
@<TRIPOS>SUBSTRUCTURE
  1 ****   6 GROUP 4 **** **** 0

# MOE 2024.06 (io_trps.svl 2023.06)
