@<TRIPOS>MOLECULE
NONAME
39 40 1 0 0 
SMALL
USER_CHARGES


@<TRIPOS>ATOM
  1 CL       0.7470     0.3600    -2.3350 Cl    1 <1>  -0.1770 
  2 C        1.7080    -0.7200    -1.3430 C.ar  1 <1>   0.1770 
  3 C        1.2610    -1.9950    -0.9910 C.ar  1 <1>   0.0820 
  4 C        2.9390    -0.2590    -0.9280 C.ar  1 <1>  -0.1500 
  5 O        0.0360    -2.4590    -1.3560 O.3   1 <1>  -0.3630 
  6 C        2.0920    -2.8290    -0.2390 C.ar  1 <1>  -0.1440 
  7 C        3.7460    -1.0760    -0.1600 C.ar  1 <1>  -0.1500 
  8 C       -1.1030    -1.7090    -1.0080 C.3   1 <1>   0.1200 
  9 C        3.3320    -2.3550     0.1870 C.ar  1 <1>  -0.1440 
 10 C        1.6530    -4.2500     0.1220 C.3   1 <1>  -0.0960 
 11 C       -2.2250    -2.6960    -0.6780 C.3   1 <1>   0.3430 
 12 C        4.2730    -3.2050     1.0320 C.3   1 <1>  -0.0960 
 13 N       -3.5230    -2.0110    -0.3650 N.4   1 <1>  -0.9590 
 14 C       -3.4520    -1.1850     0.8950 C.3   1 <1>   0.3430 
 15 C       -4.6350    -3.0200    -0.2580 C.3   1 <1>   0.3430 
 16 C       -4.8300    -0.6100     1.2750 C.3   1 <1>   0.1200 
 17 C       -5.9600    -2.3620     0.1740 C.3   1 <1>   0.1200 
 18 O       -5.7760    -1.6360     1.3540 O.3   1 <1>  -0.5600 
 19 H        3.2660     0.7260    -1.2070 H     1 <1>   0.1500 
 20 H        4.7050    -0.7090     0.1630 H     1 <1>   0.1500 
 21 H       -1.3710    -1.1040    -1.8550 H     1 <1>   0.0800 
 22 H       -0.8610    -1.0940    -0.1590 H     1 <1>   0.0800 
 23 H        0.8580    -4.5970    -0.5100 H     1 <1>   0.0800 
 24 H        1.3210    -4.2810     1.1440 H     1 <1>   0.0800 
 25 H        2.4690    -4.9380     0.0010 H     1 <1>   0.0800 
 26 H       -1.9210    -3.2990     0.1620 H     1 <1>   0.0800 
 27 H       -2.3590    -3.3440    -1.5300 H     1 <1>   0.0800 
 28 H        3.7520    -3.6120     1.8800 H     1 <1>   0.0800 
 29 H        5.0980    -2.6210     1.4000 H     1 <1>   0.0800 
 30 H        4.6690    -4.0110     0.4420 H     1 <1>   0.0800 
 31 H       -3.7590    -1.3800    -1.1430 H     1 <1>   0.4500 
 32 H       -2.7550    -0.3730     0.7690 H     1 <1>   0.0800 
 33 H       -3.1050    -1.7950     1.7120 H     1 <1>   0.0800 
 34 H       -4.3780    -3.7690     0.4740 H     1 <1>   0.0800 
 35 H       -4.7770    -3.5170    -1.2030 H     1 <1>   0.0800 
 36 H       -5.1640     0.1170     0.5550 H     1 <1>   0.0800 
 37 H       -4.7810    -0.1370     2.2410 H     1 <1>   0.0800 
 38 H       -6.7030    -3.1160     0.3680 H     1 <1>   0.0800 
 39 H       -6.3360    -1.7000    -0.5880 H     1 <1>   0.0800 
@<TRIPOS>BOND
  1   1   2  1   
  2   2   3  ar  
  3   2   4  ar  
  4   3   5  1   
  5   3   6  ar  
  6   4   7  ar  
  7   4  19  1   
  8   5   8  1   
  9   6   9  ar  
 10   6  10  1   
 11   7   9  ar  
 12   7  20  1   
 13   8  11  1   
 14   8  21  1   
 15   8  22  1   
 16   9  12  1   
 17  10  23  1   
 18  10  24  1   
 19  10  25  1   
 20  11  13  1   
 21  11  26  1   
 22  11  27  1   
 23  12  28  1   
 24  12  29  1   
 25  12  30  1   
 26  13  14  1   
 27  13  15  1   
 28  13  31  1   
 29  14  16  1   
 30  14  32  1   
 31  14  33  1   
 32  15  17  1   
 33  15  34  1   
 34  15  35  1   
 35  16  18  1   
 36  16  36  1   
 37  16  37  1   
 38  17  18  1   
 39  17  38  1   
 40  17  39  1   
@<TRIPOS>SUBSTRUCTURE
  1 ****   8 GROUP 4 **** **** 0

# MOE 2024.06 (io_trps.svl 2023.06)
