@<TRIPOS>MOLECULE
NONAME
44 45 1 0 0 
SMALL
USER_CHARGES


@<TRIPOS>ATOM
  1 O        1.5100    -5.3290     0.2360 O.3   1 <1>  -0.3630 
  2 C        0.3140    -5.9340     0.4490 C.ar  1 <1>   0.0830 
  3 C        2.7190    -6.0260     0.3900 C.3   1 <1>   0.1200 
  4 C       -0.8180    -5.1540     0.2750 C.ar  1 <1>  -0.1500 
  5 C        0.1750    -7.2680     0.8240 C.ar  1 <1>  -0.1500 
  6 C        3.8470    -5.0430     0.0830 C.3   1 <1>  -0.1600 
  7 C       -2.0830    -5.6830     0.4710 C.ar  1 <1>  -0.1440 
  8 C       -1.0870    -7.8010     1.0190 C.ar  1 <1>  -0.1500 
  9 C        5.2090    -5.7150     0.2400 C.3   1 <1>   0.3430 
 10 C       -2.2110    -7.0120     0.8430 C.ar  1 <1>  -0.1500 
 11 C       -3.3180    -4.8180     0.2780 C.3   1 <1>  -0.0160 
 12 N        6.2990    -4.7840    -0.1660 N.4   1 <1>  -0.9590 
 13 C       -3.8250    -4.9180    -1.1620 C.3   1 <1>  -0.2400 
 14 C        7.5730    -5.5310    -0.3860 C.3   1 <1>   0.3430 
 15 C        6.4870    -3.6650     0.8100 C.3   1 <1>   0.3430 
 16 C        8.6360    -4.5860    -0.9500 C.3   1 <1>  -0.1600 
 17 C        7.5280    -2.6810     0.2730 C.3   1 <1>  -0.1600 
 18 C        8.8610    -3.3750    -0.0360 C.3   1 <1>  -0.1600 
 19 H        2.7200    -6.8530    -0.3000 H     1 <1>   0.0800 
 20 H        2.7740    -6.3820     1.4050 H     1 <1>   0.0800 
 21 H       -0.7000    -4.1270    -0.0170 H     1 <1>   0.1500 
 22 H        1.0250    -7.9050     0.9680 H     1 <1>   0.1500 
 23 H        3.7580    -4.2140     0.7620 H     1 <1>   0.0800 
 24 H        3.7270    -4.6950    -0.9280 H     1 <1>   0.0800 
 25 H       -1.1980    -8.8310     1.3080 H     1 <1>   0.1500 
 26 H        5.2350    -6.5920    -0.3890 H     1 <1>   0.0800 
 27 H        5.3520    -6.0300     1.2610 H     1 <1>   0.0800 
 28 H       -3.1880    -7.4380     0.9960 H     1 <1>   0.1500 
 29 H       -3.0820    -3.7930     0.5070 H     1 <1>   0.0800 
 30 H       -4.0910    -5.1330     0.9570 H     1 <1>   0.0800 
 31 H        6.0400    -4.3590    -1.0660 H     1 <1>   0.4500 
 32 H       -3.0640    -4.5880    -1.8460 H     1 <1>   0.0800 
 33 H       -4.6980    -4.3040    -1.2920 H     1 <1>   0.0800 
 34 H       -4.0780    -5.9370    -1.3950 H     1 <1>   0.0800 
 35 H        7.4130    -6.3420    -1.0790 H     1 <1>   0.0800 
 36 H        7.9200    -5.9450     0.5480 H     1 <1>   0.0800 
 37 H        6.8180    -4.0590     1.7570 H     1 <1>   0.0800 
 38 H        5.5570    -3.1440     0.9650 H     1 <1>   0.0800 
 39 H        8.3390    -4.2570    -1.9310 H     1 <1>   0.0800 
 40 H        9.5620    -5.1240    -1.0600 H     1 <1>   0.0800 
 41 H        7.6920    -1.9090     1.0050 H     1 <1>   0.0800 
 42 H        7.1470    -2.2050    -0.6130 H     1 <1>   0.0800 
 43 H        9.5350    -2.6790    -0.5090 H     1 <1>   0.0800 
 44 H        9.3200    -3.6990     0.8840 H     1 <1>   0.0800 
@<TRIPOS>BOND
  1   1   2  1   
  2   1   3  1   
  3   2   4  ar  
  4   2   5  ar  
  5   3   6  1   
  6   3  19  1   
  7   3  20  1   
  8   4   7  ar  
  9   4  21  1   
 10   5   8  ar  
 11   5  22  1   
 12   6   9  1   
 13   6  23  1   
 14   6  24  1   
 15   7  10  ar  
 16   7  11  1   
 17   8  10  ar  
 18   8  25  1   
 19   9  12  1   
 20   9  26  1   
 21   9  27  1   
 22  10  28  1   
 23  11  13  1   
 24  11  29  1   
 25  11  30  1   
 26  12  14  1   
 27  12  15  1   
 28  12  31  1   
 29  13  32  1   
 30  13  33  1   
 31  13  34  1   
 32  14  16  1   
 33  14  35  1   
 34  14  36  1   
 35  15  17  1   
 36  15  37  1   
 37  15  38  1   
 38  16  18  1   
 39  16  39  1   
 40  16  40  1   
 41  17  18  1   
 42  17  41  1   
 43  17  42  1   
 44  18  43  1   
 45  18  44  1   
@<TRIPOS>SUBSTRUCTURE
  1 ****   3 GROUP 4 **** **** 0

# MOE 2024.06 (io_trps.svl 2023.06)
