@<TRIPOS>MOLECULE
NONAME
35 37 1 0 0 
SMALL
USER_CHARGES


@<TRIPOS>ATOM
  1 BR      -0.0290     0.5350    -1.0310 Br    1 <1>  -0.1110 
  2 C        1.7030    -0.2320    -0.7040 C.ar  1 <1>   0.1110 
  3 C        2.6000    -0.3250    -1.7490 C.ar  1 <1>  -0.1500 
  4 C        2.0090    -0.6730     0.5690 C.ar  1 <1>  -0.1500 
  5 C        3.8460    -0.8740    -1.5050 C.ar  1 <1>  -0.1500 
  6 C        3.2590    -1.2190     0.7970 C.ar  1 <1>  -0.1500 
  7 C        4.2040    -1.3200    -0.2290 C.ar  1 <1>   0.0410 
  8 C        5.5080    -1.8880     0.0240 C.2   1 <1>   0.6120 
  9 N        5.7510    -3.1620    -0.0050 N.2   1 <1>  -0.2600 
 10 N        6.6480    -1.1580     0.3250 N.pl3 1 <1>  -0.7640 
 11 N        7.0760    -3.2530     0.2780 N.pl3 1 <1>  -0.3930 
 12 C        7.5950    -2.0650     0.4670 C.cat 1 <1>   0.7360 
 13 C        6.9040     0.2920     0.4720 C.3   1 <1>   0.4340 
 14 S        9.1600    -1.8180     0.8090 S.3   1 <1>  -0.9360 
 15 C        5.9500     0.9430     1.4830 C.3   1 <1>  -0.1600 
 16 C        6.8420     0.9960    -0.8890 C.3   1 <1>  -0.1600 
 17 C        6.2550     2.4410     1.6350 C.3   1 <1>  -0.1600 
 18 C        7.1360     2.4970    -0.7470 C.3   1 <1>  -0.1600 
 19 C        6.1980     3.1550     0.2760 C.3   1 <1>  -0.1600 
 20 H        2.3240     0.0220    -2.7300 H     1 <1>   0.1500 
 21 H        1.2820    -0.5900     1.3580 H     1 <1>   0.1500 
 22 H        4.5540    -0.9620    -2.3120 H     1 <1>   0.1500 
 23 H        3.5120    -1.5710     1.7840 H     1 <1>   0.1500 
 24 H        7.6560    -4.0900     0.3450 H     1 <1>   0.4500 
 25 H        7.9010     0.4340     0.8550 H     1 <1>   0.0800 
 26 H        6.0580     0.4570     2.4360 H     1 <1>   0.0800 
 27 H        4.9350     0.8470     1.1530 H     1 <1>   0.0800 
 28 H        5.8670     0.8790    -1.3190 H     1 <1>   0.0800 
 29 H        7.5690     0.5520    -1.5470 H     1 <1>   0.0800 
 30 H        7.2360     2.5660     2.0630 H     1 <1>   0.0800 
 31 H        5.5440     2.8890     2.3080 H     1 <1>   0.0800 
 32 H        7.0250     2.9800    -1.7030 H     1 <1>   0.0800 
 33 H        8.1570     2.6310    -0.4300 H     1 <1>   0.0800 
 34 H        6.4720     4.1880     0.4010 H     1 <1>   0.0800 
 35 H        5.1880     3.1290    -0.0990 H     1 <1>   0.0800 
@<TRIPOS>BOND
  1   1   2  1   
  2   2   3  ar  
  3   2   4  ar  
  4   3   5  ar  
  5   3  20  1   
  6   4   6  ar  
  7   4  21  1   
  8   5   7  ar  
  9   5  22  1   
 10   6   7  ar  
 11   6  23  1   
 12   7   8  1   
 13   8   9  2   
 14   8  10  1   
 15   9  11  1   
 16  10  12  ar  
 17  10  13  1   
 18  11  12  ar  
 19  11  24  1   
 20  12  14  1   
 21  13  15  1   
 22  13  16  1   
 23  13  25  1   
 24  15  17  1   
 25  15  26  1   
 26  15  27  1   
 27  16  18  1   
 28  16  28  1   
 29  16  29  1   
 30  17  19  1   
 31  17  30  1   
 32  17  31  1   
 33  18  19  1   
 34  18  32  1   
 35  18  33  1   
 36  19  34  1   
 37  19  35  1   
@<TRIPOS>SUBSTRUCTURE
  1 ****   7 GROUP 4 **** **** 0

# MOE 2024.06 (io_trps.svl 2023.06)
