@<TRIPOS>MOLECULE
NONAME
31 31 1 0 0 
SMALL
USER_CHARGES


@<TRIPOS>ATOM
  1 BR      -0.6920     0.6010     1.9570 Br    1 <1>  -0.1110 
  2 C       -1.5920    -0.9090     1.1600 C.ar  1 <1>   0.1110 
  3 C       -2.6500    -0.7370     0.2780 C.ar  1 <1>  -0.1440 
  4 C       -1.1280    -2.1500     1.5290 C.ar  1 <1>  -0.1500 
  5 C       -3.2750    -1.8830    -0.2200 C.ar  1 <1>  -0.1440 
  6 C       -3.0990     0.6710    -0.1180 C.3   1 <1>  -0.0960 
  7 C       -1.7130    -3.2970     1.0120 C.ar  1 <1>   0.0860 
  8 C       -2.7910    -3.1510     0.1230 C.ar  1 <1>  -0.1440 
  9 C       -4.4960    -1.7430    -1.1350 C.3   1 <1>  -0.0960 
 10 C       -1.1710    -4.5800     1.4160 C.2   1 <1>   0.5440 
 11 C       -3.4310    -4.4130    -0.4660 C.3   1 <1>  -0.0970 
 12 O       -1.7450    -5.2840     2.2190 O.2   1 <1>  -0.5700 
 13 N        0.0000    -5.0580     0.9160 N.am  1 <1>  -0.7300 
 14 C        0.8240    -4.4880    -0.1660 C.3   1 <1>   0.1400 
 15 C        0.8290    -5.4650    -1.3350 C.3   1 <1>  -0.2400 
 16 H       -0.3110    -2.2330     2.2220 H     1 <1>   0.1500 
 17 H       -2.2990     1.3830    -0.0400 H     1 <1>   0.0800 
 18 H       -3.9050     0.9880     0.5190 H     1 <1>   0.0800 
 19 H       -3.4270     0.6980    -1.1400 H     1 <1>   0.0800 
 20 H       -5.0740    -0.8730    -0.8860 H     1 <1>   0.0800 
 21 H       -5.1650    -2.5760    -1.0370 H     1 <1>   0.0800 
 22 H       -4.1780    -1.6700    -2.1590 H     1 <1>   0.0800 
 23 H       -3.6590    -4.2750    -1.5070 H     1 <1>   0.0800 
 24 H       -4.3370    -4.6410     0.0670 H     1 <1>   0.0800 
 25 H       -2.7850    -5.2690    -0.4040 H     1 <1>   0.0800 
 26 H        0.2780    -5.9770     1.2670 H     1 <1>   0.3700 
 27 H        1.8280    -4.3330     0.1940 H     1 <1>   0.0800 
 28 H        0.4260    -3.5390    -0.4850 H     1 <1>   0.0800 
 29 H        1.2500    -6.4080    -1.0360 H     1 <1>   0.0800 
 30 H        1.4230    -5.0660    -2.1370 H     1 <1>   0.0800 
 31 H       -0.1730    -5.6160    -1.6960 H     1 <1>   0.0800 
@<TRIPOS>BOND
  1   1   2  1   
  2   2   3  ar  
  3   2   4  ar  
  4   3   5  ar  
  5   3   6  1   
  6   4   7  ar  
  7   4  16  1   
  8   5   8  ar  
  9   5   9  1   
 10   6  17  1   
 11   6  18  1   
 12   6  19  1   
 13   7   8  ar  
 14   7  10  1   
 15   8  11  1   
 16   9  20  1   
 17   9  21  1   
 18   9  22  1   
 19  10  12  2   
 20  10  13  am  
 21  11  23  1   
 22  11  24  1   
 23  11  25  1   
 24  13  14  1   
 25  13  26  1   
 26  14  15  1   
 27  14  27  1   
 28  14  28  1   
 29  15  29  1   
 30  15  30  1   
 31  15  31  1   
@<TRIPOS>SUBSTRUCTURE
  1 ****   7 GROUP 4 **** **** 0

# MOE 2024.06 (io_trps.svl 2023.06)
