@<TRIPOS>MOLECULE
NONAME
29 28 1 0 0 
SMALL
USER_CHARGES


@<TRIPOS>ATOM
  1 O       -3.4700     1.6010     1.3250 O.co2 1 <1>  -0.9000 
  2 C       -3.6520     0.7530     0.4480 C.2   1 <1>   0.9060 
  3 O       -2.7520     0.3350    -0.2830 O.co2 1 <1>  -0.9000 
  4 C       -5.0390     0.2070     0.2720 C.3   1 <1>  -0.2660 
  5 C       -5.9310     1.2810    -0.3320 C.3   1 <1>   0.1400 
  6 N       -7.3200     0.7740    -0.3580 N.am  1 <1>  -0.7300 
  7 C       -8.2370     1.0100    -1.3280 C.2   1 <1>   0.5690 
  8 O       -8.0130     1.6990    -2.2930 O.2   1 <1>  -0.5700 
  9 C       -9.6060     0.3770    -1.1810 C.3   1 <1>  -0.0990 
 10 C      -10.4800     1.1230    -0.1600 C.3   1 <1>  -0.1600 
 11 C      -11.8610     0.4710    -0.0210 C.3   1 <1>  -0.1600 
 12 C      -12.7250     1.2210     0.9990 C.3   1 <1>  -0.1600 
 13 C      -14.1030     0.5690     1.1400 C.3   1 <1>  -0.2400 
 14 H       -5.3950    -0.0830     1.2410 H     1 <1>   0.0800 
 15 H       -4.9920    -0.6490    -0.3730 H     1 <1>   0.0800 
 16 H       -5.5990     1.5230    -1.3290 H     1 <1>   0.0800 
 17 H       -5.8850     2.1740     0.2710 H     1 <1>   0.0800 
 18 H       -7.5700     0.2130     0.4540 H     1 <1>   0.3700 
 19 H       -9.4810    -0.6480    -0.8820 H     1 <1>   0.0800 
 20 H      -10.0870     0.3850    -2.1420 H     1 <1>   0.0800 
 21 H      -10.5930     2.1460    -0.4810 H     1 <1>   0.0800 
 22 H       -9.9860     1.1310     0.7970 H     1 <1>   0.0800 
 23 H      -11.7450    -0.5530     0.2940 H     1 <1>   0.0800 
 24 H      -12.3560     0.4730    -0.9770 H     1 <1>   0.0800 
 25 H      -12.8480     2.2440     0.6850 H     1 <1>   0.0800 
 26 H      -12.2350     1.2230     1.9580 H     1 <1>   0.0800 
 27 H      -14.6200     0.5770     0.1960 H     1 <1>   0.0800 
 28 H      -14.6940     1.1100     1.8580 H     1 <1>   0.0800 
 29 H      -14.0060    -0.4490     1.4740 H     1 <1>   0.0800 
@<TRIPOS>BOND
  1   1   2  ar  
  2   2   3  ar  
  3   2   4  1   
  4   4   5  1   
  5   4  14  1   
  6   4  15  1   
  7   5   6  1   
  8   5  16  1   
  9   5  17  1   
 10   6   7  am  
 11   6  18  1   
 12   7   8  2   
 13   7   9  1   
 14   9  10  1   
 15   9  19  1   
 16   9  20  1   
 17  10  11  1   
 18  10  21  1   
 19  10  22  1   
 20  11  12  1   
 21  11  23  1   
 22  11  24  1   
 23  12  13  1   
 24  12  25  1   
 25  12  26  1   
 26  13  27  1   
 27  13  28  1   
 28  13  29  1   
@<TRIPOS>SUBSTRUCTURE
  1 ****   6 GROUP 4 **** **** 0

# MOE 2024.06 (io_trps.svl 2023.06)
