@<TRIPOS>MOLECULE
NONAME
44 46 1 0 0 
SMALL
USER_CHARGES


@<TRIPOS>ATOM
  1 O       -0.3280    -1.3130    -1.4730 O.2   1 <1>  -0.5700 
  2 C       -0.2840    -2.1780    -0.6180 C.2   1 <1>   0.5440 
  3 N       -1.4660    -2.5940    -0.0390 N.am  1 <1>  -0.6600 
  4 C        0.9970    -2.7540    -0.2530 C.ar  1 <1>   0.0860 
  5 C       -2.7330    -1.8140    -0.1980 C.3   1 <1>   0.1400 
  6 C       -1.6750    -3.9660     0.5180 C.3   1 <1>   0.1400 
  7 C        1.9190    -3.1290    -1.2310 C.ar  1 <1>  -0.1500 
  8 C        1.3630    -2.9480     1.0800 C.ar  1 <1>  -0.1500 
  9 C       -3.7410    -2.5920    -1.0530 C.3   1 <1>   0.1400 
 10 C       -2.7110    -4.7480    -0.3100 C.3   1 <1>   0.1400 
 11 C        3.1390    -3.6900    -0.9030 C.ar  1 <1>  -0.1500 
 12 C        2.5800    -3.5090     1.4180 C.ar  1 <1>  -0.1500 
 13 N       -3.9690    -3.9590    -0.4860 N.am  1 <1>  -0.6600 
 14 C        3.4780    -3.8870     0.4330 C.ar  1 <1>   0.0820 
 15 C       -5.1640    -4.3010     0.1180 C.2   1 <1>   0.7150 
 16 O        4.6460    -4.4300     0.8440 O.3   1 <1>  -0.3630 
 17 O       -5.9420    -3.4070     0.4040 O.2   1 <1>  -0.5700 
 18 C       -5.4960    -5.6820     0.4030 C.2   1 <1>   0.0550 
 19 C        5.6530    -4.8030    -0.0660 C.3   1 <1>   0.1200 
 20 O       -6.1150    -6.0230     1.5300 O.3   1 <1>  -0.2800 
 21 C       -5.2790    -6.8160    -0.3230 C.2   1 <1>  -0.1500 
 22 C        6.8320    -5.3520     0.7320 C.3   1 <1>  -0.2400 
 23 C       -6.2970    -7.3240     1.5410 C.2   1 <1>  -0.0100 
 24 C       -5.7980    -7.8790     0.4170 C.2   1 <1>  -0.1500 
 25 H       -2.5380    -0.8600    -0.6550 H     1 <1>   0.0800 
 26 H       -3.1610    -1.6290     0.7720 H     1 <1>   0.0800 
 27 H       -2.0220    -3.8830     1.5340 H     1 <1>   0.0800 
 28 H       -0.7530    -4.5190     0.5270 H     1 <1>   0.0800 
 29 H        1.6640    -2.9690    -2.2650 H     1 <1>   0.1500 
 30 H        0.6810    -2.6490     1.8570 H     1 <1>   0.1500 
 31 H       -3.3550    -2.6820    -2.0540 H     1 <1>   0.0800 
 32 H       -4.6640    -2.0420    -1.1070 H     1 <1>   0.0800 
 33 H       -2.9100    -5.6810     0.1860 H     1 <1>   0.0800 
 34 H       -2.2970    -4.9680    -1.2780 H     1 <1>   0.0800 
 35 H        3.8120    -3.9620    -1.6940 H     1 <1>   0.1500 
 36 H        2.8500    -3.6540     2.4490 H     1 <1>   0.1500 
 37 H        5.9460    -3.9320    -0.6270 H     1 <1>   0.0800 
 38 H        5.2560    -5.5560    -0.7250 H     1 <1>   0.0800 
 39 H       -4.8100    -6.8980    -1.2870 H     1 <1>   0.1500 
 40 H        7.2100    -4.5970     1.3980 H     1 <1>   0.0800 
 41 H        7.6200    -5.6470     0.0640 H     1 <1>   0.0800 
 42 H        6.5240    -6.2110     1.3010 H     1 <1>   0.0800 
 43 H       -6.7910    -7.7740     2.3850 H     1 <1>   0.1500 
 44 H       -5.7930    -8.9150     0.1270 H     1 <1>   0.1500 
@<TRIPOS>BOND
  1   1   2  2   
  2   2   3  am  
  3   2   4  1   
  4   3   5  1   
  5   3   6  1   
  6   4   7  ar  
  7   4   8  ar  
  8   5   9  1   
  9   5  25  1   
 10   5  26  1   
 11   6  10  1   
 12   6  27  1   
 13   6  28  1   
 14   7  11  ar  
 15   7  29  1   
 16   8  12  ar  
 17   8  30  1   
 18   9  13  1   
 19   9  31  1   
 20   9  32  1   
 21  10  13  1   
 22  10  33  1   
 23  10  34  1   
 24  11  14  ar  
 25  11  35  1   
 26  12  14  ar  
 27  12  36  1   
 28  13  15  am  
 29  14  16  1   
 30  15  17  2   
 31  15  18  1   
 32  16  19  1   
 33  18  20  1   
 34  18  21  2   
 35  19  22  1   
 36  19  37  1   
 37  19  38  1   
 38  20  23  1   
 39  21  24  1   
 40  21  39  1   
 41  22  40  1   
 42  22  41  1   
 43  22  42  1   
 44  23  24  2   
 45  23  43  1   
 46  24  44  1   
@<TRIPOS>SUBSTRUCTURE
  1 ****   6 GROUP 4 **** **** 0

# MOE 2024.06 (io_trps.svl 2023.06)
