@<TRIPOS>MOLECULE
NONAME
44 46 1 0 0 
SMALL
USER_CHARGES


@<TRIPOS>ATOM
  1 O        1.1670    -0.4360     0.5440 O.3   1 <1>  -0.6800 
  2 C        0.7540    -1.6780     0.9860 C.3   1 <1>   0.1200 
  3 C        1.1870    -2.7020    -0.0600 C.3   1 <1>  -0.1600 
  4 C        0.7950    -4.1190     0.3530 C.3   1 <1>   0.2090 
  5 N        1.2630    -5.0590    -0.6920 N.pl3 1 <1>  -0.8690 
  6 C        1.6310    -6.3320    -0.4200 C.2   1 <1>   0.4790 
  7 N        0.6370    -7.2290    -0.1690 N.pl3 1 <1>  -0.6290 
  8 C        2.9650    -6.7470    -0.3600 C.2   1 <1>  -0.1380 
  9 C        0.9370    -8.4760     0.2730 C.cat 1 <1>   0.7910 
 10 C       -0.7570    -7.1720    -0.3350 C.ar  1 <1>   0.3090 
 11 C        3.2900    -8.0460     0.0550 C.2   1 <1>  -0.1380 
 12 C        4.0740    -5.7500    -0.7370 C.3   1 <1>  -0.0220 
 13 N       -0.2150    -9.1570     0.5040 N.pl3 1 <1>  -0.7000 
 14 C        2.2540    -8.9140     0.3950 C.2   1 <1>   0.0740 
 15 C       -1.2750    -8.3720     0.1200 C.ar  1 <1>   0.3090 
 16 C       -1.6170    -6.2160    -0.8700 C.ar  1 <1>  -0.1090 
 17 C        4.7510    -8.5110     0.1360 C.3   1 <1>  -0.1020 
 18 C        4.5350    -4.9380     0.4790 C.3   1 <1>  -0.2400 
 19 C        2.4160   -10.2540     0.8480 C.1   1 <1>   0.4920 
 20 C       -2.6420    -8.6280     0.1100 C.ar  1 <1>  -0.1090 
 21 C       -2.9770    -6.4620    -0.8890 C.ar  1 <1>  -0.1500 
 22 N        2.4400   -11.3320     1.2140 N.1   1 <1>  -0.5570 
 23 C       -3.4900    -7.6620    -0.3930 C.ar  1 <1>  -0.1500 
 24 H        0.9130     0.2670     1.1750 H     1 <1>   0.4000 
 25 H       -0.3170    -1.6590     1.0980 H     1 <1>   0.0800 
 26 H        1.2210    -1.8690     1.9390 H     1 <1>   0.0800 
 27 H        2.2550    -2.6440    -0.1760 H     1 <1>   0.0800 
 28 H        0.7130    -2.4610    -0.9960 H     1 <1>   0.0800 
 29 H       -0.2730    -4.1870     0.4610 H     1 <1>   0.0800 
 30 H        1.2510    -4.3690     1.2970 H     1 <1>   0.0800 
 31 H        1.8270    -4.5640    -1.3920 H     1 <1>   0.4000 
 32 H        3.7290    -5.0730    -1.4980 H     1 <1>   0.0800 
 33 H        4.9190    -6.2560    -1.1660 H     1 <1>   0.0800 
 34 H       -0.2860   -10.1240     0.8350 H     1 <1>   0.4500 
 35 H       -1.2280    -5.3000    -1.2760 H     1 <1>   0.1500 
 36 H        5.3470    -7.8010     0.6800 H     1 <1>   0.0800 
 37 H        5.1590    -8.6110    -0.8550 H     1 <1>   0.0800 
 38 H        4.8680    -9.4570     0.6320 H     1 <1>   0.0800 
 39 H        3.7190    -4.3730     0.8910 H     1 <1>   0.0800 
 40 H        5.3100    -4.2510     0.1890 H     1 <1>   0.0800 
 41 H        4.9230    -5.5830     1.2470 H     1 <1>   0.0800 
 42 H       -3.0240    -9.5620     0.4830 H     1 <1>   0.1500 
 43 H       -3.6540    -5.7260    -1.2930 H     1 <1>   0.1500 
 44 H       -4.5550    -7.8310    -0.4150 H     1 <1>   0.1500 
@<TRIPOS>BOND
  1   1   2  1   
  2   1  24  1   
  3   2   3  1   
  4   2  25  1   
  5   2  26  1   
  6   3   4  1   
  7   3  27  1   
  8   3  28  1   
  9   4   5  1   
 10   4  29  1   
 11   4  30  1   
 12   5   6  1   
 13   5  31  1   
 14   6   7  1   
 15   6   8  2   
 16   7   9  ar  
 17   7  10  1   
 18   8  11  1   
 19   8  12  1   
 20   9  13  ar  
 21   9  14  1   
 22  10  15  ar  
 23  10  16  ar  
 24  11  14  2   
 25  11  17  1   
 26  12  18  1   
 27  12  32  1   
 28  12  33  1   
 29  13  15  1   
 30  13  34  1   
 31  14  19  1   
 32  15  20  ar  
 33  16  21  ar  
 34  16  35  1   
 35  17  36  1   
 36  17  37  1   
 37  17  38  1   
 38  18  39  1   
 39  18  40  1   
 40  18  41  1   
 41  19  22  3   
 42  20  23  ar  
 43  20  42  1   
 44  21  23  ar  
 45  21  43  1   
 46  23  44  1   
@<TRIPOS>SUBSTRUCTURE
  1 ****   7 GROUP 4 **** **** 0

# MOE 2024.06 (io_trps.svl 2023.06)
