@<TRIPOS>MOLECULE
NONAME
51 53 1 0 0 
SMALL
USER_CHARGES


@<TRIPOS>ATOM
  1 O       -0.0230    -0.5510    -0.0420 O.2   1 <1>  -0.5700 
  2 C       -0.5850     0.5170    -0.1790 C.2   1 <1>   0.6900 
  3 N       -1.9450     0.6190    -0.1880 N.am  1 <1>  -0.5470 
  4 N        0.1230     1.6750    -0.3430 N.am  1 <1>  -0.5470 
  5 C       -2.9750    -0.3390    -0.1390 C.ar  1 <1>   0.1170 
  6 C        1.4860     1.9370    -0.1830 C.ar  1 <1>   0.1170 
  7 C       -4.2600     0.0930     0.2070 C.ar  1 <1>   0.0830 
  8 C       -2.7770    -1.6840    -0.4330 C.ar  1 <1>  -0.1500 
  9 C        2.0570     3.0040    -0.8670 C.ar  1 <1>  -0.1500 
 10 C        2.3060     1.1890     0.6580 C.ar  1 <1>  -0.1500 
 11 O       -4.4200     1.4260     0.4750 O.3   1 <1>  -0.3630 
 12 C       -5.3090    -0.8180     0.2650 C.ar  1 <1>  -0.1500 
 13 C       -3.8220    -2.5880    -0.3740 C.ar  1 <1>  -0.1500 
 14 C        3.3980     3.3030    -0.7270 C.ar  1 <1>  -0.1500 
 15 C        3.6470     1.4910     0.7960 C.ar  1 <1>  -0.1500 
 16 C       -5.6660     1.9350     0.9000 C.3   1 <1>   0.0400 
 17 C       -5.0960    -2.1560    -0.0210 C.ar  1 <1>   0.0830 
 18 C        4.2310     2.5490     0.0990 C.ar  1 <1>   0.0860 
 19 O       -6.1780    -2.9760     0.0630 O.3   1 <1>  -0.3630 
 20 C        5.6370     2.8680     0.2300 C.2   1 <1>   0.5440 
 21 C       -6.0580    -4.3590    -0.1870 C.3   1 <1>   0.0400 
 22 O        5.9610     3.9980     0.5470 O.2   1 <1>  -0.5700 
 23 N        6.6290     1.9370    -0.0020 N.am  1 <1>  -0.6600 
 24 C        8.0590     2.2090     0.3310 C.3   1 <1>   0.1400 
 25 C        6.4380     0.6510    -0.7380 C.3   1 <1>   0.1400 
 26 C        8.7060     0.9750     0.9820 C.3   1 <1>   0.1200 
 27 C        7.1700    -0.4940    -0.0190 C.3   1 <1>   0.1200 
 28 O        8.5150    -0.1670     0.1920 O.3   1 <1>  -0.5600 
 29 H       -2.3090     1.5550    -0.0230 H     1 <1>   0.3700 
 30 H       -0.4210     2.4350    -0.7380 H     1 <1>   0.3700 
 31 H       -1.8010    -2.0360    -0.7130 H     1 <1>   0.1500 
 32 H        1.4480     3.6060    -1.5170 H     1 <1>   0.1500 
 33 H        1.8890     0.3670     1.2120 H     1 <1>   0.1500 
 34 H       -6.3050    -0.5230     0.5280 H     1 <1>   0.1500 
 35 H       -3.6210    -3.6170    -0.6050 H     1 <1>   0.1500 
 36 H        3.8240     4.1360    -1.2600 H     1 <1>   0.1500 
 37 H        4.2580     0.9040     1.4580 H     1 <1>   0.1500 
 38 H       -5.5540     2.9890     1.0790 H     1 <1>   0.0800 
 39 H       -5.9540     1.4390     1.8100 H     1 <1>   0.0800 
 40 H       -6.3940     1.7720     0.1250 H     1 <1>   0.0800 
 41 H       -7.0270    -4.8070    -0.0540 H     1 <1>   0.0800 
 42 H       -5.3610    -4.7810     0.5150 H     1 <1>   0.0800 
 43 H       -5.7250    -4.5040    -1.1990 H     1 <1>   0.0800 
 44 H        8.1360     3.0440     1.0060 H     1 <1>   0.0800 
 45 H        8.5910     2.4590    -0.5700 H     1 <1>   0.0800 
 46 H        6.8420     0.7540    -1.7300 H     1 <1>   0.0800 
 47 H        5.3960     0.4070    -0.8340 H     1 <1>   0.0800 
 48 H        8.2800     0.7960     1.9540 H     1 <1>   0.0800 
 49 H        9.7650     1.1260     1.0910 H     1 <1>   0.0800 
 50 H        7.1410    -1.3870    -0.6180 H     1 <1>   0.0800 
 51 H        6.7110    -0.7000     0.9320 H     1 <1>   0.0800 
@<TRIPOS>BOND
  1   1   2  2   
  2   2   3  am  
  3   2   4  am  
  4   3   5  1   
  5   3  29  1   
  6   4   6  1   
  7   4  30  1   
  8   5   7  ar  
  9   5   8  ar  
 10   6   9  ar  
 11   6  10  ar  
 12   7  11  1   
 13   7  12  ar  
 14   8  13  ar  
 15   8  31  1   
 16   9  14  ar  
 17   9  32  1   
 18  10  15  ar  
 19  10  33  1   
 20  11  16  1   
 21  12  17  ar  
 22  12  34  1   
 23  13  17  ar  
 24  13  35  1   
 25  14  18  ar  
 26  14  36  1   
 27  15  18  ar  
 28  15  37  1   
 29  16  38  1   
 30  16  39  1   
 31  16  40  1   
 32  17  19  1   
 33  18  20  1   
 34  19  21  1   
 35  20  22  2   
 36  20  23  am  
 37  21  41  1   
 38  21  42  1   
 39  21  43  1   
 40  23  24  1   
 41  23  25  1   
 42  24  26  1   
 43  24  44  1   
 44  24  45  1   
 45  25  27  1   
 46  25  46  1   
 47  25  47  1   
 48  26  28  1   
 49  26  48  1   
 50  26  49  1   
 51  27  28  1   
 52  27  50  1   
 53  27  51  1   
@<TRIPOS>SUBSTRUCTURE
  1 ****   4 GROUP 4 **** **** 0

# MOE 2024.06 (io_trps.svl 2023.06)
