@<TRIPOS>MOLECULE
NONAME
37 38 1 0 0 
SMALL
USER_CHARGES


@<TRIPOS>ATOM
  1 O        0.6590     5.4360    -0.5680 O.3   1 <1>  -0.5600 
  2 C        1.9690     5.9010    -0.7100 C.3   1 <1>   0.1200 
  3 C        0.4790     4.0800    -0.8630 C.3   1 <1>   0.1200 
  4 C        2.9140     5.1290     0.2310 C.3   1 <1>   0.3430 
  5 C        1.3490     3.2130     0.0660 C.3   1 <1>   0.3430 
  6 N        2.7920     3.6440     0.0340 N.4   1 <1>  -0.9590 
  7 C        3.6180     2.8820     1.0090 C.3   1 <1>   0.4860 
  8 C        3.5930     1.4160     0.6190 C.ar  1 <1>  -0.1440 
  9 C        4.3000     0.9760    -0.4920 C.ar  1 <1>  -0.1500 
 10 C        2.8600     0.5030     1.3660 C.ar  1 <1>  -0.1500 
 11 C        4.2600    -0.3570    -0.8560 C.ar  1 <1>  -0.1500 
 12 C        2.8220    -0.8320     1.0020 C.ar  1 <1>  -0.1500 
 13 C        3.5230    -1.2680    -0.1180 C.ar  1 <1>   0.0820 
 14 O        3.5410    -2.5520    -0.5500 O.3   1 <1>  -0.3620 
 15 C        2.9050    -3.5840     0.1690 C.3   1 <1>   0.2580 
 16 C        3.1440    -4.8860    -0.5700 C.2   1 <1>  -0.2880 
 17 C        2.1930    -5.7090    -1.0220 C.2   1 <1>  -0.3000 
 18 H        1.9720     6.9490    -0.4610 H     1 <1>   0.0800 
 19 H        2.2670     5.7930    -1.7390 H     1 <1>   0.0800 
 20 H        0.7260     3.9130    -1.8970 H     1 <1>   0.0800 
 21 H       -0.5620     3.8490    -0.7180 H     1 <1>   0.0800 
 22 H        2.6580     5.3840     1.2460 H     1 <1>   0.0800 
 23 H        3.9280     5.4450     0.0540 H     1 <1>   0.0800 
 24 H        1.2650     2.1790    -0.2300 H     1 <1>   0.0800 
 25 H        0.9640     3.3010     1.0690 H     1 <1>   0.0800 
 26 H        3.1470     3.4060    -0.9010 H     1 <1>   0.4500 
 27 H        3.2280     3.0050     2.0070 H     1 <1>   0.0800 
 28 H        4.6360     3.2350     0.9930 H     1 <1>   0.0800 
 29 H        4.8930     1.6530    -1.0830 H     1 <1>   0.1500 
 30 H        2.3140     0.8160     2.2400 H     1 <1>   0.1500 
 31 H        4.8040    -0.7080    -1.7160 H     1 <1>   0.1500 
 32 H        2.2470    -1.5150     1.5980 H     1 <1>   0.1500 
 33 H        1.8530    -3.3660     0.2260 H     1 <1>   0.0800 
 34 H        3.3340    -3.6270     1.1550 H     1 <1>   0.0800 
 35 H        4.1940    -5.0860    -0.7010 H     1 <1>   0.1500 
 36 H        2.3960    -6.6270    -1.5470 H     1 <1>   0.1500 
 37 H        1.1350    -5.5380    -0.9130 H     1 <1>   0.1500 
@<TRIPOS>BOND
  1   1   2  1   
  2   1   3  1   
  3   2   4  1   
  4   2  18  1   
  5   2  19  1   
  6   3   5  1   
  7   3  20  1   
  8   3  21  1   
  9   4   6  1   
 10   4  22  1   
 11   4  23  1   
 12   5   6  1   
 13   5  24  1   
 14   5  25  1   
 15   6   7  1   
 16   6  26  1   
 17   7   8  1   
 18   7  27  1   
 19   7  28  1   
 20   8   9  ar  
 21   8  10  ar  
 22   9  11  ar  
 23   9  29  1   
 24  10  12  ar  
 25  10  30  1   
 26  11  13  ar  
 27  11  31  1   
 28  12  13  ar  
 29  12  32  1   
 30  13  14  1   
 31  14  15  1   
 32  15  16  1   
 33  15  33  1   
 34  15  34  1   
 35  16  17  2   
 36  16  35  1   
 37  17  36  1   
 38  17  37  1   
@<TRIPOS>SUBSTRUCTURE
  1 ****   8 GROUP 4 **** **** 0

# MOE 2024.06 (io_trps.svl 2023.06)
