@<TRIPOS>MOLECULE
NONAME
28 28 1 0 0 
SMALL
USER_CHARGES


@<TRIPOS>ATOM
  1 S        0.0520     0.0690    -0.8580 S.3   1 <1>  -0.3710 
  2 C       -1.5040     0.7950    -0.3300 C.2   1 <1>   0.6510 
  3 C        1.2360     1.4880    -0.7810 C.3   1 <1>  -0.0100 
  4 N       -1.4800     2.0430    -0.0560 N.2   1 <1>  -0.6210 
  5 N       -2.6000    -0.0340    -0.2650 N.am  1 <1>  -0.4200 
  6 C       -2.6440     2.6320     0.3490 C.2   1 <1>   0.0210 
  7 C       -3.7900     0.5330     0.1620 C.2   1 <1>   0.6160 
  8 C       -2.5560    -1.4680    -0.6310 C.3   1 <1>   0.2780 
  9 O       -2.5810     3.8420     0.5920 O.3   1 <1>  -0.8500 
 10 C       -3.8150     1.8910     0.4700 C.2   1 <1>  -0.1240 
 11 O       -4.7930    -0.2050     0.2470 O.2   1 <1>  -0.5700 
 12 C       -2.2170    -2.3000     0.5940 C.2   1 <1>  -0.2880 
 13 C       -5.1020     2.5650     0.9340 C.3   1 <1>  -0.0220 
 14 C       -1.1370    -3.0760     0.7320 C.2   1 <1>  -0.3000 
 15 C       -5.9400     3.0170    -0.2650 C.3   1 <1>  -0.2400 
 16 H        2.2040     1.1340    -1.0820 H     1 <1>   0.0800 
 17 H        1.2470     1.8500     0.2320 H     1 <1>   0.0800 
 18 H        0.8730     2.2530    -1.4450 H     1 <1>   0.0800 
 19 H       -1.8370    -1.6350    -1.4120 H     1 <1>   0.0800 
 20 H       -3.5110    -1.7750    -1.0190 H     1 <1>   0.0800 
 21 H       -2.9610    -2.1910     1.3660 H     1 <1>   0.1500 
 22 H       -4.8540     3.4210     1.5380 H     1 <1>   0.0800 
 23 H       -5.6700     1.8880     1.5450 H     1 <1>   0.0800 
 24 H       -0.9230    -3.6530     1.6150 H     1 <1>   0.1500 
 25 H       -0.3760    -3.1930    -0.0200 H     1 <1>   0.1500 
 26 H       -5.3590     3.7010    -0.8610 H     1 <1>   0.0800 
 27 H       -6.8300     3.5140     0.0710 H     1 <1>   0.0800 
 28 H       -6.2100     2.1700    -0.8690 H     1 <1>   0.0800 
@<TRIPOS>BOND
  1   1   2  1   
  2   1   3  1   
  3   2   4  2   
  4   2   5  1   
  5   3  16  1   
  6   3  17  1   
  7   3  18  1   
  8   4   6  1   
  9   5   7  am  
 10   5   8  1   
 11   6   9  1   
 12   6  10  2   
 13   7  10  1   
 14   7  11  2   
 15   8  12  1   
 16   8  19  1   
 17   8  20  1   
 18  10  13  1   
 19  12  14  2   
 20  12  21  1   
 21  13  15  1   
 22  13  22  1   
 23  13  23  1   
 24  14  24  1   
 25  14  25  1   
 26  15  26  1   
 27  15  27  1   
 28  15  28  1   
@<TRIPOS>SUBSTRUCTURE
  1 ****   5 GROUP 4 **** **** 0

# MOE 2024.06 (io_trps.svl 2023.06)
