@<TRIPOS>MOLECULE
NONAME
49 50 1 0 0 
SMALL
USER_CHARGES


@<TRIPOS>ATOM
  1 S        0.4160     0.1330    -1.3540 S.o2  1 <1>   1.3330 
  2 O        1.7030    -0.0250    -1.9940 O.2   1 <1>  -0.6500 
  3 O       -0.7620    -0.4550    -1.9400 O.2   1 <1>  -0.6500 
  4 N        0.1500     1.8330    -1.1600 N.am  1 <1>  -0.6930 
  5 C        0.5570    -0.4010     0.3370 C.3   1 <1>  -0.1350 
  6 C       -1.0030     2.3410    -0.5650 C.ar  1 <1>   0.1990 
  7 C        1.2860     2.7590    -1.4670 C.3   1 <1>   0.2570 
  8 C       -0.9280     3.1080     0.5930 C.ar  1 <1>  -0.1500 
  9 C       -2.2570     2.0960    -1.1110 C.ar  1 <1>  -0.1500 
 10 C        2.4440     2.7010    -0.4630 C.2   1 <1>   0.5690 
 11 C       -2.0710     3.6090     1.1890 C.ar  1 <1>  -0.1500 
 12 C       -3.4020     2.5930    -0.5160 C.ar  1 <1>  -0.1500 
 13 O        2.5270     3.5570     0.3860 O.2   1 <1>  -0.5700 
 14 N        3.3500     1.6930    -0.5490 N.am  1 <1>  -0.7300 
 15 C       -3.3170     3.3530     0.6400 C.ar  1 <1>  -0.1430 
 16 C        4.5400     1.5190     0.2950 C.3   1 <1>   0.2200 
 17 C       -4.5740     3.9020     1.2940 C.3   1 <1>  -0.0170 
 18 C        5.7650     1.3670    -0.6120 C.3   1 <1>  -0.1600 
 19 C        4.3450     0.2840     1.1800 C.3   1 <1>  -0.1600 
 20 C       -4.9050     5.2900     0.7400 C.3   1 <1>  -0.2400 
 21 C        7.0300     1.0670     0.2050 C.3   1 <1>  -0.1600 
 22 C        5.6080    -0.0200     1.9990 C.3   1 <1>  -0.1600 
 23 C        6.8360    -0.1710     1.0910 C.3   1 <1>  -0.1600 
 24 H        0.7700    -1.4510     0.3760 H     1 <1>   0.0800 
 25 H       -0.3630    -0.2180     0.8580 H     1 <1>   0.0800 
 26 H        1.3430     0.1310     0.8320 H     1 <1>   0.0800 
 27 H        0.9180     3.7680    -1.4930 H     1 <1>   0.0800 
 28 H        1.6680     2.5320    -2.4460 H     1 <1>   0.0800 
 29 H        0.0280     3.3160     1.0380 H     1 <1>   0.1500 
 30 H       -2.3370     1.5130    -2.0110 H     1 <1>   0.1500 
 31 H       -1.9870     4.2020     2.0840 H     1 <1>   0.1500 
 32 H       -4.3610     2.3890    -0.9590 H     1 <1>   0.1500 
 33 H        3.1900     0.9470    -1.2430 H     1 <1>   0.3700 
 34 H        4.6710     2.3870     0.9220 H     1 <1>   0.0800 
 35 H       -4.4320     3.9630     2.3590 H     1 <1>   0.0800 
 36 H       -5.3990     3.2350     1.1130 H     1 <1>   0.0800 
 37 H        5.9100     2.2760    -1.1700 H     1 <1>   0.0800 
 38 H        5.6000     0.5620    -1.3070 H     1 <1>   0.0800 
 39 H        4.1140    -0.5670     0.5630 H     1 <1>   0.0800 
 40 H        3.5240     0.4570     1.8520 H     1 <1>   0.0800 
 41 H       -4.0920     5.9680     0.9300 H     1 <1>   0.0800 
 42 H       -5.7940     5.6740     1.2070 H     1 <1>   0.0800 
 43 H       -5.0660     5.2360    -0.3220 H     1 <1>   0.0800 
 44 H        7.2630     1.9160     0.8260 H     1 <1>   0.0800 
 45 H        7.8610     0.9080    -0.4600 H     1 <1>   0.0800 
 46 H        5.4640    -0.9250     2.5640 H     1 <1>   0.0800 
 47 H        5.7800     0.7810     2.6980 H     1 <1>   0.0800 
 48 H        7.7140    -0.3230     1.6950 H     1 <1>   0.0800 
 49 H        6.7130    -1.0400     0.4660 H     1 <1>   0.0800 
@<TRIPOS>BOND
  1   1   2  2   
  2   1   3  2   
  3   1   4  am  
  4   1   5  1   
  5   4   6  1   
  6   4   7  1   
  7   5  24  1   
  8   5  25  1   
  9   5  26  1   
 10   6   8  ar  
 11   6   9  ar  
 12   7  10  1   
 13   7  27  1   
 14   7  28  1   
 15   8  11  ar  
 16   8  29  1   
 17   9  12  ar  
 18   9  30  1   
 19  10  13  2   
 20  10  14  am  
 21  11  15  ar  
 22  11  31  1   
 23  12  15  ar  
 24  12  32  1   
 25  14  16  1   
 26  14  33  1   
 27  15  17  1   
 28  16  18  1   
 29  16  19  1   
 30  16  34  1   
 31  17  20  1   
 32  17  35  1   
 33  17  36  1   
 34  18  21  1   
 35  18  37  1   
 36  18  38  1   
 37  19  22  1   
 38  19  39  1   
 39  19  40  1   
 40  20  41  1   
 41  20  42  1   
 42  20  43  1   
 43  21  23  1   
 44  21  44  1   
 45  21  45  1   
 46  22  23  1   
 47  22  46  1   
 48  22  47  1   
 49  23  48  1   
 50  23  49  1   
@<TRIPOS>SUBSTRUCTURE
  1 ****   4 GROUP 4 **** **** 0

# MOE 2024.06 (io_trps.svl 2023.06)
