@<TRIPOS>MOLECULE
NONAME
42 43 1 0 0 
SMALL
USER_CHARGES


@<TRIPOS>ATOM
  1 S       -0.3190    -0.9660     0.2830 S.3   1 <1>  -0.2860 
  2 C        1.3580    -0.4140    -0.0470 C.2   1 <1>   0.2420 
  3 C       -0.9190    -1.4560    -1.4090 C.3   1 <1>   0.1310 
  4 N        1.8670    -0.3650    -1.2250 N.2   1 <1>  -0.3380 
  5 N        2.1900    -0.0110     0.9130 N.pl3 1 <1>   0.0480 
  6 C       -2.3780    -1.8820    -1.3870 C.2   1 <1>   0.5690 
  7 N        3.1090     0.0980    -1.0610 N.2   1 <1>  -0.3380 
  8 C        3.2870     0.3040     0.2050 C.2   1 <1>   0.0060 
  9 C        1.9420     0.0640     2.3670 C.3   1 <1>   0.0160 
 10 O       -2.7640    -2.6130    -2.2670 O.2   1 <1>  -0.5700 
 11 N       -3.1820    -1.4180    -0.3800 N.am  1 <1>  -0.5470 
 12 C        4.5680     0.8370     0.8390 C.3   1 <1>   0.0200 
 13 C       -4.5500    -1.6020    -0.1150 C.ar  1 <1>   0.1170 
 14 C        5.6330     1.2370    -0.1900 C.3   1 <1>  -0.2400 
 15 C       -5.0160    -1.3570     1.1710 C.ar  1 <1>  -0.1500 
 16 C       -5.4660    -2.0040    -1.0830 C.ar  1 <1>  -0.1500 
 17 C       -6.3540    -1.5120     1.4830 C.ar  1 <1>  -0.1500 
 18 C       -6.8060    -2.1620    -0.7770 C.ar  1 <1>  -0.1500 
 19 C       -7.2590    -1.9160     0.5160 C.ar  1 <1>   0.0820 
 20 O       -8.5540    -2.0450     0.9060 O.3   1 <1>  -0.3620 
 21 C       -9.5430    -2.4750     0.0010 C.3   1 <1>   0.1200 
 22 C      -10.8740    -2.5290     0.7450 C.3   1 <1>  -0.2400 
 23 H       -0.2960    -2.2650    -1.7440 H     1 <1>   0.0800 
 24 H       -0.7880    -0.6080    -2.0550 H     1 <1>   0.0800 
 25 H        1.3520    -0.7800     2.6740 H     1 <1>   0.0800 
 26 H        1.4100     0.9720     2.5880 H     1 <1>   0.0800 
 27 H        2.8740     0.0530     2.9000 H     1 <1>   0.0800 
 28 H       -2.6800    -0.8900     0.3340 H     1 <1>   0.3700 
 29 H        4.9770     0.0800     1.4840 H     1 <1>   0.0800 
 30 H        4.3290     1.6980     1.4380 H     1 <1>   0.0800 
 31 H        5.9110     0.3860    -0.7870 H     1 <1>   0.0800 
 32 H        6.5100     1.6120     0.3060 H     1 <1>   0.0800 
 33 H        5.2500     2.0020    -0.8430 H     1 <1>   0.0800 
 34 H       -4.3310    -1.0460     1.9380 H     1 <1>   0.1500 
 35 H       -5.1370    -2.1940    -2.0880 H     1 <1>   0.1500 
 36 H       -6.7090    -1.3230     2.4800 H     1 <1>   0.1500 
 37 H       -7.4750    -2.4760    -1.5550 H     1 <1>   0.1500 
 38 H       -9.2710    -3.4510    -0.3630 H     1 <1>   0.0800 
 39 H       -9.5910    -1.7710    -0.8120 H     1 <1>   0.0800 
 40 H      -10.8100    -3.2220     1.5650 H     1 <1>   0.0800 
 41 H      -11.6510    -2.8550     0.0790 H     1 <1>   0.0800 
 42 H      -11.1270    -1.5530     1.1190 H     1 <1>   0.0800 
@<TRIPOS>BOND
  1   1   2  1   
  2   1   3  1   
  3   2   4  2   
  4   2   5  1   
  5   3   6  1   
  6   3  23  1   
  7   3  24  1   
  8   4   7  1   
  9   5   8  1   
 10   5   9  1   
 11   6  10  2   
 12   6  11  am  
 13   7   8  2   
 14   8  12  1   
 15   9  25  1   
 16   9  26  1   
 17   9  27  1   
 18  11  13  1   
 19  11  28  1   
 20  12  14  1   
 21  12  29  1   
 22  12  30  1   
 23  13  15  ar  
 24  13  16  ar  
 25  14  31  1   
 26  14  32  1   
 27  14  33  1   
 28  15  17  ar  
 29  15  34  1   
 30  16  18  ar  
 31  16  35  1   
 32  17  19  ar  
 33  17  36  1   
 34  18  19  ar  
 35  18  37  1   
 36  19  20  1   
 37  20  21  1   
 38  21  22  1   
 39  21  38  1   
 40  21  39  1   
 41  22  40  1   
 42  22  41  1   
 43  22  42  1   
@<TRIPOS>SUBSTRUCTURE
  1 ****  11 GROUP 4 **** **** 0

# MOE 2024.06 (io_trps.svl 2023.06)
