@<TRIPOS>MOLECULE
NONAME
42 44 1 0 0 
SMALL
USER_CHARGES


@<TRIPOS>ATOM
  1 O        0.0540    -0.6360    -1.4350 O.2   1 <1>  -0.5700 
  2 C       -0.0860    -1.8320    -1.2660 C.2   1 <1>   0.5440 
  3 N        1.0300    -2.6280    -1.0980 N.am  1 <1>  -0.6600 
  4 C       -1.4290    -2.3800    -1.2470 C.ar  1 <1>   0.0860 
  5 C        2.4080    -2.0930    -1.2930 C.3   1 <1>   0.1400 
  6 C        0.9870    -4.0140    -0.5510 C.3   1 <1>   0.1400 
  7 C       -2.3790    -1.9320    -0.3530 C.ar  1 <1>  -0.1500 
  8 C       -1.8080    -3.3870    -2.1550 C.ar  1 <1>  -0.1500 
  9 C        3.1730    -2.1350     0.0330 C.3   1 <1>  -0.1600 
 10 C        1.7470    -4.0700     0.7780 C.3   1 <1>  -0.1600 
 11 C       -3.6770    -2.4550    -0.3090 C.ar  1 <1>   0.3100 
 12 C       -3.0710    -3.9170    -2.1400 C.ar  1 <1>  -0.1500 
 13 C        3.1860    -3.5490     0.6340 C.3   1 <1>  -0.0800 
 14 N       -4.5550    -1.9780     0.6080 N.ar  1 <1>  -0.6200 
 15 C       -4.0350    -3.4750    -1.2230 C.ar  1 <1>   0.3100 
 16 C        3.9010    -3.5540     1.9890 C.3   1 <1>  -0.2400 
 17 C       -5.7280    -2.5270     0.5710 C.ar  1 <1>   0.1670 
 18 N       -5.2700    -4.0320    -1.2350 N.ar  1 <1>  -0.6200 
 19 C       -6.0850    -3.5520    -0.3490 C.ar  1 <1>   0.1660 
 20 C       -6.7370    -2.0120     1.5840 C.3   1 <1>  -0.0970 
 21 C       -7.4820    -4.1500    -0.3340 C.3   1 <1>  -0.0970 
 22 H        2.3780    -1.0810    -1.6600 H     1 <1>   0.0800 
 23 H        2.9150    -2.6950    -2.0260 H     1 <1>   0.0800 
 24 H        1.4430    -4.6830    -1.2610 H     1 <1>   0.0800 
 25 H       -0.0250    -4.3360    -0.3880 H     1 <1>   0.0800 
 26 H       -2.1310    -1.1510     0.3430 H     1 <1>   0.1500 
 27 H       -1.0780    -3.7300    -2.8680 H     1 <1>   0.1500 
 28 H        2.7070    -1.4460     0.7170 H     1 <1>   0.0800 
 29 H        4.1810    -1.7990    -0.1340 H     1 <1>   0.0800 
 30 H        1.7630    -5.0860     1.1300 H     1 <1>   0.0800 
 31 H        1.2150    -3.4790     1.5030 H     1 <1>   0.0800 
 32 H       -3.3610    -4.6870    -2.8330 H     1 <1>   0.1500 
 33 H        3.7220    -4.2010    -0.0360 H     1 <1>   0.0800 
 34 H        3.3940    -2.9110     2.6880 H     1 <1>   0.0800 
 35 H        4.9130    -3.2080     1.8780 H     1 <1>   0.0800 
 36 H        3.9270    -4.5500     2.3950 H     1 <1>   0.0800 
 37 H       -6.2970    -1.2400     2.1910 H     1 <1>   0.0800 
 38 H       -7.0530    -2.8100     2.2300 H     1 <1>   0.0800 
 39 H       -7.5900    -1.5970     1.0790 H     1 <1>   0.0800 
 40 H       -8.2130    -3.3880    -0.5320 H     1 <1>   0.0800 
 41 H       -7.6820    -4.6020     0.6200 H     1 <1>   0.0800 
 42 H       -7.5720    -4.9090    -1.0910 H     1 <1>   0.0800 
@<TRIPOS>BOND
  1   1   2  2   
  2   2   3  am  
  3   2   4  1   
  4   3   5  1   
  5   3   6  1   
  6   4   7  ar  
  7   4   8  ar  
  8   5   9  1   
  9   5  22  1   
 10   5  23  1   
 11   6  10  1   
 12   6  24  1   
 13   6  25  1   
 14   7  11  ar  
 15   7  26  1   
 16   8  12  ar  
 17   8  27  1   
 18   9  13  1   
 19   9  28  1   
 20   9  29  1   
 21  10  13  1   
 22  10  30  1   
 23  10  31  1   
 24  11  14  ar  
 25  11  15  ar  
 26  12  15  ar  
 27  12  32  1   
 28  13  16  1   
 29  13  33  1   
 30  14  17  ar  
 31  15  18  ar  
 32  16  34  1   
 33  16  35  1   
 34  16  36  1   
 35  17  19  ar  
 36  17  20  1   
 37  18  19  ar  
 38  19  21  1   
 39  20  37  1   
 40  20  38  1   
 41  20  39  1   
 42  21  40  1   
 43  21  41  1   
 44  21  42  1   
@<TRIPOS>SUBSTRUCTURE
  1 ****   4 GROUP 4 **** **** 0

# MOE 2024.06 (io_trps.svl 2023.06)
