@<TRIPOS>MOLECULE
NONAME
44 46 1 0 0 
SMALL
USER_CHARGES


@<TRIPOS>ATOM
  1 S       -0.0320    -0.9050     1.3860 S.o2  1 <1>   1.3330 
  2 O        0.1820    -2.2510     0.9160 O.2   1 <1>  -0.6500 
  3 O       -0.8340    -0.6370     2.5520 O.2   1 <1>  -0.6500 
  4 N        1.4970    -0.2390     1.7910 N.am  1 <1>  -0.7570 
  5 C       -0.5710     0.1580     0.0400 C.3   1 <1>  -0.0550 
  6 C        2.7140    -0.3240     1.1360 C.ar  1 <1>   0.1990 
  7 C       -1.9680    -0.1760    -0.5130 C.3   1 <1>  -0.2400 
  8 C        2.8930    -1.0050    -0.0650 C.ar  1 <1>  -0.1500 
  9 C        3.8190     0.3110     1.6900 C.ar  1 <1>  -0.1500 
 10 C        4.1280    -1.0430    -0.6820 C.ar  1 <1>  -0.1500 
 11 C        5.0540     0.2700     1.0710 C.ar  1 <1>  -0.1500 
 12 C        5.2450    -0.4120    -0.1330 C.ar  1 <1>   0.0860 
 13 C        6.5350    -0.4710    -0.7920 C.2   1 <1>   0.5440 
 14 O        6.6110    -0.6030    -1.9980 O.2   1 <1>  -0.5700 
 15 N        7.6910    -0.3940    -0.0670 N.am  1 <1>  -0.7300 
 16 C        9.0570    -0.4690    -0.6210 C.3   1 <1>   0.2200 
 17 C        9.7860    -1.7720    -0.2300 C.3   1 <1>  -0.0800 
 18 C        9.9560     0.6220    -0.0180 C.3   1 <1>  -0.1600 
 19 C       11.2370    -1.3370    -0.3680 C.3   1 <1>  -0.1600 
 20 C        9.7140    -2.0200     1.2910 C.3   1 <1>  -0.1600 
 21 C       11.1110    -0.1780     0.6080 C.3   1 <1>  -0.0800 
 22 C       10.5870    -0.8910     1.8660 C.3   1 <1>  -0.1600 
 23 H        1.4660     0.1240     2.7390 H     1 <1>   0.4200 
 24 H        0.1380     0.0920    -0.7620 H     1 <1>   0.0800 
 25 H       -0.5750     1.1750     0.3830 H     1 <1>   0.0800 
 26 H       -1.9850    -1.1840    -0.8910 H     1 <1>   0.0800 
 27 H       -2.2240     0.4980    -1.3120 H     1 <1>   0.0800 
 28 H       -2.7060    -0.0880     0.2650 H     1 <1>   0.0800 
 29 H        2.0710    -1.5200    -0.5260 H     1 <1>   0.1500 
 30 H        3.7080     0.8460     2.6160 H     1 <1>   0.1500 
 31 H        4.2420    -1.5760    -1.6120 H     1 <1>   0.1500 
 32 H        5.8830     0.7850     1.5230 H     1 <1>   0.1500 
 33 H        7.6530    -0.4440     0.9490 H     1 <1>   0.3700 
 34 H        9.0330    -0.3700    -1.6940 H     1 <1>   0.0800 
 35 H        9.5100    -2.6160    -0.8370 H     1 <1>   0.0800 
 36 H        9.4470     1.2340     0.7050 H     1 <1>   0.0800 
 37 H       10.3320     1.2480    -0.8070 H     1 <1>   0.0800 
 38 H       11.4860    -1.0180    -1.3660 H     1 <1>   0.0800 
 39 H       11.9340    -2.0890    -0.0360 H     1 <1>   0.0800 
 40 H       10.1540    -2.9750     1.5230 H     1 <1>   0.0800 
 41 H        8.7110    -2.0070     1.6780 H     1 <1>   0.0800 
 42 H       12.0100     0.3940     0.7670 H     1 <1>   0.0800 
 43 H       11.4050    -1.3050     2.4310 H     1 <1>   0.0800 
 44 H       10.0240    -0.2250     2.4980 H     1 <1>   0.0800 
@<TRIPOS>BOND
  1   1   2  2   
  2   1   3  2   
  3   1   4  am  
  4   1   5  1   
  5   4   6  1   
  6   4  23  1   
  7   5   7  1   
  8   5  24  1   
  9   5  25  1   
 10   6   8  ar  
 11   6   9  ar  
 12   7  26  1   
 13   7  27  1   
 14   7  28  1   
 15   8  10  ar  
 16   8  29  1   
 17   9  11  ar  
 18   9  30  1   
 19  10  12  ar  
 20  10  31  1   
 21  11  12  ar  
 22  11  32  1   
 23  12  13  1   
 24  13  14  2   
 25  13  15  am  
 26  15  16  1   
 27  15  33  1   
 28  16  17  1   
 29  16  18  1   
 30  16  34  1   
 31  17  19  1   
 32  17  20  1   
 33  17  35  1   
 34  18  21  1   
 35  18  36  1   
 36  18  37  1   
 37  19  21  1   
 38  19  38  1   
 39  19  39  1   
 40  20  22  1   
 41  20  40  1   
 42  20  41  1   
 43  21  22  1   
 44  21  42  1   
 45  22  43  1   
 46  22  44  1   
@<TRIPOS>SUBSTRUCTURE
  1 ****  12 GROUP 4 **** **** 0

# MOE 2024.06 (io_trps.svl 2023.06)
