@<TRIPOS>MOLECULE
NONAME
43 43 1 0 0 
SMALL
USER_CHARGES


@<TRIPOS>ATOM
  1 O        0.0700     0.3320     0.3510 O.2   1 <1>  -0.5700 
  2 C       -0.1770     1.5280     0.3810 C.2   1 <1>   0.6900 
  3 N        0.8260     2.4470     0.5860 N.am  1 <1>  -0.6600 
  4 N       -1.4590     1.9740     0.1970 N.am  1 <1>  -0.4940 
  5 C        0.5670     3.8270     1.0780 C.3   1 <1>   0.1400 
  6 C        2.2510     2.0170     0.5660 C.3   1 <1>   0.1400 
  7 C       -2.6540     1.2480     0.0130 C.2   1 <1>  -0.0880 
  8 C        0.5240     4.7980    -0.0980 C.3   1 <1>  -0.2400 
  9 C        2.7550     1.9770    -0.8740 C.3   1 <1>  -0.2400 
 10 N       -2.6750    -0.1060     0.0020 N.pl3 1 <1>   0.0330 
 11 C       -3.9220     1.7040    -0.1750 C.2   1 <1>  -0.1810 
 12 C       -3.9520    -0.5150    -0.1880 C.2   1 <1>  -0.3320 
 13 C       -4.7850     0.5800    -0.3080 C.2   1 <1>  -0.0860 
 14 C       -4.3350     3.1660    -0.2410 C.3   1 <1>  -0.0590 
 15 C       -4.2730    -2.0010    -0.2350 C.3   1 <1>  -0.0600 
 16 C       -6.2210     0.6060    -0.5300 C.2   1 <1>   0.8060 
 17 O       -6.8690    -0.3550    -0.9010 O.2   1 <1>  -0.5700 
 18 O       -6.8770     1.7530    -0.3150 O.3   1 <1>  -0.4300 
 19 C       -8.2690     1.8610    -0.5020 C.3   1 <1>   0.1200 
 20 C       -8.6770     3.2950    -0.1820 C.3   1 <1>  -0.2400 
 21 H       -1.5290     2.9820     0.1270 H     1 <1>   0.3700 
 22 H        1.3380     4.1210     1.7690 H     1 <1>   0.0800 
 23 H       -0.3680     3.8550     1.6130 H     1 <1>   0.0800 
 24 H        2.3400     1.0370     1.0060 H     1 <1>   0.0800 
 25 H        2.8550     2.6930     1.1460 H     1 <1>   0.0800 
 26 H        1.4860     4.8480    -0.5750 H     1 <1>   0.0800 
 27 H        0.2740     5.7830     0.2540 H     1 <1>   0.0800 
 28 H       -0.2130     4.4940    -0.8190 H     1 <1>   0.0800 
 29 H        2.1720     1.2790    -1.4480 H     1 <1>   0.0800 
 30 H        3.7800     1.6550    -0.8890 H     1 <1>   0.0800 
 31 H        2.6940     2.9490    -1.3260 H     1 <1>   0.0800 
 32 H       -1.8210    -0.6680     0.1190 H     1 <1>   0.2700 
 33 H       -3.4780     3.8100    -0.1930 H     1 <1>   0.0800 
 34 H       -4.9850     3.4000     0.5830 H     1 <1>   0.0800 
 35 H       -4.8540     3.3580    -1.1620 H     1 <1>   0.0800 
 36 H       -3.8570    -2.4360    -1.1260 H     1 <1>   0.0800 
 37 H       -5.3320    -2.1790    -0.2330 H     1 <1>   0.0800 
 38 H       -3.8520    -2.4960     0.6220 H     1 <1>   0.0800 
 39 H       -8.7580     1.1630     0.1570 H     1 <1>   0.0800 
 40 H       -8.4970     1.6130    -1.5260 H     1 <1>   0.0800 
 41 H       -8.4340     3.5300     0.8390 H     1 <1>   0.0800 
 42 H       -9.7370     3.4090    -0.3170 H     1 <1>   0.0800 
 43 H       -8.1730     3.9800    -0.8410 H     1 <1>   0.0800 
@<TRIPOS>BOND
  1   1   2  2   
  2   2   3  am  
  3   2   4  am  
  4   3   5  1   
  5   3   6  1   
  6   4   7  1   
  7   4  21  1   
  8   5   8  1   
  9   5  22  1   
 10   5  23  1   
 11   6   9  1   
 12   6  24  1   
 13   6  25  1   
 14   7  10  1   
 15   7  11  2   
 16   8  26  1   
 17   8  27  1   
 18   8  28  1   
 19   9  29  1   
 20   9  30  1   
 21   9  31  1   
 22  10  12  1   
 23  10  32  1   
 24  11  13  1   
 25  11  14  1   
 26  12  13  2   
 27  12  15  1   
 28  13  16  1   
 29  14  33  1   
 30  14  34  1   
 31  14  35  1   
 32  15  36  1   
 33  15  37  1   
 34  15  38  1   
 35  16  17  2   
 36  16  18  1   
 37  18  19  1   
 38  19  20  1   
 39  19  39  1   
 40  19  40  1   
 41  20  41  1   
 42  20  42  1   
 43  20  43  1   
@<TRIPOS>SUBSTRUCTURE
  1 ****   7 GROUP 4 **** **** 0

# MOE 2024.06 (io_trps.svl 2023.06)
