@<TRIPOS>MOLECULE
NONAME
39 40 1 0 0 
SMALL
USER_CHARGES


@<TRIPOS>ATOM
  1 O        1.0320    -1.2700     1.9270 O.2   1 <1>  -0.5700 
  2 C        0.4230    -1.6770     0.9680 C.2   1 <1>   0.5690 
  3 N        0.6640    -1.2520    -0.3070 N.am  1 <1>  -0.7300 
  4 C       -0.6520    -2.7210     1.2040 C.3   1 <1>   0.1570 
  5 C        1.6210    -0.2260    -0.7630 C.3   1 <1>   0.2200 
  6 N       -1.9790    -2.2940     0.6880 N.pl3 1 <1>   0.0480 
  7 C        3.0490    -0.6370    -0.4120 C.3   1 <1>  -0.2400 
  8 C        1.2490     1.1310    -0.1700 C.3   1 <1>  -0.2400 
  9 C       -2.9610    -3.0660     0.0810 C.ar  1 <1>  -0.1520 
 10 C       -2.3860    -0.9910     0.6400 C.2   1 <1>  -0.3020 
 11 C       -3.1210    -4.4570    -0.1070 C.ar  1 <1>  -0.1440 
 12 C       -3.9410    -2.1870    -0.3900 C.ar  1 <1>   0.0000 
 13 C       -3.5700    -0.8780    -0.0130 C.2   1 <1>   0.0190 
 14 C       -4.2230    -4.8930    -0.8190 C.ar  1 <1>  -0.1500 
 15 C       -2.1170    -5.4600     0.4720 C.3   1 <1>  -0.0170 
 16 C       -5.0480    -2.6580    -1.1000 C.ar  1 <1>  -0.1500 
 17 C       -4.3350     0.3000    -0.2950 C.1   1 <1>   0.5380 
 18 C       -5.1790    -4.0040    -1.3160 C.ar  1 <1>  -0.1500 
 19 C       -2.6080    -6.9090     0.5830 C.3   1 <1>  -0.2400 
 20 N       -4.9430     1.2370    -0.5290 N.1   1 <1>  -0.5570 
 21 H        0.0410    -1.5820    -1.0470 H     1 <1>   0.3700 
 22 H       -0.7370    -2.9170     2.2560 H     1 <1>   0.0800 
 23 H       -0.3370    -3.6110     0.7040 H     1 <1>   0.0800 
 24 H        1.5460    -0.1570    -1.8360 H     1 <1>   0.0800 
 25 H        3.1910    -0.6610     0.6530 H     1 <1>   0.0800 
 26 H        3.7430     0.0710    -0.8250 H     1 <1>   0.0800 
 27 H        3.2680    -1.6060    -0.8210 H     1 <1>   0.0800 
 28 H        1.3510     1.1210     0.9000 H     1 <1>   0.0800 
 29 H        0.2370     1.3850    -0.4280 H     1 <1>   0.0800 
 30 H        1.9000     1.8910    -0.5630 H     1 <1>   0.0800 
 31 H       -1.8050    -0.1920     1.0710 H     1 <1>   0.1500 
 32 H       -4.3920    -5.9360    -1.0120 H     1 <1>   0.1500 
 33 H       -1.8610    -5.1450     1.4680 H     1 <1>   0.0800 
 34 H       -1.2270    -5.4490    -0.1310 H     1 <1>   0.0800 
 35 H       -5.7840    -1.9640    -1.4670 H     1 <1>   0.1500 
 36 H       -6.0210    -4.3900    -1.8640 H     1 <1>   0.1500 
 37 H       -3.5340    -6.9500     1.1290 H     1 <1>   0.0800 
 38 H       -1.8790    -7.5030     1.1050 H     1 <1>   0.0800 
 39 H       -2.7500    -7.3390    -0.3930 H     1 <1>   0.0800 
@<TRIPOS>BOND
  1   1   2  2   
  2   2   3  am  
  3   2   4  1   
  4   3   5  1   
  5   3  21  1   
  6   4   6  1   
  7   4  22  1   
  8   4  23  1   
  9   5   7  1   
 10   5   8  1   
 11   5  24  1   
 12   6   9  1   
 13   6  10  1   
 14   7  25  1   
 15   7  26  1   
 16   7  27  1   
 17   8  28  1   
 18   8  29  1   
 19   8  30  1   
 20   9  11  ar  
 21   9  12  ar  
 22  10  13  2   
 23  10  31  1   
 24  11  14  ar  
 25  11  15  1   
 26  12  13  1   
 27  12  16  ar  
 28  13  17  1   
 29  14  18  ar  
 30  14  32  1   
 31  15  19  1   
 32  15  33  1   
 33  15  34  1   
 34  16  18  ar  
 35  16  35  1   
 36  17  20  3   
 37  18  36  1   
 38  19  37  1   
 39  19  38  1   
 40  19  39  1   
@<TRIPOS>SUBSTRUCTURE
  1 ****   6 GROUP 4 **** **** 0

# MOE 2024.06 (io_trps.svl 2023.06)
