@<TRIPOS>MOLECULE
NONAME
47 48 1 0 0 
SMALL
USER_CHARGES


@<TRIPOS>ATOM
  1 P       -0.4570     0.0300     0.5200 P.3   1 <1>   0.9000 
  2 O       -0.6830     1.2040     1.4250 O.co2 1 <1>  -0.9500 
  3 O        0.1550    -1.2100     1.0930 O.co2 1 <1>  -0.9500 
  4 C        0.5730     0.5490    -0.9050 C.3   1 <1>   0.1100 
  5 C       -2.0390    -0.4870    -0.2500 C.3   1 <1>   0.1100 
  6 N        1.9710     1.0570    -0.7280 N.3   1 <1>  -0.8100 
  7 N       -3.1060     0.4680    -0.7180 N.3   1 <1>  -0.8100 
  8 C        2.0370     2.1690     0.2510 C.3   1 <1>   0.2510 
  9 C        2.8780     0.0490    -0.1960 C.3   1 <1>   0.1100 
 10 C       -3.6660     1.2560     0.4270 C.3   1 <1>   0.2510 
 11 C       -2.6780     1.4060    -1.7540 C.3   1 <1>   0.1100 
 12 C        1.3880     3.5190    -0.1350 C.2   1 <1>   0.6590 
 13 C        3.5380     2.2750     0.5170 C.3   1 <1>  -0.1600 
 14 C        4.0670     0.8500     0.3300 C.3   1 <1>  -0.1600 
 15 C       -5.1270     0.9130     0.7860 C.2   1 <1>   0.6590 
 16 C       -3.4950     2.7330     0.0480 C.3   1 <1>  -0.1600 
 17 C       -2.4460     2.7330    -1.0490 C.3   1 <1>  -0.1600 
 18 O        0.9880     3.7900    -1.2460 O.2   1 <1>  -0.5700 
 19 O        1.3100     4.4130     0.8500 O.3   1 <1>  -0.4300 
 20 O       -5.4600     0.5970     1.9040 O.2   1 <1>  -0.5700 
 21 O       -6.0290     1.0060    -0.1930 O.3   1 <1>  -0.4300 
 22 C        0.6590     5.6520     0.6760 C.3   1 <1>   0.0400 
 23 C       -7.3910     0.7030     0.0190 C.3   1 <1>   0.0400 
 24 H        0.0660     1.3270    -1.4360 H     1 <1>   0.0800 
 25 H        0.6400    -0.2690    -1.5970 H     1 <1>   0.0800 
 26 H       -2.5300    -1.1230     0.4630 H     1 <1>   0.0800 
 27 H       -1.8230    -1.1340    -1.0780 H     1 <1>   0.0800 
 28 H        1.5810     1.8490     1.1710 H     1 <1>   0.0800 
 29 H        3.1630    -0.6550    -0.9580 H     1 <1>   0.0800 
 30 H        2.4150    -0.4780     0.6230 H     1 <1>   0.0800 
 31 H       -3.0800     1.0730     1.3100 H     1 <1>   0.0800 
 32 H       -3.4890     1.5210    -2.4520 H     1 <1>   0.0800 
 33 H       -1.8170     1.0560    -2.2940 H     1 <1>   0.0800 
 34 H        3.7240     2.6540     1.5050 H     1 <1>   0.0800 
 35 H        3.9830     2.9330    -0.2090 H     1 <1>   0.0800 
 36 H        4.8670     0.8350    -0.3880 H     1 <1>   0.0800 
 37 H        4.4120     0.4270     1.2560 H     1 <1>   0.0800 
 38 H       -3.1830     3.3120     0.8990 H     1 <1>   0.0800 
 39 H       -4.4200     3.1280    -0.3320 H     1 <1>   0.0800 
 40 H       -2.5410     3.5690    -1.7180 H     1 <1>   0.0800 
 41 H       -1.4660     2.7480    -0.6080 H     1 <1>   0.0800 
 42 H       -0.3660     5.4650     0.4070 H     1 <1>   0.0800 
 43 H        1.1570     6.1990    -0.1050 H     1 <1>   0.0800 
 44 H        0.7070     6.1940     1.6030 H     1 <1>   0.0800 
 45 H       -7.4690    -0.3210     0.3410 H     1 <1>   0.0800 
 46 H       -7.9190     0.8430    -0.9070 H     1 <1>   0.0800 
 47 H       -7.7790     1.3620     0.7750 H     1 <1>   0.0800 
@<TRIPOS>BOND
  1   1   2  ar  
  2   1   3  ar  
  3   1   4  1   
  4   1   5  1   
  5   4   6  1   
  6   4  24  1   
  7   4  25  1   
  8   5   7  1   
  9   5  26  1   
 10   5  27  1   
 11   6   8  1   
 12   6   9  1   
 13   7  10  1   
 14   7  11  1   
 15   8  12  1   
 16   8  13  1   
 17   8  28  1   
 18   9  14  1   
 19   9  29  1   
 20   9  30  1   
 21  10  15  1   
 22  10  16  1   
 23  10  31  1   
 24  11  17  1   
 25  11  32  1   
 26  11  33  1   
 27  12  18  2   
 28  12  19  1   
 29  13  14  1   
 30  13  34  1   
 31  13  35  1   
 32  14  36  1   
 33  14  37  1   
 34  15  20  2   
 35  15  21  1   
 36  16  17  1   
 37  16  38  1   
 38  16  39  1   
 39  17  40  1   
 40  17  41  1   
 41  19  22  1   
 42  21  23  1   
 43  22  42  1   
 44  22  43  1   
 45  22  44  1   
 46  23  45  1   
 47  23  46  1   
 48  23  47  1   
@<TRIPOS>SUBSTRUCTURE
  1 ****   2 GROUP 4 **** **** 0

# MOE 2024.06 (io_trps.svl 2023.06)
