@<TRIPOS>MOLECULE
NONAME
36 36 1 0 0 
SMALL
USER_CHARGES


@<TRIPOS>ATOM
  1 O       -9.3710     3.8520     0.0490 O.3   1 <1>  -0.3630 
  2 C       -9.2490     2.5110    -0.1400 C.ar  1 <1>   0.0830 
  3 C      -10.6580     4.4290     0.0480 C.3   1 <1>   0.2580 
  4 C       -8.2960     1.8200     0.6080 C.ar  1 <1>   0.0830 
  5 C      -10.0250     1.8240    -1.0650 C.ar  1 <1>  -0.1500 
  6 C      -10.5200     5.8250     0.6230 C.2   1 <1>  -0.2880 
  7 O       -7.5450     2.4910     1.5170 O.3   1 <1>  -0.3630 
  8 C       -8.1340     0.4530     0.4410 C.ar  1 <1>  -0.1500 
  9 C       -9.8520     0.4600    -1.2340 C.ar  1 <1>  -0.1500 
 10 C      -10.7770     6.9640    -0.0300 C.2   1 <1>  -0.3000 
 11 C       -6.1450     2.5370     1.3230 C.3   1 <1>   0.1200 
 12 C       -8.9110    -0.2240    -0.4830 C.ar  1 <1>  -0.1500 
 13 C       -5.7520     3.9830     0.9940 C.3   1 <1>   0.3430 
 14 N       -6.6070     4.5240    -0.0990 N.4   1 <1>  -0.9060 
 15 C       -6.5150     5.9830    -0.2790 C.3   1 <1>   0.3430 
 16 C       -7.3150     6.3570    -1.5170 C.3   1 <1>  -0.2400 
 17 H      -11.3110     3.8270     0.6570 H     1 <1>   0.0800 
 18 H      -11.0220     4.4640    -0.9640 H     1 <1>   0.0800 
 19 H      -10.7580     2.3320    -1.6650 H     1 <1>   0.1500 
 20 H      -10.1900     5.8070     1.6480 H     1 <1>   0.1500 
 21 H       -7.4160    -0.0850     1.0340 H     1 <1>   0.1500 
 22 H      -10.4540    -0.0740    -1.9510 H     1 <1>   0.1500 
 23 H      -10.6780     7.9430     0.4090 H     1 <1>   0.1500 
 24 H      -11.1140     7.0200    -1.0510 H     1 <1>   0.1500 
 25 H       -5.8620     1.8700     0.5270 H     1 <1>   0.0800 
 26 H       -5.6740     2.2150     2.2350 H     1 <1>   0.0800 
 27 H       -8.7890    -1.2860    -0.6150 H     1 <1>   0.1500 
 28 H       -4.7120     4.0240     0.7130 H     1 <1>   0.0800 
 29 H       -5.8820     4.5780     1.8830 H     1 <1>   0.0800 
 30 H       -7.5920     4.2770     0.1340 H     1 <1>   0.4500 
 31 H       -6.4230     4.0410    -0.9840 H     1 <1>   0.4500 
 32 H       -5.4860     6.2800    -0.4090 H     1 <1>   0.0800 
 33 H       -6.9170     6.4890     0.5860 H     1 <1>   0.0800 
 34 H       -6.9010     5.8980    -2.3960 H     1 <1>   0.0800 
 35 H       -7.2840     7.4240    -1.6510 H     1 <1>   0.0800 
 36 H       -8.3450     6.0670    -1.4090 H     1 <1>   0.0800 
@<TRIPOS>BOND
  1   1   2  1   
  2   1   3  1   
  3   2   4  ar  
  4   2   5  ar  
  5   3   6  1   
  6   3  17  1   
  7   3  18  1   
  8   4   7  1   
  9   4   8  ar  
 10   5   9  ar  
 11   5  19  1   
 12   6  10  2   
 13   6  20  1   
 14   7  11  1   
 15   8  12  ar  
 16   8  21  1   
 17   9  12  ar  
 18   9  22  1   
 19  10  23  1   
 20  10  24  1   
 21  11  13  1   
 22  11  25  1   
 23  11  26  1   
 24  12  27  1   
 25  13  14  1   
 26  13  28  1   
 27  13  29  1   
 28  14  15  1   
 29  14  30  1   
 30  14  31  1   
 31  15  16  1   
 32  15  32  1   
 33  15  33  1   
 34  16  34  1   
 35  16  35  1   
 36  16  36  1   
@<TRIPOS>SUBSTRUCTURE
  1 ****   1 GROUP 4 **** **** 0

# MOE 2024.06 (io_trps.svl 2023.06)
