@<TRIPOS>MOLECULE
NONAME
43 45 1 0 0 
SMALL
USER_CHARGES


@<TRIPOS>ATOM
  1 S        0.0350    -0.6990    -2.8750 S.3   1 <1>  -0.3220 
  2 C       -1.1970    -0.2920    -1.6800 C.cat 1 <1>   0.8920 
  3 C        1.1990    -1.8630    -2.0300 C.3   1 <1>   0.2140 
  4 N       -1.2220    -0.7570    -0.4450 N.pl3 1 <1>  -0.7000 
  5 N       -2.2110     0.5230    -1.9230 N.pl3 1 <1>  -0.7640 
  6 C        1.8150    -1.1650    -0.8230 C.ar  1 <1>  -0.1430 
  7 C       -2.3010    -0.2050     0.1620 C.2   1 <1>   0.4260 
  8 C       -2.9400     0.5920    -0.7290 C.2   1 <1>   0.2770 
  9 C       -2.5620     1.2630    -3.1680 C.3   1 <1>   0.2740 
 10 C        1.5620    -1.5960     0.4770 C.ar  1 <1>   0.0830 
 11 C        2.6600    -0.0850    -1.0260 C.ar  1 <1>  -0.1500 
 12 N       -2.7180    -0.3870     1.4660 N.am  1 <1>  -0.4360 
 13 C       -4.1230     1.2830    -0.3050 C.2   1 <1>   0.7030 
 14 O        0.7030    -2.6280     0.6600 O.3   1 <1>  -0.3630 
 15 C        2.1560    -0.9490     1.5550 C.ar  1 <1>  -0.1500 
 16 C        3.2470     0.5590     0.0480 C.ar  1 <1>  -0.1500 
 17 C       -3.8670     0.2710     1.8820 C.2   1 <1>   0.6900 
 18 C       -1.9360    -1.2610     2.3900 C.3   1 <1>   0.0600 
 19 O       -4.7420     1.9990    -1.0730 O.2   1 <1>  -0.5700 
 20 N       -4.5470     1.1130     1.0070 N.am  1 <1>  -0.4200 
 21 C        1.0020    -3.5970     1.6480 C.3   1 <1>   0.0400 
 22 C        2.9960     0.1270     1.3380 C.ar  1 <1>  -0.1500 
 23 O       -4.2820     0.1090     3.0110 O.2   1 <1>  -0.5700 
 24 C       -5.7760     1.8150     1.4920 C.3   1 <1>   0.0600 
 25 H        1.9590    -2.1200    -2.7470 H     1 <1>   0.0800 
 26 H        0.6450    -2.7470    -1.7720 H     1 <1>   0.0800 
 27 H       -0.5180    -1.3770    -0.0280 H     1 <1>   0.4500 
 28 H       -1.8570     1.0540    -3.9540 H     1 <1>   0.0800 
 29 H       -2.5600     2.3240    -2.9760 H     1 <1>   0.0800 
 30 H       -3.5450     0.9760    -3.5000 H     1 <1>   0.0800 
 31 H        2.8740     0.2610    -2.0240 H     1 <1>   0.1500 
 32 H        1.9710    -1.2640     2.5650 H     1 <1>   0.1500 
 33 H        3.9040     1.3970    -0.1190 H     1 <1>   0.1500 
 34 H       -1.9660    -2.2780     2.0410 H     1 <1>   0.0800 
 35 H       -2.3400    -1.2310     3.3880 H     1 <1>   0.0800 
 36 H       -0.9140    -0.9280     2.4300 H     1 <1>   0.0800 
 37 H        0.3720    -4.4530     1.4850 H     1 <1>   0.0800 
 38 H        0.8090    -3.1850     2.6230 H     1 <1>   0.0800 
 39 H        2.0360    -3.8840     1.5570 H     1 <1>   0.0800 
 40 H        3.4590     0.6300     2.1710 H     1 <1>   0.1500 
 41 H       -5.9960     2.6780     0.8870 H     1 <1>   0.0800 
 42 H       -5.6390     2.1450     2.5080 H     1 <1>   0.0800 
 43 H       -6.6140     1.1410     1.4580 H     1 <1>   0.0800 
@<TRIPOS>BOND
  1   1   2  1   
  2   1   3  1   
  3   2   4  ar  
  4   2   5  ar  
  5   3   6  1   
  6   3  25  1   
  7   3  26  1   
  8   4   7  1   
  9   4  27  1   
 10   5   8  1   
 11   5   9  1   
 12   6  10  ar  
 13   6  11  ar  
 14   7   8  2   
 15   7  12  1   
 16   8  13  1   
 17   9  28  1   
 18   9  29  1   
 19   9  30  1   
 20  10  14  1   
 21  10  15  ar  
 22  11  16  ar  
 23  11  31  1   
 24  12  17  am  
 25  12  18  1   
 26  13  19  2   
 27  13  20  am  
 28  14  21  1   
 29  15  22  ar  
 30  15  32  1   
 31  16  22  ar  
 32  16  33  1   
 33  17  20  am  
 34  17  23  2   
 35  18  34  1   
 36  18  35  1   
 37  18  36  1   
 38  20  24  1   
 39  21  37  1   
 40  21  38  1   
 41  21  39  1   
 42  22  40  1   
 43  24  41  1   
 44  24  42  1   
 45  24  43  1   
@<TRIPOS>SUBSTRUCTURE
  1 ****   4 GROUP 4 **** **** 0

# MOE 2024.06 (io_trps.svl 2023.06)
