@<TRIPOS>MOLECULE
NONAME
31 31 1 0 0 
SMALL
USER_CHARGES


@<TRIPOS>ATOM
  1 P       -0.1080     0.5490    -0.4170 P.3   1 <1>   1.5180 
  2 O       -0.1860     0.0190    -1.7730 O.2   1 <1>  -0.7000 
  3 O        0.2670     2.0980    -0.2960 O.3   1 <1>  -0.5510 
  4 O       -1.4550     0.4030     0.4310 O.3   1 <1>  -0.5510 
  5 N        1.0310    -0.1920     0.6100 N.pl3 1 <1>  -0.7760 
  6 C       -0.5240     3.0320    -0.9340 C.3   1 <1>   0.1200 
  7 C       -2.0850    -0.8250     0.4960 C.3   1 <1>   0.1200 
  8 C        2.3520    -0.5090     0.3220 C.ar  1 <1>   0.1000 
  9 C        0.0690     4.4090    -0.6570 C.3   1 <1>  -0.2400 
 10 C       -3.3250    -0.6670     1.3680 C.3   1 <1>  -0.2400 
 11 C        3.3220    -0.3360     1.3020 C.ar  1 <1>  -0.1500 
 12 C        2.7420    -1.0080    -0.9220 C.ar  1 <1>  -0.1500 
 13 C        4.6340    -0.6500     1.0140 C.ar  1 <1>   0.1900 
 14 C        4.0650    -1.3160    -1.1930 C.ar  1 <1>  -0.1500 
 15 F        5.5390    -0.4800     1.9420 F     1 <1>  -0.1900 
 16 C        5.0310    -1.1370    -0.2170 C.ar  1 <1>  -0.1500 
 17 H        0.8850     0.1810     1.5410 H     1 <1>   0.4000 
 18 H       -1.5270     2.9620    -0.5450 H     1 <1>   0.0800 
 19 H       -0.5250     2.8200    -1.9910 H     1 <1>   0.0800 
 20 H       -1.4050    -1.5450     0.9220 H     1 <1>   0.0800 
 21 H       -2.3540    -1.1280    -0.5040 H     1 <1>   0.0800 
 22 H        0.0750     4.6050     0.4000 H     1 <1>   0.0800 
 23 H       -0.5210     5.1640    -1.1440 H     1 <1>   0.0800 
 24 H        1.0740     4.4620    -1.0380 H     1 <1>   0.0800 
 25 H       -3.0460    -0.3550     2.3580 H     1 <1>   0.0800 
 26 H       -3.8420    -1.6070     1.4370 H     1 <1>   0.0800 
 27 H       -3.9920     0.0580     0.9360 H     1 <1>   0.0800 
 28 H        3.0650     0.0390     2.2730 H     1 <1>   0.1500 
 29 H        2.0060    -1.1630    -1.6900 H     1 <1>   0.1500 
 30 H        4.3410    -1.6970    -2.1610 H     1 <1>   0.1500 
 31 H        6.0640    -1.3680    -0.4010 H     1 <1>   0.1500 
@<TRIPOS>BOND
  1   1   2  2   
  2   1   3  1   
  3   1   4  1   
  4   1   5  1   
  5   3   6  1   
  6   4   7  1   
  7   5   8  1   
  8   5  17  1   
  9   6   9  1   
 10   6  18  1   
 11   6  19  1   
 12   7  10  1   
 13   7  20  1   
 14   7  21  1   
 15   8  11  ar  
 16   8  12  ar  
 17   9  22  1   
 18   9  23  1   
 19   9  24  1   
 20  10  25  1   
 21  10  26  1   
 22  10  27  1   
 23  11  13  ar  
 24  11  28  1   
 25  12  14  ar  
 26  12  29  1   
 27  13  15  1   
 28  13  16  ar  
 29  14  16  ar  
 30  14  30  1   
 31  16  31  1   
@<TRIPOS>SUBSTRUCTURE
  1 ****   5 GROUP 4 **** **** 0

# MOE 2024.06 (io_trps.svl 2023.06)
