@<TRIPOS>MOLECULE
NONAME
42 44 1 0 0 
SMALL
USER_CHARGES


@<TRIPOS>ATOM
  1 O       -0.8610     0.0930    -2.3640 O.2   1 <1>  -0.5700 
  2 C       -1.4820    -0.2390    -1.3820 C.2   1 <1>   0.5690 
  3 N       -1.3610    -1.4930    -0.8380 N.am  1 <1>  -0.6600 
  4 C       -2.3850     0.8180    -0.7750 C.3   1 <1>   0.0420 
  5 C       -2.0840    -1.8940     0.4020 C.3   1 <1>   0.5800 
  6 C       -0.6960    -2.5850    -1.6150 C.3   1 <1>   0.0600 
  7 C       -1.6120     2.0640    -0.3650 C.2   1 <1>   0.5090 
  8 C       -3.2690     0.2820     0.3640 C.3   1 <1>   0.0630 
  9 O       -3.2510    -2.5690    -0.0130 O.3   1 <1>  -0.3630 
 10 C       -2.4710    -0.6740     1.2450 C.3   1 <1>  -0.1600 
 11 C       -1.2690    -2.8720     1.2490 C.3   1 <1>  -0.2400 
 12 O       -2.2880     3.0640    -0.2620 O.2   1 <1>  -0.5700 
 13 C       -0.1760     2.0350    -0.1000 C.2   1 <1>   0.7200 
 14 C       -4.4390    -0.4920    -0.2250 C.ar  1 <1>  -0.1440 
 15 C       -4.3540    -1.8730    -0.3870 C.ar  1 <1>   0.0820 
 16 O        0.5680     2.9800    -0.2850 O.2   1 <1>  -0.5700 
 17 O        0.3570     0.9210     0.4190 O.3   1 <1>  -0.4300 
 18 C       -5.5960     0.1670    -0.6100 C.ar  1 <1>  -0.1500 
 19 C       -5.4150    -2.5790    -0.9290 C.ar  1 <1>  -0.1500 
 20 C        1.7450     0.7940     0.6390 C.3   1 <1>   0.1200 
 21 C       -6.6550    -0.5410    -1.1530 C.ar  1 <1>  -0.1500 
 22 C       -6.5660    -1.9130    -1.3130 C.ar  1 <1>  -0.1500 
 23 C        2.0150    -0.6120     1.1600 C.3   1 <1>  -0.2400 
 24 H       -3.0380     1.1340    -1.5680 H     1 <1>   0.0800 
 25 H       -0.4570    -2.2580    -2.6130 H     1 <1>   0.0800 
 26 H       -1.3530    -3.4340    -1.6910 H     1 <1>   0.0800 
 27 H        0.2160    -2.8790    -1.1270 H     1 <1>   0.0800 
 28 H       -3.6500     1.0960     0.9580 H     1 <1>   0.0800 
 29 H       -1.5950    -0.2010     1.6470 H     1 <1>   0.0800 
 30 H       -3.0750    -0.9950     2.0760 H     1 <1>   0.0800 
 31 H       -1.7960    -3.0880     2.1610 H     1 <1>   0.0800 
 32 H       -0.3210    -2.4400     1.5020 H     1 <1>   0.0800 
 33 H       -1.1130    -3.7980     0.7280 H     1 <1>   0.0800 
 34 H       -5.6800     1.2340    -0.4930 H     1 <1>   0.1500 
 35 H       -5.3350    -3.6440    -1.0480 H     1 <1>   0.1500 
 36 H        2.0500     1.5400     1.3540 H     1 <1>   0.0800 
 37 H        2.2540     0.9610    -0.2970 H     1 <1>   0.0800 
 38 H       -7.5500    -0.0230    -1.4510 H     1 <1>   0.1500 
 39 H       -7.3900    -2.4620    -1.7350 H     1 <1>   0.1500 
 40 H        1.5000    -0.7700     2.0900 H     1 <1>   0.0800 
 41 H        3.0690    -0.7390     1.3270 H     1 <1>   0.0800 
 42 H        1.6940    -1.3400     0.4360 H     1 <1>   0.0800 
@<TRIPOS>BOND
  1   1   2  2   
  2   2   3  am  
  3   2   4  1   
  4   3   5  1   
  5   3   6  1   
  6   4   7  1   
  7   4   8  1   
  8   4  24  1   
  9   5   9  1   
 10   5  10  1   
 11   5  11  1   
 12   6  25  1   
 13   6  26  1   
 14   6  27  1   
 15   7  12  2   
 16   7  13  1   
 17   8  10  1   
 18   8  14  1   
 19   8  28  1   
 20   9  15  1   
 21  10  29  1   
 22  10  30  1   
 23  11  31  1   
 24  11  32  1   
 25  11  33  1   
 26  13  16  2   
 27  13  17  1   
 28  14  15  ar  
 29  14  18  ar  
 30  15  19  ar  
 31  17  20  1   
 32  18  21  ar  
 33  18  34  1   
 34  19  22  ar  
 35  19  35  1   
 36  20  23  1   
 37  20  36  1   
 38  20  37  1   
 39  21  22  ar  
 40  21  38  1   
 41  22  39  1   
 42  23  40  1   
 43  23  41  1   
 44  23  42  1   
@<TRIPOS>SUBSTRUCTURE
  1 ****   4 GROUP 4 **** **** 0

# MOE 2024.06 (io_trps.svl 2023.06)
