@<TRIPOS>MOLECULE
NONAME
50 51 1 0 0 
SMALL
USER_CHARGES


@<TRIPOS>ATOM
  1 O       -0.8480    -0.3690     1.3490 O.2   1 <1>  -0.5700 
  2 C       -1.9160    -0.4170     0.7830 C.2   1 <1>   0.4950 
  3 C       -2.8170     0.6860     0.6510 C.2   1 <1>   0.0290 
  4 C       -2.2890    -1.7600     0.1820 C.3   1 <1>  -0.0990 
  5 C       -4.0860     0.5150     0.1270 C.2   1 <1>  -0.0380 
  6 C       -2.3560     1.9750     1.0810 C.2   1 <1>   0.4950 
  7 C       -3.7960    -2.0350     0.2820 C.3   1 <1>   0.0000 
  8 N       -4.9620     1.5440    -0.0020 N.pl3 1 <1>  -0.8690 
  9 C       -4.5620    -0.8590    -0.3530 C.3   1 <1>  -0.0220 
 10 O       -3.0510     2.7520     1.7020 O.2   1 <1>  -0.5700 
 11 C       -0.9560     2.4730     0.7180 C.3   1 <1>  -0.0990 
 12 C       -4.2110    -2.2070     1.7560 C.3   1 <1>  -0.2400 
 13 C       -4.1300    -3.3360    -0.4660 C.3   1 <1>  -0.2400 
 14 C       -6.3310     1.5840    -0.5770 C.3   1 <1>   0.2090 
 15 C       -0.9670     3.8670     0.0670 C.3   1 <1>  -0.1600 
 16 C       -7.3600     1.5200     0.5510 C.3   1 <1>  -0.0170 
 17 C        0.4460     4.3120    -0.3220 C.3   1 <1>  -0.2400 
 18 C       -8.7680     1.5280    -0.0230 C.ar  1 <1>  -0.1440 
 19 C       -9.4030     0.3350    -0.3350 C.ar  1 <1>  -0.1500 
 20 C       -9.4260     2.7270    -0.2450 C.ar  1 <1>  -0.1500 
 21 C      -10.6820     0.3420    -0.8650 C.ar  1 <1>  -0.1500 
 22 C      -10.7040     2.7360    -0.7760 C.ar  1 <1>  -0.1500 
 23 C      -11.3330     1.5430    -1.0860 C.ar  1 <1>  -0.1500 
 24 H       -1.7420    -2.5360     0.6870 H     1 <1>   0.0800 
 25 H       -1.9800    -1.7580    -0.8470 H     1 <1>   0.0800 
 26 H       -4.6810     2.4480     0.4240 H     1 <1>   0.4000 
 27 H       -4.4560    -0.8870    -1.4230 H     1 <1>   0.0800 
 28 H       -5.6050    -0.9850    -0.1280 H     1 <1>   0.0800 
 29 H       -0.4900     1.7860     0.0360 H     1 <1>   0.0800 
 30 H       -0.3670     2.4980     1.6170 H     1 <1>   0.0800 
 31 H       -3.6560    -3.0060     2.2160 H     1 <1>   0.0800 
 32 H       -4.0370    -1.3090     2.3230 H     1 <1>   0.0800 
 33 H       -5.2580    -2.4420     1.8280 H     1 <1>   0.0800 
 34 H       -3.8490    -3.2650    -1.5030 H     1 <1>   0.0800 
 35 H       -5.1850    -3.5410    -0.4160 H     1 <1>   0.0800 
 36 H       -3.6040    -4.1680    -0.0310 H     1 <1>   0.0800 
 37 H       -6.4800     0.7640    -1.2570 H     1 <1>   0.0800 
 38 H       -6.4560     2.4980    -1.1310 H     1 <1>   0.0800 
 39 H       -1.3860     4.5810     0.7560 H     1 <1>   0.0800 
 40 H       -1.5910     3.8490    -0.8100 H     1 <1>   0.0800 
 41 H       -7.2280     2.3630     1.2050 H     1 <1>   0.0800 
 42 H       -7.2070     0.6240     1.1250 H     1 <1>   0.0800 
 43 H        1.0790     4.3550     0.5470 H     1 <1>   0.0800 
 44 H        0.4130     5.2910    -0.7690 H     1 <1>   0.0800 
 45 H        0.8770     3.6270    -1.0320 H     1 <1>   0.0800 
 46 H       -8.9060    -0.6040    -0.1660 H     1 <1>   0.1500 
 47 H       -8.9470     3.6610    -0.0070 H     1 <1>   0.1500 
 48 H      -11.1700    -0.5860    -1.1050 H     1 <1>   0.1500 
 49 H      -11.2100     3.6700    -0.9460 H     1 <1>   0.1500 
 50 H      -12.3270     1.5490    -1.4980 H     1 <1>   0.1500 
@<TRIPOS>BOND
  1   1   2  2   
  2   2   3  1   
  3   2   4  1   
  4   3   5  2   
  5   3   6  1   
  6   4   7  1   
  7   4  24  1   
  8   4  25  1   
  9   5   8  1   
 10   5   9  1   
 11   6  10  2   
 12   6  11  1   
 13   7   9  1   
 14   7  12  1   
 15   7  13  1   
 16   8  14  1   
 17   8  26  1   
 18   9  27  1   
 19   9  28  1   
 20  11  15  1   
 21  11  29  1   
 22  11  30  1   
 23  12  31  1   
 24  12  32  1   
 25  12  33  1   
 26  13  34  1   
 27  13  35  1   
 28  13  36  1   
 29  14  16  1   
 30  14  37  1   
 31  14  38  1   
 32  15  17  1   
 33  15  39  1   
 34  15  40  1   
 35  16  18  1   
 36  16  41  1   
 37  16  42  1   
 38  17  43  1   
 39  17  44  1   
 40  17  45  1   
 41  18  19  ar  
 42  18  20  ar  
 43  19  21  ar  
 44  19  46  1   
 45  20  22  ar  
 46  20  47  1   
 47  21  23  ar  
 48  21  48  1   
 49  22  23  ar  
 50  22  49  1   
 51  23  50  1   
@<TRIPOS>SUBSTRUCTURE
  1 ****   8 GROUP 4 **** **** 0

# MOE 2024.06 (io_trps.svl 2023.06)
