@<TRIPOS>MOLECULE
NONAME
44 44 1 0 0 
SMALL
USER_CHARGES


@<TRIPOS>ATOM
  1 O       -0.5290     0.1550     0.5910 O.2   1 <1>  -0.5700 
  2 C       -0.9520    -0.9870     0.6200 C.2   1 <1>   0.6900 
  3 N       -2.2970    -1.2290     0.7800 N.am  1 <1>  -0.6600 
  4 N       -0.1150    -2.0540     0.4750 N.am  1 <1>  -0.5470 
  5 C       -2.8410    -2.5700     1.1310 C.3   1 <1>   0.1400 
  6 C       -3.2670    -0.0990     0.8010 C.3   1 <1>   0.1400 
  7 C        1.2710    -2.2070     0.3010 C.ar  1 <1>   0.1170 
  8 C       -3.1650    -3.3630    -0.1390 C.3   1 <1>  -0.1600 
  9 C       -3.6890     0.2570    -0.6270 C.3   1 <1>  -0.1600 
 10 C        1.7500    -3.4710    -0.0650 C.ar  1 <1>   0.0820 
 11 C        2.1810    -1.1720     0.4820 C.ar  1 <1>  -0.1500 
 12 C       -3.5470    -4.8100     0.1920 C.3   1 <1>  -0.2400 
 13 C       -4.6780     1.4270    -0.6420 C.3   1 <1>  -0.2400 
 14 O        0.8250    -4.4670    -0.2260 O.3   1 <1>  -0.3630 
 15 C        3.1140    -3.6720    -0.2470 C.ar  1 <1>  -0.1500 
 16 C        3.5380    -1.3760     0.3000 C.ar  1 <1>  -0.1500 
 17 C        1.2110    -5.7530    -0.6590 C.3   1 <1>   0.0400 
 18 C        4.0090    -2.6320    -0.0680 C.ar  1 <1>   0.0820 
 19 O        5.3240    -2.9180    -0.2690 O.3   1 <1>  -0.3620 
 20 C        6.3110    -1.9210    -0.1250 C.3   1 <1>   0.0400 
 21 H       -0.6130    -2.9300     0.3490 H     1 <1>   0.3700 
 22 H       -3.7290    -2.4630     1.7310 H     1 <1>   0.0800 
 23 H       -2.1190    -3.1050     1.7250 H     1 <1>   0.0800 
 24 H       -2.8090     0.7590     1.2640 H     1 <1>   0.0800 
 25 H       -4.1310    -0.3620     1.3860 H     1 <1>   0.0800 
 26 H       -2.3130    -3.3690    -0.7960 H     1 <1>   0.0800 
 27 H       -3.9840    -2.8940    -0.6530 H     1 <1>   0.0800 
 28 H       -4.1460    -0.5960    -1.0940 H     1 <1>   0.0800 
 29 H       -2.8140     0.5290    -1.1920 H     1 <1>   0.0800 
 30 H        1.8350    -0.1970     0.7700 H     1 <1>   0.1500 
 31 H       -2.7310    -5.3130     0.6820 H     1 <1>   0.0800 
 32 H       -3.7810    -5.3430    -0.7130 H     1 <1>   0.0800 
 33 H       -4.4090    -4.8360     0.8350 H     1 <1>   0.0800 
 34 H       -5.5690     1.1760    -0.0940 H     1 <1>   0.0800 
 35 H       -4.9530     1.6620    -1.6550 H     1 <1>   0.0800 
 36 H       -4.2310     2.3000    -0.1990 H     1 <1>   0.0800 
 37 H        3.5150    -4.6260    -0.5270 H     1 <1>   0.1500 
 38 H        4.2030    -0.5470     0.4490 H     1 <1>   0.1500 
 39 H        0.3260    -6.3590    -0.7420 H     1 <1>   0.0800 
 40 H        1.8790    -6.1810     0.0670 H     1 <1>   0.0800 
 41 H        1.6880    -5.6700    -1.6200 H     1 <1>   0.0800 
 42 H        7.2670    -2.3650    -0.3350 H     1 <1>   0.0800 
 43 H        6.2920    -1.5550     0.8860 H     1 <1>   0.0800 
 44 H        6.1130    -1.1300    -0.8260 H     1 <1>   0.0800 
@<TRIPOS>BOND
  1   1   2  2   
  2   2   3  am  
  3   2   4  am  
  4   3   5  1   
  5   3   6  1   
  6   4   7  1   
  7   4  21  1   
  8   5   8  1   
  9   5  22  1   
 10   5  23  1   
 11   6   9  1   
 12   6  24  1   
 13   6  25  1   
 14   7  10  ar  
 15   7  11  ar  
 16   8  12  1   
 17   8  26  1   
 18   8  27  1   
 19   9  13  1   
 20   9  28  1   
 21   9  29  1   
 22  10  14  1   
 23  10  15  ar  
 24  11  16  ar  
 25  11  30  1   
 26  12  31  1   
 27  12  32  1   
 28  12  33  1   
 29  13  34  1   
 30  13  35  1   
 31  13  36  1   
 32  14  17  1   
 33  15  18  ar  
 34  15  37  1   
 35  16  18  ar  
 36  16  38  1   
 37  17  39  1   
 38  17  40  1   
 39  17  41  1   
 40  18  19  1   
 41  19  20  1   
 42  20  42  1   
 43  20  43  1   
 44  20  44  1   
@<TRIPOS>SUBSTRUCTURE
  1 ****   4 GROUP 4 **** **** 0

# MOE 2024.06 (io_trps.svl 2023.06)
