@<TRIPOS>MOLECULE
NONAME
47 49 1 0 0 
SMALL
USER_CHARGES


@<TRIPOS>ATOM
  1 O       -0.5410    -0.8380     1.1750 O.3   1 <1>  -0.3630 
  2 C       -1.4390    -1.1120     0.1760 C.ar  1 <1>   0.0820 
  3 C       -0.8070     0.1570     2.1410 C.3   1 <1>   0.0400 
  4 C       -1.1190    -2.1190    -0.7550 C.ar  1 <1>   0.1000 
  5 C       -2.6470    -0.4290     0.0590 C.ar  1 <1>  -0.1500 
  6 N        0.0690    -2.8640    -0.7250 N.pl3 1 <1>  -0.8380 
  7 C       -2.0220    -2.4040    -1.7690 C.ar  1 <1>  -0.1500 
  8 C       -3.5310    -0.7330    -0.9630 C.ar  1 <1>  -0.1500 
  9 C        0.1920    -3.7770     0.4490 C.3   1 <1>   0.2090 
 10 C        1.2990    -2.0690    -1.0150 C.3   1 <1>   0.2090 
 11 C       -3.2190    -1.7200    -1.8770 C.ar  1 <1>  -0.1500 
 12 C        1.4520    -4.6590     0.3410 C.3   1 <1>   0.3430 
 13 C        2.5430    -2.9750    -1.1010 C.3   1 <1>   0.3430 
 14 N        2.7070    -3.8490     0.1220 N.4   1 <1>  -0.9590 
 15 C        3.9000    -4.7460     0.0390 C.3   1 <1>   0.3430 
 16 C        5.2150    -3.9660     0.0970 C.3   1 <1>  -0.0170 
 17 C        6.3600    -4.9580     0.1230 C.ar  1 <1>  -0.1430 
 18 C        6.9050    -5.4280    -1.0630 C.ar  1 <1>  -0.1500 
 19 C        6.8660    -5.4110     1.3320 C.ar  1 <1>  -0.1500 
 20 C        7.9390    -6.3470    -1.0400 C.ar  1 <1>  -0.1500 
 21 C        7.9010    -6.3300     1.3540 C.ar  1 <1>  -0.1500 
 22 C        8.4370    -6.8000     0.1690 C.ar  1 <1>  -0.1500 
 23 H        0.0250     0.1990     2.8200 H     1 <1>   0.0800 
 24 H       -1.7010    -0.1060     2.6780 H     1 <1>   0.0800 
 25 H       -0.9200     1.1060     1.6460 H     1 <1>   0.0800 
 26 H       -2.9280     0.3440     0.7470 H     1 <1>   0.1500 
 27 H       -1.7790    -3.1720    -2.4800 H     1 <1>   0.1500 
 28 H       -4.4630    -0.2000    -1.0460 H     1 <1>   0.1500 
 29 H       -0.6810    -4.4060     0.4940 H     1 <1>   0.0800 
 30 H        0.2290    -3.2040     1.3590 H     1 <1>   0.0800 
 31 H        1.4460    -1.3260    -0.2510 H     1 <1>   0.0800 
 32 H        1.1680    -1.5530    -1.9510 H     1 <1>   0.0800 
 33 H       -3.9050    -1.9570    -2.6720 H     1 <1>   0.1500 
 34 H        1.3120    -5.3380    -0.4840 H     1 <1>   0.0800 
 35 H        1.5440    -5.2440     1.2400 H     1 <1>   0.0800 
 36 H        3.4120    -2.3540    -1.2320 H     1 <1>   0.0800 
 37 H        2.4430    -3.5950    -1.9770 H     1 <1>   0.0800 
 38 H        2.8050    -3.2260     0.9350 H     1 <1>   0.4500 
 39 H        3.8670    -5.3210    -0.8720 H     1 <1>   0.0800 
 40 H        3.8850    -5.4400     0.8640 H     1 <1>   0.0800 
 41 H        5.2500    -3.3590     0.9850 H     1 <1>   0.0800 
 42 H        5.3220    -3.3290    -0.7620 H     1 <1>   0.0800 
 43 H        6.5370    -5.0870    -2.0150 H     1 <1>   0.1500 
 44 H        6.4690    -5.0570     2.2670 H     1 <1>   0.1500 
 45 H        8.3610    -6.7110    -1.9610 H     1 <1>   0.1500 
 46 H        8.2940    -6.6810     2.2940 H     1 <1>   0.1500 
 47 H        9.2420    -7.5140     0.1870 H     1 <1>   0.1500 
@<TRIPOS>BOND
  1   1   2  1   
  2   1   3  1   
  3   2   4  ar  
  4   2   5  ar  
  5   3  23  1   
  6   3  24  1   
  7   3  25  1   
  8   4   6  1   
  9   4   7  ar  
 10   5   8  ar  
 11   5  26  1   
 12   6   9  1   
 13   6  10  1   
 14   7  11  ar  
 15   7  27  1   
 16   8  11  ar  
 17   8  28  1   
 18   9  12  1   
 19   9  29  1   
 20   9  30  1   
 21  10  13  1   
 22  10  31  1   
 23  10  32  1   
 24  11  33  1   
 25  12  14  1   
 26  12  34  1   
 27  12  35  1   
 28  13  14  1   
 29  13  36  1   
 30  13  37  1   
 31  14  15  1   
 32  14  38  1   
 33  15  16  1   
 34  15  39  1   
 35  15  40  1   
 36  16  17  1   
 37  16  41  1   
 38  16  42  1   
 39  17  18  ar  
 40  17  19  ar  
 41  18  20  ar  
 42  18  43  1   
 43  19  21  ar  
 44  19  44  1   
 45  20  22  ar  
 46  20  45  1   
 47  21  22  ar  
 48  21  46  1   
 49  22  47  1   
@<TRIPOS>SUBSTRUCTURE
  1 ****  14 GROUP 4 **** **** 0

# MOE 2024.06 (io_trps.svl 2023.06)
