@<TRIPOS>MOLECULE
NONAME
47 48 1 0 0 
SMALL
USER_CHARGES


@<TRIPOS>ATOM
  1 S       -0.1490    -0.1420    -0.5990 S.o2  1 <1>   1.2040 
  2 O       -0.2610    -0.4440    -2.0090 O.2   1 <1>  -0.6500 
  3 O       -0.2850    -1.2100     0.3680 O.2   1 <1>  -0.6500 
  4 C        1.3760     0.7780    -0.2870 C.ar  1 <1>  -0.0090 
  5 C       -1.4000     1.0780    -0.2190 C.3   1 <1>  -0.0550 
  6 C        1.9570     0.7970     0.9750 C.ar  1 <1>  -0.1500 
  7 C        1.9890     1.5150    -1.2930 C.ar  1 <1>  -0.1500 
  8 C       -2.8280     0.5350    -0.4060 C.3   1 <1>  -0.0990 
  9 C        3.1060     1.5280     1.2270 C.ar  1 <1>  -0.1500 
 10 C        3.1370     2.2480    -1.0490 C.ar  1 <1>  -0.1500 
 11 C       -3.9080     1.5620    -0.1020 C.2   1 <1>   0.5690 
 12 C        3.7010     2.2610     0.2150 C.ar  1 <1>  -0.1440 
 13 O       -3.5410     2.6320     0.3220 O.2   1 <1>  -0.5700 
 14 N       -5.2350     1.2560    -0.3150 N.am  1 <1>  -0.6600 
 15 C        4.9610     3.0630     0.4860 C.3   1 <1>  -0.0970 
 16 C       -6.3480     2.2310    -0.0970 C.3   1 <1>   0.2200 
 17 C       -5.7190    -0.0750    -0.7910 C.3   1 <1>   0.0600 
 18 C       -6.2250     3.4550    -1.0160 C.3   1 <1>  -0.1600 
 19 C       -6.4720     2.6330     1.3800 C.3   1 <1>  -0.1600 
 20 C       -7.4070     4.4150    -0.8060 C.3   1 <1>  -0.1600 
 21 C       -7.6520     3.5950     1.5860 C.3   1 <1>  -0.1600 
 22 C       -7.5340     4.8210     0.6700 C.3   1 <1>  -0.1600 
 23 H       -1.2710     1.9340    -0.8540 H     1 <1>   0.0800 
 24 H       -1.2850     1.4060     0.7970 H     1 <1>   0.0800 
 25 H        1.5090     0.2290     1.7740 H     1 <1>   0.1500 
 26 H        1.5650     1.5140    -2.2840 H     1 <1>   0.1500 
 27 H       -2.9660    -0.3090     0.2460 H     1 <1>   0.0800 
 28 H       -2.9420     0.2070    -1.4230 H     1 <1>   0.0800 
 29 H        3.5350     1.5210     2.2140 H     1 <1>   0.1500 
 30 H        3.5910     2.8080    -1.8490 H     1 <1>   0.1500 
 31 H        5.8270     2.4530     0.3020 H     1 <1>   0.0800 
 32 H        4.9820     3.3970     1.5080 H     1 <1>   0.0800 
 33 H        5.0020     3.9260    -0.1530 H     1 <1>   0.0800 
 34 H       -7.2720     1.7450    -0.3600 H     1 <1>   0.0800 
 35 H       -4.9340    -0.8060    -0.8290 H     1 <1>   0.0800 
 36 H       -6.1390     0.0280    -1.7770 H     1 <1>   0.0800 
 37 H       -6.4810    -0.4400    -0.1240 H     1 <1>   0.0800 
 38 H       -6.2010     3.1340    -2.0420 H     1 <1>   0.0800 
 39 H       -5.3150     3.9870    -0.8040 H     1 <1>   0.0800 
 40 H       -5.5720     3.1240     1.7040 H     1 <1>   0.0800 
 41 H       -6.6150     1.7530     1.9810 H     1 <1>   0.0800 
 42 H       -8.3180     3.9380    -1.1240 H     1 <1>   0.0800 
 43 H       -7.2660     5.2940    -1.4100 H     1 <1>   0.0800 
 44 H       -7.6780     3.9150     2.6140 H     1 <1>   0.0800 
 45 H       -8.5740     3.0810     1.3780 H     1 <1>   0.0800 
 46 H       -8.3970     5.4510     0.7970 H     1 <1>   0.0800 
 47 H       -6.6660     5.3930     0.9540 H     1 <1>   0.0800 
@<TRIPOS>BOND
  1   1   2  2   
  2   1   3  2   
  3   1   4  1   
  4   1   5  1   
  5   4   6  ar  
  6   4   7  ar  
  7   5   8  1   
  8   5  23  1   
  9   5  24  1   
 10   6   9  ar  
 11   6  25  1   
 12   7  10  ar  
 13   7  26  1   
 14   8  11  1   
 15   8  27  1   
 16   8  28  1   
 17   9  12  ar  
 18   9  29  1   
 19  10  12  ar  
 20  10  30  1   
 21  11  13  2   
 22  11  14  am  
 23  12  15  1   
 24  14  16  1   
 25  14  17  1   
 26  15  31  1   
 27  15  32  1   
 28  15  33  1   
 29  16  18  1   
 30  16  19  1   
 31  16  34  1   
 32  17  35  1   
 33  17  36  1   
 34  17  37  1   
 35  18  20  1   
 36  18  38  1   
 37  18  39  1   
 38  19  21  1   
 39  19  40  1   
 40  19  41  1   
 41  20  22  1   
 42  20  42  1   
 43  20  43  1   
 44  21  22  1   
 45  21  44  1   
 46  21  45  1   
 47  22  46  1   
 48  22  47  1   
@<TRIPOS>SUBSTRUCTURE
  1 ****   5 GROUP 4 **** **** 0

# MOE 2024.06 (io_trps.svl 2023.06)
