@<TRIPOS>MOLECULE
NONAME
41 42 1 0 0 
SMALL
USER_CHARGES


@<TRIPOS>ATOM
  1 O       -5.7090     2.8510    -0.2700 O.3   1 <1>  -0.3630 
  2 C       -4.4650     2.3070    -0.2880 C.ar  1 <1>   0.0830 
  3 C       -6.8590     2.1100     0.0650 C.3   1 <1>   0.1200 
  4 C       -3.3920     3.1520    -0.5810 C.ar  1 <1>   0.0730 
  5 C       -4.2360     0.9570    -0.0260 C.ar  1 <1>  -0.1500 
  6 C       -8.0580     3.0540    -0.0080 C.3   1 <1>  -0.1600 
  7 C       -3.5930     4.5470    -0.8520 C.1   1 <1>   0.4840 
  8 C       -2.1070     2.6200    -0.6060 C.ar  1 <1>  -0.1500 
  9 C       -2.9510     0.4490    -0.0550 C.ar  1 <1>  -0.1500 
 10 C       -9.3460     2.3450     0.4190 C.3   1 <1>   0.1100 
 11 N       -3.7120     5.6610    -1.0700 N.1   1 <1>  -0.5570 
 12 C       -1.8840     1.2800    -0.3450 C.ar  1 <1>  -0.1500 
 13 N      -10.5220     3.1850     0.1400 N.3   1 <1>  -0.8100 
 14 C      -11.7740     2.3940     0.2060 C.3   1 <1>   0.1100 
 15 C      -10.6130     4.3710     1.0340 C.3   1 <1>   0.1100 
 16 C      -13.0230     3.2360    -0.1600 C.3   1 <1>   0.3430 
 17 C      -11.8940     5.2080     0.7890 C.3   1 <1>   0.3430 
 18 N      -12.6650     4.6760    -0.3810 N.4   1 <1>  -0.9590 
 19 C      -13.8250     5.5270    -0.7720 C.3   1 <1>   0.2630 
 20 H       -6.7330     1.7240     1.0620 H     1 <1>   0.0800 
 21 H       -6.9630     1.3040    -0.6410 H     1 <1>   0.0800 
 22 H       -5.0420     0.2860     0.2010 H     1 <1>   0.1500 
 23 H       -8.1620     3.4010    -1.0210 H     1 <1>   0.0800 
 24 H       -7.8660     3.8910     0.6390 H     1 <1>   0.0800 
 25 H       -1.2710     3.2610    -0.8310 H     1 <1>   0.1500 
 26 H       -2.7780    -0.5940     0.1470 H     1 <1>   0.1500 
 27 H       -9.3060     2.0900     1.4660 H     1 <1>   0.0800 
 28 H       -9.4290     1.4310    -0.1460 H     1 <1>   0.0800 
 29 H       -0.8830     0.8840    -0.3680 H     1 <1>   0.1500 
 30 H      -11.8980     1.9900     1.1960 H     1 <1>   0.0800 
 31 H      -11.7110     1.5630    -0.4760 H     1 <1>   0.0800 
 32 H       -9.7630     5.0110     0.8710 H     1 <1>   0.0800 
 33 H      -10.5880     4.0590     2.0640 H     1 <1>   0.0800 
 34 H      -13.7500     3.1520     0.6320 H     1 <1>   0.0800 
 35 H      -13.4650     2.8300    -1.0540 H     1 <1>   0.0800 
 36 H      -11.6120     6.2330     0.6110 H     1 <1>   0.0800 
 37 H      -12.5070     5.1850     1.6740 H     1 <1>   0.0800 
 38 H      -11.9610     4.6380    -1.1390 H     1 <1>   0.4500 
 39 H      -14.5510     5.5600     0.0240 H     1 <1>   0.0800 
 40 H      -14.2980     5.1300    -1.6560 H     1 <1>   0.0800 
 41 H      -13.4960     6.5320    -0.9830 H     1 <1>   0.0800 
@<TRIPOS>BOND
  1   1   2  1   
  2   1   3  1   
  3   2   4  ar  
  4   2   5  ar  
  5   3   6  1   
  6   3  20  1   
  7   3  21  1   
  8   4   7  1   
  9   4   8  ar  
 10   5   9  ar  
 11   5  22  1   
 12   6  10  1   
 13   6  23  1   
 14   6  24  1   
 15   7  11  3   
 16   8  12  ar  
 17   8  25  1   
 18   9  12  ar  
 19   9  26  1   
 20  10  13  1   
 21  10  27  1   
 22  10  28  1   
 23  12  29  1   
 24  13  14  1   
 25  13  15  1   
 26  14  16  1   
 27  14  30  1   
 28  14  31  1   
 29  15  17  1   
 30  15  32  1   
 31  15  33  1   
 32  16  18  1   
 33  16  34  1   
 34  16  35  1   
 35  17  18  1   
 36  17  36  1   
 37  17  37  1   
 38  18  19  1   
 39  18  38  1   
 40  19  39  1   
 41  19  40  1   
 42  19  41  1   
@<TRIPOS>SUBSTRUCTURE
  1 ****   6 GROUP 4 **** **** 0

# MOE 2024.06 (io_trps.svl 2023.06)
