@<TRIPOS>MOLECULE
NONAME
48 49 1 0 0 
SMALL
USER_CHARGES


@<TRIPOS>ATOM
  1 O       -1.7050     0.4720     0.0610 O.3   1 <1>  -0.3630 
  2 C       -0.9290     1.5650    -0.2220 C.ar  1 <1>   0.0830 
  3 C       -1.1390    -0.8270     0.0110 C.3   1 <1>   0.0400 
  4 C        0.4130     1.7040     0.1690 C.ar  1 <1>   0.0830 
  5 C       -1.5490     2.5900    -0.9320 C.ar  1 <1>  -0.1440 
  6 O        0.9930     0.7360     0.9350 O.3   1 <1>  -0.3620 
  7 C        1.1140     2.8440    -0.2130 C.ar  1 <1>  -0.1500 
  8 C       -0.8340     3.7190    -1.2990 C.ar  1 <1>  -0.1500 
  9 C       -3.0160     2.4770    -1.2930 C.3   1 <1>   0.4860 
 10 C        2.3320     0.8230     1.3760 C.3   1 <1>   0.0400 
 11 C        0.4950     3.8410    -0.9450 C.ar  1 <1>  -0.1500 
 12 N       -3.7910     2.3670    -0.0180 N.4   1 <1>  -0.9590 
 13 C       -5.1720     1.8070    -0.1650 C.3   1 <1>   0.4230 
 14 C       -3.7000     3.6740     0.7210 C.3   1 <1>   0.2630 
 15 C       -5.8710     1.7470     1.2020 C.3   1 <1>  -0.1600 
 16 C       -5.1110     0.3950    -0.7720 C.3   1 <1>  -0.1600 
 17 C       -7.2350     1.0620     1.1240 C.3   1 <1>   0.3430 
 18 C       -6.4860    -0.2720    -0.8210 C.3   1 <1>   0.3430 
 19 N       -7.0890    -0.2990     0.5400 N.4   1 <1>  -0.9590 
 20 C       -8.4160    -0.9990     0.5100 C.3   1 <1>   0.2630 
 21 H       -0.6840    -1.0470     0.9610 H     1 <1>   0.0800 
 22 H       -0.4030    -0.8660    -0.7740 H     1 <1>   0.0800 
 23 H       -1.9220    -1.5360    -0.1850 H     1 <1>   0.0800 
 24 H        2.1460     2.9840     0.0510 H     1 <1>   0.1500 
 25 H       -1.2940     4.5130    -1.8640 H     1 <1>   0.1500 
 26 H       -3.1390     1.5960    -1.8990 H     1 <1>   0.0800 
 27 H       -3.3330     3.3370    -1.8600 H     1 <1>   0.0800 
 28 H        2.4450     1.7020     1.9850 H     1 <1>   0.0800 
 29 H        2.9820     0.8590     0.5200 H     1 <1>   0.0800 
 30 H        2.5500    -0.0540     1.9600 H     1 <1>   0.0800 
 31 H        1.0540     4.7150    -1.2360 H     1 <1>   0.1500 
 32 H       -3.2150     1.6830     0.5120 H     1 <1>   0.4500 
 33 H       -5.7440     2.4460    -0.8190 H     1 <1>   0.0800 
 34 H       -4.2610     4.4390     0.2090 H     1 <1>   0.0800 
 35 H       -2.6720     3.9930     0.7930 H     1 <1>   0.0800 
 36 H       -4.0820     3.5730     1.7240 H     1 <1>   0.0800 
 37 H       -6.0430     2.7410     1.5740 H     1 <1>   0.0800 
 38 H       -5.2590     1.2220     1.9150 H     1 <1>   0.0800 
 39 H       -4.4430    -0.2290    -0.2040 H     1 <1>   0.0800 
 40 H       -4.7510     0.4360    -1.7840 H     1 <1>   0.0800 
 41 H       -7.9050     1.6490     0.5140 H     1 <1>   0.0800 
 42 H       -7.6610     0.9930     2.1130 H     1 <1>   0.0800 
 43 H       -6.3840    -1.2790    -1.1970 H     1 <1>   0.0800 
 44 H       -7.1320     0.2710    -1.4940 H     1 <1>   0.0800 
 45 H       -6.4730    -0.8530     1.1580 H     1 <1>   0.4500 
 46 H       -9.1100    -0.4680    -0.1220 H     1 <1>   0.0800 
 47 H       -8.8330    -1.0590     1.5030 H     1 <1>   0.0800 
 48 H       -8.3040    -2.0020     0.1290 H     1 <1>   0.0800 
@<TRIPOS>BOND
  1   1   2  1   
  2   1   3  1   
  3   2   4  ar  
  4   2   5  ar  
  5   3  21  1   
  6   3  22  1   
  7   3  23  1   
  8   4   6  1   
  9   4   7  ar  
 10   5   8  ar  
 11   5   9  1   
 12   6  10  1   
 13   7  11  ar  
 14   7  24  1   
 15   8  11  ar  
 16   8  25  1   
 17   9  12  1   
 18   9  26  1   
 19   9  27  1   
 20  10  28  1   
 21  10  29  1   
 22  10  30  1   
 23  11  31  1   
 24  12  13  1   
 25  12  14  1   
 26  12  32  1   
 27  13  15  1   
 28  13  16  1   
 29  13  33  1   
 30  14  34  1   
 31  14  35  1   
 32  14  36  1   
 33  15  17  1   
 34  15  37  1   
 35  15  38  1   
 36  16  18  1   
 37  16  39  1   
 38  16  40  1   
 39  17  19  1   
 40  17  41  1   
 41  17  42  1   
 42  18  19  1   
 43  18  43  1   
 44  18  44  1   
 45  19  20  1   
 46  19  45  1   
 47  20  46  1   
 48  20  47  1   
 49  20  48  1   
@<TRIPOS>SUBSTRUCTURE
  1 ****  12 GROUP 4 **** **** 0

# MOE 2024.06 (io_trps.svl 2023.06)
