@<TRIPOS>MOLECULE
NONAME
42 43 1 0 0 
SMALL
USER_CHARGES


@<TRIPOS>ATOM
  1 O       -0.0230    -0.3080    -0.0820 O.2   1 <1>  -0.5700 
  2 C       -0.1000    -1.5170    -0.1940 C.2   1 <1>   0.5440 
  3 N        1.0660    -2.2510    -0.2130 N.am  1 <1>  -0.6600 
  4 C       -1.4030    -2.1460    -0.2900 C.ar  1 <1>   0.0860 
  5 C        1.1220    -3.7240     0.0370 C.3   1 <1>   0.1400 
  6 C        2.3970    -1.5730    -0.2500 C.3   1 <1>   0.1400 
  7 C       -2.4060    -1.8580     0.6350 C.ar  1 <1>  -0.1500 
  8 C       -1.7080    -3.0550    -1.3050 C.ar  1 <1>  -0.1500 
  9 C        2.4450    -4.1230     0.7220 C.3   1 <1>   0.2000 
 10 C        3.5050    -2.5280    -0.7460 C.3   1 <1>   0.2000 
 11 C       -3.6510    -2.4580     0.5670 C.ar  1 <1>  -0.1500 
 12 C       -2.9490    -3.6580    -1.3820 C.ar  1 <1>  -0.1500 
 13 O        3.5600    -3.7390    -0.0340 O.3   1 <1>  -0.5600 
 14 C        2.5530    -5.6310     0.9320 C.3   1 <1>  -0.2400 
 15 C        4.8910    -1.8970    -0.6500 C.3   1 <1>  -0.2400 
 16 C       -3.9330    -3.3640    -0.4490 C.ar  1 <1>   0.0830 
 17 O       -5.1220    -4.0030    -0.5850 O.3   1 <1>  -0.2330 
 18 C       -6.3330    -3.6270    -0.1720 C.2   1 <1>   0.6590 
 19 O       -6.5610    -2.5700     0.3570 O.2   1 <1>  -0.5700 
 20 C       -7.4310    -4.6510    -0.4320 C.3   1 <1>  -0.0990 
 21 C       -8.8200    -4.2560     0.1010 C.3   1 <1>  -0.2400 
 22 H        1.0380    -4.2490    -0.8980 H     1 <1>   0.0800 
 23 H        0.2990    -4.0160     0.6660 H     1 <1>   0.0800 
 24 H        2.6400    -1.2160     0.7350 H     1 <1>   0.0800 
 25 H        2.3450    -0.7200    -0.9050 H     1 <1>   0.0800 
 26 H       -2.1980    -1.1470     1.4170 H     1 <1>   0.1500 
 27 H       -0.9590    -3.2810    -2.0430 H     1 <1>   0.1500 
 28 H        2.5130    -3.6260     1.6750 H     1 <1>   0.0800 
 29 H        3.3020    -2.7780    -1.7730 H     1 <1>   0.0800 
 30 H       -4.3870    -2.2110     1.3100 H     1 <1>   0.1500 
 31 H       -3.1630    -4.3570    -2.1710 H     1 <1>   0.1500 
 32 H        2.5200    -6.1430    -0.0130 H     1 <1>   0.0800 
 33 H        1.7420    -5.9790     1.5450 H     1 <1>   0.0800 
 34 H        3.4790    -5.8620     1.4280 H     1 <1>   0.0800 
 35 H        5.1260    -1.6680     0.3740 H     1 <1>   0.0800 
 36 H        4.9250    -0.9890    -1.2240 H     1 <1>   0.0800 
 37 H        5.6280    -2.5760    -1.0400 H     1 <1>   0.0800 
 38 H       -7.1340    -5.5790     0.0220 H     1 <1>   0.0800 
 39 H       -7.4940    -4.8080    -1.4930 H     1 <1>   0.0800 
 40 H       -8.7830    -4.1100     1.1660 H     1 <1>   0.0800 
 41 H       -9.5370    -5.0270    -0.1180 H     1 <1>   0.0800 
 42 H       -9.1480    -3.3390    -0.3580 H     1 <1>   0.0800 
@<TRIPOS>BOND
  1   1   2  2   
  2   2   3  am  
  3   2   4  1   
  4   3   5  1   
  5   3   6  1   
  6   4   7  ar  
  7   4   8  ar  
  8   5   9  1   
  9   5  22  1   
 10   5  23  1   
 11   6  10  1   
 12   6  24  1   
 13   6  25  1   
 14   7  11  ar  
 15   7  26  1   
 16   8  12  ar  
 17   8  27  1   
 18   9  13  1   
 19   9  14  1   
 20   9  28  1   
 21  10  13  1   
 22  10  15  1   
 23  10  29  1   
 24  11  16  ar  
 25  11  30  1   
 26  12  16  ar  
 27  12  31  1   
 28  14  32  1   
 29  14  33  1   
 30  14  34  1   
 31  15  35  1   
 32  15  36  1   
 33  15  37  1   
 34  16  17  1   
 35  17  18  1   
 36  18  19  2   
 37  18  20  1   
 38  20  21  1   
 39  20  38  1   
 40  20  39  1   
 41  21  40  1   
 42  21  41  1   
 43  21  42  1   
@<TRIPOS>SUBSTRUCTURE
  1 ****   4 GROUP 4 **** **** 0

# MOE 2024.06 (io_trps.svl 2023.06)
