@<TRIPOS>MOLECULE
NONAME
51 51 1 0 0 
SMALL
USER_CHARGES


@<TRIPOS>ATOM
  1 N        0.1150    -0.1390    -0.6700 N.4   1 <1>  -0.9590 
  2 C       -1.1030     0.7010    -0.8530 C.3   1 <1>   0.3430 
  3 C        0.0730    -0.9670     0.5730 C.3   1 <1>   0.3430 
  4 C        1.3300     0.7300    -0.7000 C.3   1 <1>   0.3430 
  5 C       -2.3570    -0.1790    -0.8700 C.3   1 <1>  -0.1600 
  6 C       -1.1680    -1.8620     0.5650 C.3   1 <1>  -0.1600 
  7 C        2.5670    -0.1220    -0.9600 C.3   1 <1>  -0.2400 
  8 C       -2.4460    -1.0380     0.3960 C.3   1 <1>   0.4230 
  9 N       -3.6060    -1.9660     0.3220 N.4   1 <1>  -0.9060 
 10 C       -4.9550    -1.3200     0.4470 C.3   1 <1>   0.3430 
 11 C       -6.1180    -2.3510     0.4170 C.3   1 <1>   0.0000 
 12 C       -7.4480    -1.5580     0.5900 C.3   1 <1>   0.3430 
 13 C       -5.9570    -3.3640     1.5750 C.3   1 <1>  -0.2400 
 14 C       -6.1050    -3.1220    -0.9230 C.3   1 <1>  -0.2400 
 15 N       -8.6720    -2.4250     0.5750 N.4   1 <1>  -0.9590 
 16 C       -9.3870    -2.3810    -0.7440 C.3   1 <1>   0.2630 
 17 C       -9.6250    -2.0370     1.6660 C.3   1 <1>   0.2630 
 18 H        0.2120    -0.7670    -1.4830 H     1 <1>   0.4500 
 19 H       -1.0340     1.2470    -1.7820 H     1 <1>   0.0800 
 20 H       -1.1710     1.4190    -0.0510 H     1 <1>   0.0800 
 21 H        0.0550    -0.3220     1.4390 H     1 <1>   0.0800 
 22 H        0.9570    -1.5830     0.6380 H     1 <1>   0.0800 
 23 H        1.4370     1.2650     0.2310 H     1 <1>   0.0800 
 24 H        1.2410     1.4550    -1.4940 H     1 <1>   0.0800 
 25 H       -2.3320    -0.7970    -1.7510 H     1 <1>   0.0800 
 26 H       -3.2100     0.4710    -0.9390 H     1 <1>   0.0800 
 27 H       -1.1990    -2.3950     1.5000 H     1 <1>   0.0800 
 28 H       -1.0670    -2.5820    -0.2290 H     1 <1>   0.0800 
 29 H        2.7680    -0.7960    -0.1470 H     1 <1>   0.0800 
 30 H        3.4220     0.5260    -1.0570 H     1 <1>   0.0800 
 31 H        2.4720    -0.6740    -1.8780 H     1 <1>   0.0800 
 32 H       -2.5560    -0.3940     1.2560 H     1 <1>   0.0800 
 33 H       -3.5180    -2.6640     1.0740 H     1 <1>   0.4500 
 34 H       -3.5670    -2.5030    -0.5550 H     1 <1>   0.4500 
 35 H       -5.0920    -0.6170    -0.3600 H     1 <1>   0.0800 
 36 H       -4.9990    -0.7700     1.3750 H     1 <1>   0.0800 
 37 H       -7.5320    -0.8140    -0.1860 H     1 <1>   0.0800 
 38 H       -7.4060    -1.0340     1.5320 H     1 <1>   0.0800 
 39 H       -5.9380    -2.8620     2.5290 H     1 <1>   0.0800 
 40 H       -5.0540    -3.9410     1.4790 H     1 <1>   0.0800 
 41 H       -6.7680    -4.0700     1.5940 H     1 <1>   0.0800 
 42 H       -6.2270    -2.4520    -1.7570 H     1 <1>   0.0800 
 43 H       -6.8980    -3.8480    -0.9600 H     1 <1>   0.0800 
 44 H       -5.1880    -3.6680    -1.0600 H     1 <1>   0.0800 
 45 H       -8.3880    -3.4020     0.7500 H     1 <1>   0.4500 
 46 H       -9.7310    -1.3800    -0.9520 H     1 <1>   0.0800 
 47 H      -10.2420    -3.0380    -0.7270 H     1 <1>   0.0800 
 48 H       -8.7350    -2.6940    -1.5420 H     1 <1>   0.0800 
 49 H       -9.9650    -1.0230     1.5270 H     1 <1>   0.0800 
 50 H       -9.1480    -2.1120     2.6300 H     1 <1>   0.0800 
 51 H      -10.4850    -2.6880     1.6610 H     1 <1>   0.0800 
@<TRIPOS>BOND
  1   1   2  1   
  2   1   3  1   
  3   1   4  1   
  4   1  18  1   
  5   2   5  1   
  6   2  19  1   
  7   2  20  1   
  8   3   6  1   
  9   3  21  1   
 10   3  22  1   
 11   4   7  1   
 12   4  23  1   
 13   4  24  1   
 14   5   8  1   
 15   5  25  1   
 16   5  26  1   
 17   6   8  1   
 18   6  27  1   
 19   6  28  1   
 20   7  29  1   
 21   7  30  1   
 22   7  31  1   
 23   8   9  1   
 24   8  32  1   
 25   9  10  1   
 26   9  33  1   
 27   9  34  1   
 28  10  11  1   
 29  10  35  1   
 30  10  36  1   
 31  11  12  1   
 32  11  13  1   
 33  11  14  1   
 34  12  15  1   
 35  12  37  1   
 36  12  38  1   
 37  13  39  1   
 38  13  40  1   
 39  13  41  1   
 40  14  42  1   
 41  14  43  1   
 42  14  44  1   
 43  15  16  1   
 44  15  17  1   
 45  15  45  1   
 46  16  46  1   
 47  16  47  1   
 48  16  48  1   
 49  17  49  1   
 50  17  50  1   
 51  17  51  1   
@<TRIPOS>SUBSTRUCTURE
  1 ****   9 GROUP 4 **** **** 0

# MOE 2024.06 (io_trps.svl 2023.06)
