@<TRIPOS>MOLECULE
NONAME
38 40 1 0 0 
SMALL
USER_CHARGES


@<TRIPOS>ATOM
  1 F        0.3730    -0.2620     0.2150 F     1 <1>  -0.3400 
  2 C        1.6560     0.0580     0.3420 C.3   1 <1>   1.1640 
  3 F        1.8590     0.2590     1.6390 F     1 <1>  -0.3400 
  4 F        1.8070     1.2370    -0.2460 F     1 <1>  -0.3400 
  5 C        2.6010    -1.0030    -0.2480 C.ar  1 <1>  -0.1440 
  6 C        3.8970    -1.1480     0.2370 C.ar  1 <1>  -0.1500 
  7 C        2.1840    -1.8310    -1.2840 C.ar  1 <1>  -0.1500 
  8 C        4.7880    -2.0960    -0.2740 C.ar  1 <1>   0.0540 
  9 C        3.0430    -2.7780    -1.8100 C.ar  1 <1>  -0.1500 
 10 C        6.1390    -2.2300     0.2510 C.2   1 <1>   0.4620 
 11 C        4.3240    -2.9070    -1.3110 C.ar  1 <1>  -0.1500 
 12 N        6.6400    -1.5160     1.2030 N.2   1 <1>  -0.4100 
 13 N        7.0130    -3.1380    -0.2250 N.2   1 <1>  -0.5650 
 14 O        7.8270    -1.9620     1.3390 O.3   1 <1>  -0.0190 
 15 C        8.0630    -2.9280     0.4960 C.2   1 <1>   0.3930 
 16 C        9.3720    -3.5680     0.4940 C.2   1 <1>   0.7150 
 17 O        9.6440    -4.4700    -0.2790 O.2   1 <1>  -0.5700 
 18 N       10.3590    -3.1650     1.3630 N.am  1 <1>  -0.7300 
 19 C       11.7220    -3.7630     1.4530 C.3   1 <1>   0.1400 
 20 C       12.6100    -3.3590     0.2670 C.3   1 <1>   0.2000 
 21 O       13.9180    -3.7440     0.5260 O.3   1 <1>  -0.5600 
 22 C       12.7150    -1.8600     0.0140 C.3   1 <1>  -0.1600 
 23 C       14.7910    -3.0340    -0.2910 C.3   1 <1>   0.1200 
 24 C       14.0960    -1.7110    -0.6070 C.3   1 <1>  -0.1600 
 25 H        4.2350    -0.5090     1.0360 H     1 <1>   0.1500 
 26 H        1.1890    -1.7450    -1.6900 H     1 <1>   0.1500 
 27 H        2.7130    -3.4170    -2.6120 H     1 <1>   0.1500 
 28 H        4.9760    -3.6510    -1.7350 H     1 <1>   0.1500 
 29 H       10.1710    -2.3920     2.0060 H     1 <1>   0.3700 
 30 H       11.6370    -4.8370     1.4710 H     1 <1>   0.0800 
 31 H       12.1870    -3.4400     2.3690 H     1 <1>   0.0800 
 32 H       12.2930    -3.8730    -0.6260 H     1 <1>   0.0800 
 33 H       12.6710    -1.3280     0.9480 H     1 <1>   0.0800 
 34 H       11.9300    -1.5120    -0.6340 H     1 <1>   0.0800 
 35 H       14.9580    -3.6110    -1.1850 H     1 <1>   0.0800 
 36 H       15.7180    -2.8930     0.2370 H     1 <1>   0.0800 
 37 H       14.6320    -0.8810    -0.1820 H     1 <1>   0.0800 
 38 H       14.0330    -1.5800    -1.6730 H     1 <1>   0.0800 
@<TRIPOS>BOND
  1   1   2  1   
  2   2   3  1   
  3   2   4  1   
  4   2   5  1   
  5   5   6  ar  
  6   5   7  ar  
  7   6   8  ar  
  8   6  25  1   
  9   7   9  ar  
 10   7  26  1   
 11   8  10  1   
 12   8  11  ar  
 13   9  11  ar  
 14   9  27  1   
 15  10  12  2   
 16  10  13  1   
 17  11  28  1   
 18  12  14  1   
 19  13  15  2   
 20  14  15  1   
 21  15  16  1   
 22  16  17  2   
 23  16  18  am  
 24  18  19  1   
 25  18  29  1   
 26  19  20  1   
 27  19  30  1   
 28  19  31  1   
 29  20  21  1   
 30  20  22  1   
 31  20  32  1   
 32  21  23  1   
 33  22  24  1   
 34  22  33  1   
 35  22  34  1   
 36  23  24  1   
 37  23  35  1   
 38  23  36  1   
 39  24  37  1   
 40  24  38  1   
@<TRIPOS>SUBSTRUCTURE
  1 ****  10 GROUP 4 **** **** 0

# MOE 2024.06 (io_trps.svl 2023.06)
