@<TRIPOS>MOLECULE
NONAME
47 49 1 0 0 
SMALL
USER_CHARGES


@<TRIPOS>ATOM
  1 O       -1.7660     1.1500     0.4710 O.3   1 <1>  -0.3630 
  2 C       -1.1380     1.8390    -0.5200 C.ar  1 <1>   0.0830 
  3 C       -1.0340     0.5990     1.5500 C.3   1 <1>   0.0400 
  4 C       -1.8750     2.1440    -1.6610 C.ar  1 <1>  -0.1440 
  5 C        0.1890     2.2510    -0.4300 C.ar  1 <1>  -0.1500 
  6 C       -1.2850     2.8520    -2.6980 C.ar  1 <1>  -0.1500 
  7 C       -3.3220     1.7070    -1.7730 C.3   1 <1>   0.4870 
  8 C        0.7690     2.9580    -1.4680 C.ar  1 <1>  -0.1500 
  9 C        0.0340     3.2580    -2.6010 C.ar  1 <1>  -0.1500 
 10 N       -4.0850     2.3330    -0.6670 N.4   1 <1>  -0.9590 
 11 C       -5.4720     1.7710    -0.5200 C.3   1 <1>   0.3430 
 12 C       -4.0930     3.8380    -0.7520 C.3   1 <1>   0.3430 
 13 C       -6.2340     2.3850     0.6740 C.3   1 <1>   0.2090 
 14 C       -4.8310     4.4930     0.4330 C.3   1 <1>   0.2090 
 15 N       -6.1710     3.8760     0.6650 N.pl3 1 <1>  -0.8380 
 16 C       -7.2960     4.5710     0.2240 C.ar  1 <1>   0.1000 
 17 C       -8.1500     5.1980     1.1320 C.ar  1 <1>  -0.1430 
 18 C       -7.5850     4.6460    -1.1360 C.ar  1 <1>  -0.1500 
 19 C       -9.2640     5.8800     0.6710 C.ar  1 <1>  -0.1500 
 20 C       -7.8710     5.1420     2.6270 C.3   1 <1>  -0.0970 
 21 C       -8.6970     5.3290    -1.5890 C.ar  1 <1>  -0.1500 
 22 C       -9.5400     5.9480    -0.6830 C.ar  1 <1>  -0.1500 
 23 H       -0.6170     1.3980     2.1390 H     1 <1>   0.0800 
 24 H       -0.2550    -0.0340     1.1610 H     1 <1>   0.0800 
 25 H       -1.7050     0.0160     2.1550 H     1 <1>   0.0800 
 26 H        0.7900     2.0370     0.4340 H     1 <1>   0.1500 
 27 H       -1.8350     3.0920    -3.5920 H     1 <1>   0.1500 
 28 H       -3.3670     0.6330    -1.6910 H     1 <1>   0.0800 
 29 H       -3.7300     2.0000    -2.7260 H     1 <1>   0.0800 
 30 H        1.7960     3.2740    -1.3970 H     1 <1>   0.1500 
 31 H        0.4940     3.8060    -3.4070 H     1 <1>   0.1500 
 32 H       -3.5390     2.0840     0.1760 H     1 <1>   0.4500 
 33 H       -5.4250     0.7030    -0.3910 H     1 <1>   0.0800 
 34 H       -6.0380     1.9720    -1.4140 H     1 <1>   0.0800 
 35 H       -4.5820     4.1440    -1.6610 H     1 <1>   0.0800 
 36 H       -3.0820     4.2100    -0.7800 H     1 <1>   0.0800 
 37 H       -5.8150     2.0230     1.5960 H     1 <1>   0.0800 
 38 H       -7.2640     2.0720     0.6400 H     1 <1>   0.0800 
 39 H       -4.9510     5.5460     0.2410 H     1 <1>   0.0800 
 40 H       -4.2400     4.3930     1.3270 H     1 <1>   0.0800 
 41 H       -6.9390     4.1710    -1.8450 H     1 <1>   0.1500 
 42 H       -9.9280     6.3660     1.3650 H     1 <1>   0.1500 
 43 H       -7.8740     4.1200     2.9590 H     1 <1>   0.0800 
 44 H       -8.6140     5.6850     3.1830 H     1 <1>   0.0800 
 45 H       -6.9070     5.5700     2.8330 H     1 <1>   0.0800 
 46 H       -8.9140     5.3830    -2.6410 H     1 <1>   0.1500 
 47 H      -10.4090     6.4810    -1.0290 H     1 <1>   0.1500 
@<TRIPOS>BOND
  1   1   2  1   
  2   1   3  1   
  3   2   4  ar  
  4   2   5  ar  
  5   3  23  1   
  6   3  24  1   
  7   3  25  1   
  8   4   6  ar  
  9   4   7  1   
 10   5   8  ar  
 11   5  26  1   
 12   6   9  ar  
 13   6  27  1   
 14   7  10  1   
 15   7  28  1   
 16   7  29  1   
 17   8   9  ar  
 18   8  30  1   
 19   9  31  1   
 20  10  11  1   
 21  10  12  1   
 22  10  32  1   
 23  11  13  1   
 24  11  33  1   
 25  11  34  1   
 26  12  14  1   
 27  12  35  1   
 28  12  36  1   
 29  13  15  1   
 30  13  37  1   
 31  13  38  1   
 32  14  15  1   
 33  14  39  1   
 34  14  40  1   
 35  15  16  1   
 36  16  17  ar  
 37  16  18  ar  
 38  17  19  ar  
 39  17  20  1   
 40  18  21  ar  
 41  18  41  1   
 42  19  22  ar  
 43  19  42  1   
 44  20  43  1   
 45  20  44  1   
 46  20  45  1   
 47  21  22  ar  
 48  21  46  1   
 49  22  47  1   
@<TRIPOS>SUBSTRUCTURE
  1 ****  12 GROUP 4 **** **** 0

# MOE 2024.06 (io_trps.svl 2023.06)
