@<TRIPOS>MOLECULE
NONAME
34 35 1 0 0 
SMALL
USER_CHARGES


@<TRIPOS>ATOM
  1 S        0.1290    -0.4020     0.5790 S.o2  1 <1>   1.4470 
  2 O        1.3040    -0.7750     1.3380 O.2   1 <1>  -0.6500 
  3 O       -1.1220    -1.0770     0.8430 O.2   1 <1>  -0.6500 
  4 N        0.4910    -0.6880    -1.0540 N.am  1 <1>  -0.8490 
  5 C       -0.0810     1.3990     0.6560 C.ar  1 <1>  -0.0090 
  6 C        1.0880    -2.0350    -1.2740 C.3   1 <1>   0.2570 
  7 C       -0.6600    -0.4790    -1.9410 C.3   1 <1>   0.1160 
  8 C       -1.1990     1.9690     1.2640 C.ar  1 <1>  -0.1500 
  9 C        0.8820     2.2480     0.1120 C.ar  1 <1>  -0.1500 
 10 C        2.6220    -2.0560    -1.3610 C.2   1 <1>   0.5690 
 11 C       -1.3600     3.3440     1.3260 C.ar  1 <1>  -0.1500 
 12 C        0.7390     3.6250     0.1640 C.ar  1 <1>  -0.1500 
 13 O        3.1320    -2.4710    -2.3770 O.2   1 <1>  -0.5700 
 14 N        3.3630    -1.6270    -0.3040 N.am  1 <1>  -0.5790 
 15 C       -0.3850     4.1480     0.7720 C.ar  1 <1>   0.1900 
 16 C        4.8270    -1.5690    -0.2290 C.3   1 <1>   0.0490 
 17 F       -0.5290     5.4440     0.8240 F     1 <1>  -0.1900 
 18 C        5.4670    -1.8150     1.0960 C.3   1 <1>  -0.2000 
 19 C        5.4400    -0.4320     0.5180 C.3   1 <1>  -0.2000 
 20 H        0.7290    -2.4420    -2.2030 H     1 <1>   0.0800 
 21 H        0.7770    -2.7130    -0.4980 H     1 <1>   0.0800 
 22 H       -1.0610     0.5110    -1.8060 H     1 <1>   0.0800 
 23 H       -1.4360    -1.1990    -1.7310 H     1 <1>   0.0800 
 24 H       -0.3560    -0.5800    -2.9690 H     1 <1>   0.0800 
 25 H       -1.9520     1.3280     1.6940 H     1 <1>   0.1500 
 26 H        1.7540     1.8230    -0.3590 H     1 <1>   0.1500 
 27 H       -2.2220     3.7860     1.7940 H     1 <1>   0.1500 
 28 H        1.4800     4.2820    -0.2570 H     1 <1>   0.1500 
 29 H        2.8640    -1.2820     0.5290 H     1 <1>   0.3700 
 30 H        5.3170    -1.9320    -1.1190 H     1 <1>   0.1000 
 31 H        6.4070    -2.3360     1.1250 H     1 <1>   0.1000 
 32 H        4.8390    -2.0420     1.9400 H     1 <1>   0.1000 
 33 H        4.7940     0.3060     0.9610 H     1 <1>   0.1000 
 34 H        6.3610    -0.0140     0.1540 H     1 <1>   0.1000 
@<TRIPOS>BOND
  1   1   2  2   
  2   1   3  2   
  3   1   4  am  
  4   1   5  1   
  5   4   6  1   
  6   4   7  1   
  7   5   8  ar  
  8   5   9  ar  
  9   6  10  1   
 10   6  20  1   
 11   6  21  1   
 12   7  22  1   
 13   7  23  1   
 14   7  24  1   
 15   8  11  ar  
 16   8  25  1   
 17   9  12  ar  
 18   9  26  1   
 19  10  13  2   
 20  10  14  am  
 21  11  15  ar  
 22  11  27  1   
 23  12  15  ar  
 24  12  28  1   
 25  14  16  1   
 26  14  29  1   
 27  15  17  1   
 28  16  18  1   
 29  16  19  1   
 30  16  30  1   
 31  18  19  1   
 32  18  31  1   
 33  18  32  1   
 34  19  33  1   
 35  19  34  1   
@<TRIPOS>SUBSTRUCTURE
  1 ****   1 GROUP 4 **** **** 0

# MOE 2024.06 (io_trps.svl 2023.06)
