@<TRIPOS>MOLECULE
NONAME
30 31 1 0 0 
SMALL
USER_CHARGES


@<TRIPOS>ATOM
  1 F        1.0430    -1.7100    -1.7320 F     1 <1>  -0.1900 
  2 C        0.5110    -2.3290    -0.7100 C.ar  1 <1>   0.1900 
  3 C       -0.7140    -2.9560    -0.8670 C.ar  1 <1>   0.1900 
  4 C        1.1850    -2.3450     0.5080 C.ar  1 <1>   0.0860 
  5 F       -1.3080    -2.9250    -2.0350 F     1 <1>  -0.1900 
  6 C       -1.3300    -3.6200     0.1840 C.ar  1 <1>  -0.1440 
  7 C        2.4680    -1.7060     0.7040 C.2   1 <1>   0.5440 
  8 C        0.5520    -3.0080     1.5630 C.ar  1 <1>  -0.1500 
  9 C       -0.6760    -3.6340     1.4080 C.ar  1 <1>  -0.1500 
 10 C       -2.6770    -4.3060     0.0110 C.3   1 <1>  -0.0960 
 11 O        2.5630    -0.8470     1.5590 O.2   1 <1>  -0.5700 
 12 N        3.5930    -2.0620    -0.0110 N.am  1 <1>  -0.6600 
 13 C        4.8720    -1.2960     0.0850 C.3   1 <1>   0.1400 
 14 C        3.6900    -3.2500    -0.9110 C.3   1 <1>   0.1400 
 15 C        6.0520    -2.2420     0.3610 C.3   1 <1>   0.1200 
 16 C        4.9420    -4.0810    -0.5830 C.3   1 <1>   0.1200 
 17 O        6.0880    -3.2780    -0.5820 O.3   1 <1>  -0.5600 
 18 H        1.0390    -3.0220     2.5240 H     1 <1>   0.1500 
 19 H       -1.1230    -4.1320     2.2520 H     1 <1>   0.1500 
 20 H       -3.4200    -3.5870    -0.2850 H     1 <1>   0.0800 
 21 H       -2.9970    -4.7700     0.9270 H     1 <1>   0.0800 
 22 H       -2.6090    -5.0640    -0.7500 H     1 <1>   0.0800 
 23 H        4.8210    -0.5600     0.8680 H     1 <1>   0.0800 
 24 H        5.0430    -0.7790    -0.8420 H     1 <1>   0.0800 
 25 H        3.7460    -2.9140    -1.9330 H     1 <1>   0.0800 
 26 H        2.8220    -3.8770    -0.8130 H     1 <1>   0.0800 
 27 H        5.9690    -2.6710     1.3440 H     1 <1>   0.0800 
 28 H        6.9810    -1.7050     0.2950 H     1 <1>   0.0800 
 29 H        5.0820    -4.8490    -1.3230 H     1 <1>   0.0800 
 30 H        4.8460    -4.5450     0.3830 H     1 <1>   0.0800 
@<TRIPOS>BOND
  1   1   2  1   
  2   2   3  ar  
  3   2   4  ar  
  4   3   5  1   
  5   3   6  ar  
  6   4   7  1   
  7   4   8  ar  
  8   6   9  ar  
  9   6  10  1   
 10   7  11  2   
 11   7  12  am  
 12   8   9  ar  
 13   8  18  1   
 14   9  19  1   
 15  10  20  1   
 16  10  21  1   
 17  10  22  1   
 18  12  13  1   
 19  12  14  1   
 20  13  15  1   
 21  13  23  1   
 22  13  24  1   
 23  14  16  1   
 24  14  25  1   
 25  14  26  1   
 26  15  17  1   
 27  15  27  1   
 28  15  28  1   
 29  16  17  1   
 30  16  29  1   
 31  16  30  1   
@<TRIPOS>SUBSTRUCTURE
  1 ****   4 GROUP 4 **** **** 0

# MOE 2024.06 (io_trps.svl 2023.06)
