@<TRIPOS>MOLECULE
NONAME
54 56 1 0 0 
SMALL
USER_CHARGES


@<TRIPOS>ATOM
  1 O       -2.7180    -0.5960     0.3160 O.3   1 <1>  -0.3630 
  2 C       -2.7250     0.5440    -0.4300 C.ar  1 <1>   0.0830 
  3 C       -1.5500    -1.1330     0.8920 C.3   1 <1>   0.1200 
  4 C       -1.6650     1.4470    -0.6200 C.ar  1 <1>   0.0820 
  5 C       -3.9370     0.8030    -1.0470 C.ar  1 <1>  -0.1500 
  6 C       -1.9120    -2.4700     1.5320 C.3   1 <1>  -0.2400 
  7 O       -0.4470     1.2900    -0.0600 O.3   1 <1>  -0.5320 
  8 C       -1.8500     2.5690    -1.4130 C.ar  1 <1>  -0.1500 
  9 C       -4.1280     1.9340    -1.8270 C.ar  1 <1>  -0.1430 
 10 C       -3.0730     2.8140    -2.0130 C.ar  1 <1>  -0.1500 
 11 C       -5.4820     2.1960    -2.4550 C.3   1 <1>   0.4860 
 12 N       -6.2200     3.1660    -1.6010 N.4   1 <1>  -0.9590 
 13 C       -6.4870     2.6130    -0.2190 C.3   1 <1>   0.3430 
 14 C       -7.4990     3.6260    -2.2530 C.3   1 <1>   0.3430 
 15 C       -7.2500     3.6010     0.6870 C.3   1 <1>   0.2090 
 16 C       -8.2670     4.6530    -1.3940 C.3   1 <1>   0.2090 
 17 N       -8.4480     4.1720     0.0040 N.pl3 1 <1>  -0.8380 
 18 C       -9.7000     3.6620     0.3450 C.ar  1 <1>   0.1000 
 19 C      -10.6290     4.4480     1.0280 C.ar  1 <1>  -0.1430 
 20 C      -10.0450     2.3570     0.0010 C.ar  1 <1>  -0.1500 
 21 C      -11.8690     3.9230     1.3470 C.ar  1 <1>  -0.1500 
 22 C      -10.2950     5.8780     1.4290 C.3   1 <1>  -0.0970 
 23 C      -11.2840     1.8340     0.3230 C.ar  1 <1>  -0.1430 
 24 C      -12.1970     2.6250     0.9980 C.ar  1 <1>  -0.1500 
 25 C      -11.6600     0.4110    -0.0520 C.3   1 <1>  -0.0970 
 26 H       -1.1870    -0.4430     1.6330 H     1 <1>   0.0800 
 27 H       -0.8160    -1.2680     0.1160 H     1 <1>   0.0800 
 28 H       -4.7310     0.0920    -0.8980 H     1 <1>   0.1500 
 29 H       -2.6560    -2.3260     2.2940 H     1 <1>   0.0800 
 30 H       -1.0370    -2.9020     1.9840 H     1 <1>   0.0800 
 31 H       -2.2830    -3.1490     0.7860 H     1 <1>   0.0800 
 32 H        0.1880     1.9850    -0.3080 H     1 <1>   0.4500 
 33 H       -1.0400     3.2590    -1.5670 H     1 <1>   0.1500 
 34 H       -3.1840     3.6940    -2.6260 H     1 <1>   0.1500 
 35 H       -6.0340     1.2730    -2.5360 H     1 <1>   0.0800 
 36 H       -5.3430     2.5990    -3.4440 H     1 <1>   0.0800 
 37 H       -5.6090     3.9820    -1.4730 H     1 <1>   0.4500 
 38 H       -5.5570     2.3560     0.2620 H     1 <1>   0.0800 
 39 H       -7.0730     1.7130    -0.2980 H     1 <1>   0.0800 
 40 H       -8.1470     2.7800    -2.4120 H     1 <1>   0.0800 
 41 H       -7.2880     4.0660    -3.2130 H     1 <1>   0.0800 
 42 H       -6.5970     4.4050     0.9790 H     1 <1>   0.0800 
 43 H       -7.5590     3.0950     1.5870 H     1 <1>   0.0800 
 44 H       -9.2320     4.8360    -1.8360 H     1 <1>   0.0800 
 45 H       -7.7350     5.5880    -1.3780 H     1 <1>   0.0800 
 46 H       -9.3380     1.7490    -0.5220 H     1 <1>   0.1500 
 47 H      -12.5920     4.5210     1.8730 H     1 <1>   0.1500 
 48 H       -9.4100     5.8870     2.0400 H     1 <1>   0.0800 
 49 H      -11.0980     6.3240     1.9860 H     1 <1>   0.0800 
 50 H      -10.1150     6.4700     0.5510 H     1 <1>   0.0800 
 51 H      -13.1660     2.2350     1.2550 H     1 <1>   0.1500 
 52 H      -10.8210    -0.1170    -0.4650 H     1 <1>   0.0800 
 53 H      -12.4520     0.4240    -0.7790 H     1 <1>   0.0800 
 54 H      -12.0010    -0.1180     0.8210 H     1 <1>   0.0800 
@<TRIPOS>BOND
  1   1   2  1   
  2   1   3  1   
  3   2   4  ar  
  4   2   5  ar  
  5   3   6  1   
  6   3  26  1   
  7   3  27  1   
  8   4   7  1   
  9   4   8  ar  
 10   5   9  ar  
 11   5  28  1   
 12   6  29  1   
 13   6  30  1   
 14   6  31  1   
 15   7  32  1   
 16   8  10  ar  
 17   8  33  1   
 18   9  10  ar  
 19   9  11  1   
 20  10  34  1   
 21  11  12  1   
 22  11  35  1   
 23  11  36  1   
 24  12  13  1   
 25  12  14  1   
 26  12  37  1   
 27  13  15  1   
 28  13  38  1   
 29  13  39  1   
 30  14  16  1   
 31  14  40  1   
 32  14  41  1   
 33  15  17  1   
 34  15  42  1   
 35  15  43  1   
 36  16  17  1   
 37  16  44  1   
 38  16  45  1   
 39  17  18  1   
 40  18  19  ar  
 41  18  20  ar  
 42  19  21  ar  
 43  19  22  1   
 44  20  23  ar  
 45  20  46  1   
 46  21  24  ar  
 47  21  47  1   
 48  22  48  1   
 49  22  49  1   
 50  22  50  1   
 51  23  24  ar  
 52  23  25  1   
 53  24  51  1   
 54  25  52  1   
 55  25  53  1   
 56  25  54  1   
@<TRIPOS>SUBSTRUCTURE
  1 ****  13 GROUP 4 **** **** 0

# MOE 2024.06 (io_trps.svl 2023.06)
