@<TRIPOS>MOLECULE
NONAME
46 47 1 0 0 
SMALL
USER_CHARGES


@<TRIPOS>ATOM
  1 S       -0.2650    -0.0090    -0.4430 S.o2  1 <1>   1.3330 
  2 O       -0.5700     1.3980    -0.3080 O.2   1 <1>  -0.6500 
  3 O        0.0840    -0.5450    -1.7400 O.2   1 <1>  -0.6500 
  4 N       -1.6000    -0.8880     0.1180 N.am  1 <1>  -0.8490 
  5 C        1.0100    -0.4300     0.7530 C.3   1 <1>  -0.0550 
  6 C       -2.8720    -0.1580    -0.0800 C.3   1 <1>   0.1960 
  7 C       -1.6460    -2.2620    -0.3800 C.3   1 <1>   0.1960 
  8 C        2.3740     0.2350     0.4910 C.3   1 <1>  -0.2400 
  9 C       -4.1200    -1.0650    -0.0280 C.3   1 <1>  -0.0190 
 10 C       -2.6620    -3.0840     0.4320 C.3   1 <1>  -0.1600 
 11 C       -5.3500    -0.2610     0.3760 C.2   1 <1>   0.5690 
 12 C       -3.8850    -2.2710     0.8980 C.3   1 <1>  -0.1600 
 13 O       -5.3310     0.3410     1.4210 O.2   1 <1>  -0.5700 
 14 N       -6.4270    -0.2810    -0.4700 N.am  1 <1>  -0.5470 
 15 C       -7.6750     0.3590    -0.3980 C.ar  1 <1>   0.1170 
 16 C       -7.9150     1.4860     0.3810 C.ar  1 <1>  -0.1500 
 17 C       -8.7220    -0.1440    -1.1580 C.ar  1 <1>  -0.1500 
 18 C       -9.1600     2.0940     0.4130 C.ar  1 <1>  -0.1440 
 19 C       -9.9680     0.4550    -1.1350 C.ar  1 <1>  -0.1500 
 20 C      -10.1980     1.5750    -0.3520 C.ar  1 <1>  -0.1440 
 21 C       -9.3570     3.3220     1.2920 C.3   1 <1>  -0.0970 
 22 C      -11.5830     2.2070    -0.3510 C.3   1 <1>  -0.0970 
 23 H        1.1450    -1.4940     0.7590 H     1 <1>   0.0800 
 24 H        0.6710    -0.1420     1.7300 H     1 <1>   0.0800 
 25 H       -2.8590     0.3510    -1.0300 H     1 <1>   0.0800 
 26 H       -2.9360     0.5970     0.6870 H     1 <1>   0.0800 
 27 H       -0.6750    -2.7230    -0.3020 H     1 <1>   0.0800 
 28 H       -1.9230    -2.2530    -1.4230 H     1 <1>   0.0800 
 29 H        2.7480    -0.0570    -0.4750 H     1 <1>   0.0800 
 30 H        3.0830    -0.0590     1.2440 H     1 <1>   0.0800 
 31 H        2.2710     1.3060     0.5100 H     1 <1>   0.0800 
 32 H       -4.2830    -1.4400    -1.0220 H     1 <1>   0.0800 
 33 H       -2.1690    -3.4960     1.2960 H     1 <1>   0.0800 
 34 H       -2.9840    -3.9120    -0.1740 H     1 <1>   0.0800 
 35 H       -4.7590    -2.8990     0.9370 H     1 <1>   0.0800 
 36 H       -3.7020    -1.9010     1.8930 H     1 <1>   0.0800 
 37 H       -6.3310    -0.8950    -1.2740 H     1 <1>   0.3700 
 38 H       -7.1160     1.8960     0.9700 H     1 <1>   0.1500 
 39 H       -8.5710    -1.0130    -1.7700 H     1 <1>   0.1500 
 40 H      -10.7610     0.0410    -1.7320 H     1 <1>   0.1500 
 41 H       -8.4500     3.5730     1.8110 H     1 <1>   0.0800 
 42 H      -10.1210     3.1320     2.0240 H     1 <1>   0.0800 
 43 H       -9.6460     4.1640     0.6900 H     1 <1>   0.0800 
 44 H      -11.5230     3.2260    -0.6900 H     1 <1>   0.0800 
 45 H      -11.9930     2.1910     0.6430 H     1 <1>   0.0800 
 46 H      -12.2520     1.6740    -1.0010 H     1 <1>   0.0800 
@<TRIPOS>BOND
  1   1   2  2   
  2   1   3  2   
  3   1   4  am  
  4   1   5  1   
  5   4   6  1   
  6   4   7  1   
  7   5   8  1   
  8   5  23  1   
  9   5  24  1   
 10   6   9  1   
 11   6  25  1   
 12   6  26  1   
 13   7  10  1   
 14   7  27  1   
 15   7  28  1   
 16   8  29  1   
 17   8  30  1   
 18   8  31  1   
 19   9  11  1   
 20   9  12  1   
 21   9  32  1   
 22  10  12  1   
 23  10  33  1   
 24  10  34  1   
 25  11  13  2   
 26  11  14  am  
 27  12  35  1   
 28  12  36  1   
 29  14  15  1   
 30  14  37  1   
 31  15  16  ar  
 32  15  17  ar  
 33  16  18  ar  
 34  16  38  1   
 35  17  19  ar  
 36  17  39  1   
 37  18  20  ar  
 38  18  21  1   
 39  19  20  ar  
 40  19  40  1   
 41  20  22  1   
 42  21  41  1   
 43  21  42  1   
 44  21  43  1   
 45  22  44  1   
 46  22  45  1   
 47  22  46  1   
@<TRIPOS>SUBSTRUCTURE
  1 ****  11 GROUP 4 **** **** 0

# MOE 2024.06 (io_trps.svl 2023.06)
