@<TRIPOS>MOLECULE
NONAME
53 57 1 0 0 
SMALL
USER_CHARGES


@<TRIPOS>ATOM
  1 CL      -0.4470     0.7800    -0.8480 Cl    1 <1>  -0.1770 
  2 C        1.2480     0.4800    -0.4890 C.ar  1 <1>   0.1770 
  3 C        1.9500     1.4150     0.2350 C.ar  1 <1>   0.0830 
  4 C        1.8400    -0.7080    -0.9680 C.ar  1 <1>   0.0000 
  5 O        1.3200     2.5420     0.6610 O.3   1 <1>  -0.3630 
  6 C        3.3020     1.1800     0.5140 C.ar  1 <1>  -0.1500 
  7 C        3.2090    -0.9290    -0.6820 C.ar  1 <1>   0.0000 
  8 C        1.1410    -1.6820    -1.7180 C.ar  1 <1>  -0.1500 
  9 C        2.0460     3.7530     0.8220 C.3   1 <1>   0.1810 
 10 C        3.9310     0.0410     0.0700 C.ar  1 <1>   0.1000 
 11 C        3.8040    -2.1180    -1.1560 C.ar  1 <1>  -0.1500 
 12 C        1.7530    -2.8200    -2.1640 C.ar  1 <1>  -0.1500 
 13 C        1.1360     4.9600     1.0490 C.2   1 <1>   0.5690 
 14 N        5.2780    -0.1550     0.3560 N.pl3 1 <1>  -0.8380 
 15 C        3.1020    -3.0420    -1.8790 C.ar  1 <1>  -0.1500 
 16 O        1.3680     5.6210     2.0340 O.2   1 <1>  -0.5700 
 17 N        0.1480     5.2920     0.1380 N.am  1 <1>  -0.4770 
 18 C        6.2810     0.4920    -0.5380 C.3   1 <1>   0.2090 
 19 C        5.7180    -0.1990     1.7820 C.3   1 <1>   0.2090 
 20 C       -0.6720     6.4290     0.1070 C.ar  1 <1>   0.1170 
 21 C       -0.2350     4.4090    -1.0010 C.3   1 <1>   0.1400 
 22 C        7.6850    -0.0910    -0.2950 C.3   1 <1>   0.1200 
 23 C        7.1520    -0.7480     1.8910 C.3   1 <1>   0.1200 
 24 C       -1.5060     6.4230    -0.9910 C.ar  1 <1>  -0.1430 
 25 C       -0.7380     7.4950     0.9970 C.ar  1 <1>  -0.1500 
 26 C       -1.2730     5.1880    -1.8210 C.3   1 <1>  -0.0170 
 27 O        8.0270    -0.0310     1.0630 O.3   1 <1>  -0.5600 
 28 C       -2.4040     7.4450    -1.2310 C.ar  1 <1>  -0.1500 
 29 C       -1.6330     8.5280     0.7700 C.ar  1 <1>  -0.1500 
 30 C       -2.4640     8.5050    -0.3400 C.ar  1 <1>  -0.1500 
 31 H        3.8680     1.8870     1.0860 H     1 <1>   0.1500 
 32 H        0.1020    -1.5260    -1.9420 H     1 <1>   0.1500 
 33 H        2.6390     3.9150    -0.0590 H     1 <1>   0.0800 
 34 H        2.6900     3.6440     1.6750 H     1 <1>   0.0800 
 35 H        4.8410    -2.2940    -0.9330 H     1 <1>   0.1500 
 36 H        1.2100    -3.5550    -2.7330 H     1 <1>   0.1500 
 37 H        3.5730    -3.9420    -2.2320 H     1 <1>   0.1500 
 38 H        6.3010     1.5510    -0.3500 H     1 <1>   0.0800 
 39 H        5.9990     0.3360    -1.5640 H     1 <1>   0.0800 
 40 H        5.0470    -0.8260     2.3430 H     1 <1>   0.0800 
 41 H        5.6880     0.7900     2.2030 H     1 <1>   0.0800 
 42 H       -0.6810     3.5100    -0.6140 H     1 <1>   0.0800 
 43 H        0.6240     4.1650    -1.6000 H     1 <1>   0.0800 
 44 H        8.4200     0.4680    -0.8450 H     1 <1>   0.0800 
 45 H        7.7230    -1.1190    -0.6140 H     1 <1>   0.0800 
 46 H        7.1770    -1.7850     1.6050 H     1 <1>   0.0800 
 47 H        7.5070    -0.6590     2.9020 H     1 <1>   0.0800 
 48 H       -0.1010     7.5230     1.8610 H     1 <1>   0.1500 
 49 H       -2.1770     4.6170    -1.9370 H     1 <1>   0.0800 
 50 H       -0.8790     5.4480    -2.7860 H     1 <1>   0.0800 
 51 H       -3.0460     7.4210    -2.0940 H     1 <1>   0.1500 
 52 H       -1.6820     9.3520     1.4600 H     1 <1>   0.1500 
 53 H       -3.1570     9.3110    -0.5090 H     1 <1>   0.1500 
@<TRIPOS>BOND
  1   1   2  1   
  2   2   3  ar  
  3   2   4  ar  
  4   3   5  1   
  5   3   6  ar  
  6   4   7  ar  
  7   4   8  ar  
  8   5   9  1   
  9   6  10  ar  
 10   6  31  1   
 11   7  10  ar  
 12   7  11  ar  
 13   8  12  ar  
 14   8  32  1   
 15   9  13  1   
 16   9  33  1   
 17   9  34  1   
 18  10  14  1   
 19  11  15  ar  
 20  11  35  1   
 21  12  15  ar  
 22  12  36  1   
 23  13  16  2   
 24  13  17  am  
 25  14  18  1   
 26  14  19  1   
 27  15  37  1   
 28  17  20  1   
 29  17  21  1   
 30  18  22  1   
 31  18  38  1   
 32  18  39  1   
 33  19  23  1   
 34  19  40  1   
 35  19  41  1   
 36  20  24  ar  
 37  20  25  ar  
 38  21  26  1   
 39  21  42  1   
 40  21  43  1   
 41  22  27  1   
 42  22  44  1   
 43  22  45  1   
 44  23  27  1   
 45  23  46  1   
 46  23  47  1   
 47  24  26  1   
 48  24  28  ar  
 49  25  29  ar  
 50  25  48  1   
 51  26  49  1   
 52  26  50  1   
 53  28  30  ar  
 54  28  51  1   
 55  29  30  ar  
 56  29  52  1   
 57  30  53  1   
@<TRIPOS>SUBSTRUCTURE
  1 ****   3 GROUP 4 **** **** 0

# MOE 2024.06 (io_trps.svl 2023.06)
