@<TRIPOS>MOLECULE
NONAME
37 39 1 0 0 
SMALL
USER_CHARGES


@<TRIPOS>ATOM
  1 F        0.7380     1.0050    -1.5380 F     1 <1>  -0.1900 
  2 C        0.2530     1.9780    -0.8170 C.ar  1 <1>   0.1900 
  3 C       -1.0100     2.4540    -1.1120 C.ar  1 <1>  -0.1500 
  4 C        1.0170     2.4920     0.2120 C.ar  1 <1>  -0.1500 
  5 C       -1.5360     3.4840    -0.3430 C.ar  1 <1>  -0.1440 
  6 C        0.4920     3.5230     0.9710 C.ar  1 <1>  -0.1500 
  7 C       -0.7740     4.0170     0.6930 C.ar  1 <1>  -0.1500 
  8 C       -2.9240     4.0230    -0.6340 C.3   1 <1>   0.4870 
  9 N       -3.8570     3.5430     0.4240 N.4   1 <1>  -0.9590 
 10 C       -4.0510     2.0500     0.3640 C.3   1 <1>   0.3430 
 11 C       -5.1280     4.3420     0.3980 C.3   1 <1>   0.3430 
 12 C       -5.2790     1.7040    -0.4630 C.3   1 <1>  -0.1600 
 13 C       -6.2590     3.5550     1.0350 C.3   1 <1>  -0.1600 
 14 C       -6.5210     2.3070     0.1940 C.3   1 <1>   0.5600 
 15 O       -7.1130     1.3510     1.0010 O.3   1 <1>  -0.5600 
 16 O       -7.4280     2.6300    -0.8030 O.3   1 <1>  -0.5600 
 17 C       -8.4470     1.2250     0.6660 C.3   1 <1>   0.1200 
 18 C       -8.5080     1.7680    -0.7420 C.3   1 <1>   0.1200 
 19 H       -1.5500     2.0150    -1.9320 H     1 <1>   0.1500 
 20 H        1.9980     2.0940     0.4090 H     1 <1>   0.1500 
 21 H        1.0740     3.9430     1.7750 H     1 <1>   0.1500 
 22 H       -1.1500     4.8270     1.2960 H     1 <1>   0.1500 
 23 H       -3.2570     3.6930    -1.6040 H     1 <1>   0.0800 
 24 H       -2.8870     5.1010    -0.6350 H     1 <1>   0.0800 
 25 H       -3.3780     3.7280     1.3150 H     1 <1>   0.4500 
 26 H       -4.2000     1.6670     1.3620 H     1 <1>   0.0800 
 27 H       -3.1780     1.5670    -0.0460 H     1 <1>   0.0800 
 28 H       -5.4050     4.5600    -0.6220 H     1 <1>   0.0800 
 29 H       -4.9900     5.2770     0.9180 H     1 <1>   0.0800 
 30 H       -5.3870     0.6370    -0.5290 H     1 <1>   0.0800 
 31 H       -5.1560     2.0920    -1.4570 H     1 <1>   0.0800 
 32 H       -7.1500     4.1550     1.0780 H     1 <1>   0.0800 
 33 H       -5.9860     3.2830     2.0380 H     1 <1>   0.0800 
 34 H       -9.0330     1.8250     1.3400 H     1 <1>   0.0800 
 35 H       -8.7450     0.1930     0.7280 H     1 <1>   0.0800 
 36 H       -8.3670     0.9850    -1.4670 H     1 <1>   0.0800 
 37 H       -9.4180     2.3060    -0.9420 H     1 <1>   0.0800 
@<TRIPOS>BOND
  1   1   2  1   
  2   2   3  ar  
  3   2   4  ar  
  4   3   5  ar  
  5   3  19  1   
  6   4   6  ar  
  7   4  20  1   
  8   5   7  ar  
  9   5   8  1   
 10   6   7  ar  
 11   6  21  1   
 12   7  22  1   
 13   8   9  1   
 14   8  23  1   
 15   8  24  1   
 16   9  10  1   
 17   9  11  1   
 18   9  25  1   
 19  10  12  1   
 20  10  26  1   
 21  10  27  1   
 22  11  13  1   
 23  11  28  1   
 24  11  29  1   
 25  12  14  1   
 26  12  30  1   
 27  12  31  1   
 28  13  14  1   
 29  13  32  1   
 30  13  33  1   
 31  14  15  1   
 32  14  16  1   
 33  15  17  1   
 34  16  18  1   
 35  17  18  1   
 36  17  34  1   
 37  17  35  1   
 38  18  36  1   
 39  18  37  1   
@<TRIPOS>SUBSTRUCTURE
  1 ****  10 GROUP 4 **** **** 0

# MOE 2024.06 (io_trps.svl 2023.06)
