@<TRIPOS>MOLECULE
NONAME
44 45 1 0 0 
SMALL
USER_CHARGES


@<TRIPOS>ATOM
  1 CL       2.5470    -2.1490    -3.5990 Cl    1 <1>  -0.1770 
  2 C        2.7960    -2.0090    -1.8800 C.ar  1 <1>   0.1770 
  3 C        3.7880    -1.1690    -1.4120 C.ar  1 <1>  -0.1500 
  4 C        2.0040    -2.7390    -1.0150 C.ar  1 <1>  -0.1500 
  5 C        4.0030    -1.0570    -0.0440 C.ar  1 <1>  -0.1440 
  6 C        2.2100    -2.6230     0.3480 C.ar  1 <1>  -0.1500 
  7 C        3.2040    -1.7850     0.8300 C.ar  1 <1>  -0.1500 
  8 C        5.1000    -0.1550     0.4900 C.3   1 <1>   0.4870 
  9 N        6.4210    -0.7650     0.1770 N.4   1 <1>  -0.9590 
 10 C        6.5960    -2.0920     0.8350 C.3   1 <1>   0.3430 
 11 C        7.5410     0.1650     0.4860 C.3   1 <1>   0.3430 
 12 C        7.8790    -2.7420     0.3260 C.3   1 <1>  -0.1600 
 13 C        8.8480    -0.4300    -0.0330 C.3   1 <1>  -0.1600 
 14 C        9.1140    -1.8420     0.5260 C.3   1 <1>  -0.0190 
 15 C       10.3390    -2.4620    -0.1420 C.2   1 <1>   0.5690 
 16 O       10.3170    -2.5950    -1.3410 O.2   1 <1>  -0.5700 
 17 N       11.3910    -2.8350     0.6370 N.am  1 <1>  -0.7300 
 18 C       12.6630    -3.4510     0.2050 C.3   1 <1>   0.2200 
 19 C       13.4200    -2.5040    -0.7230 C.3   1 <1>  -0.2400 
 20 C       12.3980    -4.8060    -0.4460 C.3   1 <1>  -0.2400 
 21 H        4.3700    -0.6170    -2.1280 H     1 <1>   0.1500 
 22 H        1.2370    -3.3850    -1.4070 H     1 <1>   0.1500 
 23 H        1.5930    -3.1830     1.0320 H     1 <1>   0.1500 
 24 H        3.3400    -1.7100     1.8970 H     1 <1>   0.1500 
 25 H        4.9880    -0.0300     1.5550 H     1 <1>   0.0800 
 26 H        5.0180     0.8140     0.0230 H     1 <1>   0.0800 
 27 H        6.4320    -0.9440    -0.8360 H     1 <1>   0.4500 
 28 H        5.7600    -2.7350     0.6070 H     1 <1>   0.0800 
 29 H        6.6480    -1.9690     1.9050 H     1 <1>   0.0800 
 30 H        7.6090     0.3180     1.5510 H     1 <1>   0.0800 
 31 H        7.3740     1.1200     0.0130 H     1 <1>   0.0800 
 32 H        7.7600    -2.9750    -0.7190 H     1 <1>   0.0800 
 33 H        8.0310    -3.6750     0.8400 H     1 <1>   0.0800 
 34 H        9.6640     0.2180     0.2370 H     1 <1>   0.0800 
 35 H        8.8130    -0.4610    -1.1090 H     1 <1>   0.0800 
 36 H        9.3060    -1.7590     1.5810 H     1 <1>   0.0800 
 37 H       11.3400    -2.6940     1.6450 H     1 <1>   0.3700 
 38 H       13.2670    -3.6130     1.0830 H     1 <1>   0.0800 
 39 H       12.8810    -2.3550    -1.6410 H     1 <1>   0.0800 
 40 H       14.3800    -2.9220    -0.9640 H     1 <1>   0.0800 
 41 H       13.5740    -1.5550    -0.2430 H     1 <1>   0.0800 
 42 H       11.8440    -4.6920    -1.3600 H     1 <1>   0.0800 
 43 H       11.8500    -5.4420     0.2250 H     1 <1>   0.0800 
 44 H       13.3320    -5.2850    -0.6800 H     1 <1>   0.0800 
@<TRIPOS>BOND
  1   1   2  1   
  2   2   3  ar  
  3   2   4  ar  
  4   3   5  ar  
  5   3  21  1   
  6   4   6  ar  
  7   4  22  1   
  8   5   7  ar  
  9   5   8  1   
 10   6   7  ar  
 11   6  23  1   
 12   7  24  1   
 13   8   9  1   
 14   8  25  1   
 15   8  26  1   
 16   9  10  1   
 17   9  11  1   
 18   9  27  1   
 19  10  12  1   
 20  10  28  1   
 21  10  29  1   
 22  11  13  1   
 23  11  30  1   
 24  11  31  1   
 25  12  14  1   
 26  12  32  1   
 27  12  33  1   
 28  13  14  1   
 29  13  34  1   
 30  13  35  1   
 31  14  15  1   
 32  14  36  1   
 33  15  16  2   
 34  15  17  am  
 35  17  18  1   
 36  17  37  1   
 37  18  19  1   
 38  18  20  1   
 39  18  38  1   
 40  19  39  1   
 41  19  40  1   
 42  19  41  1   
 43  20  42  1   
 44  20  43  1   
 45  20  44  1   
@<TRIPOS>SUBSTRUCTURE
  1 ****  12 GROUP 4 **** **** 0

# MOE 2024.06 (io_trps.svl 2023.06)
