@<TRIPOS>MOLECULE
NONAME
44 46 1 0 0 
SMALL
USER_CHARGES


@<TRIPOS>ATOM
  1 O       -0.7350     2.3230     0.7960 O.2   1 <1>  -0.5700 
  2 C       -1.4620     1.4290     0.4490 C.2   1 <1>   0.5690 
  3 N       -1.4200     0.9780    -0.8190 N.am  1 <1>  -0.8000 
  4 C       -2.4300     0.8220     1.4530 C.3   1 <1>   0.0440 
  5 C       -3.1400    -0.4190     0.9200 C.ar  1 <1>  -0.1430 
  6 C       -4.3900    -0.3170     0.3400 C.ar  1 <1>  -0.1500 
  7 C       -2.5120    -1.6660     1.0040 C.ar  1 <1>  -0.1500 
  8 C       -5.0140    -1.4560    -0.1640 C.ar  1 <1>   0.0000 
  9 C       -3.1220    -2.7990     0.5090 C.ar  1 <1>  -0.1500 
 10 C       -4.3800    -2.6890    -0.0830 C.ar  1 <1>  -0.1520 
 11 C       -6.2670    -1.6700    -0.8040 C.ar  1 <1>   0.0000 
 12 N       -5.1980    -3.6450    -0.6520 N.pl3 1 <1>   0.0480 
 13 C       -6.3530    -3.0260    -1.0900 C.ar  1 <1>  -0.1520 
 14 C       -7.3150    -0.8170    -1.1500 C.ar  1 <1>  -0.1500 
 15 C       -4.8980    -5.0870    -0.7620 C.3   1 <1>   0.0960 
 16 C       -7.4850    -3.5480    -1.7190 C.ar  1 <1>  -0.1500 
 17 C       -8.4320    -1.3330    -1.7740 C.ar  1 <1>  -0.1500 
 18 C       -5.4100    -5.8320     0.4790 C.3   1 <1>  -0.1600 
 19 C       -8.5160    -2.6980    -2.0570 C.ar  1 <1>  -0.1500 
 20 C       -5.0490    -7.3280     0.4740 C.3   1 <1>  -0.0800 
 21 C       -5.7160    -8.0780    -0.6870 C.3   1 <1>  -0.2400 
 22 C       -5.4740    -7.9640     1.8020 C.3   1 <1>  -0.2400 
 23 H       -0.7710     1.3840    -1.4920 H     1 <1>   0.3700 
 24 H       -2.0110     0.2050    -1.1380 H     1 <1>   0.3700 
 25 H       -3.1510     1.5720     1.7170 H     1 <1>   0.0800 
 26 H       -1.8830     0.5720     2.3430 H     1 <1>   0.0800 
 27 H       -4.8970     0.6270     0.2640 H     1 <1>   0.1500 
 28 H       -1.5400    -1.7420     1.4580 H     1 <1>   0.1500 
 29 H       -2.6360    -3.7550     0.5790 H     1 <1>   0.1500 
 30 H       -7.2400     0.2300    -0.9250 H     1 <1>   0.1500 
 31 H       -3.8360    -5.2130    -0.8600 H     1 <1>   0.0800 
 32 H       -5.3660    -5.4640    -1.6520 H     1 <1>   0.0800 
 33 H       -7.5510    -4.5990    -1.9350 H     1 <1>   0.1500 
 34 H       -9.2480    -0.6870    -2.0460 H     1 <1>   0.1500 
 35 H       -6.4790    -5.7190     0.5420 H     1 <1>   0.0800 
 36 H       -4.9760    -5.3730     1.3510 H     1 <1>   0.0800 
 37 H       -9.3960    -3.0810    -2.5430 H     1 <1>   0.1500 
 38 H       -3.9800    -7.4290     0.3820 H     1 <1>   0.0800 
 39 H       -6.7840    -7.9510    -0.6570 H     1 <1>   0.0800 
 40 H       -5.4970    -9.1290    -0.6220 H     1 <1>   0.0800 
 41 H       -5.3520    -7.7270    -1.6350 H     1 <1>   0.0800 
 42 H       -6.5390    -7.8890     1.9370 H     1 <1>   0.0800 
 43 H       -4.9890    -7.4710     2.6270 H     1 <1>   0.0800 
 44 H       -5.1980    -9.0040     1.8250 H     1 <1>   0.0800 
@<TRIPOS>BOND
  1   1   2  2   
  2   2   3  am  
  3   2   4  1   
  4   3  23  1   
  5   3  24  1   
  6   4   5  1   
  7   4  25  1   
  8   4  26  1   
  9   5   6  ar  
 10   5   7  ar  
 11   6   8  ar  
 12   6  27  1   
 13   7   9  ar  
 14   7  28  1   
 15   8  10  ar  
 16   8  11  1   
 17   9  10  ar  
 18   9  29  1   
 19  10  12  1   
 20  11  13  ar  
 21  11  14  ar  
 22  12  13  1   
 23  12  15  1   
 24  13  16  ar  
 25  14  17  ar  
 26  14  30  1   
 27  15  18  1   
 28  15  31  1   
 29  15  32  1   
 30  16  19  ar  
 31  16  33  1   
 32  17  19  ar  
 33  17  34  1   
 34  18  20  1   
 35  18  35  1   
 36  18  36  1   
 37  19  37  1   
 38  20  21  1   
 39  20  22  1   
 40  20  38  1   
 41  21  39  1   
 42  21  40  1   
 43  21  41  1   
 44  22  42  1   
 45  22  43  1   
 46  22  44  1   
@<TRIPOS>SUBSTRUCTURE
  1 ****  10 GROUP 4 **** **** 0

# MOE 2024.06 (io_trps.svl 2023.06)
