@<TRIPOS>MOLECULE
NONAME
39 39 1 0 0 
SMALL
USER_CHARGES


@<TRIPOS>ATOM
  1 O       -0.0690    -0.5800     0.9870 O.2   1 <1>  -0.5700 
  2 C        0.0570    -1.3190     0.0320 C.2   1 <1>   0.6900 
  3 N        1.2750    -1.6640    -0.4630 N.am  1 <1>  -0.5470 
  4 N       -1.0300    -1.8540    -0.5760 N.am  1 <1>  -0.7300 
  5 C        2.5440    -1.2510    -0.0360 C.ar  1 <1>   0.1170 
  6 C       -2.4250    -1.6380    -0.1430 C.3   1 <1>   0.1400 
  7 C        3.4500    -2.1850     0.4890 C.ar  1 <1>  -0.1430 
  8 C        2.9290     0.0900    -0.1610 C.ar  1 <1>  -0.1430 
  9 C       -3.1960    -2.9510    -0.2740 C.3   1 <1>  -0.1600 
 10 C        4.7090    -1.7520     0.8820 C.ar  1 <1>  -0.1500 
 11 C        3.1480    -3.6830     0.6760 C.3   1 <1>   0.0630 
 12 C        4.1900     0.4900     0.2450 C.ar  1 <1>  -0.1500 
 13 C        2.0000     1.1500    -0.7440 C.3   1 <1>  -0.0970 
 14 C       -4.6560    -2.7850     0.1630 C.3   1 <1>  -0.2400 
 15 C        5.0800    -0.4270     0.7650 C.ar  1 <1>  -0.1500 
 16 C        2.9120    -4.4170    -0.6500 C.3   1 <1>  -0.2400 
 17 C        2.0110    -3.9360     1.6740 C.3   1 <1>  -0.2400 
 18 H        1.2750    -2.5480    -0.9530 H     1 <1>   0.3700 
 19 H       -0.9140    -2.2840    -1.4900 H     1 <1>   0.3700 
 20 H       -2.8730    -0.8760    -0.7580 H     1 <1>   0.0800 
 21 H       -2.4430    -1.3020     0.8820 H     1 <1>   0.0800 
 22 H       -2.7280    -3.6980     0.3430 H     1 <1>   0.0800 
 23 H       -3.1730    -3.2830    -1.2970 H     1 <1>   0.0800 
 24 H        5.4230    -2.4450     1.2910 H     1 <1>   0.1500 
 25 H        4.0230    -4.1360     1.1110 H     1 <1>   0.0800 
 26 H        4.4870     1.5200     0.1600 H     1 <1>   0.1500 
 27 H        1.4820     0.7670    -1.6030 H     1 <1>   0.0800 
 28 H        2.5510     2.0210    -1.0480 H     1 <1>   0.0800 
 29 H        1.2780     1.4450    -0.0040 H     1 <1>   0.0800 
 30 H       -4.7060    -2.4700     1.1920 H     1 <1>   0.0800 
 31 H       -5.1780    -3.7210     0.0680 H     1 <1>   0.0800 
 32 H       -5.1530    -2.0520    -0.4480 H     1 <1>   0.0800 
 33 H        6.0580    -0.1100     1.0800 H     1 <1>   0.1500 
 34 H        1.9660    -4.1640    -1.0860 H     1 <1>   0.0800 
 35 H        2.9290    -5.4790    -0.4850 H     1 <1>   0.0800 
 36 H        3.6940    -4.1690    -1.3470 H     1 <1>   0.0800 
 37 H        1.0600    -3.6340     1.2800 H     1 <1>   0.0800 
 38 H        2.1920    -3.3820     2.5780 H     1 <1>   0.0800 
 39 H        1.9580    -4.9820     1.9180 H     1 <1>   0.0800 
@<TRIPOS>BOND
  1   1   2  2   
  2   2   3  am  
  3   2   4  am  
  4   3   5  1   
  5   3  18  1   
  6   4   6  1   
  7   4  19  1   
  8   5   7  ar  
  9   5   8  ar  
 10   6   9  1   
 11   6  20  1   
 12   6  21  1   
 13   7  10  ar  
 14   7  11  1   
 15   8  12  ar  
 16   8  13  1   
 17   9  14  1   
 18   9  22  1   
 19   9  23  1   
 20  10  15  ar  
 21  10  24  1   
 22  11  16  1   
 23  11  17  1   
 24  11  25  1   
 25  12  15  ar  
 26  12  26  1   
 27  13  27  1   
 28  13  28  1   
 29  13  29  1   
 30  14  30  1   
 31  14  31  1   
 32  14  32  1   
 33  15  33  1   
 34  16  34  1   
 35  16  35  1   
 36  16  36  1   
 37  17  37  1   
 38  17  38  1   
 39  17  39  1   
@<TRIPOS>SUBSTRUCTURE
  1 ****   3 GROUP 4 **** **** 0

# MOE 2024.06 (io_trps.svl 2023.06)
