@<TRIPOS>MOLECULE
NONAME
33 34 1 0 0 
SMALL
USER_CHARGES


@<TRIPOS>ATOM
  1 O        0.2800    -1.5190    -2.4580 O.2   1 <1>  -0.5700 
  2 C       -0.1620    -1.9870    -1.4330 C.2   1 <1>   0.5690 
  3 N        0.5840    -2.0020    -0.2770 N.am  1 <1>  -0.6600 
  4 C       -1.5640    -2.5900    -1.4980 C.3   1 <1>   0.1810 
  5 C        1.9240    -1.3470    -0.2040 C.3   1 <1>   0.1400 
  6 C        0.1400    -2.5750     1.0310 C.3   1 <1>   0.1400 
  7 O       -2.4280    -2.0140    -0.5290 O.3   1 <1>  -0.3620 
  8 C        2.9400    -2.2590     0.5030 C.3   1 <1>   0.1200 
  9 C        1.2630    -3.4070     1.6740 C.3   1 <1>   0.1200 
 10 C       -3.6830    -2.4940    -0.3390 C.ar  1 <1>   0.0820 
 11 O        2.4510    -2.6730     1.7480 O.3   1 <1>  -0.5600 
 12 C       -4.3800    -1.9970     0.7470 C.ar  1 <1>  -0.1500 
 13 C       -4.2820    -3.4420    -1.1660 C.ar  1 <1>  -0.1500 
 14 C       -5.6670    -2.4320     1.0280 C.ar  1 <1>   0.1000 
 15 C       -5.5640    -3.8850    -0.8890 C.ar  1 <1>  -0.1500 
 16 N       -6.3600    -1.9240     2.1110 N.pl3 1 <1>  -0.9000 
 17 C       -6.2500    -3.3840     0.2030 C.ar  1 <1>  -0.1500 
 18 H       -1.5040    -3.6470    -1.3200 H     1 <1>   0.0800 
 19 H       -1.9840    -2.4060    -2.4700 H     1 <1>   0.0800 
 20 H        1.8360    -0.4250     0.3420 H     1 <1>   0.0800 
 21 H        2.2870    -1.1140    -1.1900 H     1 <1>   0.0800 
 22 H       -0.7240    -3.2010     0.9060 H     1 <1>   0.0800 
 23 H       -0.1280    -1.7710     1.6940 H     1 <1>   0.0800 
 24 H        3.8600    -1.7270     0.6710 H     1 <1>   0.0800 
 25 H        3.1480    -3.1290    -0.0950 H     1 <1>   0.0800 
 26 H        1.4460    -4.3010     1.1030 H     1 <1>   0.0800 
 27 H        0.9880    -3.6880     2.6750 H     1 <1>   0.0800 
 28 H       -3.9140    -1.2660     1.3800 H     1 <1>   0.1500 
 29 H       -3.7760    -3.8430    -2.0240 H     1 <1>   0.1500 
 30 H       -6.0290    -4.6200    -1.5230 H     1 <1>   0.1500 
 31 H       -7.3800    -1.9750     2.0550 H     1 <1>   0.4000 
 32 H       -6.0450    -1.0120     2.4540 H     1 <1>   0.4000 
 33 H       -7.2430    -3.7330     0.4200 H     1 <1>   0.1500 
@<TRIPOS>BOND
  1   1   2  2   
  2   2   3  am  
  3   2   4  1   
  4   3   5  1   
  5   3   6  1   
  6   4   7  1   
  7   4  18  1   
  8   4  19  1   
  9   5   8  1   
 10   5  20  1   
 11   5  21  1   
 12   6   9  1   
 13   6  22  1   
 14   6  23  1   
 15   7  10  1   
 16   8  11  1   
 17   8  24  1   
 18   8  25  1   
 19   9  11  1   
 20   9  26  1   
 21   9  27  1   
 22  10  12  ar  
 23  10  13  ar  
 24  12  14  ar  
 25  12  28  1   
 26  13  15  ar  
 27  13  29  1   
 28  14  16  1   
 29  14  17  ar  
 30  15  17  ar  
 31  15  30  1   
 32  16  31  1   
 33  16  32  1   
 34  17  33  1   
@<TRIPOS>SUBSTRUCTURE
  1 ****   7 GROUP 4 **** **** 0

# MOE 2024.06 (io_trps.svl 2023.06)
