@<TRIPOS>MOLECULE
NONAME
37 39 1 0 0 
SMALL
USER_CHARGES


@<TRIPOS>ATOM
  1 O        0.1960    -0.4610     0.0470 O.2   1 <1>  -0.5700 
  2 C       -0.2250    -1.5910    -0.0040 C.2   1 <1>   0.5690 
  3 N        0.5260    -2.7230    -0.1420 N.am  1 <1>  -0.2370 
  4 C       -1.7090    -1.9480     0.1090 C.3   1 <1>   0.3310 
  5 C        1.9140    -2.7390    -0.3850 C.ar  1 <1>   0.1170 
  6 C       -0.2770    -3.8280    -0.0810 C.2   1 <1>   0.5690 
  7 N       -2.4410    -1.7250    -1.1450 N.pl3 1 <1>  -0.5280 
  8 C       -1.7210    -3.4730     0.1600 C.3   1 <1>   0.0420 
  9 C       -2.4560    -1.2790     1.2710 C.3   1 <1>  -0.2400 
 10 C        2.8310    -3.1090     0.6030 C.ar  1 <1>  -0.1440 
 11 C        2.3820    -2.3740    -1.6420 C.ar  1 <1>  -0.1500 
 12 O        0.0860    -4.9710    -0.1780 O.2   1 <1>  -0.5700 
 13 N       -2.9170    -2.8330    -1.7310 N.2   1 <1>  -0.5030 
 14 C       -2.5760    -3.8630    -1.0330 C.2   1 <1>   0.3890 
 15 C        4.1860    -3.1110     0.3110 C.ar  1 <1>  -0.1500 
 16 C        2.3770    -3.5110     2.0000 C.3   1 <1>  -0.0970 
 17 C        3.7350    -2.3790    -1.9240 C.ar  1 <1>  -0.1500 
 18 C       -2.9080    -5.2470    -1.2460 C.2   1 <1>   0.7200 
 19 C        4.6390    -2.7490    -0.9460 C.ar  1 <1>  -0.1500 
 20 O       -3.4100    -5.6960    -2.2650 O.2   1 <1>  -0.5700 
 21 O       -2.6710    -6.1070    -0.2400 O.3   1 <1>  -0.4300 
 22 C       -2.8980    -7.4970    -0.3790 C.3   1 <1>   0.0400 
 23 H       -2.5500    -0.7700    -1.5220 H     1 <1>   0.3110 
 24 H       -2.0750    -3.8680     1.0930 H     1 <1>   0.0800 
 25 H       -1.9800    -1.5150     2.2060 H     1 <1>   0.0800 
 26 H       -3.4780    -1.6120     1.3060 H     1 <1>   0.0800 
 27 H       -2.4380    -0.2110     1.1470 H     1 <1>   0.0800 
 28 H        1.6830    -2.0830    -2.4050 H     1 <1>   0.1500 
 29 H        4.9040    -3.3960     1.0610 H     1 <1>   0.1500 
 30 H        1.7380    -2.7530     2.4160 H     1 <1>   0.0800 
 31 H        3.2190    -3.6370     2.6560 H     1 <1>   0.0800 
 32 H        1.8410    -4.4430     1.9570 H     1 <1>   0.0800 
 33 H        4.0840    -2.0950    -2.9010 H     1 <1>   0.1500 
 34 H        5.6930    -2.7540    -1.1600 H     1 <1>   0.1500 
 35 H       -2.6250    -7.9820     0.5410 H     1 <1>   0.0800 
 36 H       -2.2900    -7.8690    -1.1860 H     1 <1>   0.0800 
 37 H       -3.9400    -7.6630    -0.5920 H     1 <1>   0.0800 
@<TRIPOS>BOND
  1   1   2  2   
  2   2   3  am  
  3   2   4  1   
  4   3   5  1   
  5   3   6  am  
  6   4   7  1   
  7   4   8  1   
  8   4   9  1   
  9   5  10  ar  
 10   5  11  ar  
 11   6   8  1   
 12   6  12  2   
 13   7  13  1   
 14   7  23  1   
 15   8  14  1   
 16   8  24  1   
 17   9  25  1   
 18   9  26  1   
 19   9  27  1   
 20  10  15  ar  
 21  10  16  1   
 22  11  17  ar  
 23  11  28  1   
 24  13  14  2   
 25  14  18  1   
 26  15  19  ar  
 27  15  29  1   
 28  16  30  1   
 29  16  31  1   
 30  16  32  1   
 31  17  19  ar  
 32  17  33  1   
 33  18  20  2   
 34  18  21  1   
 35  19  34  1   
 36  21  22  1   
 37  22  35  1   
 38  22  36  1   
 39  22  37  1   
@<TRIPOS>SUBSTRUCTURE
  1 ****   6 GROUP 4 **** **** 0

# MOE 2024.06 (io_trps.svl 2023.06)
