@<TRIPOS>MOLECULE
NONAME
45 47 1 0 0 
SMALL
USER_CHARGES


@<TRIPOS>ATOM
  1 F        2.8030     1.4170     2.9440 F     1 <1>  -0.3400 
  2 C        3.5250     0.8100     2.0090 C.3   1 <1>   1.1640 
  3 F        3.0710    -0.4350     1.9420 F     1 <1>  -0.3400 
  4 F        4.7590     0.7230     2.5010 F     1 <1>  -0.3400 
  5 C        3.4950     1.5190     0.6510 C.ar  1 <1>  -0.1440 
  6 C        4.3260     1.0870    -0.3890 C.ar  1 <1>   0.1170 
  7 C        2.6330     2.5920     0.4350 C.ar  1 <1>  -0.1500 
  8 N        5.2310     0.0240    -0.2200 N.am  1 <1>  -0.5470 
  9 C        4.2650     1.7450    -1.6140 C.ar  1 <1>  -0.1500 
 10 C        2.5880     3.2330    -0.7900 C.ar  1 <1>  -0.1500 
 11 C        5.5680    -0.9760    -1.0960 C.2   1 <1>   0.5690 
 12 C        3.4060     2.8070    -1.8170 C.ar  1 <1>  -0.1500 
 13 O        5.0410    -1.1000    -2.1750 O.2   1 <1>  -0.5700 
 14 C        6.6110    -2.0140    -0.6550 C.3   1 <1>   0.1710 
 15 N        8.0380    -1.5920    -0.7440 N.3   1 <1>  -0.8100 
 16 C        8.4120    -0.5180     0.2080 C.3   1 <1>   0.1100 
 17 C        8.9330    -2.7620    -0.5710 C.3   1 <1>   0.1100 
 18 C        9.9010    -0.1290     0.1040 C.3   1 <1>   0.2090 
 19 C       10.4240    -2.3920    -0.6830 C.3   1 <1>   0.2090 
 20 N       10.7780    -1.3170     0.2900 N.pl3 1 <1>  -0.8380 
 21 C       12.1160    -1.0680     0.5260 C.ar  1 <1>   0.4100 
 22 N       12.9700    -1.2940    -0.4670 N.ar  1 <1>  -0.6200 
 23 C       12.5100    -0.5900     1.7730 C.ar  1 <1>  -0.1500 
 24 C       14.2400    -1.0310    -0.2100 C.ar  1 <1>   0.1600 
 25 C       13.8340    -0.3200     2.0280 C.ar  1 <1>  -0.1500 
 26 C       14.7200    -0.5510     0.9960 C.ar  1 <1>  -0.1500 
 27 H        1.9780     2.9440     1.2150 H     1 <1>   0.1500 
 28 H        5.7070    -0.0210     0.6810 H     1 <1>   0.3700 
 29 H        4.8970     1.4200    -2.4220 H     1 <1>   0.1500 
 30 H        1.9170     4.0610    -0.9450 H     1 <1>   0.1500 
 31 H        3.3750     3.2980    -2.7750 H     1 <1>   0.1500 
 32 H        6.4710    -2.8710    -1.2900 H     1 <1>   0.0800 
 33 H        6.3900    -2.3220     0.3510 H     1 <1>   0.0800 
 34 H        8.2110    -0.8360     1.2170 H     1 <1>   0.0800 
 35 H        7.8300     0.3620     0.0030 H     1 <1>   0.0800 
 36 H        8.7090    -3.4950    -1.3260 H     1 <1>   0.0800 
 37 H        8.7660    -3.2110     0.3930 H     1 <1>   0.0800 
 38 H       10.1310     0.6120     0.8480 H     1 <1>   0.0800 
 39 H       10.0880     0.3010    -0.8650 H     1 <1>   0.0800 
 40 H       10.6350    -2.0560    -1.6840 H     1 <1>   0.0800 
 41 H       11.0280    -3.2620    -0.4880 H     1 <1>   0.0800 
 42 H       11.7620    -0.4430     2.5270 H     1 <1>   0.1500 
 43 H       14.9400    -1.2100    -1.0080 H     1 <1>   0.1500 
 44 H       14.1640     0.0500     2.9830 H     1 <1>   0.1500 
 45 H       15.7700    -0.3630     1.1240 H     1 <1>   0.1500 
@<TRIPOS>BOND
  1   1   2  1   
  2   2   3  1   
  3   2   4  1   
  4   2   5  1   
  5   5   6  ar  
  6   5   7  ar  
  7   6   8  1   
  8   6   9  ar  
  9   7  10  ar  
 10   7  27  1   
 11   8  11  am  
 12   8  28  1   
 13   9  12  ar  
 14   9  29  1   
 15  10  12  ar  
 16  10  30  1   
 17  11  13  2   
 18  11  14  1   
 19  12  31  1   
 20  14  15  1   
 21  14  32  1   
 22  14  33  1   
 23  15  16  1   
 24  15  17  1   
 25  16  18  1   
 26  16  34  1   
 27  16  35  1   
 28  17  19  1   
 29  17  36  1   
 30  17  37  1   
 31  18  20  1   
 32  18  38  1   
 33  18  39  1   
 34  19  20  1   
 35  19  40  1   
 36  19  41  1   
 37  20  21  1   
 38  21  22  ar  
 39  21  23  ar  
 40  22  24  ar  
 41  23  25  ar  
 42  23  42  1   
 43  24  26  ar  
 44  24  43  1   
 45  25  26  ar  
 46  25  44  1   
 47  26  45  1   
@<TRIPOS>SUBSTRUCTURE
  1 ****  16 GROUP 4 **** **** 0

# MOE 2024.06 (io_trps.svl 2023.06)
