@<TRIPOS>MOLECULE
Structure1702
45 45 1 0 0 
SMALL
USER_CHARGES


@<TRIPOS>ATOM
  1 O        1.6280    -0.7440    -1.3110 O.2   1 <1>  -0.5700 
  2 C        2.1530    -0.7690    -0.2150 C.2   1 <1>   0.7800 
  3 O        3.0070     0.1770     0.1720 O.3   1 <1>  -0.4300 
  4 N        1.9260    -1.7430     0.6850 N.am  1 <1>  -0.7300 
  5 C        3.4530     1.2830    -0.5780 C.3   1 <1>   0.2800 
  6 C        1.2510    -3.0100     0.3860 C.3   1 <1>   0.3640 
  7 C        2.2770     2.2080    -0.9130 C.3   1 <1>  -0.2400 
  8 C        4.4280     2.0200     0.3420 C.3   1 <1>  -0.2400 
  9 C        4.2020     0.8080    -1.8290 C.3   1 <1>  -0.2400 
 10 C       -0.2580    -2.7990     0.2440 C.ar  1 <1>  -0.1440 
 11 C        1.5310    -3.9910     1.5140 C.3   1 <1>  -0.2660 
 12 C       -0.9520    -3.4340    -0.7750 C.ar  1 <1>  -0.1500 
 13 C       -0.9610    -1.9880     1.1220 C.ar  1 <1>  -0.1500 
 14 C        3.0060    -4.1980     1.6490 C.2   1 <1>   0.9060 
 15 C       -2.3200    -3.2750    -0.9280 C.ar  1 <1>   0.0820 
 16 C       -2.3250    -1.8030     0.9770 C.ar  1 <1>  -0.1500 
 17 O        3.6640    -3.3150     2.2100 O.co2 1 <1>  -0.9000 
 18 O        3.5080    -5.2180     1.1750 O.co2 1 <1>  -0.9000 
 19 O       -2.8770    -3.9760    -1.9570 O.3   1 <1>  -0.3620 
 20 C       -3.0220    -2.4300    -0.0530 C.ar  1 <1>   0.0820 
 21 C       -4.1600    -4.5460    -1.8210 C.3   1 <1>   0.0400 
 22 O       -4.3600    -2.2180    -0.2240 O.3   1 <1>  -0.3630 
 23 C       -4.9660    -1.0300     0.2340 C.3   1 <1>   0.0400 
 24 H        2.6710    -1.8830     1.3900 H     1 <1>   0.3700 
 25 H        1.6540    -3.4050    -0.5330 H     1 <1>   0.0800 
 26 H        2.6380     3.1150    -1.3600 H     1 <1>   0.0800 
 27 H        1.7340     2.4570    -0.0200 H     1 <1>   0.0800 
 28 H        1.6080     1.7430    -1.6140 H     1 <1>   0.0800 
 29 H        3.9250     2.3370     1.2380 H     1 <1>   0.0800 
 30 H        4.8280     2.8870    -0.1510 H     1 <1>   0.0800 
 31 H        5.2430     1.3720     0.6110 H     1 <1>   0.0800 
 32 H        3.5300     0.3470    -2.5300 H     1 <1>   0.0800 
 33 H        4.9660     0.1020    -1.5580 H     1 <1>   0.0800 
 34 H        4.6650     1.6440    -2.3220 H     1 <1>   0.0800 
 35 H        1.0720    -4.9350     1.2960 H     1 <1>   0.0800 
 36 H        1.1420    -3.6240     2.4430 H     1 <1>   0.0800 
 37 H       -0.4280    -4.0680    -1.4660 H     1 <1>   0.1500 
 38 H       -0.4360    -1.4930     1.9200 H     1 <1>   0.1500 
 39 H       -2.8250    -1.1670     1.6800 H     1 <1>   0.1500 
 40 H       -4.2450    -5.3520    -2.5260 H     1 <1>   0.0800 
 41 H       -4.8980    -3.7950    -2.0380 H     1 <1>   0.0800 
 42 H       -4.2760    -4.9170    -0.8180 H     1 <1>   0.0800 
 43 H       -5.9520    -0.9730    -0.1920 H     1 <1>   0.0800 
 44 H       -4.3780    -0.1900    -0.0920 H     1 <1>   0.0800 
 45 H       -5.0350    -1.0620     1.3060 H     1 <1>   0.0800 
@<TRIPOS>BOND
  1   1   2  2   
  2   2   3  1   
  3   2   4  am  
  4   3   5  1   
  5   4   6  1   
  6   4  24  1   
  7   5   7  1   
  8   5   8  1   
  9   5   9  1   
 10   6  10  1   
 11   6  11  1   
 12   6  25  1   
 13   7  26  1   
 14   7  27  1   
 15   7  28  1   
 16   8  29  1   
 17   8  30  1   
 18   8  31  1   
 19   9  32  1   
 20   9  33  1   
 21   9  34  1   
 22  10  12  ar  
 23  10  13  ar  
 24  11  14  1   
 25  11  35  1   
 26  11  36  1   
 27  12  15  ar  
 28  12  37  1   
 29  13  16  ar  
 30  13  38  1   
 31  14  17  ar  
 32  14  18  ar  
 33  15  19  1   
 34  15  20  ar  
 35  16  20  ar  
 36  16  39  1   
 37  19  21  1   
 38  20  22  1   
 39  21  40  1   
 40  21  41  1   
 41  21  42  1   
 42  22  23  1   
 43  23  43  1   
 44  23  44  1   
 45  23  45  1   
@<TRIPOS>SUBSTRUCTURE
  1 ****  10 GROUP 4 **** **** 0

# MOE 2024.06 (io_trps.svl 2023.06)
