@<TRIPOS>MOLECULE
NONAME
46 46 1 0 0 
SMALL
USER_CHARGES


@<TRIPOS>ATOM
  1 P       -0.1900     0.6200    -0.5580 P.3   1 <1>   1.5180 
  2 O        0.1560    -0.5160    -1.4020 O.2   1 <1>  -0.7000 
  3 O       -0.0500     2.0700    -1.2230 O.3   1 <1>  -0.5510 
  4 O       -1.6820     0.5950     0.0110 O.3   1 <1>  -0.5510 
  5 N        0.7300     0.7120     0.8730 N.pl3 1 <1>  -0.7760 
  6 C       -0.3310     3.2190    -0.4970 C.3   1 <1>   0.1200 
  7 C       -2.7390     0.4770    -0.8800 C.3   1 <1>   0.1200 
  8 C        2.0790     0.9990     1.0490 C.ar  1 <1>   0.1000 
  9 C       -0.0760     4.4500    -1.3780 C.3   1 <1>  -0.0800 
 10 C       -4.0770     0.5960    -0.1300 C.3   1 <1>  -0.0800 
 11 C        2.9000     1.4130     0.0040 C.ar  1 <1>  -0.1500 
 12 C        2.6320     0.8710     2.3150 C.ar  1 <1>  -0.1500 
 13 C        1.3910     4.5320    -1.8260 C.3   1 <1>  -0.2400 
 14 C       -0.4550     5.7270    -0.6180 C.3   1 <1>  -0.2400 
 15 C       -4.2260     1.9710     0.5390 C.3   1 <1>  -0.2400 
 16 C       -4.2440    -0.5220     0.9080 C.3   1 <1>  -0.2400 
 17 C        4.2450     1.7020     0.2070 C.ar  1 <1>  -0.1430 
 18 C        3.9670     1.1490     2.5360 C.ar  1 <1>  -0.1500 
 19 C        4.7710     1.5620     1.4880 C.ar  1 <1>  -0.1500 
 20 C        5.1270     2.1550    -0.9670 C.3   1 <1>   1.1630 
 21 F        6.2010     2.8330    -0.5770 F     1 <1>  -0.3400 
 22 F        4.4840     2.9460    -1.8180 F     1 <1>  -0.3400 
 23 F        5.5760     1.1280    -1.6780 F     1 <1>  -0.3400 
 24 H        0.3150     0.1080     1.5730 H     1 <1>   0.4000 
 25 H        0.3060     3.2460     0.3720 H     1 <1>   0.0800 
 26 H       -1.3610     3.1840    -0.1850 H     1 <1>   0.0800 
 27 H       -2.6630    -0.4800    -1.3700 H     1 <1>   0.0800 
 28 H       -2.6560     1.2580    -1.6180 H     1 <1>   0.0800 
 29 H       -0.7050     4.3780    -2.2490 H     1 <1>   0.0800 
 30 H       -4.8640     0.4940    -0.8570 H     1 <1>   0.0800 
 31 H        2.4880     1.5100    -0.9840 H     1 <1>   0.1500 
 32 H        2.0130     0.5550     3.1350 H     1 <1>   0.1500 
 33 H        2.0470     4.5740    -0.9750 H     1 <1>   0.0800 
 34 H        1.5510     5.4080    -2.4290 H     1 <1>   0.0800 
 35 H        1.6510     3.6710    -2.4160 H     1 <1>   0.0800 
 36 H        0.1520     5.8390     0.2630 H     1 <1>   0.0800 
 37 H       -1.4890     5.6940    -0.3220 H     1 <1>   0.0800 
 38 H       -0.3120     6.5900    -1.2450 H     1 <1>   0.0800 
 39 H       -3.4740     2.1070     1.2960 H     1 <1>   0.0800 
 40 H       -5.1940     2.0570     0.9990 H     1 <1>   0.0800 
 41 H       -4.1260     2.7550    -0.1910 H     1 <1>   0.0800 
 42 H       -3.4920    -0.4440     1.6740 H     1 <1>   0.0800 
 43 H       -4.1530    -1.4850     0.4380 H     1 <1>   0.0800 
 44 H       -5.2120    -0.4590     1.3720 H     1 <1>   0.0800 
 45 H        4.3820     1.0440     3.5230 H     1 <1>   0.1500 
 46 H        5.8100     1.7710     1.6820 H     1 <1>   0.1500 
@<TRIPOS>BOND
  1   1   2  2   
  2   1   3  1   
  3   1   4  1   
  4   1   5  1   
  5   3   6  1   
  6   4   7  1   
  7   5   8  1   
  8   5  24  1   
  9   6   9  1   
 10   6  25  1   
 11   6  26  1   
 12   7  10  1   
 13   7  27  1   
 14   7  28  1   
 15   8  11  ar  
 16   8  12  ar  
 17   9  13  1   
 18   9  14  1   
 19   9  29  1   
 20  10  15  1   
 21  10  16  1   
 22  10  30  1   
 23  11  17  ar  
 24  11  31  1   
 25  12  18  ar  
 26  12  32  1   
 27  13  33  1   
 28  13  34  1   
 29  13  35  1   
 30  14  36  1   
 31  14  37  1   
 32  14  38  1   
 33  15  39  1   
 34  15  40  1   
 35  15  41  1   
 36  16  42  1   
 37  16  43  1   
 38  16  44  1   
 39  17  19  ar  
 40  17  20  1   
 41  18  19  ar  
 42  18  45  1   
 43  19  46  1   
 44  20  21  1   
 45  20  22  1   
 46  20  23  1   
@<TRIPOS>SUBSTRUCTURE
  1 ****   5 GROUP 4 **** **** 0

# MOE 2024.06 (io_trps.svl 2023.06)
