@<TRIPOS>MOLECULE
NONAME
42 42 1 0 0 
SMALL
USER_CHARGES


@<TRIPOS>ATOM
  1 O       -0.0970     0.5270     0.0230 O.2   1 <1>  -0.5700 
  2 C       -0.0370     1.7150     0.2930 C.2   1 <1>   0.6900 
  3 N        1.1240     2.2310     0.8120 N.am  1 <1>  -0.6600 
  4 N       -1.1260     2.5220     0.0710 N.am  1 <1>  -0.6600 
  5 C        2.4140     1.5100     0.6390 C.3   1 <1>   0.1400 
  6 C        1.1130     3.2050     1.9330 C.3   1 <1>   0.1400 
  7 C       -0.9720     3.8420    -0.5930 C.3   1 <1>   0.1400 
  8 C       -2.5020     1.9620     0.1060 C.3   1 <1>   0.1400 
  9 C        3.5430     2.5210     0.4030 C.3   1 <1>  -0.0190 
 10 C        2.2250     4.2400     1.7250 C.3   1 <1>  -0.1600 
 11 C       -0.8830     3.6550    -2.1060 C.3   1 <1>  -0.2400 
 12 C       -3.2430     2.5240     1.3160 C.3   1 <1>  -0.2400 
 13 C        4.8700     1.7950     0.2580 C.2   1 <1>   0.6590 
 14 C        3.5940     3.5690     1.5340 C.3   1 <1>  -0.1600 
 15 O        5.2220     0.9400     1.0310 O.2   1 <1>  -0.5700 
 16 O        5.6240     2.1680    -0.7680 O.3   1 <1>  -0.4300 
 17 C        6.8780     1.5750    -1.0110 C.3   1 <1>   0.1200 
 18 C        7.4790     2.2280    -2.2520 C.3   1 <1>  -0.2400 
 19 H        2.3500     0.8370    -0.2000 H     1 <1>   0.0800 
 20 H        2.6120     0.9260     1.5220 H     1 <1>   0.0800 
 21 H        1.2790     2.6730     2.8540 H     1 <1>   0.0800 
 22 H        0.1560     3.6940     2.0010 H     1 <1>   0.0800 
 23 H       -0.0760     4.3250    -0.2480 H     1 <1>   0.0800 
 24 H       -1.8070     4.4740    -0.3460 H     1 <1>   0.0800 
 25 H       -2.4650     0.8880     0.1820 H     1 <1>   0.0800 
 26 H       -3.0240     2.2100    -0.8010 H     1 <1>   0.0800 
 27 H        3.3410     3.0210    -0.5270 H     1 <1>   0.0800 
 28 H        2.2600     4.8980     2.5760 H     1 <1>   0.0800 
 29 H        1.9900     4.8370     0.8610 H     1 <1>   0.0800 
 30 H       -0.0450     3.0260    -2.3510 H     1 <1>   0.0800 
 31 H       -0.7440     4.6080    -2.5820 H     1 <1>   0.0800 
 32 H       -1.7830     3.2110    -2.4900 H     1 <1>   0.0800 
 33 H       -2.7170     2.2690     2.2180 H     1 <1>   0.0800 
 34 H       -4.2290     2.0990     1.3630 H     1 <1>   0.0800 
 35 H       -3.3360     3.5920     1.2440 H     1 <1>   0.0800 
 36 H        4.3360     4.3150     1.3060 H     1 <1>   0.0800 
 37 H        3.8820     3.0840     2.4520 H     1 <1>   0.0800 
 38 H        6.7320     0.5180    -1.1620 H     1 <1>   0.0800 
 39 H        7.5030     1.7340    -0.1480 H     1 <1>   0.0800 
 40 H        6.8380     2.0690    -3.1010 H     1 <1>   0.0800 
 41 H        8.4390     1.7940    -2.4610 H     1 <1>   0.0800 
 42 H        7.6070     3.2830    -2.0890 H     1 <1>   0.0800 
@<TRIPOS>BOND
  1   1   2  2   
  2   2   3  am  
  3   2   4  am  
  4   3   5  1   
  5   3   6  1   
  6   4   7  1   
  7   4   8  1   
  8   5   9  1   
  9   5  19  1   
 10   5  20  1   
 11   6  10  1   
 12   6  21  1   
 13   6  22  1   
 14   7  11  1   
 15   7  23  1   
 16   7  24  1   
 17   8  12  1   
 18   8  25  1   
 19   8  26  1   
 20   9  13  1   
 21   9  14  1   
 22   9  27  1   
 23  10  14  1   
 24  10  28  1   
 25  10  29  1   
 26  11  30  1   
 27  11  31  1   
 28  11  32  1   
 29  12  33  1   
 30  12  34  1   
 31  12  35  1   
 32  13  15  2   
 33  13  16  1   
 34  14  36  1   
 35  14  37  1   
 36  16  17  1   
 37  17  18  1   
 38  17  38  1   
 39  17  39  1   
 40  18  40  1   
 41  18  41  1   
 42  18  42  1   
@<TRIPOS>SUBSTRUCTURE
  1 ****   3 GROUP 4 **** **** 0

# MOE 2024.06 (io_trps.svl 2023.06)
