@<TRIPOS>MOLECULE
NONAME
52 54 1 0 0 
SMALL
USER_CHARGES


@<TRIPOS>ATOM
  1 O       -1.5830     2.7540     2.0100 O.2   1 <1>  -0.5700 
  2 C       -0.9490     2.4230     1.0360 C.2   1 <1>   0.5690 
  3 N       -1.2690     1.3370     0.2920 N.am  1 <1>  -0.7300 
  4 C        0.2740     3.2440     0.6130 C.3   1 <1>   0.1710 
  5 C       -2.3460     0.3740     0.5500 C.3   1 <1>   0.2200 
  6 N        1.3010     2.4690    -0.1470 N.3   1 <1>  -0.8100 
  7 C       -1.7230    -0.9640     0.9260 C.3   1 <1>  -0.1600 
  8 C       -3.0550     0.0720    -0.7640 C.3   1 <1>  -0.1600 
  9 C        2.3010     3.3760    -0.7530 C.3   1 <1>   0.1100 
 10 C        1.9900     1.4960     0.7360 C.3   1 <1>   0.1100 
 11 C       -1.3060    -1.6120    -0.3990 C.3   1 <1>  -0.1600 
 12 C       -2.1810    -0.9650    -1.4820 C.3   1 <1>  -0.1600 
 13 C        3.3780     2.6180    -1.5540 C.3   1 <1>   0.2090 
 14 C        3.0570     0.6700    -0.0100 C.3   1 <1>   0.2090 
 15 N        4.0180     1.5310    -0.7590 N.pl3 1 <1>  -0.8380 
 16 C        5.2730     1.7690    -0.1970 C.ar  1 <1>   0.1000 
 17 C        6.4260     1.1780    -0.7260 C.ar  1 <1>  -0.1430 
 18 C        5.3850     2.6070     0.9060 C.ar  1 <1>  -0.1500 
 19 C        7.6660     1.4350    -0.1450 C.ar  1 <1>  -0.1430 
 20 C        6.2660     0.2610    -1.9390 C.3   1 <1>  -0.0970 
 21 C        6.6120     2.8610     1.4820 C.ar  1 <1>  -0.1500 
 22 C        7.7480     2.2750     0.9570 C.ar  1 <1>  -0.1500 
 23 C        8.9580     0.8250    -0.6730 C.3   1 <1>  -0.0970 
 24 H       -0.6270     1.1040    -0.4710 H     1 <1>   0.3700 
 25 H        0.7180     3.6760     1.4920 H     1 <1>   0.0800 
 26 H       -0.0880     4.0470    -0.0030 H     1 <1>   0.0800 
 27 H       -3.0160     0.7480     1.3080 H     1 <1>   0.0800 
 28 H       -2.4790    -1.5710     1.3910 H     1 <1>   0.0800 
 29 H       -0.9020    -0.8500     1.6130 H     1 <1>   0.0800 
 30 H       -3.2180     0.9590    -1.3520 H     1 <1>   0.0800 
 31 H       -4.0090    -0.3710    -0.5410 H     1 <1>   0.0800 
 32 H        2.7840     3.9540     0.0150 H     1 <1>   0.0800 
 33 H        1.8030     4.0600    -1.4170 H     1 <1>   0.0800 
 34 H        1.2720     0.8140     1.1560 H     1 <1>   0.0800 
 35 H        2.4630     2.0130     1.5520 H     1 <1>   0.0800 
 36 H       -1.4430    -2.6800    -0.3660 H     1 <1>   0.0800 
 37 H       -0.2700    -1.3990    -0.5990 H     1 <1>   0.0800 
 38 H       -1.5550    -0.4770    -2.2090 H     1 <1>   0.0800 
 39 H       -2.7910    -1.6970    -1.9840 H     1 <1>   0.0800 
 40 H        4.1340     3.3100    -1.8830 H     1 <1>   0.0800 
 41 H        2.9250     2.1860    -2.4290 H     1 <1>   0.0800 
 42 H        2.5680     0.0120    -0.7060 H     1 <1>   0.0800 
 43 H        3.5970     0.0630     0.6940 H     1 <1>   0.0800 
 44 H        4.5040     3.0600     1.3120 H     1 <1>   0.1500 
 45 H        5.8510     0.8230    -2.7560 H     1 <1>   0.0800 
 46 H        5.5860    -0.5350    -1.6960 H     1 <1>   0.0800 
 47 H        7.1880    -0.1760    -2.2660 H     1 <1>   0.0800 
 48 H        6.6860     3.5100     2.3350 H     1 <1>   0.1500 
 49 H        8.6990     2.4810     1.4140 H     1 <1>   0.1500 
 50 H        8.9070    -0.2470    -0.6140 H     1 <1>   0.0800 
 51 H        9.8060     1.1540    -0.1000 H     1 <1>   0.0800 
 52 H        9.1090     1.1180    -1.6960 H     1 <1>   0.0800 
@<TRIPOS>BOND
  1   1   2  2   
  2   2   3  am  
  3   2   4  1   
  4   3   5  1   
  5   3  24  1   
  6   4   6  1   
  7   4  25  1   
  8   4  26  1   
  9   5   7  1   
 10   5   8  1   
 11   5  27  1   
 12   6   9  1   
 13   6  10  1   
 14   7  11  1   
 15   7  28  1   
 16   7  29  1   
 17   8  12  1   
 18   8  30  1   
 19   8  31  1   
 20   9  13  1   
 21   9  32  1   
 22   9  33  1   
 23  10  14  1   
 24  10  34  1   
 25  10  35  1   
 26  11  12  1   
 27  11  36  1   
 28  11  37  1   
 29  12  38  1   
 30  12  39  1   
 31  13  15  1   
 32  13  40  1   
 33  13  41  1   
 34  14  15  1   
 35  14  42  1   
 36  14  43  1   
 37  15  16  1   
 38  16  17  ar  
 39  16  18  ar  
 40  17  19  ar  
 41  17  20  1   
 42  18  21  ar  
 43  18  44  1   
 44  19  22  ar  
 45  19  23  1   
 46  20  45  1   
 47  20  46  1   
 48  20  47  1   
 49  21  22  ar  
 50  21  48  1   
 51  22  49  1   
 52  23  50  1   
 53  23  51  1   
 54  23  52  1   
@<TRIPOS>SUBSTRUCTURE
  1 ****  10 GROUP 4 **** **** 0

# MOE 2024.06 (io_trps.svl 2023.06)
