@<TRIPOS>MOLECULE
NONAME
23 23 1 0 0 
SMALL
USER_CHARGES


@<TRIPOS>ATOM
  1 S       -0.2080    -0.1550    -0.0290 S.3   1 <1>  -0.3320 
  2 C        1.4500    -0.8740    -0.0120 C.ar  1 <1>   0.1020 
  3 C        0.0140     1.6780    -0.0060 C.3   1 <1>   0.0700 
  4 C        1.5630    -2.2550    -0.0020 C.ar  1 <1>   0.1600 
  5 C        2.5900    -0.0920    -0.0080 C.ar  1 <1>  -0.1500 
  6 C       -1.3750     2.3190    -0.0040 C.3   1 <1>  -0.1600 
  7 N        2.7120    -2.9190     0.0090 N.ar  1 <1>  -0.6200 
  8 C        3.7870    -0.7720     0.0070 C.ar  1 <1>  -0.1500 
  9 C       -1.2820     3.8480     0.0150 C.3   1 <1>  -0.2400 
 10 C        3.7940    -2.1640     0.0160 C.ar  1 <1>   0.4100 
 11 N        4.9550    -2.8630     0.0180 N.pl3 1 <1>  -0.9000 
 12 H        0.5720     1.9470    -0.8850 H     1 <1>   0.0800 
 13 H        0.5630     1.9250     0.8860 H     1 <1>   0.0800 
 14 H        0.6590    -2.8380    -0.0050 H     1 <1>   0.1500 
 15 H        2.5620     0.9800    -0.0130 H     1 <1>   0.1500 
 16 H       -1.9200     1.9830     0.8610 H     1 <1>   0.0800 
 17 H       -1.9120     2.0050    -0.8830 H     1 <1>   0.0800 
 18 H        4.7220    -0.2450     0.0180 H     1 <1>   0.1500 
 19 H       -0.7640     4.1830     0.8970 H     1 <1>   0.0800 
 20 H       -2.2690     4.2760     0.0160 H     1 <1>   0.0800 
 21 H       -0.7570     4.2050    -0.8540 H     1 <1>   0.0800 
 22 H        5.6550    -2.5640    -0.6580 H     1 <1>   0.4000 
 23 H        4.7700    -3.8660    -0.0420 H     1 <1>   0.4000 
@<TRIPOS>BOND
  1   1   2  1   
  2   1   3  1   
  3   2   4  ar  
  4   2   5  ar  
  5   3   6  1   
  6   3  12  1   
  7   3  13  1   
  8   4   7  ar  
  9   4  14  1   
 10   5   8  ar  
 11   5  15  1   
 12   6   9  1   
 13   6  16  1   
 14   6  17  1   
 15   7  10  ar  
 16   8  10  ar  
 17   8  18  1   
 18   9  19  1   
 19   9  20  1   
 20   9  21  1   
 21  10  11  1   
 22  11  22  1   
 23  11  23  1   
@<TRIPOS>SUBSTRUCTURE
  1 ****   2 GROUP 4 **** **** 0

# MOE 2024.06 (io_trps.svl 2023.06)
