@<TRIPOS>MOLECULE
NONAME
44 45 1 0 0 
SMALL
USER_CHARGES


@<TRIPOS>ATOM
  1 S        0.1470    -0.5200     0.1730 S.3   1 <1>  -0.3710 
  2 C       -1.5000     0.1220     0.0720 C.2   1 <1>   0.6410 
  3 C        0.0390    -2.1190    -0.7840 C.3   1 <1>   0.1310 
  4 N       -2.3960    -0.5500    -0.5430 N.2   1 <1>  -0.6610 
  5 N       -1.6750     1.3210     0.6840 N.pl3 1 <1>  -0.5500 
  6 C        1.3530    -2.8820    -0.7560 C.2   1 <1>   0.5690 
  7 C       -3.6380     0.0130    -0.5730 C.2   1 <1>   0.7670 
  8 C       -2.9000     1.9330     0.6840 C.2   1 <1>  -0.0380 
  9 O        1.5550    -3.6990    -1.6200 O.2   1 <1>  -0.5700 
 10 N        2.2440    -2.6120     0.2440 N.am  1 <1>  -0.5470 
 11 O       -4.5310    -0.5890    -1.1460 O.2   1 <1>  -0.5700 
 12 C       -3.8940     1.2680     0.0470 C.2   1 <1>  -0.1360 
 13 C       -3.0020     3.2780     1.3960 C.3   1 <1>  -0.0220 
 14 C        3.5320    -3.1280     0.4460 C.ar  1 <1>   0.1170 
 15 C       -4.4030     3.9040     1.3530 C.3   1 <1>  -0.1600 
 16 C        4.6280    -2.2660     0.3650 C.ar  1 <1>  -0.1430 
 17 C        3.7400    -4.4760     0.7560 C.ar  1 <1>  -0.1430 
 18 C       -4.4360     5.2500     2.0840 C.3   1 <1>  -0.2400 
 19 C        5.9070    -2.7500     0.5860 C.ar  1 <1>  -0.1500 
 20 C        4.4470    -0.7910     0.0240 C.3   1 <1>  -0.0970 
 21 C        5.0270    -4.9410     0.9680 C.ar  1 <1>  -0.1500 
 22 C        2.5860    -5.4640     0.8740 C.3   1 <1>  -0.0970 
 23 C        6.1080    -4.0830     0.8850 C.ar  1 <1>  -0.1500 
 24 H       -0.2270    -1.8700    -1.7950 H     1 <1>   0.0800 
 25 H       -0.7410    -2.7100    -0.3400 H     1 <1>   0.0800 
 26 H       -0.8580     1.7380     1.1350 H     1 <1>   0.4000 
 27 H        2.0080    -1.8040     0.8200 H     1 <1>   0.3700 
 28 H       -4.9000     1.6280    -0.0310 H     1 <1>   0.1500 
 29 H       -2.3040     3.9600     0.9410 H     1 <1>   0.0800 
 30 H       -2.7120     3.1460     2.4240 H     1 <1>   0.0800 
 31 H       -5.1110     3.2370     1.8170 H     1 <1>   0.0800 
 32 H       -4.7010     4.0550     0.3290 H     1 <1>   0.0800 
 33 H       -4.1650     5.1270     3.1180 H     1 <1>   0.0800 
 34 H       -5.4270     5.6680     2.0400 H     1 <1>   0.0800 
 35 H       -3.7540     5.9460     1.6260 H     1 <1>   0.0800 
 36 H        6.7570    -2.0940     0.5230 H     1 <1>   0.1500 
 37 H        3.8870    -0.2990     0.7980 H     1 <1>   0.0800 
 38 H        3.9200    -0.6940    -0.9080 H     1 <1>   0.0800 
 39 H        5.3970    -0.2980    -0.0750 H     1 <1>   0.0800 
 40 H        5.1980    -5.9770     1.2000 H     1 <1>   0.1500 
 41 H        2.2530    -5.7510    -0.1080 H     1 <1>   0.0800 
 42 H        1.7630    -5.0210     1.4050 H     1 <1>   0.0800 
 43 H        2.8890    -6.3480     1.4030 H     1 <1>   0.0800 
 44 H        7.1030    -4.4540     1.0520 H     1 <1>   0.1500 
@<TRIPOS>BOND
  1   1   2  1   
  2   1   3  1   
  3   2   4  2   
  4   2   5  1   
  5   3   6  1   
  6   3  24  1   
  7   3  25  1   
  8   4   7  1   
  9   5   8  1   
 10   5  26  1   
 11   6   9  2   
 12   6  10  am  
 13   7  11  2   
 14   7  12  1   
 15   8  12  2   
 16   8  13  1   
 17  10  14  1   
 18  10  27  1   
 19  12  28  1   
 20  13  15  1   
 21  13  29  1   
 22  13  30  1   
 23  14  16  ar  
 24  14  17  ar  
 25  15  18  1   
 26  15  31  1   
 27  15  32  1   
 28  16  19  ar  
 29  16  20  1   
 30  17  21  ar  
 31  17  22  1   
 32  18  33  1   
 33  18  34  1   
 34  18  35  1   
 35  19  23  ar  
 36  19  36  1   
 37  20  37  1   
 38  20  38  1   
 39  20  39  1   
 40  21  23  ar  
 41  21  40  1   
 42  22  41  1   
 43  22  42  1   
 44  22  43  1   
 45  23  44  1   
@<TRIPOS>SUBSTRUCTURE
  1 ****   1 GROUP 4 **** **** 0

# MOE 2024.06 (io_trps.svl 2023.06)
