@<TRIPOS>MOLECULE
NONAME
35 36 1 0 0 
SMALL
USER_CHARGES


@<TRIPOS>ATOM
  1 F       -0.8010    -0.0810     1.4780 F     1 <1>  -0.1900 
  2 C       -1.8510    -0.6400     0.9410 C.ar  1 <1>   0.1900 
  3 C       -2.2080    -0.2900    -0.3460 C.ar  1 <1>  -0.1500 
  4 C       -2.5670    -1.5610     1.6790 C.ar  1 <1>  -0.1500 
  5 C       -3.3250    -0.8820    -0.9110 C.ar  1 <1>  -0.1500 
  6 C       -3.6830    -2.1490     1.1070 C.ar  1 <1>  -0.1500 
  7 C       -4.0700    -1.8070    -0.1860 C.ar  1 <1>  -0.1430 
  8 C       -5.3010    -2.4420    -0.8050 C.3   1 <1>   0.4870 
  9 N       -6.5140    -1.8430    -0.1830 N.4   1 <1>  -0.9590 
 10 C       -7.7570    -2.6010    -0.5470 C.3   1 <1>   0.3430 
 11 C       -6.6390    -0.3860    -0.4700 C.3   1 <1>   0.3430 
 12 C       -9.0470    -1.8050    -0.2670 C.3   1 <1>  -0.0800 
 13 C       -7.6970     0.2210     0.4590 C.3   1 <1>  -0.1600 
 14 C       -8.8390    -0.7450     0.8330 C.3   1 <1>  -0.1600 
 15 C      -10.1890    -2.7780     0.0600 C.3   1 <1>   0.1200 
 16 O      -11.3830    -2.0860     0.0730 O.3   1 <1>  -0.6800 
 17 H       -1.6170     0.4290    -0.8880 H     1 <1>   0.1500 
 18 H       -2.2480    -1.8090     2.6770 H     1 <1>   0.1500 
 19 H       -3.5990    -0.6130    -1.9180 H     1 <1>   0.1500 
 20 H       -4.2350    -2.8740     1.6820 H     1 <1>   0.1500 
 21 H       -5.2780    -3.5040    -0.6260 H     1 <1>   0.0800 
 22 H       -5.3070    -2.2750    -1.8700 H     1 <1>   0.0800 
 23 H       -6.3850    -1.9090     0.8330 H     1 <1>   0.4500 
 24 H       -7.7800    -3.5200     0.0160 H     1 <1>   0.0800 
 25 H       -7.7390    -2.8590    -1.5940 H     1 <1>   0.0800 
 26 H       -6.9370    -0.2460    -1.4970 H     1 <1>   0.0800 
 27 H       -5.6980     0.1190    -0.3160 H     1 <1>   0.0800 
 28 H       -9.3130    -1.3020    -1.1820 H     1 <1>   0.0800 
 29 H       -8.1090     1.0840    -0.0350 H     1 <1>   0.0800 
 30 H       -7.2230     0.5770     1.3580 H     1 <1>   0.0800 
 31 H       -8.6020    -1.2380     1.7620 H     1 <1>   0.0800 
 32 H       -9.7410    -0.1770     0.9900 H     1 <1>   0.0800 
 33 H      -10.0570    -3.2510     1.0190 H     1 <1>   0.0800 
 34 H      -10.2730    -3.5370    -0.7010 H     1 <1>   0.0800 
 35 H      -11.4730    -1.5290     0.8720 H     1 <1>   0.4000 
@<TRIPOS>BOND
  1   1   2  1   
  2   2   3  ar  
  3   2   4  ar  
  4   3   5  ar  
  5   3  17  1   
  6   4   6  ar  
  7   4  18  1   
  8   5   7  ar  
  9   5  19  1   
 10   6   7  ar  
 11   6  20  1   
 12   7   8  1   
 13   8   9  1   
 14   8  21  1   
 15   8  22  1   
 16   9  10  1   
 17   9  11  1   
 18   9  23  1   
 19  10  12  1   
 20  10  24  1   
 21  10  25  1   
 22  11  13  1   
 23  11  26  1   
 24  11  27  1   
 25  12  14  1   
 26  12  15  1   
 27  12  28  1   
 28  13  14  1   
 29  13  29  1   
 30  13  30  1   
 31  14  31  1   
 32  14  32  1   
 33  15  16  1   
 34  15  33  1   
 35  15  34  1   
 36  16  35  1   
@<TRIPOS>SUBSTRUCTURE
  1 ****   9 GROUP 4 **** **** 0

# MOE 2024.06 (io_trps.svl 2023.06)
