@<TRIPOS>MOLECULE
NONAME
33 33 1 0 0 
SMALL
USER_CHARGES


@<TRIPOS>ATOM
  1 O        0.1830     0.3020     0.8700 O.2   1 <1>  -0.5700 
  2 C       -0.0360     1.2550     0.1500 C.2   1 <1>   0.6900 
  3 N       -1.2990     1.6920    -0.1210 N.am  1 <1>  -0.5470 
  4 N        0.9900     1.9370    -0.4150 N.am  1 <1>  -0.7300 
  5 C       -2.5520     1.1490     0.1960 C.ar  1 <1>   0.1170 
  6 C        2.4190     1.6230    -0.2070 C.3   1 <1>   0.1400 
  7 C       -3.6580     1.9920     0.2240 C.ar  1 <1>  -0.1500 
  8 C       -2.7470    -0.2020     0.4630 C.ar  1 <1>  -0.1500 
  9 C        3.2140     2.9270    -0.1460 C.3   1 <1>  -0.1600 
 10 C       -4.9250     1.5120     0.5140 C.ar  1 <1>  -0.1430 
 11 C       -4.0060    -0.6930     0.7530 C.ar  1 <1>  -0.1500 
 12 C        4.7070     2.6590     0.0690 C.3   1 <1>  -0.2400 
 13 C       -5.0940     0.1620     0.7780 C.ar  1 <1>  -0.1500 
 14 C       -6.1180     2.4520     0.5420 C.3   1 <1>  -0.0170 
 15 C       -6.7670     2.5380    -0.8410 C.3   1 <1>  -0.2400 
 16 H       -1.3270     2.6170    -0.5300 H     1 <1>   0.3700 
 17 H        0.7930     2.6000    -1.1590 H     1 <1>   0.3700 
 18 H        2.7680     1.0090    -1.0190 H     1 <1>   0.0800 
 19 H        2.5430     1.0740     0.7130 H     1 <1>   0.0800 
 20 H       -3.5260     3.0370     0.0190 H     1 <1>   0.1500 
 21 H       -1.9120    -0.8790     0.4430 H     1 <1>   0.1500 
 22 H        2.8450     3.5280     0.6680 H     1 <1>   0.0800 
 23 H        3.0850     3.4720    -1.0640 H     1 <1>   0.0800 
 24 H       -4.1390    -1.7400     0.9590 H     1 <1>   0.1500 
 25 H        4.8650     2.1290     0.9930 H     1 <1>   0.0800 
 26 H        5.2460     3.5890     0.1140 H     1 <1>   0.0800 
 27 H        5.1060     2.0710    -0.7390 H     1 <1>   0.0800 
 28 H       -6.0710    -0.2280     1.0030 H     1 <1>   0.1500 
 29 H       -5.8020     3.4320     0.8540 H     1 <1>   0.0800 
 30 H       -6.8400     2.1000     1.2580 H     1 <1>   0.0800 
 31 H       -6.0590     2.9060    -1.5620 H     1 <1>   0.0800 
 32 H       -7.6120     3.2030    -0.8140 H     1 <1>   0.0800 
 33 H       -7.1020     1.5650    -1.1540 H     1 <1>   0.0800 
@<TRIPOS>BOND
  1   1   2  2   
  2   2   3  am  
  3   2   4  am  
  4   3   5  1   
  5   3  16  1   
  6   4   6  1   
  7   4  17  1   
  8   5   7  ar  
  9   5   8  ar  
 10   6   9  1   
 11   6  18  1   
 12   6  19  1   
 13   7  10  ar  
 14   7  20  1   
 15   8  11  ar  
 16   8  21  1   
 17   9  12  1   
 18   9  22  1   
 19   9  23  1   
 20  10  13  ar  
 21  10  14  1   
 22  11  13  ar  
 23  11  24  1   
 24  12  25  1   
 25  12  26  1   
 26  12  27  1   
 27  13  28  1   
 28  14  15  1   
 29  14  29  1   
 30  14  30  1   
 31  15  31  1   
 32  15  32  1   
 33  15  33  1   
@<TRIPOS>SUBSTRUCTURE
  1 ****   3 GROUP 4 **** **** 0

# MOE 2024.06 (io_trps.svl 2023.06)
