@<TRIPOS>MOLECULE
NONAME
30 32 1 0 0 
SMALL
USER_CHARGES


@<TRIPOS>ATOM
  1 CL       6.7700    -5.1740     0.6680 Cl    1 <1>  -0.1770 
  2 C        6.7140    -3.4780     0.3000 C.ar  1 <1>   0.7970 
  3 N        7.8720    -2.9520    -0.1210 N.ar  1 <1>  -0.6200 
  4 N        5.5480    -2.8920     0.4680 N.ar  1 <1>  -0.5670 
  5 C        7.8200    -1.6760    -0.3980 C.ar  1 <1>   0.4870 
  6 C        5.5550    -1.5870     0.1730 C.ar  1 <1>   0.1050 
  7 CL       9.2850    -0.9210    -0.9540 Cl    1 <1>  -0.1770 
  8 C        6.6620    -0.9060    -0.2730 C.ar  1 <1>   0.2270 
  9 N        4.5460    -0.6890     0.2330 N.pl3 1 <1>   0.0480 
 10 N        6.3430     0.4080    -0.4920 N.2   1 <1>  -0.5650 
 11 C        5.0950     0.4870    -0.1790 C.2   1 <1>   0.0360 
 12 C        3.1670    -0.9680     0.6850 C.3   1 <1>   0.4560 
 13 O        2.3650     0.1640     0.5210 O.3   1 <1>  -0.5600 
 14 C        2.4930    -2.0900    -0.1240 C.3   1 <1>   0.2000 
 15 C        1.0390    -0.2610     0.4580 C.3   1 <1>   0.2000 
 16 O        2.4730    -3.2930     0.6020 O.3   1 <1>  -0.6800 
 17 C        1.0860    -1.5420    -0.3770 C.3   1 <1>   0.2000 
 18 C        0.1460     0.8270    -0.1480 C.3   1 <1>   0.1200 
 19 O        0.0950    -2.4240     0.0310 O.3   1 <1>  -0.6800 
 20 O       -1.1700     0.3820    -0.1690 O.3   1 <1>  -0.6800 
 21 H        4.5100     1.3920    -0.2260 H     1 <1>   0.1500 
 22 H        3.1720    -1.2150     1.7330 H     1 <1>   0.0800 
 23 H        3.0020    -2.2580    -1.0580 H     1 <1>   0.0800 
 24 H        0.7260    -0.4740     1.4670 H     1 <1>   0.0800 
 25 H        3.3850    -3.6570     0.6820 H     1 <1>   0.4000 
 26 H        0.9410    -1.3200    -1.4210 H     1 <1>   0.0800 
 27 H        0.4400     1.0440    -1.1600 H     1 <1>   0.0800 
 28 H        0.1800     1.7250     0.4430 H     1 <1>   0.0800 
 29 H        0.5530    -3.1960     0.4440 H     1 <1>   0.4000 
 30 H       -1.2090    -0.5930    -0.3030 H     1 <1>   0.4000 
@<TRIPOS>BOND
  1   1   2  1   
  2   2   3  ar  
  3   2   4  ar  
  4   3   5  ar  
  5   4   6  ar  
  6   5   7  1   
  7   5   8  ar  
  8   6   8  ar  
  9   6   9  1   
 10   8  10  1   
 11   9  11  1   
 12   9  12  1   
 13  10  11  2   
 14  11  21  1   
 15  12  13  1   
 16  12  14  1   
 17  12  22  1   
 18  13  15  1   
 19  14  16  1   
 20  14  17  1   
 21  14  23  1   
 22  15  17  1   
 23  15  18  1   
 24  15  24  1   
 25  16  25  1   
 26  17  19  1   
 27  17  26  1   
 28  18  20  1   
 29  18  27  1   
 30  18  28  1   
 31  19  29  1   
 32  20  30  1   
@<TRIPOS>SUBSTRUCTURE
  1 ****   9 GROUP 4 **** **** 0

# MOE 2024.06 (io_trps.svl 2023.06)
