@<TRIPOS>MOLECULE
NONAME
54 56 1 0 0 
SMALL
USER_CHARGES


@<TRIPOS>ATOM
  1 S       -1.1200    -0.7500     0.2380 S.3   1 <1>  -0.2860 
  2 C       -1.7190     0.7910    -0.4620 C.2   1 <1>   0.2420 
  3 C       -2.2090    -1.0120     1.7200 C.3   1 <1>   0.1310 
  4 N       -2.3650     0.8380    -1.5710 N.2   1 <1>  -0.3380 
  5 N       -1.5420     1.9810     0.1060 N.pl3 1 <1>   0.0480 
  6 C       -3.6420    -0.5660     1.4540 C.2   1 <1>   0.5690 
  7 N       -2.6620     2.1220    -1.7620 N.2   1 <1>  -0.3380 
  8 C       -2.1740     2.7990    -0.7580 C.2   1 <1>   0.1330 
  9 C       -0.6980     2.3480     1.2710 C.3   1 <1>   0.0960 
 10 O       -4.0170     0.4690     1.9460 O.2   1 <1>  -0.5700 
 11 N       -4.5080    -1.3080     0.7240 N.am  1 <1>  -0.7300 
 12 C       -2.2960     4.2230    -0.5720 C.ar  1 <1>   0.0530 
 13 C       -1.5240     2.8220     2.4710 C.3   1 <1>  -0.2400 
 14 C       -4.2440    -2.5070    -0.0940 C.3   1 <1>   0.2200 
 15 C       -3.4410     4.7940    -0.0060 C.ar  1 <1>  -0.1430 
 16 C       -1.2510     5.0660    -0.9440 C.ar  1 <1>  -0.1500 
 17 C       -5.1590    -2.5070    -1.3380 C.3   1 <1>  -0.0800 
 18 C       -4.4900    -3.7480     0.7730 C.3   1 <1>  -0.1600 
 19 C       -3.5110     6.1630     0.1910 C.ar  1 <1>  -0.1500 
 20 C       -4.6200     3.9140     0.3930 C.3   1 <1>  -0.0970 
 21 C       -1.3250     6.4310    -0.7460 C.ar  1 <1>  -0.1500 
 22 C       -4.9700    -3.8060    -2.1430 C.3   1 <1>  -0.1600 
 23 C       -4.9000    -1.3000    -2.2540 C.3   1 <1>  -0.2400 
 24 C       -4.3010    -5.0390    -0.0350 C.3   1 <1>  -0.1600 
 25 C       -2.4570     6.9820    -0.1750 C.ar  1 <1>  -0.1500 
 26 C       -5.2030    -5.0490    -1.2740 C.3   1 <1>  -0.1600 
 27 H       -1.7880    -0.4400     2.5240 H     1 <1>   0.0800 
 28 H       -2.1710    -2.0570     1.9600 H     1 <1>   0.0800 
 29 H       -0.0260     3.1310     0.9670 H     1 <1>   0.0800 
 30 H       -0.1050     1.4970     1.5540 H     1 <1>   0.0800 
 31 H       -5.4220    -0.8810     0.5670 H     1 <1>   0.3700 
 32 H       -2.0700     3.7150     2.2290 H     1 <1>   0.0800 
 33 H       -0.8680     3.0480     3.2930 H     1 <1>   0.0800 
 34 H       -2.2110     2.0610     2.7890 H     1 <1>   0.0800 
 35 H       -3.2190    -2.5020    -0.4240 H     1 <1>   0.0800 
 36 H       -0.3750     4.6390    -1.3990 H     1 <1>   0.1500 
 37 H       -6.1820    -2.4710    -1.0070 H     1 <1>   0.0800 
 38 H       -5.4950    -3.7200     1.1570 H     1 <1>   0.0800 
 39 H       -3.8100    -3.7520     1.6040 H     1 <1>   0.0800 
 40 H       -4.3900     6.6030     0.6280 H     1 <1>   0.1500 
 41 H       -4.3140     3.1800     1.1170 H     1 <1>   0.0800 
 42 H       -5.0000     3.4000    -0.4720 H     1 <1>   0.0800 
 43 H       -5.4160     4.4980     0.8180 H     1 <1>   0.0800 
 44 H       -0.5070     7.0660    -1.0400 H     1 <1>   0.1500 
 45 H       -3.9710    -3.8380    -2.5440 H     1 <1>   0.0800 
 46 H       -5.6560    -3.8210    -2.9720 H     1 <1>   0.0800 
 47 H       -3.8830    -1.3040    -2.6070 H     1 <1>   0.0800 
 48 H       -5.0670    -0.3740    -1.7320 H     1 <1>   0.0800 
 49 H       -5.5560    -1.3240    -3.1060 H     1 <1>   0.0800 
 50 H       -4.5290    -5.8900     0.5840 H     1 <1>   0.0800 
 51 H       -3.2720    -5.1220    -0.3430 H     1 <1>   0.0800 
 52 H       -2.5210     8.0450    -0.0180 H     1 <1>   0.1500 
 53 H       -5.0080    -5.9350    -1.8550 H     1 <1>   0.0800 
 54 H       -6.2340    -5.0800    -0.9650 H     1 <1>   0.0800 
@<TRIPOS>BOND
  1   1   2  1   
  2   1   3  1   
  3   2   4  2   
  4   2   5  1   
  5   3   6  1   
  6   3  27  1   
  7   3  28  1   
  8   4   7  1   
  9   5   8  1   
 10   5   9  1   
 11   6  10  2   
 12   6  11  am  
 13   7   8  2   
 14   8  12  1   
 15   9  13  1   
 16   9  29  1   
 17   9  30  1   
 18  11  14  1   
 19  11  31  1   
 20  12  15  ar  
 21  12  16  ar  
 22  13  32  1   
 23  13  33  1   
 24  13  34  1   
 25  14  17  1   
 26  14  18  1   
 27  14  35  1   
 28  15  19  ar  
 29  15  20  1   
 30  16  21  ar  
 31  16  36  1   
 32  17  22  1   
 33  17  23  1   
 34  17  37  1   
 35  18  24  1   
 36  18  38  1   
 37  18  39  1   
 38  19  25  ar  
 39  19  40  1   
 40  20  41  1   
 41  20  42  1   
 42  20  43  1   
 43  21  25  ar  
 44  21  44  1   
 45  22  26  1   
 46  22  45  1   
 47  22  46  1   
 48  23  47  1   
 49  23  48  1   
 50  23  49  1   
 51  24  26  1   
 52  24  50  1   
 53  24  51  1   
 54  25  52  1   
 55  26  53  1   
 56  26  54  1   
@<TRIPOS>SUBSTRUCTURE
  1 ****   2 GROUP 4 **** **** 0

# MOE 2024.06 (io_trps.svl 2023.06)
