@<TRIPOS>MOLECULE
NONAME
34 35 1 0 0 
SMALL
USER_CHARGES


@<TRIPOS>ATOM
  1 O       -0.0280    -0.1650    -0.0400 O.3   1 <1>  -0.5600 
  2 C        0.8160    -1.0200     0.6610 C.3   1 <1>   0.2640 
  3 C       -1.3430    -0.1550     0.4170 C.3   1 <1>   0.1200 
  4 C        2.2230    -0.9130     0.0830 C.ar  1 <1>  -0.1440 
  5 C       -2.1360     0.9060    -0.3600 C.3   1 <1>  -0.0800 
  6 C        2.9970     0.2630     0.2590 C.ar  1 <1>   0.0000 
  7 C        2.7350    -1.9840    -0.6030 C.ar  1 <1>  -0.1500 
  8 C       -1.5570     2.3130    -0.1560 C.3   1 <1>  -0.2400 
  9 C       -3.6090     0.8850     0.0680 C.3   1 <1>  -0.2400 
 10 C        4.3210     0.3080    -0.2500 C.ar  1 <1>   0.3100 
 11 C        2.5180     1.4140     0.9190 C.ar  1 <1>  -0.1500 
 12 C        4.0260    -1.9450    -1.1250 C.ar  1 <1>  -0.1500 
 13 N        5.1240     1.4000    -0.0820 N.ar  1 <1>  -0.6200 
 14 C        4.8040    -0.8300    -0.9510 C.ar  1 <1>   0.0820 
 15 C        3.3420     2.4870     1.0570 C.ar  1 <1>  -0.1500 
 16 C        4.6390     2.4270     0.5410 C.ar  1 <1>   0.1600 
 17 O        6.0510    -0.8430    -1.4690 O.3   1 <1>  -0.5320 
 18 H        0.4380    -2.0230     0.5630 H     1 <1>   0.0800 
 19 H        0.8170    -0.7400     1.7000 H     1 <1>   0.0800 
 20 H       -1.3460     0.0750     1.4690 H     1 <1>   0.0800 
 21 H       -1.7660    -1.1320     0.2570 H     1 <1>   0.0800 
 22 H       -2.0870     0.6580    -1.4070 H     1 <1>   0.0800 
 23 H        2.1510    -2.8760    -0.7530 H     1 <1>   0.1500 
 24 H       -1.5720     2.5840     0.8840 H     1 <1>   0.0800 
 25 H       -2.1260     3.0370    -0.7120 H     1 <1>   0.0800 
 26 H       -0.5390     2.3500    -0.5050 H     1 <1>   0.0800 
 27 H       -3.7060     1.1280     1.1120 H     1 <1>   0.0800 
 28 H       -4.0350    -0.0880    -0.1020 H     1 <1>   0.0800 
 29 H       -4.1720     1.6020    -0.5040 H     1 <1>   0.0800 
 30 H        1.5140     1.4460     1.2990 H     1 <1>   0.1500 
 31 H        4.3940    -2.8010    -1.6600 H     1 <1>   0.1500 
 32 H        3.0190     3.3850     1.5520 H     1 <1>   0.1500 
 33 H        5.2740     3.2870     0.6660 H     1 <1>   0.1500 
 34 H        6.2770    -1.6590    -1.9440 H     1 <1>   0.4500 
@<TRIPOS>BOND
  1   1   2  1   
  2   1   3  1   
  3   2   4  1   
  4   2  18  1   
  5   2  19  1   
  6   3   5  1   
  7   3  20  1   
  8   3  21  1   
  9   4   6  ar  
 10   4   7  ar  
 11   5   8  1   
 12   5   9  1   
 13   5  22  1   
 14   6  10  ar  
 15   6  11  ar  
 16   7  12  ar  
 17   7  23  1   
 18   8  24  1   
 19   8  25  1   
 20   8  26  1   
 21   9  27  1   
 22   9  28  1   
 23   9  29  1   
 24  10  13  ar  
 25  10  14  ar  
 26  11  15  ar  
 27  11  30  1   
 28  12  14  ar  
 29  12  31  1   
 30  13  16  ar  
 31  14  17  1   
 32  15  16  ar  
 33  15  32  1   
 34  16  33  1   
 35  17  34  1   
@<TRIPOS>SUBSTRUCTURE
  1 ****   6 GROUP 4 **** **** 0

# MOE 2024.06 (io_trps.svl 2023.06)
