@<TRIPOS>MOLECULE
NONAME
47 49 1 0 0 
SMALL
USER_CHARGES


@<TRIPOS>ATOM
  1 S       -0.5320     0.5590    -0.1920 S.3   1 <1>  -0.3320 
  2 C       -1.9300    -0.5590    -0.4070 C.ar  1 <1>   0.1020 
  3 C        0.9800    -0.3770    -0.6930 C.3   1 <1>  -0.0100 
  4 C       -3.1770    -0.0720    -0.0690 C.ar  1 <1>  -0.1500 
  5 C       -1.7740    -1.8490    -0.8890 C.ar  1 <1>  -0.1500 
  6 C       -4.3060    -0.8690    -0.2050 C.ar  1 <1>   0.1170 
  7 C       -2.8930    -2.6510    -1.0300 C.ar  1 <1>  -0.1500 
  8 N       -5.5560    -0.3280     0.1340 N.am  1 <1>  -0.5470 
  9 C       -4.1440    -2.1640    -0.6930 C.ar  1 <1>  -0.1500 
 10 C       -6.7360    -0.9350     0.4970 C.2   1 <1>   0.5440 
 11 O       -6.7770    -2.1300     0.7090 O.2   1 <1>  -0.5700 
 12 C       -7.9370    -0.1360     0.6540 C.ar  1 <1>   0.0860 
 13 C       -8.8580    -0.4280     1.6590 C.ar  1 <1>  -0.1500 
 14 C       -8.2300     0.9390    -0.1860 C.ar  1 <1>  -0.1500 
 15 C      -10.0150     0.3100     1.8210 C.ar  1 <1>  -0.1500 
 16 C       -9.3870     1.6820    -0.0330 C.ar  1 <1>  -0.1500 
 17 C      -10.2940     1.3670     0.9680 C.ar  1 <1>  -0.1430 
 18 C      -11.5830     2.1540     1.1240 C.3   1 <1>   0.4860 
 19 N      -12.5390     1.7130     0.0720 N.4   1 <1>  -0.9590 
 20 C      -13.7800     2.5630     0.0520 C.3   1 <1>   0.3430 
 21 C      -12.8940     0.2550     0.2110 C.3   1 <1>   0.3430 
 22 C      -14.8120     2.0310    -0.9620 C.3   1 <1>   0.1200 
 23 C      -13.9680    -0.1650    -0.8100 C.3   1 <1>   0.1200 
 24 O      -15.0770     0.6810    -0.7180 O.3   1 <1>  -0.5600 
 25 H        1.8240     0.2760    -0.5610 H     1 <1>   0.0800 
 26 H        0.8710    -0.6560    -1.7260 H     1 <1>   0.0800 
 27 H        1.0620    -1.2390    -0.0570 H     1 <1>   0.0800 
 28 H       -3.2590     0.9310     0.3040 H     1 <1>   0.1500 
 29 H       -0.8100    -2.2380    -1.1530 H     1 <1>   0.1500 
 30 H       -2.7940    -3.6560    -1.4020 H     1 <1>   0.1500 
 31 H       -5.5600     0.6860     0.2110 H     1 <1>   0.3700 
 32 H       -5.0010    -2.8010    -0.8150 H     1 <1>   0.1500 
 33 H       -8.6510    -1.2540     2.3210 H     1 <1>   0.1500 
 34 H       -7.5450     1.1880    -0.9790 H     1 <1>   0.1500 
 35 H      -10.6900     0.0450     2.6190 H     1 <1>   0.1500 
 36 H       -9.5670     2.5050    -0.7050 H     1 <1>   0.1500 
 37 H      -11.3720     3.2070     1.0190 H     1 <1>   0.0800 
 38 H      -12.0010     1.9860     2.1030 H     1 <1>   0.0800 
 39 H      -12.0610     1.8150    -0.8310 H     1 <1>   0.4500 
 40 H      -13.5300     3.5810    -0.1980 H     1 <1>   0.0800 
 41 H      -14.2390     2.5630     1.0270 H     1 <1>   0.0800 
 42 H      -13.2760     0.0640     1.2000 H     1 <1>   0.0800 
 43 H      -12.0150    -0.3550     0.0720 H     1 <1>   0.0800 
 44 H      -14.4610     2.1400    -1.9740 H     1 <1>   0.0800 
 45 H      -15.7400     2.5680    -0.8630 H     1 <1>   0.0800 
 46 H      -14.3030    -1.1680    -0.6040 H     1 <1>   0.0800 
 47 H      -13.5860    -0.1330    -1.8160 H     1 <1>   0.0800 
@<TRIPOS>BOND
  1   1   2  1   
  2   1   3  1   
  3   2   4  ar  
  4   2   5  ar  
  5   3  25  1   
  6   3  26  1   
  7   3  27  1   
  8   4   6  ar  
  9   4  28  1   
 10   5   7  ar  
 11   5  29  1   
 12   6   8  1   
 13   6   9  ar  
 14   7   9  ar  
 15   7  30  1   
 16   8  10  am  
 17   8  31  1   
 18   9  32  1   
 19  10  11  2   
 20  10  12  1   
 21  12  13  ar  
 22  12  14  ar  
 23  13  15  ar  
 24  13  33  1   
 25  14  16  ar  
 26  14  34  1   
 27  15  17  ar  
 28  15  35  1   
 29  16  17  ar  
 30  16  36  1   
 31  17  18  1   
 32  18  19  1   
 33  18  37  1   
 34  18  38  1   
 35  19  20  1   
 36  19  21  1   
 37  19  39  1   
 38  20  22  1   
 39  20  40  1   
 40  20  41  1   
 41  21  23  1   
 42  21  42  1   
 43  21  43  1   
 44  22  24  1   
 45  22  44  1   
 46  22  45  1   
 47  23  24  1   
 48  23  46  1   
 49  23  47  1   
@<TRIPOS>SUBSTRUCTURE
  1 ****  12 GROUP 4 **** **** 0

# MOE 2024.06 (io_trps.svl 2023.06)
