@<TRIPOS>MOLECULE
NONAME
26 26 1 0 0 
SMALL
USER_CHARGES


@<TRIPOS>ATOM
  1 CL       1.4190    -0.2060    -1.3030 Cl    1 <1>  -0.1770 
  2 C        0.9200    -1.7770    -0.7180 C.ar  1 <1>   0.1770 
  3 C        1.5460    -2.3520     0.3800 C.ar  1 <1>  -0.1440 
  4 C       -0.1120    -2.4150    -1.3850 C.ar  1 <1>  -0.1500 
  5 C        1.0950    -3.5980     0.7910 C.ar  1 <1>   0.1770 
  6 C        2.6830    -1.6450     1.1010 C.3   1 <1>   0.2140 
  7 C       -0.5440    -3.6590    -0.9570 C.ar  1 <1>  -0.1500 
  8 CL       1.8200    -4.3950     2.1680 Cl    1 <1>  -0.1770 
  9 C        0.0640    -4.2520     0.1370 C.ar  1 <1>  -0.1500 
 10 S        4.2360    -2.1510     0.3110 S.3   1 <1>  -0.4600 
 11 C        5.5090    -1.2380     1.2650 C.3   1 <1>   0.1310 
 12 C        6.9220    -1.5160     0.7660 C.2   1 <1>   0.5690 
 13 O        7.8420    -0.9670     1.3230 O.2   1 <1>  -0.5700 
 14 N        7.1130    -2.3640    -0.2800 N.am  1 <1>  -0.7300 
 15 C        8.4170    -2.7350    -0.8800 C.3   1 <1>   0.0600 
 16 H       -0.5710    -1.9380    -2.2330 H     1 <1>   0.1500 
 17 H        2.7410    -1.9230     2.1380 H     1 <1>   0.0800 
 18 H        2.6120    -0.5750     1.0220 H     1 <1>   0.0800 
 19 H       -1.3450    -4.1620    -1.4710 H     1 <1>   0.1500 
 20 H       -0.2570    -5.2180     0.4840 H     1 <1>   0.1500 
 21 H        5.4200    -1.5420     2.2910 H     1 <1>   0.0800 
 22 H        5.2900    -0.1910     1.1720 H     1 <1>   0.0800 
 23 H        6.2730    -2.7870    -0.6940 H     1 <1>   0.3700 
 24 H        9.2200    -2.2330    -0.3660 H     1 <1>   0.0800 
 25 H        8.4340    -2.4500    -1.9170 H     1 <1>   0.0800 
 26 H        8.5640    -3.7980    -0.8000 H     1 <1>   0.0800 
@<TRIPOS>BOND
  1   1   2  1   
  2   2   3  ar  
  3   2   4  ar  
  4   3   5  ar  
  5   3   6  1   
  6   4   7  ar  
  7   4  16  1   
  8   5   8  1   
  9   5   9  ar  
 10   6  10  1   
 11   6  17  1   
 12   6  18  1   
 13   7   9  ar  
 14   7  19  1   
 15   9  20  1   
 16  10  11  1   
 17  11  12  1   
 18  11  21  1   
 19  11  22  1   
 20  12  13  2   
 21  12  14  am  
 22  14  15  1   
 23  14  23  1   
 24  15  24  1   
 25  15  25  1   
 26  15  26  1   
@<TRIPOS>SUBSTRUCTURE
  1 ****  10 GROUP 4 **** **** 0

# MOE 2024.06 (io_trps.svl 2023.06)
