@<TRIPOS>MOLECULE
NONAME
49 50 1 0 0 
SMALL
USER_CHARGES


@<TRIPOS>ATOM
  1 O       -9.0650    -1.5740    -1.5110 O.2   1 <1>  -0.5700 
  2 C       -8.4600    -1.2670    -0.5040 C.2   1 <1>   0.6340 
  3 O       -9.0960    -0.5540     0.4340 O.3   1 <1>  -0.4300 
  4 C       -7.0780    -1.6350    -0.2630 C.ar  1 <1>   0.0860 
  5 C      -10.4430    -0.1530     0.2790 C.3   1 <1>   0.0400 
  6 C       -6.4010    -1.2680     0.9040 C.ar  1 <1>  -0.1500 
  7 C       -6.3580    -2.3810    -1.2020 C.ar  1 <1>  -0.1500 
  8 C       -5.0830    -1.6260     1.1190 C.ar  1 <1>  -0.1500 
  9 C       -5.0400    -2.7430    -0.9960 C.ar  1 <1>  -0.1500 
 10 C       -4.3900    -2.3650     0.1750 C.ar  1 <1>   0.0830 
 11 O       -3.1060    -2.6740     0.4590 O.3   1 <1>  -0.3620 
 12 C       -2.3100    -3.4450    -0.4170 C.3   1 <1>   0.1200 
 13 C       -0.9140    -3.5920     0.2010 C.3   1 <1>   0.2000 
 14 O       -0.4310    -2.3260     0.5350 O.3   1 <1>  -0.6800 
 15 C        0.0930    -4.2780    -0.7480 C.3   1 <1>   0.3430 
 16 N        1.4940    -3.9270    -0.3650 N.4   1 <1>  -0.9590 
 17 C        2.4870    -3.9680    -1.4810 C.3   1 <1>   0.3430 
 18 C        2.0100    -4.6450     0.8520 C.3   1 <1>   0.3430 
 19 C        3.8390    -3.3400    -1.0480 C.3   1 <1>   0.2000 
 20 C        3.5420    -4.4820     1.0510 C.3   1 <1>   0.2000 
 21 O        4.0180    -3.3680     0.3450 O.3   1 <1>  -0.5600 
 22 C        3.9280    -1.8690    -1.4510 C.3   1 <1>  -0.2400 
 23 C        4.3510    -5.7240     0.6560 C.3   1 <1>  -0.2400 
 24 H      -10.7360     0.4040     1.1510 H     1 <1>   0.0800 
 25 H      -11.0570    -1.0310     0.1750 H     1 <1>   0.0800 
 26 H      -10.5240     0.4620    -0.6000 H     1 <1>   0.0800 
 27 H       -6.9150    -0.6940     1.6550 H     1 <1>   0.1500 
 28 H       -6.8510    -2.6790    -2.1130 H     1 <1>   0.1500 
 29 H       -4.5860    -1.3320     2.0260 H     1 <1>   0.1500 
 30 H       -4.5440    -3.3160    -1.7560 H     1 <1>   0.1500 
 31 H       -2.2560    -2.9350    -1.3640 H     1 <1>   0.0800 
 32 H       -2.7780    -4.4060    -0.5430 H     1 <1>   0.0800 
 33 H       -0.9960    -4.1610     1.1120 H     1 <1>   0.0800 
 34 H       -1.1650    -1.8090     0.9440 H     1 <1>   0.4000 
 35 H       -0.0980    -3.9220    -1.7460 H     1 <1>   0.0800 
 36 H       -0.0510    -5.3450    -0.7420 H     1 <1>   0.0800 
 37 H        1.4330    -2.9310    -0.0690 H     1 <1>   0.4500 
 38 H        2.1120    -3.4380    -2.3410 H     1 <1>   0.0800 
 39 H        2.6580    -4.9900    -1.7760 H     1 <1>   0.0800 
 40 H        1.7850    -5.6960     0.7870 H     1 <1>   0.0800 
 41 H        1.5100    -4.2620     1.7260 H     1 <1>   0.0800 
 42 H        4.6540    -3.8790    -1.5030 H     1 <1>   0.0800 
 43 H        3.7280    -4.2850     2.0940 H     1 <1>   0.0800 
 44 H        3.1430    -1.2980    -0.9870 H     1 <1>   0.0800 
 45 H        3.8480    -1.7650    -2.5180 H     1 <1>   0.0800 
 46 H        4.8790    -1.4670    -1.1470 H     1 <1>   0.0800 
 47 H        4.1630    -6.0270    -0.3570 H     1 <1>   0.0800 
 48 H        4.0940    -6.5450     1.3020 H     1 <1>   0.0800 
 49 H        5.4020    -5.5260     0.7790 H     1 <1>   0.0800 
@<TRIPOS>BOND
  1   1   2  2   
  2   2   3  1   
  3   2   4  1   
  4   3   5  1   
  5   4   6  ar  
  6   4   7  ar  
  7   5  24  1   
  8   5  25  1   
  9   5  26  1   
 10   6   8  ar  
 11   6  27  1   
 12   7   9  ar  
 13   7  28  1   
 14   8  10  ar  
 15   8  29  1   
 16   9  10  ar  
 17   9  30  1   
 18  10  11  1   
 19  11  12  1   
 20  12  13  1   
 21  12  31  1   
 22  12  32  1   
 23  13  14  1   
 24  13  15  1   
 25  13  33  1   
 26  14  34  1   
 27  15  16  1   
 28  15  35  1   
 29  15  36  1   
 30  16  17  1   
 31  16  18  1   
 32  16  37  1   
 33  17  19  1   
 34  17  38  1   
 35  17  39  1   
 36  18  20  1   
 37  18  40  1   
 38  18  41  1   
 39  19  21  1   
 40  19  22  1   
 41  19  42  1   
 42  20  21  1   
 43  20  23  1   
 44  20  43  1   
 45  22  44  1   
 46  22  45  1   
 47  22  46  1   
 48  23  47  1   
 49  23  48  1   
 50  23  49  1   
@<TRIPOS>SUBSTRUCTURE
  1 ****  12 GROUP 4 **** **** 0

# MOE 2024.06 (io_trps.svl 2023.06)
