@<TRIPOS>MOLECULE
NONAME
32 35 1 0 0 
SMALL
USER_CHARGES


@<TRIPOS>ATOM
  1 BR      -0.2320     0.4190    -0.0700 Br    1 <1>  -0.1110 
  2 C       -1.0740    -1.3140    -0.1560 C.ar  1 <1>   0.1110 
  3 C       -0.2930    -2.4590    -0.2070 C.ar  1 <1>  -0.1440 
  4 C       -2.4540    -1.3510    -0.1630 C.ar  1 <1>  -0.1500 
  5 C       -0.9480    -3.6790    -0.2660 C.ar  1 <1>  -0.1500 
  6 C        1.2260    -2.3950    -0.1980 C.3   1 <1>  -0.0960 
  7 C       -3.1080    -2.5770    -0.2230 C.ar  1 <1>   0.1170 
  8 C       -2.3320    -3.7340    -0.2740 C.ar  1 <1>  -0.1500 
  9 N       -4.5210    -2.6470    -0.2310 N.am  1 <1>  -0.2370 
 10 C       -5.3760    -1.7420    -0.8440 C.2   1 <1>   0.5690 
 11 C       -5.2930    -3.6290     0.3760 C.2   1 <1>   0.5690 
 12 O       -5.1130    -0.8790    -1.6400 O.2   1 <1>  -0.5700 
 13 C       -6.7450    -1.9980    -0.2970 C.3   1 <1>  -0.0190 
 14 O       -4.9540    -4.4630     1.1740 O.2   1 <1>  -0.5700 
 15 C       -6.6780    -3.5160    -0.1860 C.3   1 <1>  -0.0190 
 16 C       -8.2340    -1.7940    -0.5490 C.3   1 <1>   0.3380 
 17 C       -8.1430    -3.8280     0.1810 C.3   1 <1>   0.3380 
 18 O       -8.6360    -2.5730     0.5400 O.3   1 <1>  -0.5600 
 19 C       -8.8410    -2.6610    -1.6370 C.2   1 <1>  -0.2880 
 20 C       -8.8420    -3.9050    -1.1630 C.2   1 <1>  -0.2880 
 21 H       -3.0050    -0.4300    -0.1260 H     1 <1>   0.1500 
 22 H       -0.3840    -4.5950    -0.3050 H     1 <1>   0.1500 
 23 H        1.5760    -1.8320    -1.0450 H     1 <1>   0.0800 
 24 H        1.6540    -3.3800    -0.2430 H     1 <1>   0.0800 
 25 H        1.5690    -1.9160     0.7030 H     1 <1>   0.0800 
 26 H       -2.8110    -4.6970    -0.3170 H     1 <1>   0.1500 
 27 H       -6.6360    -1.5600     0.6860 H     1 <1>   0.0800 
 28 H       -6.5360    -3.9560    -1.1610 H     1 <1>   0.0800 
 29 H       -8.6190    -0.7930    -0.4520 H     1 <1>   0.0800 
 30 H       -8.3640    -4.5840     0.9150 H     1 <1>   0.0800 
 31 H       -9.1840    -2.2350    -2.5640 H     1 <1>   0.1500 
 32 H       -9.1880    -4.8410    -1.5650 H     1 <1>   0.1500 
@<TRIPOS>BOND
  1   1   2  1   
  2   2   3  ar  
  3   2   4  ar  
  4   3   5  ar  
  5   3   6  1   
  6   4   7  ar  
  7   4  21  1   
  8   5   8  ar  
  9   5  22  1   
 10   6  23  1   
 11   6  24  1   
 12   6  25  1   
 13   7   8  ar  
 14   7   9  1   
 15   8  26  1   
 16   9  10  am  
 17   9  11  am  
 18  10  12  2   
 19  10  13  1   
 20  11  14  2   
 21  11  15  1   
 22  13  15  1   
 23  13  16  1   
 24  13  27  1   
 25  15  17  1   
 26  15  28  1   
 27  16  18  1   
 28  16  19  1   
 29  16  29  1   
 30  17  18  1   
 31  17  20  1   
 32  17  30  1   
 33  19  20  2   
 34  19  31  1   
 35  20  32  1   
@<TRIPOS>SUBSTRUCTURE
  1 ****   9 GROUP 4 **** **** 0

# MOE 2024.06 (io_trps.svl 2023.06)
