@<TRIPOS>MOLECULE
NONAME
31 30 1 0 0 
SMALL
USER_CHARGES


@<TRIPOS>ATOM
  1 S       -1.4620     3.0240    -1.3350 S.2   1 <1>  -1.1770 
  2 P       -2.9580     2.5900    -0.1250 P.3   1 <1>   1.4200 
  3 O       -2.8070     2.6060     1.3600 O.3   1 <1>  -0.7000 
  4 O       -4.1710     3.5950    -0.5240 O.3   1 <1>  -0.5510 
  5 O       -3.5870     1.1640    -0.5860 O.3   1 <1>  -0.5510 
  6 C       -3.9250     4.9520    -0.5820 C.3   1 <1>   0.1200 
  7 C       -4.6660     0.6390     0.0910 C.3   1 <1>   0.1200 
  8 C       -5.2430     5.6910    -0.8290 C.3   1 <1>  -0.1600 
  9 C       -5.0470    -0.6840    -0.5720 C.3   1 <1>  -0.1600 
 10 C       -6.2650     5.4640     0.2950 C.3   1 <1>  -0.1600 
 11 C       -6.2490    -1.3300     0.1280 C.3   1 <1>  -0.1600 
 12 C       -7.5500     6.2590     0.0460 C.3   1 <1>  -0.2400 
 13 C       -6.6290    -2.6550    -0.5380 C.3   1 <1>  -0.2400 
 14 H       -3.2290     5.1330    -1.3840 H     1 <1>   0.0800 
 15 H       -3.4790     5.2560     0.3500 H     1 <1>   0.0800 
 16 H       -5.4760     1.3470     0.0360 H     1 <1>   0.0800 
 17 H       -4.3800     0.4910     1.1190 H     1 <1>   0.0800 
 18 H       -5.6480     5.3650    -1.7710 H     1 <1>   0.0800 
 19 H       -5.0290     6.7420    -0.9090 H     1 <1>   0.0800 
 20 H       -4.2020    -1.3480    -0.5280 H     1 <1>   0.0800 
 21 H       -5.2860    -0.4970    -1.6040 H     1 <1>   0.0800 
 22 H       -5.8350     5.7610     1.2370 H     1 <1>   0.0800 
 23 H       -6.5010     4.4150     0.3570 H     1 <1>   0.0800 
 24 H       -7.0910    -0.6590     0.0900 H     1 <1>   0.0800 
 25 H       -6.0100    -1.5080     1.1630 H     1 <1>   0.0800 
 26 H       -7.3380     7.3120     0.0040 H     1 <1>   0.0800 
 27 H       -8.2510     6.0800     0.8420 H     1 <1>   0.0800 
 28 H       -8.0010     5.9560    -0.8820 H     1 <1>   0.0800 
 29 H       -6.8900    -2.4940    -1.5700 H     1 <1>   0.0800 
 30 H       -7.4720    -3.0930    -0.0350 H     1 <1>   0.0800 
 31 H       -5.8050    -3.3460    -0.4940 H     1 <1>   0.0800 
@<TRIPOS>BOND
  1   1   2  2   
  2   2   3  1   
  3   2   4  1   
  4   2   5  1   
  5   4   6  1   
  6   5   7  1   
  7   6   8  1   
  8   6  14  1   
  9   6  15  1   
 10   7   9  1   
 11   7  16  1   
 12   7  17  1   
 13   8  10  1   
 14   8  18  1   
 15   8  19  1   
 16   9  11  1   
 17   9  20  1   
 18   9  21  1   
 19  10  12  1   
 20  10  22  1   
 21  10  23  1   
 22  11  13  1   
 23  11  24  1   
 24  11  25  1   
 25  12  26  1   
 26  12  27  1   
 27  12  28  1   
 28  13  29  1   
 29  13  30  1   
 30  13  31  1   
@<TRIPOS>SUBSTRUCTURE
  1 ****   4 GROUP 4 **** **** 0

# MOE 2024.06 (io_trps.svl 2023.06)
