@<TRIPOS>MOLECULE
NONAME
31 31 1 0 0 
SMALL
USER_CHARGES


@<TRIPOS>ATOM
  1 CL       3.2970     1.2340     1.8970 Cl    1 <1>  -0.1770 
  2 C        1.9880     2.0890     1.1040 C.ar  1 <1>   0.1770 
  3 C        2.2280     2.8100    -0.0660 C.ar  1 <1>   0.0820 
  4 C        0.7260     2.0270     1.6600 C.ar  1 <1>  -0.1500 
  5 O        3.4730     2.8580    -0.6010 O.3   1 <1>  -0.3630 
  6 C        1.1780     3.4660    -0.7040 C.ar  1 <1>  -0.1440 
  7 C       -0.3030     2.6930     1.0230 C.ar  1 <1>   0.1770 
  8 C        4.4050     3.7220     0.0240 C.3   1 <1>   0.1200 
  9 C       -0.0910     3.4050    -0.1450 C.ar  1 <1>  -0.1500 
 10 C        1.3980     4.2420    -1.9960 C.3   1 <1>  -0.0960 
 11 CL      -1.9070     2.6330     1.7070 Cl    1 <1>  -0.1770 
 12 C        5.8140     3.1490    -0.1810 C.3   1 <1>   0.3430 
 13 N        5.7990     1.6700     0.0140 N.4   1 <1>  -0.9060 
 14 C        7.0710     0.9970    -0.3120 C.3   1 <1>   0.3430 
 15 C        6.8810    -0.4950    -0.0880 C.3   1 <1>  -0.2400 
 16 H        0.5420     1.4740     2.5630 H     1 <1>   0.1500 
 17 H        4.1800     3.7920     1.0740 H     1 <1>   0.0800 
 18 H        4.3150     4.6990    -0.4180 H     1 <1>   0.0800 
 19 H       -0.9250     3.9040    -0.6070 H     1 <1>   0.1500 
 20 H        1.9910     5.1170    -1.8050 H     1 <1>   0.0800 
 21 H        0.4600     4.5520    -2.4230 H     1 <1>   0.0800 
 22 H        1.9060     3.6260    -2.7160 H     1 <1>   0.0800 
 23 H        6.5010     3.6160     0.5060 H     1 <1>   0.0800 
 24 H        6.1350     3.3790    -1.1840 H     1 <1>   0.0800 
 25 H        5.0380     1.3000    -0.5760 H     1 <1>   0.4500 
 26 H        5.5100     1.4430     0.9750 H     1 <1>   0.4500 
 27 H        7.8620     1.3650     0.3220 H     1 <1>   0.0800 
 28 H        7.3380     1.1810    -1.3410 H     1 <1>   0.0800 
 29 H        6.6360    -0.7030     0.9390 H     1 <1>   0.0800 
 30 H        7.7970    -1.0090    -0.3200 H     1 <1>   0.0800 
 31 H        6.1110    -0.8860    -0.7300 H     1 <1>   0.0800 
@<TRIPOS>BOND
  1   1   2  1   
  2   2   3  ar  
  3   2   4  ar  
  4   3   5  1   
  5   3   6  ar  
  6   4   7  ar  
  7   4  16  1   
  8   5   8  1   
  9   6   9  ar  
 10   6  10  1   
 11   7   9  ar  
 12   7  11  1   
 13   8  12  1   
 14   8  17  1   
 15   8  18  1   
 16   9  19  1   
 17  10  20  1   
 18  10  21  1   
 19  10  22  1   
 20  12  13  1   
 21  12  23  1   
 22  12  24  1   
 23  13  14  1   
 24  13  25  1   
 25  13  26  1   
 26  14  15  1   
 27  14  27  1   
 28  14  28  1   
 29  15  29  1   
 30  15  30  1   
 31  15  31  1   
@<TRIPOS>SUBSTRUCTURE
  1 ****   3 GROUP 4 **** **** 0

# MOE 2024.06 (io_trps.svl 2023.06)
