@<TRIPOS>MOLECULE
NONAME
35 35 1 0 0 
SMALL
USER_CHARGES


@<TRIPOS>ATOM
  1 F       -0.0860     0.3420     0.0220 F     1 <1>  -0.3400 
  2 C       -0.7070     1.2000     0.8190 C.3   1 <1>   1.0200 
  3 F       -1.9060     0.6740     1.0290 F     1 <1>  -0.3400 
  4 F       -0.0650     1.0980     1.9770 F     1 <1>  -0.3400 
  5 C       -0.7600     2.6070     0.2290 C.3   1 <1>   0.0610 
  6 C        0.6470     3.0460    -0.1570 C.2   1 <1>   0.5690 
  7 C       -1.1880     3.5620     1.3370 C.3   1 <1>   1.0200 
  8 C       -1.7790     2.6970    -0.9760 C.3   1 <1>  -0.1600 
  9 O        0.7550     3.7620    -1.1210 O.2   1 <1>  -0.5700 
 10 N        1.7570     2.6670     0.5640 N.am  1 <1>  -0.5470 
 11 F       -1.3570     4.8020     0.8990 F     1 <1>  -0.3400 
 12 F       -0.3300     3.6670     2.3460 F     1 <1>  -0.3400 
 13 F       -2.3480     3.2300     1.8870 F     1 <1>  -0.3400 
 14 C       -1.5040     1.7700    -2.1740 C.3   1 <1>  -0.2400 
 15 C        3.1140     2.9690     0.3590 C.ar  1 <1>   0.1170 
 16 C        3.5480     4.1630    -0.2090 C.ar  1 <1>  -0.1500 
 17 C        4.0670     2.0430     0.7640 C.ar  1 <1>  -0.1500 
 18 C        4.8960     4.4240    -0.3750 C.ar  1 <1>  -0.1500 
 19 C        5.4160     2.2990     0.6020 C.ar  1 <1>  -0.1500 
 20 C        5.8420     3.4870     0.0320 C.ar  1 <1>   0.0820 
 21 O        7.1840     3.6590    -0.0920 O.3   1 <1>  -0.3630 
 22 C        7.7110     4.8230    -0.6880 C.3   1 <1>   0.0400 
 23 H       -1.7920     3.7070    -1.3540 H     1 <1>   0.0800 
 24 H       -2.7780     2.4940    -0.6260 H     1 <1>   0.0800 
 25 H        1.6140     2.0510     1.3690 H     1 <1>   0.3700 
 26 H       -0.4990     1.8930    -2.5410 H     1 <1>   0.0800 
 27 H       -2.1780     2.0130    -2.9780 H     1 <1>   0.0800 
 28 H       -1.6610     0.7360    -1.9210 H     1 <1>   0.0800 
 29 H        2.8320     4.9010    -0.5220 H     1 <1>   0.1500 
 30 H        3.7590     1.1130     1.2060 H     1 <1>   0.1500 
 31 H        5.1870     5.3560    -0.8200 H     1 <1>   0.1500 
 32 H        6.1510     1.5790     0.9150 H     1 <1>   0.1500 
 33 H        8.7830     4.7400    -0.6920 H     1 <1>   0.0800 
 34 H        7.4140     5.6780    -0.1080 H     1 <1>   0.0800 
 35 H        7.3460     4.8950    -1.6970 H     1 <1>   0.0800 
@<TRIPOS>BOND
  1   1   2  1   
  2   2   3  1   
  3   2   4  1   
  4   2   5  1   
  5   5   6  1   
  6   5   7  1   
  7   5   8  1   
  8   6   9  2   
  9   6  10  am  
 10   7  11  1   
 11   7  12  1   
 12   7  13  1   
 13   8  14  1   
 14   8  23  1   
 15   8  24  1   
 16  10  15  1   
 17  10  25  1   
 18  14  26  1   
 19  14  27  1   
 20  14  28  1   
 21  15  16  ar  
 22  15  17  ar  
 23  16  18  ar  
 24  16  29  1   
 25  17  19  ar  
 26  17  30  1   
 27  18  20  ar  
 28  18  31  1   
 29  19  20  ar  
 30  19  32  1   
 31  20  21  1   
 32  21  22  1   
 33  22  33  1   
 34  22  34  1   
 35  22  35  1   
@<TRIPOS>SUBSTRUCTURE
  1 ****  10 GROUP 4 **** **** 0

# MOE 2024.06 (io_trps.svl 2023.06)
