@<TRIPOS>MOLECULE
NONAME
45 47 1 0 0 
SMALL
USER_CHARGES


@<TRIPOS>ATOM
  1 S        0.5500     0.5900     1.1100 S.3   1 <1>  -0.3320 
  2 C       -1.0760     1.3060     0.8310 C.ar  1 <1>   0.4120 
  3 C        1.7170     1.5030    -0.0160 C.3   1 <1>   0.1310 
  4 N       -1.9830     0.3900     0.5590 N.ar  1 <1>  -0.6200 
  5 C       -1.2980     2.6730     0.9180 C.ar  1 <1>   0.0730 
  6 C        2.7280     0.5480    -0.6210 C.2   1 <1>   0.6590 
  7 C       -3.2020     0.8410     0.3260 C.ar  1 <1>   0.1660 
  8 C       -0.2460     3.5690     1.2860 C.1   1 <1>   0.4840 
  9 C       -2.5860     3.1410     0.6670 C.ar  1 <1>   0.0530 
 10 O        2.7480     0.3190    -1.8040 O.2   1 <1>  -0.5700 
 11 O        3.5990     0.0020     0.2190 O.3   1 <1>  -0.4300 
 12 C       -3.5530     2.1850     0.3530 C.ar  1 <1>  -0.1440 
 13 C       -4.2140    -0.2500    -0.0020 C.3   1 <1>  -0.0170 
 14 N        0.6260     4.2510     1.5610 N.1   1 <1>  -0.5570 
 15 C       -2.8890     4.5480     0.7320 C.2   1 <1>   0.0870 
 16 C        4.5760    -0.9100    -0.2250 C.3   1 <1>   0.1200 
 17 C       -4.9840     2.6370     0.0460 C.3   1 <1>  -0.0160 
 18 C       -5.6710     0.2220     0.0630 C.3   1 <1>  -0.1600 
 19 O       -2.3260     5.3760    -0.1340 O.3   1 <1>  -0.2800 
 20 C       -3.6920     5.2610     1.5650 C.2   1 <1>  -0.1500 
 21 C        5.3980    -1.3460     0.9840 C.3   1 <1>  -0.2400 
 22 C       -5.8210     1.5630    -0.6550 C.3   1 <1>  -0.1600 
 23 C       -2.7390     6.5970     0.1220 C.2   1 <1>  -0.0400 
 24 C       -3.5930     6.5950     1.1670 C.2   1 <1>  -0.1500 
 25 C       -2.2230     7.7330    -0.7330 C.3   1 <1>  -0.0600 
 26 H        2.2190     2.2500     0.5710 H     1 <1>   0.0800 
 27 H        1.1330     1.9600    -0.7920 H     1 <1>   0.0800 
 28 H       -4.0800    -1.0740     0.6770 H     1 <1>   0.0800 
 29 H       -4.0010    -0.6090    -0.9930 H     1 <1>   0.0800 
 30 H        5.1930    -0.4210    -0.9590 H     1 <1>   0.0800 
 31 H        4.0750    -1.7510    -0.6750 H     1 <1>   0.0800 
 32 H       -4.9700     3.5130    -0.5800 H     1 <1>   0.0800 
 33 H       -5.4640     2.9020     0.9720 H     1 <1>   0.0800 
 34 H       -5.9670     0.3290     1.0930 H     1 <1>   0.0800 
 35 H       -6.3090    -0.5160    -0.3920 H     1 <1>   0.0800 
 36 H       -4.2900     4.8970     2.3810 H     1 <1>   0.1500 
 37 H        5.8820    -0.4950     1.4290 H     1 <1>   0.0800 
 38 H        6.1520    -2.0470     0.6760 H     1 <1>   0.0800 
 39 H        4.7640    -1.8210     1.7110 H     1 <1>   0.0800 
 40 H       -5.4950     1.4620    -1.6760 H     1 <1>   0.0800 
 41 H       -6.8550     1.8610    -0.6650 H     1 <1>   0.0800 
 42 H       -4.1010     7.4270     1.6210 H     1 <1>   0.1500 
 43 H       -1.1510     7.7830    -0.6590 H     1 <1>   0.0800 
 44 H       -2.6400     8.6670    -0.4030 H     1 <1>   0.0800 
 45 H       -2.4950     7.5690    -1.7590 H     1 <1>   0.0800 
@<TRIPOS>BOND
  1   1   2  1   
  2   1   3  1   
  3   2   4  ar  
  4   2   5  ar  
  5   3   6  1   
  6   3  26  1   
  7   3  27  1   
  8   4   7  ar  
  9   5   8  1   
 10   5   9  ar  
 11   6  10  2   
 12   6  11  1   
 13   7  12  ar  
 14   7  13  1   
 15   8  14  3   
 16   9  12  ar  
 17   9  15  1   
 18  11  16  1   
 19  12  17  1   
 20  13  18  1   
 21  13  28  1   
 22  13  29  1   
 23  15  19  1   
 24  15  20  2   
 25  16  21  1   
 26  16  30  1   
 27  16  31  1   
 28  17  22  1   
 29  17  32  1   
 30  17  33  1   
 31  18  22  1   
 32  18  34  1   
 33  18  35  1   
 34  19  23  1   
 35  20  24  1   
 36  20  36  1   
 37  21  37  1   
 38  21  38  1   
 39  21  39  1   
 40  22  40  1   
 41  22  41  1   
 42  23  24  2   
 43  23  25  1   
 44  24  42  1   
 45  25  43  1   
 46  25  44  1   
 47  25  45  1   
@<TRIPOS>SUBSTRUCTURE
  1 ****   5 GROUP 4 **** **** 0

# MOE 2024.06 (io_trps.svl 2023.06)
