@<TRIPOS>MOLECULE
NONAME
33 34 1 0 0 
SMALL
USER_CHARGES


@<TRIPOS>ATOM
  1 N       -1.0660     1.0980     0.2060 N.4   1 <1>  -0.9590 
  2 C       -1.6940     1.6810    -1.0190 C.3   1 <1>   0.3430 
  3 C        0.2600     1.7100     0.5040 C.3   1 <1>   0.3430 
  4 C       -0.9780    -0.3810     0.1290 C.3   1 <1>   0.5430 
  5 C       -1.8930     3.1850    -0.8290 C.3   1 <1>  -0.1600 
  6 C        0.0940     3.2160     0.7220 C.3   1 <1>  -0.1600 
  7 C       -2.3590    -0.9220     0.1980 C.1   1 <1>  -0.2000 
  8 C       -0.5790     3.8950    -0.4770 C.3   1 <1>  -0.1600 
  9 C       -3.4750    -1.3330     0.2470 C.1   1 <1>  -0.0730 
 10 C       -4.8220    -1.8140     0.3000 C.ar  1 <1>   0.0730 
 11 C       -5.4370    -2.3260    -0.8360 C.ar  1 <1>  -0.1500 
 12 C       -5.5430    -1.7760     1.4860 C.ar  1 <1>  -0.1500 
 13 C       -6.7420    -2.7850    -0.7900 C.ar  1 <1>  -0.1500 
 14 C       -6.8480    -2.2340     1.5380 C.ar  1 <1>  -0.1500 
 15 C       -7.4490    -2.7390     0.3980 C.ar  1 <1>  -0.1500 
 16 H       -1.6980     1.3060     0.9900 H     1 <1>   0.4500 
 17 H       -2.6500     1.2160    -1.2050 H     1 <1>   0.0800 
 18 H       -1.0610     1.5070    -1.8740 H     1 <1>   0.0800 
 19 H        0.9340     1.5410    -0.3200 H     1 <1>   0.0800 
 20 H        0.6850     1.2660     1.3900 H     1 <1>   0.0800 
 21 H       -0.4070    -0.7650     0.9590 H     1 <1>   0.0800 
 22 H       -0.5030    -0.6850    -0.7900 H     1 <1>   0.0800 
 23 H       -2.6210     3.3530    -0.0530 H     1 <1>   0.0800 
 24 H       -2.2920     3.6040    -1.7370 H     1 <1>   0.0800 
 25 H        1.0630     3.6570     0.8820 H     1 <1>   0.0800 
 26 H       -0.4860     3.3860     1.6130 H     1 <1>   0.0800 
 27 H       -0.7720     4.9310    -0.2510 H     1 <1>   0.0800 
 28 H        0.0840     3.8650    -1.3270 H     1 <1>   0.0800 
 29 H       -4.8940    -2.3680    -1.7630 H     1 <1>   0.1500 
 30 H       -5.0840    -1.3870     2.3770 H     1 <1>   0.1500 
 31 H       -7.2070    -3.1800    -1.6770 H     1 <1>   0.1500 
 32 H       -7.3970    -2.2000     2.4630 H     1 <1>   0.1500 
 33 H       -8.4640    -3.0960     0.4360 H     1 <1>   0.1500 
@<TRIPOS>BOND
  1   1   2  1   
  2   1   3  1   
  3   1   4  1   
  4   1  16  1   
  5   2   5  1   
  6   2  17  1   
  7   2  18  1   
  8   3   6  1   
  9   3  19  1   
 10   3  20  1   
 11   4   7  1   
 12   4  21  1   
 13   4  22  1   
 14   5   8  1   
 15   5  23  1   
 16   5  24  1   
 17   6   8  1   
 18   6  25  1   
 19   6  26  1   
 20   7   9  3   
 21   8  27  1   
 22   8  28  1   
 23   9  10  1   
 24  10  11  ar  
 25  10  12  ar  
 26  11  13  ar  
 27  11  29  1   
 28  12  14  ar  
 29  12  30  1   
 30  13  15  ar  
 31  13  31  1   
 32  14  15  ar  
 33  14  32  1   
 34  15  33  1   
@<TRIPOS>SUBSTRUCTURE
  1 ****   7 GROUP 4 **** **** 0

# MOE 2024.06 (io_trps.svl 2023.06)
