@<TRIPOS>MOLECULE
NONAME
41 42 1 0 0 
SMALL
USER_CHARGES


@<TRIPOS>ATOM
  1 CL       1.5240    -1.4890     2.3540 Cl    1 <1>  -0.1770 
  2 C        1.8130     0.0390     1.5580 C.ar  1 <1>   0.1770 
  3 C        2.2950     0.1090     0.2540 C.ar  1 <1>  -0.1440 
  4 C        1.5350     1.1820     2.2870 C.ar  1 <1>  -0.1500 
  5 C        2.4890     1.3700    -0.3010 C.ar  1 <1>  -0.1500 
  6 C        2.6210    -1.1230    -0.5930 C.3   1 <1>   0.5020 
  7 C        1.7360     2.4260     1.7190 C.ar  1 <1>  -0.1500 
  8 C        2.2130     2.5170     0.4240 C.ar  1 <1>  -0.1500 
  9 N        1.3450    -1.7500    -0.9810 N.am  1 <1>  -0.7300 
 10 C        3.6100    -2.1010     0.0600 C.2   1 <1>  -0.1240 
 11 C        1.0350    -3.0290    -0.7260 C.2   1 <1>   0.6900 
 12 C        3.2190    -3.3930     0.2620 C.2   1 <1>  -0.0290 
 13 C        4.8790    -1.5040     0.3620 C.2   1 <1>   0.7060 
 14 O       -0.0560    -3.4690    -1.0070 O.2   1 <1>  -0.5700 
 15 N        1.9680    -3.8190    -0.1440 N.am  1 <1>  -0.5390 
 16 C        4.0500    -4.4980     0.9070 C.3   1 <1>  -0.0220 
 17 O        5.7170    -1.9970     1.0910 O.2   1 <1>  -0.5700 
 18 O        5.1770    -0.3330    -0.2150 O.3   1 <1>  -0.4300 
 19 C        4.8520    -5.2620    -0.1530 C.3   1 <1>  -0.1600 
 20 C        6.3850     0.3440     0.0560 C.3   1 <1>   0.1200 
 21 C        5.6760    -6.3920     0.4710 C.3   1 <1>  -0.2400 
 22 C        6.3580     1.6710    -0.6950 C.3   1 <1>  -0.2400 
 23 H        1.1640     1.0920     3.2920 H     1 <1>   0.1500 
 24 H        2.8630     1.4710    -1.3060 H     1 <1>   0.1500 
 25 H        3.0770    -0.7880    -1.5090 H     1 <1>   0.0800 
 26 H        1.5220     3.3190     2.2820 H     1 <1>   0.1500 
 27 H        2.3700     3.4850    -0.0220 H     1 <1>   0.1500 
 28 H        0.5850    -1.1350    -1.2600 H     1 <1>   0.3700 
 29 H        1.6510    -4.7740     0.0180 H     1 <1>   0.3700 
 30 H        3.3990    -5.1780     1.4280 H     1 <1>   0.0800 
 31 H        4.7160    -4.0980     1.6480 H     1 <1>   0.0800 
 32 H        5.5150    -4.5770    -0.6540 H     1 <1>   0.0800 
 33 H        4.1800    -5.6710    -0.8880 H     1 <1>   0.0800 
 34 H        7.2040    -0.2740    -0.2720 H     1 <1>   0.0800 
 35 H        6.4560     0.5050     1.1190 H     1 <1>   0.0800 
 36 H        6.3710    -5.9960     1.1910 H     1 <1>   0.0800 
 37 H        6.2320    -6.9070    -0.2920 H     1 <1>   0.0800 
 38 H        5.0330    -7.1010     0.9640 H     1 <1>   0.0800 
 39 H        6.2720     1.4980    -1.7530 H     1 <1>   0.0800 
 40 H        7.2700     2.2090    -0.5100 H     1 <1>   0.0800 
 41 H        5.5330     2.2720    -0.3560 H     1 <1>   0.0800 
@<TRIPOS>BOND
  1   1   2  1   
  2   2   3  ar  
  3   2   4  ar  
  4   3   5  ar  
  5   3   6  1   
  6   4   7  ar  
  7   4  23  1   
  8   5   8  ar  
  9   5  24  1   
 10   6   9  1   
 11   6  10  1   
 12   6  25  1   
 13   7   8  ar  
 14   7  26  1   
 15   8  27  1   
 16   9  11  am  
 17   9  28  1   
 18  10  12  2   
 19  10  13  1   
 20  11  14  2   
 21  11  15  am  
 22  12  15  1   
 23  12  16  1   
 24  13  17  2   
 25  13  18  1   
 26  15  29  1   
 27  16  19  1   
 28  16  30  1   
 29  16  31  1   
 30  18  20  1   
 31  19  21  1   
 32  19  32  1   
 33  19  33  1   
 34  20  22  1   
 35  20  34  1   
 36  20  35  1   
 37  21  36  1   
 38  21  37  1   
 39  21  38  1   
 40  22  39  1   
 41  22  40  1   
 42  22  41  1   
@<TRIPOS>SUBSTRUCTURE
  1 ****  10 GROUP 4 **** **** 0

# MOE 2024.06 (io_trps.svl 2023.06)
