@<TRIPOS>MOLECULE
NONAME
39 39 1 0 0 
SMALL
USER_CHARGES


@<TRIPOS>ATOM
  1 CL       2.4080    -0.8320     0.4590 Cl    1 <1>  -0.1770 
  2 C        1.6830    -2.3950     0.1910 C.ar  1 <1>   0.1770 
  3 C        1.2500    -2.7350    -1.0750 C.ar  1 <1>  -0.1500 
  4 C        1.5520    -3.2760     1.2460 C.ar  1 <1>  -0.1500 
  5 C        0.6800    -3.9810    -1.2820 C.ar  1 <1>  -0.1500 
  6 C        0.9770    -4.5160     1.0250 C.ar  1 <1>  -0.1500 
  7 C        0.5360    -4.8960    -0.2420 C.ar  1 <1>  -0.0090 
  8 S       -0.2300    -6.5150    -0.5640 S.o2  1 <1>   1.4470 
  9 O        0.4930    -7.2040    -1.6160 O.2   1 <1>  -0.6500 
 10 O       -1.6510    -6.3120    -0.7380 O.2   1 <1>  -0.6500 
 11 N       -0.0160    -7.4230     0.8600 N.am  1 <1>  -0.8490 
 12 C        1.2400    -8.2210     0.8860 C.3   1 <1>   0.2570 
 13 C       -1.1670    -8.2750     1.1760 C.3   1 <1>   0.1160 
 14 C        2.5570    -7.4350     0.7770 C.2   1 <1>   0.5690 
 15 O        3.1080    -7.0950     1.7970 O.2   1 <1>  -0.5700 
 16 N        3.0630    -7.1670    -0.4610 N.am  1 <1>  -0.7300 
 17 C        4.3570    -6.5460    -0.8140 C.3   1 <1>   0.2200 
 18 C        5.5410    -7.3350    -0.2320 C.3   1 <1>  -0.1600 
 19 C        4.3670    -5.0880    -0.3630 C.3   1 <1>  -0.2400 
 20 C        5.5920    -8.7940    -0.7110 C.3   1 <1>  -0.2400 
 21 H        1.3580    -2.0340    -1.8830 H     1 <1>   0.1500 
 22 H        1.8960    -2.9950     2.2260 H     1 <1>   0.1500 
 23 H        0.3400    -4.2490    -2.2690 H     1 <1>   0.1500 
 24 H        0.8790    -5.1960     1.8560 H     1 <1>   0.1500 
 25 H        1.2170    -8.9530     0.0970 H     1 <1>   0.0800 
 26 H        1.2850    -8.7590     1.8160 H     1 <1>   0.0800 
 27 H       -2.0490    -7.6700     1.3060 H     1 <1>   0.0800 
 28 H       -0.9950    -8.8110     2.0940 H     1 <1>   0.0800 
 29 H       -1.3440    -8.9790     0.3800 H     1 <1>   0.0800 
 30 H        2.4640    -7.3770    -1.2710 H     1 <1>   0.3700 
 31 H        4.4450    -6.5610    -1.8880 H     1 <1>   0.0800 
 32 H        5.5050    -7.3070     0.8430 H     1 <1>   0.0800 
 33 H        6.4520    -6.8480    -0.5300 H     1 <1>   0.0800 
 34 H        4.2810    -5.0180     0.7060 H     1 <1>   0.0800 
 35 H        3.5560    -4.5550    -0.8220 H     1 <1>   0.0800 
 36 H        5.2880    -4.6190    -0.6590 H     1 <1>   0.0800 
 37 H        4.7280    -9.3350    -0.3680 H     1 <1>   0.0800 
 38 H        6.4690    -9.2760    -0.3190 H     1 <1>   0.0800 
 39 H        5.6260    -8.8380    -1.7850 H     1 <1>   0.0800 
@<TRIPOS>BOND
  1   1   2  1   
  2   2   3  ar  
  3   2   4  ar  
  4   3   5  ar  
  5   3  21  1   
  6   4   6  ar  
  7   4  22  1   
  8   5   7  ar  
  9   5  23  1   
 10   6   7  ar  
 11   6  24  1   
 12   7   8  1   
 13   8   9  2   
 14   8  10  2   
 15   8  11  am  
 16  11  12  1   
 17  11  13  1   
 18  12  14  1   
 19  12  25  1   
 20  12  26  1   
 21  13  27  1   
 22  13  28  1   
 23  13  29  1   
 24  14  15  2   
 25  14  16  am  
 26  16  17  1   
 27  16  30  1   
 28  17  18  1   
 29  17  19  1   
 30  17  31  1   
 31  18  20  1   
 32  18  32  1   
 33  18  33  1   
 34  19  34  1   
 35  19  35  1   
 36  19  36  1   
 37  20  37  1   
 38  20  38  1   
 39  20  39  1   
@<TRIPOS>SUBSTRUCTURE
  1 ****   7 GROUP 4 **** **** 0

# MOE 2024.06 (io_trps.svl 2023.06)
