@<TRIPOS>MOLECULE
NONAME
47 48 1 0 0 
SMALL
USER_CHARGES


@<TRIPOS>ATOM
  1 O        0.8940     3.1830    -1.8450 O.2   1 <1>  -0.5700 
  2 C        0.3230     2.6540    -0.9080 C.2   1 <1>   0.5440 
  3 N        1.0490     1.8040    -0.1250 N.am  1 <1>  -0.7300 
  4 C       -1.0780     2.9460    -0.6340 C.ar  1 <1>   0.0860 
  5 C        2.4530     1.4050    -0.3120 C.3   1 <1>   0.2200 
  6 C       -1.9190     2.1510     0.1710 C.ar  1 <1>   0.0830 
  7 C       -1.6440     4.0920    -1.1990 C.ar  1 <1>  -0.1500 
  8 C        2.4720    -0.0860    -0.6760 C.3   1 <1>  -0.1600 
  9 C        3.2090     1.7670     0.9710 C.3   1 <1>  -0.1600 
 10 O       -1.4140     1.0150     0.7290 O.3   1 <1>  -0.3630 
 11 C       -3.2480     2.5150     0.3890 C.ar  1 <1>  -0.1500 
 12 C       -2.9550     4.4560    -0.9790 C.ar  1 <1>   0.0830 
 13 C        3.8410    -0.5420    -1.2050 C.3   1 <1>  -0.1600 
 14 C        4.6860     1.3400     1.0010 C.3   1 <1>  -0.1600 
 15 C       -2.2150     0.0390     1.3610 C.3   1 <1>   0.0400 
 16 C       -3.7820     3.6620    -0.1830 C.ar  1 <1>   0.0830 
 17 O       -3.4010     5.5890    -1.5780 O.3   1 <1>  -0.3630 
 18 C        4.8380    -0.9880    -0.1240 C.3   1 <1>  -0.1600 
 19 C        4.8550    -0.1760     1.1800 C.3   1 <1>  -0.1600 
 20 O       -5.0780     4.0380    -0.0060 O.3   1 <1>  -0.3620 
 21 C       -3.6600     6.6860    -0.7310 C.3   1 <1>   0.0400 
 22 C       -6.0290     3.2060     0.6180 C.3   1 <1>   0.0400 
 23 H        0.5290     1.2800     0.5840 H     1 <1>   0.3700 
 24 H        2.8710     1.9680    -1.1300 H     1 <1>   0.0800 
 25 H       -1.0410     4.7220    -1.8290 H     1 <1>   0.1500 
 26 H        1.7580    -0.2330    -1.4670 H     1 <1>   0.0800 
 27 H        2.1690    -0.6880     0.1610 H     1 <1>   0.0800 
 28 H        2.7020     1.3430     1.8190 H     1 <1>   0.0800 
 29 H        3.1720     2.8380     1.0740 H     1 <1>   0.0800 
 30 H       -3.8710     1.9080     1.0100 H     1 <1>   0.1500 
 31 H        4.2770     0.2500    -1.7900 H     1 <1>   0.0800 
 32 H        3.6910    -1.3710    -1.8750 H     1 <1>   0.0800 
 33 H        5.1460     1.8250     1.8450 H     1 <1>   0.0800 
 34 H        5.2010     1.6810     0.1190 H     1 <1>   0.0800 
 35 H       -1.5870    -0.7960     1.6160 H     1 <1>   0.0800 
 36 H       -2.9840    -0.2790     0.6790 H     1 <1>   0.0800 
 37 H       -2.6400     0.4590     2.2550 H     1 <1>   0.0800 
 38 H        5.8240    -0.9640    -0.5570 H     1 <1>   0.0800 
 39 H        4.6350    -2.0140     0.1300 H     1 <1>   0.0800 
 40 H        4.0900    -0.5450     1.8410 H     1 <1>   0.0800 
 41 H        5.7970    -0.3610     1.6680 H     1 <1>   0.0800 
 42 H       -3.8910     7.5360    -1.3470 H     1 <1>   0.0800 
 43 H       -2.7840     6.8840    -0.1400 H     1 <1>   0.0800 
 44 H       -4.4980     6.4560    -0.0990 H     1 <1>   0.0800 
 45 H       -6.9860     3.6930     0.5590 H     1 <1>   0.0800 
 46 H       -5.7530     3.0690     1.6480 H     1 <1>   0.0800 
 47 H       -6.0660     2.2660     0.0960 H     1 <1>   0.0800 
@<TRIPOS>BOND
  1   1   2  2   
  2   2   3  am  
  3   2   4  1   
  4   3   5  1   
  5   3  23  1   
  6   4   6  ar  
  7   4   7  ar  
  8   5   8  1   
  9   5   9  1   
 10   5  24  1   
 11   6  10  1   
 12   6  11  ar  
 13   7  12  ar  
 14   7  25  1   
 15   8  13  1   
 16   8  26  1   
 17   8  27  1   
 18   9  14  1   
 19   9  28  1   
 20   9  29  1   
 21  10  15  1   
 22  11  16  ar  
 23  11  30  1   
 24  12  16  ar  
 25  12  17  1   
 26  13  18  1   
 27  13  31  1   
 28  13  32  1   
 29  14  19  1   
 30  14  33  1   
 31  14  34  1   
 32  15  35  1   
 33  15  36  1   
 34  15  37  1   
 35  16  20  1   
 36  17  21  1   
 37  18  19  1   
 38  18  38  1   
 39  18  39  1   
 40  19  40  1   
 41  19  41  1   
 42  20  22  1   
 43  21  42  1   
 44  21  43  1   
 45  21  44  1   
 46  22  45  1   
 47  22  46  1   
 48  22  47  1   
@<TRIPOS>SUBSTRUCTURE
  1 ****   2 GROUP 4 **** **** 0

# MOE 2024.06 (io_trps.svl 2023.06)
