@<TRIPOS>MOLECULE
NONAME
46 48 1 0 0 
SMALL
USER_CHARGES


@<TRIPOS>ATOM
  1 O       -2.1150    -0.0280     0.9230 O.3   1 <1>  -0.3630 
  2 C       -2.5100     0.9110     0.0170 C.ar  1 <1>   0.0830 
  3 C       -0.7740    -0.1890     1.3240 C.3   1 <1>   0.1200 
  4 C       -1.7970     2.0570    -0.3760 C.ar  1 <1>   0.0830 
  5 C       -3.7530     0.6590    -0.5370 C.ar  1 <1>  -0.1500 
  6 C       -0.6630    -1.5110     2.0770 C.3   1 <1>  -0.2400 
  7 O       -0.5820     2.3350     0.1790 O.3   1 <1>  -0.3620 
  8 C       -2.3630     2.9030    -1.3280 C.ar  1 <1>  -0.1500 
  9 C       -4.3160     1.5140    -1.4710 C.ar  1 <1>  -0.1440 
 10 C        0.2140     3.4260    -0.2330 C.3   1 <1>   0.0400 
 11 C       -3.6080     2.6360    -1.8700 C.ar  1 <1>  -0.1500 
 12 C       -5.6940     1.2260    -2.0310 C.3   1 <1>   0.4860 
 13 N       -6.6860     1.3590    -0.9330 N.4   1 <1>  -0.9590 
 14 C       -8.0480     0.9340    -1.3520 C.3   1 <1>   0.4860 
 15 C       -6.7210     2.7300    -0.3420 C.3   1 <1>   0.3430 
 16 C       -9.0170     1.0450    -0.1870 C.ar  1 <1>  -0.1430 
 17 C       -7.4880     2.7050     0.9820 C.3   1 <1>  -0.0170 
 18 C       -8.7650     1.8810     0.8980 C.ar  1 <1>  -0.1430 
 19 C      -10.1860     0.2990    -0.2170 C.ar  1 <1>  -0.1500 
 20 C       -9.6820     1.9590     1.9340 C.ar  1 <1>  -0.1500 
 21 C      -11.0980     0.3820     0.8200 C.ar  1 <1>  -0.1500 
 22 C      -10.8460     1.2130     1.8950 C.ar  1 <1>  -0.1500 
 23 H       -0.5080     0.6340     1.9630 H     1 <1>   0.0800 
 24 H       -0.1510    -0.1960     0.4460 H     1 <1>   0.0800 
 25 H       -4.2650    -0.2320    -0.2170 H     1 <1>   0.1500 
 26 H       -1.2980    -1.4970     2.9440 H     1 <1>   0.0800 
 27 H        0.3520    -1.6610     2.3970 H     1 <1>   0.0800 
 28 H       -0.9440    -2.3270     1.4360 H     1 <1>   0.0800 
 29 H       -1.8490     3.7840    -1.6630 H     1 <1>   0.1500 
 30 H        1.1300     3.4000     0.3300 H     1 <1>   0.0800 
 31 H       -0.3120     4.3410    -0.0270 H     1 <1>   0.0800 
 32 H        0.4290     3.3270    -1.2820 H     1 <1>   0.0800 
 33 H       -4.0110     3.3140    -2.6030 H     1 <1>   0.1500 
 34 H       -5.7110     0.2250    -2.4310 H     1 <1>   0.0800 
 35 H       -5.9200     1.9180    -2.8260 H     1 <1>   0.0800 
 36 H       -6.3980     0.7260    -0.1760 H     1 <1>   0.4500 
 37 H       -8.0260    -0.0870    -1.6970 H     1 <1>   0.0800 
 38 H       -8.3980     1.5590    -2.1580 H     1 <1>   0.0800 
 39 H       -7.2080     3.4070    -1.0240 H     1 <1>   0.0800 
 40 H       -5.7210     3.0900    -0.1600 H     1 <1>   0.0800 
 41 H       -7.7250     3.7150     1.2660 H     1 <1>   0.0800 
 42 H       -6.8550     2.2940     1.7480 H     1 <1>   0.0800 
 43 H      -10.4070    -0.3540    -1.0450 H     1 <1>   0.1500 
 44 H       -9.5000     2.5990     2.7800 H     1 <1>   0.1500 
 45 H      -12.0050    -0.1980     0.7930 H     1 <1>   0.1500 
 46 H      -11.5560     1.2780     2.7030 H     1 <1>   0.1500 
@<TRIPOS>BOND
  1   1   2  1   
  2   1   3  1   
  3   2   4  ar  
  4   2   5  ar  
  5   3   6  1   
  6   3  23  1   
  7   3  24  1   
  8   4   7  1   
  9   4   8  ar  
 10   5   9  ar  
 11   5  25  1   
 12   6  26  1   
 13   6  27  1   
 14   6  28  1   
 15   7  10  1   
 16   8  11  ar  
 17   8  29  1   
 18   9  11  ar  
 19   9  12  1   
 20  10  30  1   
 21  10  31  1   
 22  10  32  1   
 23  11  33  1   
 24  12  13  1   
 25  12  34  1   
 26  12  35  1   
 27  13  14  1   
 28  13  15  1   
 29  13  36  1   
 30  14  16  1   
 31  14  37  1   
 32  14  38  1   
 33  15  17  1   
 34  15  39  1   
 35  15  40  1   
 36  16  18  ar  
 37  16  19  ar  
 38  17  18  1   
 39  17  41  1   
 40  17  42  1   
 41  18  20  ar  
 42  19  21  ar  
 43  19  43  1   
 44  20  22  ar  
 45  20  44  1   
 46  21  22  ar  
 47  21  45  1   
 48  22  46  1   
@<TRIPOS>SUBSTRUCTURE
  1 ****  13 GROUP 4 **** **** 0

# MOE 2024.06 (io_trps.svl 2023.06)
