@<TRIPOS>MOLECULE
NONAME
46 49 1 0 0 
SMALL
USER_CHARGES


@<TRIPOS>ATOM
  1 S        0.4300    -0.0520     0.6270 S.3   1 <1>  -0.0800 
  2 C        0.2440     1.6650     0.2760 C.2   1 <1>   0.3250 
  3 C        1.9860    -0.0540    -0.1400 C.2   1 <1>  -0.1100 
  4 N        1.2650     2.1430    -0.3540 N.2   1 <1>  -0.5650 
  5 C       -0.9590     2.3530     0.6940 C.ar  1 <1>   0.0530 
  6 C        2.2380     1.1840    -0.5880 C.2   1 <1>   0.0460 
  7 C       -1.2740     3.6010     0.1520 C.ar  1 <1>  -0.1500 
  8 C       -1.8440     1.8290     1.6400 C.ar  1 <1>  -0.1500 
  9 C        3.4950     1.6480    -1.3110 C.3   1 <1>   0.5240 
 10 C       -2.4080     4.3000     0.5280 C.ar  1 <1>  -0.1440 
 11 C       -2.9800     2.5180     2.0210 C.ar  1 <1>  -0.1500 
 12 N        3.8920     2.9580    -0.7260 N.4   1 <1>  -0.9590 
 13 C       -3.2640     3.7520     1.4670 C.ar  1 <1>  -0.1500 
 14 C       -2.7250     5.6540    -0.0820 C.3   1 <1>  -0.0970 
 15 C        4.7460     3.7570    -1.6500 C.3   1 <1>   0.3430 
 16 C        4.4900     2.7920     0.6330 C.3   1 <1>   0.3430 
 17 C        5.0140     5.1320    -1.0530 C.3   1 <1>  -0.1600 
 18 C        4.7540     4.1550     1.2540 C.3   1 <1>  -0.1600 
 19 C        5.6400     4.9640     0.3220 C.3   1 <1>   0.5600 
 20 O        6.8610     4.3140     0.1830 O.3   1 <1>  -0.5600 
 21 O        5.8930     6.2010     0.8830 O.3   1 <1>  -0.5600 
 22 C        7.8690     5.1000     0.7150 C.3   1 <1>   0.1200 
 23 C        7.2450     6.4720     0.8120 C.3   1 <1>   0.1200 
 24 H        2.5280    -0.9840    -0.1650 H     1 <1>   0.1500 
 25 H       -0.6160     4.0280    -0.5820 H     1 <1>   0.1500 
 26 H       -1.6550     0.8750     2.0960 H     1 <1>   0.1500 
 27 H        3.2580     1.7730    -2.3540 H     1 <1>   0.0800 
 28 H        4.2850     0.9230    -1.2140 H     1 <1>   0.0800 
 29 H       -3.6480     2.0950     2.7520 H     1 <1>   0.1500 
 30 H        2.9780     3.4290    -0.5940 H     1 <1>   0.4500 
 31 H       -4.1510     4.2820     1.7670 H     1 <1>   0.1500 
 32 H       -1.8500     6.0840    -0.5370 H     1 <1>   0.0800 
 33 H       -3.0780     6.3290     0.6770 H     1 <1>   0.0800 
 34 H       -3.4870     5.5460    -0.8320 H     1 <1>   0.0800 
 35 H        4.2580     3.8700    -2.6050 H     1 <1>   0.0800 
 36 H        5.6880     3.2530    -1.8030 H     1 <1>   0.0800 
 37 H        5.4220     2.2540     0.5580 H     1 <1>   0.0800 
 38 H        3.8200     2.2330     1.2670 H     1 <1>   0.0800 
 39 H        4.0950     5.6820    -0.9730 H     1 <1>   0.0800 
 40 H        5.6840     5.6800    -1.6890 H     1 <1>   0.0800 
 41 H        5.2450     4.0360     2.2020 H     1 <1>   0.0800 
 42 H        3.8240     4.6690     1.4160 H     1 <1>   0.0800 
 43 H        8.7300     5.0810     0.0700 H     1 <1>   0.0800 
 44 H        8.1240     4.7230     1.6910 H     1 <1>   0.0800 
 45 H        7.5560     7.0120     1.6890 H     1 <1>   0.0800 
 46 H        7.4360     7.0530    -0.0740 H     1 <1>   0.0800 
@<TRIPOS>BOND
  1   1   2  1   
  2   1   3  1   
  3   2   4  2   
  4   2   5  1   
  5   3   6  2   
  6   3  24  1   
  7   4   6  1   
  8   5   7  ar  
  9   5   8  ar  
 10   6   9  1   
 11   7  10  ar  
 12   7  25  1   
 13   8  11  ar  
 14   8  26  1   
 15   9  12  1   
 16   9  27  1   
 17   9  28  1   
 18  10  13  ar  
 19  10  14  1   
 20  11  13  ar  
 21  11  29  1   
 22  12  15  1   
 23  12  16  1   
 24  12  30  1   
 25  13  31  1   
 26  14  32  1   
 27  14  33  1   
 28  14  34  1   
 29  15  17  1   
 30  15  35  1   
 31  15  36  1   
 32  16  18  1   
 33  16  37  1   
 34  16  38  1   
 35  17  19  1   
 36  17  39  1   
 37  17  40  1   
 38  18  19  1   
 39  18  41  1   
 40  18  42  1   
 41  19  20  1   
 42  19  21  1   
 43  20  22  1   
 44  21  23  1   
 45  22  23  1   
 46  22  43  1   
 47  22  44  1   
 48  23  45  1   
 49  23  46  1   
@<TRIPOS>SUBSTRUCTURE
  1 ****   4 GROUP 4 **** **** 0

# MOE 2024.06 (io_trps.svl 2023.06)
