@<TRIPOS>MOLECULE
NONAME
29 30 1 0 0 
SMALL
USER_CHARGES


@<TRIPOS>ATOM
  1 S       -0.1840    -0.3240     0.2240 S.3   1 <1>  -0.0800 
  2 C        1.0550    -1.4990     0.6140 C.2   1 <1>   0.4620 
  3 C        1.0590     0.7630    -0.3310 C.2   1 <1>  -0.1100 
  4 N        2.2470    -1.1110     0.3600 N.2   1 <1>  -0.5650 
  5 N        0.6870    -2.6920     1.1330 N.pl3 1 <1>  -0.8840 
  6 C        2.2600     0.1740    -0.1790 C.2   1 <1>   0.0460 
  7 C        3.6150     0.8040    -0.5590 C.3   1 <1>   0.5220 
  8 O        4.0840     0.1270    -1.7140 O.3   1 <1>  -0.4300 
  9 C        3.4580     2.3200    -0.8160 C.2   1 <1>   0.6590 
 10 C        4.7060     0.5190     0.5010 C.3   1 <1>  -0.1600 
 11 C        5.0200    -0.7580    -1.4480 C.2   1 <1>   0.6590 
 12 O        3.4590     2.8130    -1.9190 O.2   1 <1>  -0.5700 
 13 O        3.3160     3.0800     0.2720 O.3   1 <1>  -0.4300 
 14 C        5.4030    -0.7450     0.0050 C.3   1 <1>  -0.0990 
 15 O        5.5300    -1.4570    -2.2780 O.2   1 <1>  -0.5700 
 16 C        3.1990     4.4860     0.2230 C.3   1 <1>   0.1200 
 17 C        4.5990     5.0950     0.1960 C.3   1 <1>  -0.2400 
 18 H        0.7440     1.7170    -0.7140 H     1 <1>   0.1500 
 19 H        1.3890    -3.4240     1.2480 H     1 <1>   0.4000 
 20 H       -0.2920    -2.9770     1.1840 H     1 <1>   0.4000 
 21 H        4.2910     0.4030     1.4870 H     1 <1>   0.0800 
 22 H        5.4120     1.3320     0.5210 H     1 <1>   0.0800 
 23 H        5.0060    -1.6250     0.4780 H     1 <1>   0.0800 
 24 H        6.4700    -0.7040     0.1250 H     1 <1>   0.0800 
 25 H        2.6690     4.8010     1.1050 H     1 <1>   0.0800 
 26 H        2.6290     4.7680    -0.6480 H     1 <1>   0.0800 
 27 H        5.1560     4.7910     1.0640 H     1 <1>   0.0800 
 28 H        4.5250     6.1680     0.1960 H     1 <1>   0.0800 
 29 H        5.1210     4.7940    -0.6950 H     1 <1>   0.0800 
@<TRIPOS>BOND
  1   1   2  1   
  2   1   3  1   
  3   2   4  2   
  4   2   5  1   
  5   3   6  2   
  6   3  18  1   
  7   4   6  1   
  8   5  19  1   
  9   5  20  1   
 10   6   7  1   
 11   7   8  1   
 12   7   9  1   
 13   7  10  1   
 14   8  11  1   
 15   9  12  2   
 16   9  13  1   
 17  10  14  1   
 18  10  21  1   
 19  10  22  1   
 20  11  14  1   
 21  11  15  2   
 22  13  16  1   
 23  14  23  1   
 24  14  24  1   
 25  16  17  1   
 26  16  25  1   
 27  16  26  1   
 28  17  27  1   
 29  17  28  1   
 30  17  29  1   
@<TRIPOS>SUBSTRUCTURE
  1 ****   7 GROUP 4 **** **** 0

# MOE 2024.06 (io_trps.svl 2023.06)
