@<TRIPOS>MOLECULE
NONAME
36 37 1 0 0 
SMALL
USER_CHARGES


@<TRIPOS>ATOM
  1 O       -1.5340    -0.6730     1.6830 O.2   1 <1>  -0.5700 
  2 C       -2.3630    -0.0660     1.0500 C.2   1 <1>   0.5690 
  3 N       -3.1010    -0.5000    -0.0220 N.am  1 <1>  -0.4690 
  4 C       -2.7440     1.3590     1.3760 C.3   1 <1>   0.0390 
  5 C       -3.9710     0.5070    -0.4150 C.2   1 <1>  -0.0290 
  6 C       -3.0470    -1.8690    -0.6260 C.3   1 <1>   0.3640 
  7 C       -3.8240     1.6260     0.3360 C.2   1 <1>  -0.1240 
  8 C       -4.9420     0.2650    -1.5640 C.3   1 <1>  -0.1020 
  9 C       -4.0360    -2.8100     0.0610 C.ar  1 <1>  -0.1440 
 10 C       -1.6370    -2.4650    -0.6680 C.3   1 <1>  -0.2400 
 11 C       -4.4420     2.9190     0.3510 C.2   1 <1>   0.7060 
 12 C       -5.0390    -3.4200    -0.6820 C.ar  1 <1>  -0.1500 
 13 C       -3.9530    -3.0780     1.4210 C.ar  1 <1>  -0.1500 
 14 O       -4.1370     3.7780     1.1570 O.2   1 <1>  -0.5700 
 15 O       -5.3850     3.2020    -0.5530 O.3   1 <1>  -0.4300 
 16 C       -5.9430    -4.2770    -0.0770 C.ar  1 <1>  -0.1500 
 17 C       -4.8570    -3.9340     2.0280 C.ar  1 <1>  -0.1500 
 18 C       -6.0310     4.4600    -0.5860 C.3   1 <1>   0.0400 
 19 C       -5.8530    -4.5340     1.2790 C.ar  1 <1>  -0.1500 
 20 H       -1.9000     2.0120     1.2510 H     1 <1>   0.0800 
 21 H       -3.1300     1.4240     2.3760 H     1 <1>   0.0800 
 22 H       -3.3450    -1.7740    -1.6540 H     1 <1>   0.0800 
 23 H       -4.4000     0.0870    -2.4750 H     1 <1>   0.0800 
 24 H       -5.5920     1.1010    -1.7260 H     1 <1>   0.0800 
 25 H       -5.5590    -0.5880    -1.3470 H     1 <1>   0.0800 
 26 H       -1.3040    -2.7460     0.3140 H     1 <1>   0.0800 
 27 H       -0.9460    -1.7610    -1.0940 H     1 <1>   0.0800 
 28 H       -1.6440    -3.3520    -1.2740 H     1 <1>   0.0800 
 29 H       -5.1240    -3.2350    -1.7380 H     1 <1>   0.1500 
 30 H       -3.1820    -2.6230     2.0170 H     1 <1>   0.1500 
 31 H       -6.7160    -4.7440    -0.6610 H     1 <1>   0.1500 
 32 H       -4.7810    -4.1310     3.0830 H     1 <1>   0.1500 
 33 H       -6.7460     4.4560    -1.3890 H     1 <1>   0.0800 
 34 H       -5.2940     5.2270    -0.7490 H     1 <1>   0.0800 
 35 H       -6.5310     4.6190     0.3540 H     1 <1>   0.0800 
 36 H       -6.5550    -5.1990     1.7510 H     1 <1>   0.1500 
@<TRIPOS>BOND
  1   1   2  2   
  2   2   3  am  
  3   2   4  1   
  4   3   5  1   
  5   3   6  1   
  6   4   7  1   
  7   4  20  1   
  8   4  21  1   
  9   5   7  2   
 10   5   8  1   
 11   6   9  1   
 12   6  10  1   
 13   6  22  1   
 14   7  11  1   
 15   8  23  1   
 16   8  24  1   
 17   8  25  1   
 18   9  12  ar  
 19   9  13  ar  
 20  10  26  1   
 21  10  27  1   
 22  10  28  1   
 23  11  14  2   
 24  11  15  1   
 25  12  16  ar  
 26  12  29  1   
 27  13  17  ar  
 28  13  30  1   
 29  15  18  1   
 30  16  19  ar  
 31  16  31  1   
 32  17  19  ar  
 33  17  32  1   
 34  18  33  1   
 35  18  34  1   
 36  18  35  1   
 37  19  36  1   
@<TRIPOS>SUBSTRUCTURE
  1 ****   3 GROUP 4 **** **** 0

# MOE 2024.06 (io_trps.svl 2023.06)
