@<TRIPOS>MOLECULE
NONAME
45 46 1 0 0 
SMALL
USER_CHARGES


@<TRIPOS>ATOM
  1 O        0.8310     0.9320    -2.6710 O.2   1 <1>  -0.5700 
  2 C        1.1200     1.7660    -1.8420 C.2   1 <1>   0.5690 
  3 N        2.0920     1.5060    -0.8930 N.am  1 <1>  -0.6600 
  4 C        0.3400     3.0750    -1.9510 C.3   1 <1>   0.0440 
  5 C        2.6800     2.4250     0.1340 C.3   1 <1>   0.2200 
  6 C        2.7110     0.1470    -0.8610 C.3   1 <1>   0.1400 
  7 C       -0.9360     3.1320    -1.1090 C.ar  1 <1>  -0.1440 
  8 C        1.6510     3.0500     1.0850 C.3   1 <1>  -0.1600 
  9 C        3.6020     3.4740    -0.5020 C.3   1 <1>  -0.1600 
 10 C        2.0090    -0.7040     0.1950 C.3   1 <1>  -0.2400 
 11 C       -1.3850     4.3550    -0.6300 C.ar  1 <1>  -0.1500 
 12 C       -1.6660     1.9870    -0.8150 C.ar  1 <1>  -0.1500 
 13 C        2.3600     3.8680     2.1740 C.3   1 <1>  -0.1600 
 14 C        4.2920     4.3170     0.5820 C.3   1 <1>  -0.1600 
 15 C       -2.5320     4.4300     0.1390 C.ar  1 <1>  -0.1500 
 16 C       -2.8140     2.0590    -0.0460 C.ar  1 <1>  -0.1500 
 17 C        3.2710     4.9360     1.5500 C.3   1 <1>  -0.1600 
 18 C       -3.2530     3.2870     0.4400 C.ar  1 <1>   0.0820 
 19 O       -4.3640     3.4450     1.2020 O.3   1 <1>  -0.3620 
 20 C       -5.1690     2.3440     1.5570 C.3   1 <1>   0.0400 
 21 H        0.0560     3.2000    -2.9790 H     1 <1>   0.0800 
 22 H        0.9760     3.9000    -1.7110 H     1 <1>   0.0800 
 23 H        3.3140     1.8270     0.7680 H     1 <1>   0.0800 
 24 H        3.7620     0.2260    -0.6410 H     1 <1>   0.0800 
 25 H        2.6240    -0.3320    -1.8220 H     1 <1>   0.0800 
 26 H        1.0570     2.2760     1.5370 H     1 <1>   0.0800 
 27 H        1.0030     3.7180     0.5600 H     1 <1>   0.0800 
 28 H        3.0470     4.1290    -1.1440 H     1 <1>   0.0800 
 29 H        4.3510     2.9770    -1.0940 H     1 <1>   0.0800 
 30 H        2.1180    -0.2680     1.1710 H     1 <1>   0.0800 
 31 H        2.4380    -1.6890     0.2080 H     1 <1>   0.0800 
 32 H        0.9640    -0.7910    -0.0440 H     1 <1>   0.0800 
 33 H       -0.8430     5.2570    -0.8520 H     1 <1>   0.1500 
 34 H       -1.3470     1.0280    -1.1850 H     1 <1>   0.1500 
 35 H        2.9460     3.2120     2.7940 H     1 <1>   0.0800 
 36 H        1.6240     4.3430     2.8010 H     1 <1>   0.0800 
 37 H        4.8690     5.0980     0.1190 H     1 <1>   0.0800 
 38 H        4.9720     3.6940     1.1390 H     1 <1>   0.0800 
 39 H       -2.8770     5.3770     0.5120 H     1 <1>   0.1500 
 40 H       -3.3480     1.1520     0.1610 H     1 <1>   0.1500 
 41 H        3.7910     5.4640     2.3310 H     1 <1>   0.0800 
 42 H        2.6670     5.6510     1.0190 H     1 <1>   0.0800 
 43 H       -5.9840     2.7060     2.1570 H     1 <1>   0.0800 
 44 H       -4.5770     1.6480     2.1260 H     1 <1>   0.0800 
 45 H       -5.5490     1.8860     0.6610 H     1 <1>   0.0800 
@<TRIPOS>BOND
  1   1   2  2   
  2   2   3  am  
  3   2   4  1   
  4   3   5  1   
  5   3   6  1   
  6   4   7  1   
  7   4  21  1   
  8   4  22  1   
  9   5   8  1   
 10   5   9  1   
 11   5  23  1   
 12   6  10  1   
 13   6  24  1   
 14   6  25  1   
 15   7  11  ar  
 16   7  12  ar  
 17   8  13  1   
 18   8  26  1   
 19   8  27  1   
 20   9  14  1   
 21   9  28  1   
 22   9  29  1   
 23  10  30  1   
 24  10  31  1   
 25  10  32  1   
 26  11  15  ar  
 27  11  33  1   
 28  12  16  ar  
 29  12  34  1   
 30  13  17  1   
 31  13  35  1   
 32  13  36  1   
 33  14  17  1   
 34  14  37  1   
 35  14  38  1   
 36  15  18  ar  
 37  15  39  1   
 38  16  18  ar  
 39  16  40  1   
 40  17  41  1   
 41  17  42  1   
 42  18  19  1   
 43  19  20  1   
 44  20  43  1   
 45  20  44  1   
 46  20  45  1   
@<TRIPOS>SUBSTRUCTURE
  1 ****   7 GROUP 4 **** **** 0

# MOE 2024.06 (io_trps.svl 2023.06)
