@<TRIPOS>MOLECULE
NONAME
57 60 1 0 0 
SMALL
USER_CHARGES


@<TRIPOS>ATOM
  1 S        0.1370    -0.2040     1.1420 S.o2  1 <1>   1.4470 
  2 O        0.9360    -0.3620    -0.0530 O.2   1 <1>  -0.6500 
  3 O        0.5880    -0.7970     2.3790 O.2   1 <1>  -0.6500 
  4 N        0.0780     1.5010     1.4340 N.am  1 <1>  -0.6930 
  5 C       -1.6030    -0.6240     0.8470 C.ar  1 <1>  -0.0090 
  6 C       -0.5260     2.3620     0.5280 C.ar  1 <1>   0.1990 
  7 C        1.1000     2.0650     2.3720 C.3   1 <1>   0.2570 
  8 C       -2.3870    -1.1910     1.8460 C.ar  1 <1>  -0.1500 
  9 C       -2.2060    -0.3630    -0.3790 C.ar  1 <1>  -0.1500 
 10 C       -1.7170     2.9900     0.8660 C.ar  1 <1>  -0.1500 
 11 C        0.0260     2.6050    -0.7230 C.ar  1 <1>  -0.1500 
 12 C        2.5020     2.2830     1.7840 C.2   1 <1>   0.5690 
 13 C       -3.7210    -1.4930     1.6300 C.ar  1 <1>  -0.1500 
 14 C       -3.5390    -0.6600    -0.6040 C.ar  1 <1>  -0.1500 
 15 C       -2.3500     3.8400    -0.0230 C.ar  1 <1>  -0.1430 
 16 C       -0.5930     3.4550    -1.6220 C.ar  1 <1>  -0.1430 
 17 O        3.1970     3.1320     2.2900 O.2   1 <1>  -0.5700 
 18 N        2.9440     1.5470     0.7290 N.am  1 <1>  -0.7300 
 19 C       -4.2980    -1.2270     0.4020 C.ar  1 <1>  -0.1500 
 20 C       -1.7820     4.0700    -1.2660 C.ar  1 <1>  -0.1500 
 21 C       -3.6550     4.5210     0.3490 C.3   1 <1>  -0.0970 
 22 C        0.0200     3.7180    -2.9850 C.3   1 <1>  -0.0970 
 23 C        4.2360     1.7160     0.0440 C.3   1 <1>   0.2200 
 24 C        4.0120     2.3340    -1.3480 C.3   1 <1>  -0.0800 
 25 C        4.8380     0.3400    -0.2880 C.3   1 <1>  -0.1600 
 26 C        3.6580     1.1180    -2.1930 C.3   1 <1>  -0.1600 
 27 C        5.3880     2.7080    -1.9260 C.3   1 <1>  -0.1600 
 28 C        4.9140     0.3470    -1.8260 C.3   1 <1>  -0.0800 
 29 C        6.0110     1.3380    -2.2500 C.3   1 <1>  -0.1600 
 30 H        1.1930     1.4300     3.2330 H     1 <1>   0.0800 
 31 H        0.7470     3.0180     2.7210 H     1 <1>   0.0800 
 32 H       -1.9490    -1.4020     2.8080 H     1 <1>   0.1500 
 33 H       -1.6250     0.0830    -1.1700 H     1 <1>   0.1500 
 34 H       -2.1450     2.8000     1.8330 H     1 <1>   0.1500 
 35 H        0.9460     2.1250    -0.9930 H     1 <1>   0.1500 
 36 H       -4.3090    -1.9350     2.4160 H     1 <1>   0.1500 
 37 H       -3.9840    -0.4480    -1.5610 H     1 <1>   0.1500 
 38 H        2.3310     0.8440     0.2970 H     1 <1>   0.3700 
 39 H       -5.3350    -1.4600     0.2300 H     1 <1>   0.1500 
 40 H       -2.2680     4.7330    -1.9610 H     1 <1>   0.1500 
 41 H       -4.0840     4.0740     1.2280 H     1 <1>   0.0800 
 42 H       -4.3610     4.4310    -0.4570 H     1 <1>   0.0800 
 43 H       -3.4790     5.5640     0.5430 H     1 <1>   0.0800 
 44 H        0.8630     3.0740    -3.1590 H     1 <1>   0.0800 
 45 H        0.3500     4.7400    -3.0440 H     1 <1>   0.0800 
 46 H       -0.7080     3.5420    -3.7560 H     1 <1>   0.0800 
 47 H        4.9040     2.3150     0.6410 H     1 <1>   0.0800 
 48 H        3.3040     3.1450    -1.3580 H     1 <1>   0.0800 
 49 H        4.2000    -0.4580     0.0510 H     1 <1>   0.0800 
 50 H        5.8120     0.2260     0.1530 H     1 <1>   0.0800 
 51 H        3.5980     1.3420    -3.2450 H     1 <1>   0.0800 
 52 H        2.7590     0.6200    -1.8720 H     1 <1>   0.0800 
 53 H        5.9800     3.2670    -1.2220 H     1 <1>   0.0800 
 54 H        5.2700     3.2870    -2.8260 H     1 <1>   0.0800 
 55 H        5.0040    -0.6300    -2.2690 H     1 <1>   0.0800 
 56 H        6.9310     1.1750    -1.7140 H     1 <1>   0.0800 
 57 H        6.2000     1.2560    -3.3060 H     1 <1>   0.0800 
@<TRIPOS>BOND
  1   1   2  2   
  2   1   3  2   
  3   1   4  am  
  4   1   5  1   
  5   4   6  1   
  6   4   7  1   
  7   5   8  ar  
  8   5   9  ar  
  9   6  10  ar  
 10   6  11  ar  
 11   7  12  1   
 12   7  30  1   
 13   7  31  1   
 14   8  13  ar  
 15   8  32  1   
 16   9  14  ar  
 17   9  33  1   
 18  10  15  ar  
 19  10  34  1   
 20  11  16  ar  
 21  11  35  1   
 22  12  17  2   
 23  12  18  am  
 24  13  19  ar  
 25  13  36  1   
 26  14  19  ar  
 27  14  37  1   
 28  15  20  ar  
 29  15  21  1   
 30  16  20  ar  
 31  16  22  1   
 32  18  23  1   
 33  18  38  1   
 34  19  39  1   
 35  20  40  1   
 36  21  41  1   
 37  21  42  1   
 38  21  43  1   
 39  22  44  1   
 40  22  45  1   
 41  22  46  1   
 42  23  24  1   
 43  23  25  1   
 44  23  47  1   
 45  24  26  1   
 46  24  27  1   
 47  24  48  1   
 48  25  28  1   
 49  25  49  1   
 50  25  50  1   
 51  26  28  1   
 52  26  51  1   
 53  26  52  1   
 54  27  29  1   
 55  27  53  1   
 56  27  54  1   
 57  28  29  1   
 58  28  55  1   
 59  29  56  1   
 60  29  57  1   
@<TRIPOS>SUBSTRUCTURE
  1 ****   4 GROUP 4 **** **** 0

# MOE 2024.06 (io_trps.svl 2023.06)
