@<TRIPOS>MOLECULE
NONAME
44 45 1 0 0 
SMALL
USER_CHARGES


@<TRIPOS>ATOM
  1 O       -0.5420     0.4020    -1.1290 O.2   1 <1>  -0.5700 
  2 C       -1.5740     1.0480    -0.9780 C.2   1 <1>   0.6160 
  3 N       -2.3780     0.8860     0.1480 N.am  1 <1>  -0.2980 
  4 C       -2.0060     1.9930    -1.9400 C.2   1 <1>  -0.1360 
  5 N       -3.5410     1.5910     0.3790 N.2   1 <1>  -0.5120 
  6 C       -1.9870    -0.0970     1.1850 C.3   1 <1>   0.0600 
  7 C       -3.1500     2.6900    -1.7160 C.2   1 <1>  -0.1360 
  8 C       -3.8860     2.4640    -0.5190 C.2   1 <1>   0.5860 
  9 O       -5.0260     3.1550    -0.3180 O.3   1 <1>  -0.2320 
 10 C       -5.0260     4.4910    -0.2410 C.ar  1 <1>   0.7020 
 11 N       -6.2050     5.0380    -0.3120 N.ar  1 <1>  -0.6200 
 12 N       -3.8850     5.1170    -0.1210 N.ar  1 <1>  -0.6200 
 13 C       -6.1930     6.3480    -0.2490 C.ar  1 <1>   0.7200 
 14 C       -4.0120     6.4150    -0.0680 C.ar  1 <1>   0.7200 
 15 N       -5.1200     7.0880    -0.1270 N.ar  1 <1>  -0.6200 
 16 N       -7.4080     6.9940    -0.3220 N.pl3 1 <1>  -0.8380 
 17 N       -2.8950     7.1610     0.0610 N.pl3 1 <1>  -0.8690 
 18 C       -7.5190     8.4590    -0.5720 C.3   1 <1>   0.1290 
 19 C       -8.7050     6.2790    -0.1400 C.3   1 <1>   0.1290 
 20 C       -1.5980     6.6560     0.5470 C.3   1 <1>   0.2090 
 21 C       -0.5500     7.7570     0.3970 C.3   1 <1>  -0.1600 
 22 C        0.8290     7.2860     0.8790 C.3   1 <1>  -0.1600 
 23 C        1.8740     8.3950     0.7280 C.3   1 <1>  -0.2400 
 24 H       -1.3980     2.1150    -2.8160 H     1 <1>   0.1500 
 25 H       -1.0210     0.1630     1.5790 H     1 <1>   0.0800 
 26 H       -1.9400    -1.0780     0.7480 H     1 <1>   0.0800 
 27 H       -2.7090    -0.0970     1.9820 H     1 <1>   0.0800 
 28 H       -3.5230     3.4180    -2.4130 H     1 <1>   0.1500 
 29 H       -3.0900     8.1450     0.2390 H     1 <1>   0.4000 
 30 H       -6.6620     8.8200    -1.1140 H     1 <1>   0.0800 
 31 H       -7.5840     8.9810     0.3670 H     1 <1>   0.0800 
 32 H       -8.3980     8.6680    -1.1560 H     1 <1>   0.0800 
 33 H       -8.5750     5.4030     0.4710 H     1 <1>   0.0800 
 34 H       -9.0890     5.9820    -1.1000 H     1 <1>   0.0800 
 35 H       -9.4170     6.9230     0.3440 H     1 <1>   0.0800 
 36 H       -1.3090     5.7910    -0.0280 H     1 <1>   0.0800 
 37 H       -1.6920     6.3660     1.5810 H     1 <1>   0.0800 
 38 H       -0.8530     8.6140     0.9730 H     1 <1>   0.0800 
 39 H       -0.4870     8.0410    -0.6390 H     1 <1>   0.0800 
 40 H        1.1390     6.4280     0.3050 H     1 <1>   0.0800 
 41 H        0.7710     6.9930     1.9130 H     1 <1>   0.0800 
 42 H        1.9660     8.6900    -0.3030 H     1 <1>   0.0800 
 43 H        2.8330     8.0460     1.0690 H     1 <1>   0.0800 
 44 H        1.5980     9.2560     1.3120 H     1 <1>   0.0800 
@<TRIPOS>BOND
  1   1   2  2   
  2   2   3  am  
  3   2   4  1   
  4   3   5  1   
  5   3   6  1   
  6   4   7  2   
  7   4  24  1   
  8   5   8  2   
  9   6  25  1   
 10   6  26  1   
 11   6  27  1   
 12   7   8  1   
 13   7  28  1   
 14   8   9  1   
 15   9  10  1   
 16  10  11  ar  
 17  10  12  ar  
 18  11  13  ar  
 19  12  14  ar  
 20  13  15  ar  
 21  13  16  1   
 22  14  15  ar  
 23  14  17  1   
 24  16  18  1   
 25  16  19  1   
 26  17  20  1   
 27  17  29  1   
 28  18  30  1   
 29  18  31  1   
 30  18  32  1   
 31  19  33  1   
 32  19  34  1   
 33  19  35  1   
 34  20  21  1   
 35  20  36  1   
 36  20  37  1   
 37  21  22  1   
 38  21  38  1   
 39  21  39  1   
 40  22  23  1   
 41  22  40  1   
 42  22  41  1   
 43  23  42  1   
 44  23  43  1   
 45  23  44  1   
@<TRIPOS>SUBSTRUCTURE
  1 ****  12 GROUP 4 **** **** 0

# MOE 2024.06 (io_trps.svl 2023.06)
