@<TRIPOS>MOLECULE
NONAME
44 46 1 0 0 
SMALL
USER_CHARGES


@<TRIPOS>ATOM
  1 F        1.4240    -0.4060     1.0900 F     1 <1>  -0.3400 
  2 C        1.6110     0.9070     1.1470 C.3   1 <1>   1.1640 
  3 F        2.1440     1.1500     2.3390 F     1 <1>  -0.3400 
  4 F        0.4030     1.4550     1.1590 F     1 <1>  -0.3400 
  5 C        2.4720     1.4320    -0.0130 C.ar  1 <1>  -0.1440 
  6 C        3.3250     2.5160     0.1620 C.ar  1 <1>  -0.1500 
  7 C        2.4040     0.8390    -1.2700 C.ar  1 <1>  -0.1500 
  8 C        4.1170     3.0120    -0.8720 C.ar  1 <1>   0.0860 
  9 C        3.1710     1.3200    -2.3160 C.ar  1 <1>  -0.1500 
 10 C        5.0070     4.1370    -0.6490 C.2   1 <1>   0.5440 
 11 C        4.0140     2.3960    -2.1170 C.ar  1 <1>  -0.1500 
 12 O        4.5670     5.1420    -0.1250 O.2   1 <1>  -0.5700 
 13 N        6.3400     4.0940    -0.9990 N.am  1 <1>  -0.6600 
 14 C        7.2020     5.3170    -0.9570 C.3   1 <1>   0.1400 
 15 C        7.1150     2.8270    -1.1740 C.3   1 <1>   0.1400 
 16 C        8.2790     5.1850     0.1270 C.3   1 <1>   0.1400 
 17 C        8.2250     2.6970    -0.1160 C.3   1 <1>   0.1400 
 18 N        9.0720     3.9290    -0.0580 N.am  1 <1>  -0.6600 
 19 C       10.4500     3.9490    -0.1150 C.2   1 <1>   0.5690 
 20 O       11.0430     5.0070    -0.1340 O.2   1 <1>  -0.5700 
 21 C       11.2850     2.6460    -0.2070 C.3   1 <1>   0.2610 
 22 O       10.9510     1.6940     0.7800 O.3   1 <1>  -0.5600 
 23 C       12.8010     2.8200    -0.0930 C.3   1 <1>  -0.1600 
 24 C       12.0760     1.0530     1.2980 C.3   1 <1>   0.1200 
 25 C       13.2510     1.4720     0.4280 C.3   1 <1>  -0.1600 
 26 H        3.3920     3.0070     1.1200 H     1 <1>   0.1500 
 27 H        1.7500     0.0000    -1.4450 H     1 <1>   0.1500 
 28 H        3.1050     0.8580    -3.2870 H     1 <1>   0.1500 
 29 H        4.6020     2.7740    -2.9360 H     1 <1>   0.1500 
 30 H        6.6100     6.1950    -0.7650 H     1 <1>   0.0800 
 31 H        7.6780     5.4480    -1.9130 H     1 <1>   0.0800 
 32 H        7.5600     2.8210    -2.1530 H     1 <1>   0.0800 
 33 H        6.4700     1.9700    -1.0990 H     1 <1>   0.0800 
 34 H        7.8060     5.1650     1.0930 H     1 <1>   0.0800 
 35 H        8.9180     6.0500     0.0930 H     1 <1>   0.0800 
 36 H        8.8140     1.8300    -0.3490 H     1 <1>   0.0800 
 37 H        7.7780     2.5380     0.8500 H     1 <1>   0.0800 
 38 H       11.0680     2.1860    -1.1540 H     1 <1>   0.0800 
 39 H       13.0270     3.5860     0.6300 H     1 <1>   0.0800 
 40 H       13.2490     3.0810    -1.0350 H     1 <1>   0.0800 
 41 H       11.9150    -0.0110     1.2870 H     1 <1>   0.0800 
 42 H       12.2070     1.3960     2.3100 H     1 <1>   0.0800 
 43 H       14.1690     1.5280     0.9870 H     1 <1>   0.0800 
 44 H       13.3670     0.7720    -0.3810 H     1 <1>   0.0800 
@<TRIPOS>BOND
  1   1   2  1   
  2   2   3  1   
  3   2   4  1   
  4   2   5  1   
  5   5   6  ar  
  6   5   7  ar  
  7   6   8  ar  
  8   6  26  1   
  9   7   9  ar  
 10   7  27  1   
 11   8  10  1   
 12   8  11  ar  
 13   9  11  ar  
 14   9  28  1   
 15  10  12  2   
 16  10  13  am  
 17  11  29  1   
 18  13  14  1   
 19  13  15  1   
 20  14  16  1   
 21  14  30  1   
 22  14  31  1   
 23  15  17  1   
 24  15  32  1   
 25  15  33  1   
 26  16  18  1   
 27  16  34  1   
 28  16  35  1   
 29  17  18  1   
 30  17  36  1   
 31  17  37  1   
 32  18  19  am  
 33  19  20  2   
 34  19  21  1   
 35  21  22  1   
 36  21  23  1   
 37  21  38  1   
 38  22  24  1   
 39  23  25  1   
 40  23  39  1   
 41  23  40  1   
 42  24  25  1   
 43  24  41  1   
 44  24  42  1   
 45  25  43  1   
 46  25  44  1   
@<TRIPOS>SUBSTRUCTURE
  1 ****  15 GROUP 4 **** **** 0

# MOE 2024.06 (io_trps.svl 2023.06)
