@<TRIPOS>MOLECULE
NONAME
39 41 1 0 0 
SMALL
USER_CHARGES


@<TRIPOS>ATOM
  1 S       -0.0420     0.0970    -0.7690 S.o2  1 <1>   1.4470 
  2 O        0.3530     0.1260    -2.1600 O.2   1 <1>  -0.6500 
  3 O       -0.2260     1.3310    -0.0430 O.2   1 <1>  -0.6500 
  4 N        1.2230    -0.7130     0.0250 N.am  1 <1>  -0.8490 
  5 C       -1.4690    -0.9930    -0.5190 C.ar  1 <1>  -0.0090 
  6 C        1.6790    -1.9150    -0.7080 C.3   1 <1>   0.1960 
  7 C        2.3620     0.2090     0.2480 C.3   1 <1>   0.1960 
  8 C       -1.9430    -1.2550     0.7630 C.ar  1 <1>  -0.1500 
  9 C       -2.1160    -1.5980    -1.6050 C.ar  1 <1>  -0.1500 
 10 C        2.7910    -2.6850     0.0510 C.3   1 <1>   0.3430 
 11 C        3.6100    -0.4870     0.8480 C.3   1 <1>   0.3430 
 12 C       -3.0220    -2.1030     0.9210 C.ar  1 <1>   0.0820 
 13 C       -3.2000    -2.4460    -1.4370 C.ar  1 <1>  -0.1500 
 14 N        3.3240    -1.9140     1.2310 N.4   1 <1>  -0.9590 
 15 O       -3.6230    -2.4850     2.0650 O.3   1 <1>  -0.2320 
 16 C       -3.6500    -2.6940    -0.1510 C.ar  1 <1>   0.1170 
 17 C        4.4850    -2.5850     1.8880 C.3   1 <1>   0.2630 
 18 C       -4.6220    -3.3030     1.7230 C.2   1 <1>   0.7800 
 19 N       -4.6710    -3.4620     0.3640 N.am  1 <1>  -0.4770 
 20 O       -5.3600    -3.8160     2.5420 O.2   1 <1>  -0.5700 
 21 C       -5.6570    -4.2610    -0.3980 C.3   1 <1>   0.0600 
 22 H        2.0580    -1.6320    -1.6780 H     1 <1>   0.0800 
 23 H        0.8480    -2.5810    -0.8740 H     1 <1>   0.0800 
 24 H        2.0550     0.9930     0.9210 H     1 <1>   0.0800 
 25 H        2.6400     0.6830    -0.6800 H     1 <1>   0.0800 
 26 H       -1.4860    -0.8030     1.6270 H     1 <1>   0.1500 
 27 H       -1.7630    -1.3950    -2.6040 H     1 <1>   0.1500 
 28 H        3.5900    -2.9060    -0.6370 H     1 <1>   0.0800 
 29 H        2.3890    -3.6270     0.3900 H     1 <1>   0.0800 
 30 H        3.9380     0.0700     1.7110 H     1 <1>   0.0800 
 31 H        4.4060    -0.4580     0.1230 H     1 <1>   0.0800 
 32 H       -3.6900    -2.9010    -2.2790 H     1 <1>   0.1500 
 33 H        2.5320    -1.8550     1.8920 H     1 <1>   0.4500 
 34 H        5.3190    -2.6470     1.2080 H     1 <1>   0.0800 
 35 H        4.2160    -3.5830     2.1960 H     1 <1>   0.0800 
 36 H        4.7920    -2.0310     2.7610 H     1 <1>   0.0800 
 37 H       -5.1460    -5.0090    -0.9770 H     1 <1>   0.0800 
 38 H       -6.2140    -3.6160    -1.0550 H     1 <1>   0.0800 
 39 H       -6.3380    -4.7450     0.2800 H     1 <1>   0.0800 
@<TRIPOS>BOND
  1   1   2  2   
  2   1   3  2   
  3   1   4  am  
  4   1   5  1   
  5   4   6  1   
  6   4   7  1   
  7   5   8  ar  
  8   5   9  ar  
  9   6  10  1   
 10   6  22  1   
 11   6  23  1   
 12   7  11  1   
 13   7  24  1   
 14   7  25  1   
 15   8  12  ar  
 16   8  26  1   
 17   9  13  ar  
 18   9  27  1   
 19  10  14  1   
 20  10  28  1   
 21  10  29  1   
 22  11  14  1   
 23  11  30  1   
 24  11  31  1   
 25  12  15  1   
 26  12  16  ar  
 27  13  16  ar  
 28  13  32  1   
 29  14  17  1   
 30  14  33  1   
 31  15  18  1   
 32  16  19  1   
 33  17  34  1   
 34  17  35  1   
 35  17  36  1   
 36  18  19  am  
 37  18  20  2   
 38  19  21  1   
 39  21  37  1   
 40  21  38  1   
 41  21  39  1   
@<TRIPOS>SUBSTRUCTURE
  1 ****   5 GROUP 4 **** **** 0

# MOE 2024.06 (io_trps.svl 2023.06)
