@<TRIPOS>MOLECULE
NONAME
50 51 1 0 0 
SMALL
USER_CHARGES


@<TRIPOS>ATOM
  1 S        0.3810     0.2290     1.7880 S.o2  1 <1>   1.3330 
  2 O        0.2290    -0.5760     0.6040 O.2   1 <1>  -0.6500 
  3 O        1.6370     0.2370     2.5020 O.2   1 <1>  -0.6500 
  4 N        0.0610     1.8740     1.3660 N.am  1 <1>  -0.6930 
  5 C       -0.9320    -0.1250     2.9360 C.3   1 <1>  -0.1350 
  6 C       -0.9530     2.1960     0.4720 C.ar  1 <1>   0.1990 
  7 C        1.1730     2.8620     1.5300 C.3   1 <1>   0.2570 
  8 C       -0.7900     2.0050    -0.8950 C.ar  1 <1>  -0.1500 
  9 C       -2.1490     2.7270     0.9370 C.ar  1 <1>  -0.1500 
 10 C        2.3150     2.7170     0.5180 C.2   1 <1>   0.5690 
 11 C       -1.8010     2.3300    -1.7820 C.ar  1 <1>  -0.1500 
 12 C       -3.1640     3.0520     0.0550 C.ar  1 <1>  -0.1500 
 13 O        2.3730     3.5090    -0.3930 O.2   1 <1>  -0.5700 
 14 N        3.2330     1.7190     0.6950 N.am  1 <1>  -0.5470 
 15 C       -2.9990     2.8560    -1.3070 C.ar  1 <1>   0.0830 
 16 C        4.3520     1.4060    -0.0920 C.ar  1 <1>   0.1170 
 17 O       -4.0460     3.2020    -2.1040 O.3   1 <1>  -0.3630 
 18 C        5.4420     2.2750    -0.1940 C.ar  1 <1>  -0.1430 
 19 C        4.3900     0.1840    -0.7680 C.ar  1 <1>  -0.1430 
 20 C       -3.9620     3.0610    -3.5040 C.3   1 <1>   0.0400 
 21 C        6.5350     1.9210    -0.9670 C.ar  1 <1>  -0.1500 
 22 C        5.4730     3.6160     0.5290 C.3   1 <1>  -0.0970 
 23 C        5.4950    -0.1520    -1.5310 C.ar  1 <1>  -0.1500 
 24 C        3.2240    -0.7940    -0.6940 C.3   1 <1>  -0.0970 
 25 C        6.5720     0.7110    -1.6360 C.ar  1 <1>  -0.1430 
 26 C        7.7760     0.3350    -2.4800 C.3   1 <1>  -0.0970 
 27 H       -0.8370    -1.1280     3.3040 H     1 <1>   0.0800 
 28 H       -1.8820    -0.0260     2.4500 H     1 <1>   0.0800 
 29 H       -0.8930     0.5520     3.7660 H     1 <1>   0.0800 
 30 H        1.5780     2.7830     2.5220 H     1 <1>   0.0800 
 31 H        0.7690     3.8530     1.4270 H     1 <1>   0.0800 
 32 H        0.1360     1.5980    -1.2610 H     1 <1>   0.1500 
 33 H       -2.2820     2.8870     1.9910 H     1 <1>   0.1500 
 34 H       -1.6350     2.1660    -2.8290 H     1 <1>   0.1500 
 35 H       -4.0910     3.4620     0.4140 H     1 <1>   0.1500 
 36 H        2.9890     1.0090     1.3970 H     1 <1>   0.3700 
 37 H       -4.8900     3.3990    -3.9300 H     1 <1>   0.0800 
 38 H       -3.8070     2.0240    -3.7430 H     1 <1>   0.0800 
 39 H       -3.1510     3.6670    -3.8690 H     1 <1>   0.0800 
 40 H        7.3690     2.5940    -1.0520 H     1 <1>   0.1500 
 41 H        5.1050     3.5090     1.5330 H     1 <1>   0.0800 
 42 H        4.8600     4.3250     0.0030 H     1 <1>   0.0800 
 43 H        6.4740     4.0020     0.5800 H     1 <1>   0.0800 
 44 H        5.5200    -1.0910    -2.0540 H     1 <1>   0.1500 
 45 H        3.4100    -1.6680    -1.2900 H     1 <1>   0.0800 
 46 H        3.0650    -1.1060     0.3220 H     1 <1>   0.0800 
 47 H        2.3300    -0.3220    -1.0600 H     1 <1>   0.0800 
 48 H        8.6670     0.7910    -2.0880 H     1 <1>   0.0800 
 49 H        7.6280     0.6730    -3.4900 H     1 <1>   0.0800 
 50 H        7.9130    -0.7310    -2.4850 H     1 <1>   0.0800 
@<TRIPOS>BOND
  1   1   2  2   
  2   1   3  2   
  3   1   4  am  
  4   1   5  1   
  5   4   6  1   
  6   4   7  1   
  7   5  27  1   
  8   5  28  1   
  9   5  29  1   
 10   6   8  ar  
 11   6   9  ar  
 12   7  10  1   
 13   7  30  1   
 14   7  31  1   
 15   8  11  ar  
 16   8  32  1   
 17   9  12  ar  
 18   9  33  1   
 19  10  13  2   
 20  10  14  am  
 21  11  15  ar  
 22  11  34  1   
 23  12  15  ar  
 24  12  35  1   
 25  14  16  1   
 26  14  36  1   
 27  15  17  1   
 28  16  18  ar  
 29  16  19  ar  
 30  17  20  1   
 31  18  21  ar  
 32  18  22  1   
 33  19  23  ar  
 34  19  24  1   
 35  20  37  1   
 36  20  38  1   
 37  20  39  1   
 38  21  25  ar  
 39  21  40  1   
 40  22  41  1   
 41  22  42  1   
 42  22  43  1   
 43  23  25  ar  
 44  23  44  1   
 45  24  45  1   
 46  24  46  1   
 47  24  47  1   
 48  25  26  1   
 49  26  48  1   
 50  26  49  1   
 51  26  50  1   
@<TRIPOS>SUBSTRUCTURE
  1 ****  10 GROUP 4 **** **** 0

# MOE 2024.06 (io_trps.svl 2023.06)
