@<TRIPOS>MOLECULE
NONAME
46 48 1 0 0 
SMALL
USER_CHARGES


@<TRIPOS>ATOM
  1 O        0.0320     1.5850    -1.4590 O.2   1 <1>  -0.5700 
  2 C       -0.5890     2.2110    -0.6310 C.2   1 <1>   0.5690 
  3 N       -0.1360     3.4140    -0.1940 N.am  1 <1>  -0.7300 
  4 C       -1.9000     1.6530    -0.0370 C.3   1 <1>   0.0610 
  5 C        1.1480     4.0480    -0.5860 C.3   1 <1>   0.2810 
  6 C       -2.2850     0.2900    -0.6720 C.3   1 <1>  -0.1600 
  7 C       -1.7470     1.4410     1.4910 C.3   1 <1>  -0.1600 
  8 C       -3.0700     2.6400    -0.2820 C.3   1 <1>  -0.1600 
  9 C        2.1160     4.1610     0.6180 C.2   1 <1>   0.5690 
 10 C        0.8110     5.4020    -1.2190 C.3   1 <1>  -0.2400 
 11 C       -3.5910    -0.2570    -0.0670 C.3   1 <1>  -0.0800 
 12 C       -3.0520     0.9030     2.1070 C.3   1 <1>  -0.0800 
 13 C       -4.3800     2.1050     0.3280 C.3   1 <1>  -0.0800 
 14 O        1.9830     5.1050     1.3670 O.2   1 <1>  -0.5700 
 15 N        3.0870     3.2080     0.8420 N.am  1 <1>  -0.6600 
 16 C       -3.4050    -0.4440     1.4490 C.3   1 <1>  -0.1600 
 17 C       -4.7250     0.7520    -0.3200 C.3   1 <1>  -0.1600 
 18 C       -4.1890     1.9080     1.8430 C.3   1 <1>  -0.1600 
 19 C        3.1790     1.9260     0.0880 C.3   1 <1>   0.0600 
 20 C        4.0940     3.3600     1.9290 C.3   1 <1>   0.0600 
 21 H       -0.6280     3.9000     0.5570 H     1 <1>   0.3700 
 22 H        1.6200     3.4510    -1.3450 H     1 <1>   0.0800 
 23 H       -1.4920    -0.4200    -0.5130 H     1 <1>   0.0800 
 24 H       -2.4020     0.4070    -1.7360 H     1 <1>   0.0800 
 25 H       -0.9460     0.7470     1.6790 H     1 <1>   0.0800 
 26 H       -1.4890     2.3680     1.9710 H     1 <1>   0.0800 
 27 H       -3.1990     2.7880    -1.3400 H     1 <1>   0.0800 
 28 H       -2.8470     3.5980     0.1530 H     1 <1>   0.0800 
 29 H        0.3130     6.0380    -0.5090 H     1 <1>   0.0800 
 30 H        0.1820     5.2610    -2.0800 H     1 <1>   0.0800 
 31 H        1.7160     5.8880    -1.5330 H     1 <1>   0.0800 
 32 H       -3.8350    -1.2010    -0.5240 H     1 <1>   0.0800 
 33 H       -2.9260     0.7660     3.1670 H     1 <1>   0.0800 
 34 H       -5.1770     2.8070     0.1500 H     1 <1>   0.0800 
 35 H       -2.6200    -1.1570     1.6350 H     1 <1>   0.0800 
 36 H       -4.3090    -0.8350     1.8810 H     1 <1>   0.0800 
 37 H       -4.8680     0.8810    -1.3790 H     1 <1>   0.0800 
 38 H       -5.6460     0.3760     0.0900 H     1 <1>   0.0800 
 39 H       -3.9580     2.8510     2.3080 H     1 <1>   0.0800 
 40 H       -5.1030     1.5450     2.2800 H     1 <1>   0.0800 
 41 H        2.1970     1.5490    -0.1360 H     1 <1>   0.0800 
 42 H        3.6930     1.1840     0.6740 H     1 <1>   0.0800 
 43 H        3.7170     2.0800    -0.8310 H     1 <1>   0.0800 
 44 H        4.0470     4.3460     2.3600 H     1 <1>   0.0800 
 45 H        5.0830     3.2070     1.5350 H     1 <1>   0.0800 
 46 H        3.9020     2.6380     2.7030 H     1 <1>   0.0800 
@<TRIPOS>BOND
  1   1   2  2   
  2   2   3  am  
  3   2   4  1   
  4   3   5  1   
  5   3  21  1   
  6   4   6  1   
  7   4   7  1   
  8   4   8  1   
  9   5   9  1   
 10   5  10  1   
 11   5  22  1   
 12   6  11  1   
 13   6  23  1   
 14   6  24  1   
 15   7  12  1   
 16   7  25  1   
 17   7  26  1   
 18   8  13  1   
 19   8  27  1   
 20   8  28  1   
 21   9  14  2   
 22   9  15  am  
 23  10  29  1   
 24  10  30  1   
 25  10  31  1   
 26  11  16  1   
 27  11  17  1   
 28  11  32  1   
 29  12  16  1   
 30  12  18  1   
 31  12  33  1   
 32  13  17  1   
 33  13  18  1   
 34  13  34  1   
 35  15  19  1   
 36  15  20  1   
 37  16  35  1   
 38  16  36  1   
 39  17  37  1   
 40  17  38  1   
 41  18  39  1   
 42  18  40  1   
 43  19  41  1   
 44  19  42  1   
 45  19  43  1   
 46  20  44  1   
 47  20  45  1   
 48  20  46  1   
@<TRIPOS>SUBSTRUCTURE
  1 ****   2 GROUP 4 **** **** 0

# MOE 2024.06 (io_trps.svl 2023.06)
