@<TRIPOS>MOLECULE
NONAME
37 37 1 0 0 
SMALL
USER_CHARGES


@<TRIPOS>ATOM
  1 O       -1.4350     6.9070     0.0260 O.3   1 <1>  -0.3630 
  2 C       -0.2320     6.3560     0.3280 C.ar  1 <1>   0.0830 
  3 C       -2.6350     6.2190     0.2630 C.3   1 <1>   0.1200 
  4 C        0.8900     7.1220     0.0530 C.ar  1 <1>  -0.1500 
  5 C       -0.0780     5.0900     0.8860 C.ar  1 <1>  -0.1500 
  6 C       -3.7730     7.1330    -0.1930 C.3   1 <1>  -0.1600 
  7 C        2.1650     6.6480     0.3250 C.ar  1 <1>  -0.1440 
  8 C        1.1900     4.6110     1.1600 C.ar  1 <1>  -0.1500 
  9 C       -5.1280     6.4720     0.0240 C.3   1 <1>   0.3430 
 10 C        2.3030     5.3840     0.8810 C.ar  1 <1>  -0.1500 
 11 C        3.3820     7.5160     0.0110 C.3   1 <1>   0.0640 
 12 N       -6.1920     7.3990    -0.4340 N.4   1 <1>  -0.9060 
 13 C        4.2850     6.8370    -1.0240 C.3   1 <1>  -0.2400 
 14 C        4.1660     7.8410     1.2870 C.3   1 <1>  -0.2400 
 15 C       -7.5630     6.8350    -0.2600 C.3   1 <1>   0.2630 
 16 H       -2.6980     6.0090     1.3170 H     1 <1>   0.0800 
 17 H       -2.6140     5.3040    -0.3050 H     1 <1>   0.0800 
 18 H        0.7520     8.0960    -0.3780 H     1 <1>   0.1500 
 19 H       -0.9190     4.4660     1.1140 H     1 <1>   0.1500 
 20 H       -3.6340     7.3480    -1.2390 H     1 <1>   0.0800 
 21 H       -3.7180     8.0480     0.3720 H     1 <1>   0.0800 
 22 H        1.3150     3.6330     1.5910 H     1 <1>   0.1500 
 23 H       -5.2590     6.2470     1.0710 H     1 <1>   0.0800 
 24 H       -5.1760     5.5490    -0.5340 H     1 <1>   0.0800 
 25 H        3.2820     4.9950     1.1010 H     1 <1>   0.1500 
 26 H        3.0430     8.4470    -0.4110 H     1 <1>   0.0800 
 27 H       -6.0320     7.6300    -1.4250 H     1 <1>   0.4500 
 28 H       -6.1110     8.2860     0.0830 H     1 <1>   0.4500 
 29 H        4.6930     5.9210    -0.6350 H     1 <1>   0.0800 
 30 H        5.0970     7.4880    -1.2950 H     1 <1>   0.0800 
 31 H        3.7180     6.6100    -1.9090 H     1 <1>   0.0800 
 32 H        4.5710     6.9480     1.7260 H     1 <1>   0.0800 
 33 H        3.5150     8.3110     2.0030 H     1 <1>   0.0800 
 34 H        4.9740     8.5140     1.0660 H     1 <1>   0.0800 
 35 H       -7.6700     5.9230    -0.8260 H     1 <1>   0.0800 
 36 H       -8.3040     7.5390    -0.6040 H     1 <1>   0.0800 
 37 H       -7.7530     6.6200     0.7800 H     1 <1>   0.0800 
@<TRIPOS>BOND
  1   1   2  1   
  2   1   3  1   
  3   2   4  ar  
  4   2   5  ar  
  5   3   6  1   
  6   3  16  1   
  7   3  17  1   
  8   4   7  ar  
  9   4  18  1   
 10   5   8  ar  
 11   5  19  1   
 12   6   9  1   
 13   6  20  1   
 14   6  21  1   
 15   7  10  ar  
 16   7  11  1   
 17   8  10  ar  
 18   8  22  1   
 19   9  12  1   
 20   9  23  1   
 21   9  24  1   
 22  10  25  1   
 23  11  13  1   
 24  11  14  1   
 25  11  26  1   
 26  12  15  1   
 27  12  27  1   
 28  12  28  1   
 29  13  29  1   
 30  13  30  1   
 31  13  31  1   
 32  14  32  1   
 33  14  33  1   
 34  14  34  1   
 35  15  35  1   
 36  15  36  1   
 37  15  37  1   
@<TRIPOS>SUBSTRUCTURE
  1 ****   2 GROUP 4 **** **** 0

# MOE 2024.06 (io_trps.svl 2023.06)
