@<TRIPOS>MOLECULE
NONAME
38 40 1 0 0 
SMALL
USER_CHARGES


@<TRIPOS>ATOM
  1 N       -4.6680    -0.8090     0.6300 N.4   1 <1>  -0.9060 
  2 C       -6.1020    -0.9160     0.2720 C.3   1 <1>   0.5030 
  3 C       -3.8910    -2.1030     0.6150 C.3   1 <1>   0.3430 
  4 C       -6.6930     0.5040     0.3510 C.3   1 <1>  -0.1600 
  5 C       -6.8510    -1.8300     1.2650 C.3   1 <1>  -0.1600 
  6 C       -6.2730    -1.4550    -1.1630 C.3   1 <1>  -0.1600 
  7 C       -2.3870    -1.9460     0.9970 C.3   1 <1>   0.3430 
  8 C       -8.1890     0.4760    -0.0090 C.3   1 <1>  -0.0800 
  9 C       -8.3480    -1.8720     0.9060 C.3   1 <1>  -0.0800 
 10 C       -7.7700    -1.4960    -1.5280 C.3   1 <1>  -0.0800 
 11 N       -1.6030    -3.2320     0.9850 N.4   1 <1>  -0.8530 
 12 C       -8.9280    -0.4470     0.9770 C.3   1 <1>  -0.1600 
 13 C       -8.3540    -0.0750    -1.4370 C.3   1 <1>  -0.1600 
 14 C       -8.5100    -2.4080    -0.5300 C.3   1 <1>  -0.1600 
 15 H       -4.6620    -0.3640     1.5570 H     1 <1>   0.4500 
 16 H       -4.2850    -0.1200    -0.0300 H     1 <1>   0.4500 
 17 H       -3.9510    -2.5320    -0.3720 H     1 <1>   0.0800 
 18 H       -4.3500    -2.7910     1.3070 H     1 <1>   0.0800 
 19 H       -6.1900     1.1630    -0.3350 H     1 <1>   0.0800 
 20 H       -6.5890     0.9040     1.3450 H     1 <1>   0.0800 
 21 H       -6.7480    -1.4610     2.2710 H     1 <1>   0.0800 
 22 H       -6.4760    -2.8360     1.2270 H     1 <1>   0.0800 
 23 H       -5.8860    -2.4540    -1.2530 H     1 <1>   0.0800 
 24 H       -5.7630    -0.8230    -1.8680 H     1 <1>   0.0800 
 25 H       -2.3260    -1.5140     1.9840 H     1 <1>   0.0800 
 26 H       -1.9280    -1.2560     0.3060 H     1 <1>   0.0800 
 27 H       -8.6030     1.4710     0.0460 H     1 <1>   0.0800 
 28 H       -8.8780    -2.5110     1.5930 H     1 <1>   0.0800 
 29 H       -7.8980    -1.8760    -2.5290 H     1 <1>   0.0800 
 30 H       -1.9450    -3.9300     1.6620 H     1 <1>   0.4500 
 31 H       -0.6200    -3.0540     1.2460 H     1 <1>   0.4500 
 32 H       -1.5640    -3.6830     0.0600 H     1 <1>   0.4500 
 33 H       -9.9770    -0.4710     0.7320 H     1 <1>   0.0800 
 34 H       -8.8460    -0.0620     1.9790 H     1 <1>   0.0800 
 35 H       -9.4000    -0.0970    -1.6970 H     1 <1>   0.0800 
 36 H       -7.8650     0.5740    -2.1440 H     1 <1>   0.0800 
 37 H       -9.5570    -2.4430    -0.7850 H     1 <1>   0.0800 
 38 H       -8.1350    -3.4140    -0.5960 H     1 <1>   0.0800 
@<TRIPOS>BOND
  1   1   2  1   
  2   1   3  1   
  3   1  15  1   
  4   1  16  1   
  5   2   4  1   
  6   2   5  1   
  7   2   6  1   
  8   3   7  1   
  9   3  17  1   
 10   3  18  1   
 11   4   8  1   
 12   4  19  1   
 13   4  20  1   
 14   5   9  1   
 15   5  21  1   
 16   5  22  1   
 17   6  10  1   
 18   6  23  1   
 19   6  24  1   
 20   7  11  1   
 21   7  25  1   
 22   7  26  1   
 23   8  12  1   
 24   8  13  1   
 25   8  27  1   
 26   9  12  1   
 27   9  14  1   
 28   9  28  1   
 29  10  13  1   
 30  10  14  1   
 31  10  29  1   
 32  11  30  1   
 33  11  31  1   
 34  11  32  1   
 35  12  33  1   
 36  12  34  1   
 37  13  35  1   
 38  13  36  1   
 39  14  37  1   
 40  14  38  1   
@<TRIPOS>SUBSTRUCTURE
  1 ****   2 GROUP 4 **** **** 0

# MOE 2024.06 (io_trps.svl 2023.06)
