@<TRIPOS>MOLECULE
NONAME
49 50 1 0 0 
SMALL
USER_CHARGES


@<TRIPOS>ATOM
  1 O       -0.5140    -0.0580    -0.2570 O.2   1 <1>  -0.5700 
  2 C       -0.7640    -1.2390    -0.2360 C.2   1 <1>   0.5690 
  3 N       -2.0060    -1.7430     0.0410 N.am  1 <1>  -0.5470 
  4 C        0.3490    -2.2430    -0.5550 C.3   1 <1>  -0.0190 
  5 C       -3.2140    -1.1110     0.3750 C.ar  1 <1>   0.1170 
  6 C        1.6200    -1.9760     0.2690 C.3   1 <1>  -0.2400 
  7 C        0.6840    -2.2390    -2.0550 C.3   1 <1>  -0.2400 
  8 C       -4.3950    -1.8200     0.2070 C.ar  1 <1>  -0.1500 
  9 C       -3.2850     0.1830     0.8800 C.ar  1 <1>  -0.1500 
 10 C       -5.6310    -1.2730     0.5300 C.ar  1 <1>   0.1170 
 11 C       -4.5050     0.7490     1.2010 C.ar  1 <1>  -0.1500 
 12 N       -6.8430    -1.9630     0.3690 N.am  1 <1>  -0.5470 
 13 C       -5.6690     0.0240     1.0260 C.ar  1 <1>  -0.1500 
 14 C       -7.1360    -3.2860     0.1720 C.2   1 <1>   0.5690 
 15 O       -6.3020    -4.1570     0.0980 O.2   1 <1>  -0.5700 
 16 C       -8.6010    -3.6850     0.0460 C.3   1 <1>   0.1810 
 17 O       -9.4540    -2.5550     0.1870 O.3   1 <1>  -0.3630 
 18 C      -10.8020    -2.6830     0.1010 C.ar  1 <1>   0.0820 
 19 C      -11.5470    -1.5220     0.2320 C.ar  1 <1>  -0.1500 
 20 C      -11.4540    -3.8960    -0.1070 C.ar  1 <1>  -0.1500 
 21 C      -12.9290    -1.5570     0.1600 C.ar  1 <1>  -0.1440 
 22 C      -12.8370    -3.9390    -0.1850 C.ar  1 <1>  -0.1440 
 23 C      -13.5670    -2.7690    -0.0500 C.ar  1 <1>  -0.1500 
 24 C      -13.7460    -0.2860     0.3030 C.3   1 <1>  -0.0970 
 25 C      -13.5580    -5.2560    -0.4110 C.3   1 <1>  -0.0970 
 26 H       -2.0850    -2.7530    -0.0540 H     1 <1>   0.3700 
 27 H       -0.0010    -3.2270    -0.2970 H     1 <1>   0.0800 
 28 H        2.0250    -1.0080     0.0280 H     1 <1>   0.0800 
 29 H        2.3670    -2.7230     0.0660 H     1 <1>   0.0800 
 30 H        1.3900    -1.9950     1.3190 H     1 <1>   0.0800 
 31 H        1.0490    -1.2700    -2.3500 H     1 <1>   0.0800 
 32 H       -0.1950    -2.4610    -2.6340 H     1 <1>   0.0800 
 33 H        1.4370    -2.9750    -2.2770 H     1 <1>   0.0800 
 34 H       -4.3450    -2.8140    -0.1900 H     1 <1>   0.1500 
 35 H       -2.3870     0.7560     1.0280 H     1 <1>   0.1500 
 36 H       -4.5430     1.7520     1.5870 H     1 <1>   0.1500 
 37 H       -7.6840    -1.3850     0.4390 H     1 <1>   0.3700 
 38 H       -6.6120     0.4720     1.2810 H     1 <1>   0.1500 
 39 H       -8.8430    -4.3930     0.8170 H     1 <1>   0.0800 
 40 H       -8.7680    -4.1200    -0.9220 H     1 <1>   0.0800 
 41 H      -11.0350    -0.5910     0.3910 H     1 <1>   0.1500 
 42 H      -10.9070    -4.8120    -0.2100 H     1 <1>   0.1500 
 43 H      -14.6400    -2.8010    -0.1080 H     1 <1>   0.1500 
 44 H      -13.1510     0.5070     0.7180 H     1 <1>   0.0800 
 45 H      -14.5850    -0.4570     0.9530 H     1 <1>   0.0800 
 46 H      -14.1100     0.0230    -0.6610 H     1 <1>   0.0800 
 47 H      -12.8980    -5.9830    -0.8490 H     1 <1>   0.0800 
 48 H      -14.3920    -5.1130    -1.0750 H     1 <1>   0.0800 
 49 H      -13.9210    -5.6370     0.5260 H     1 <1>   0.0800 
@<TRIPOS>BOND
  1   1   2  2   
  2   2   3  am  
  3   2   4  1   
  4   3   5  1   
  5   3  26  1   
  6   4   6  1   
  7   4   7  1   
  8   4  27  1   
  9   5   8  ar  
 10   5   9  ar  
 11   6  28  1   
 12   6  29  1   
 13   6  30  1   
 14   7  31  1   
 15   7  32  1   
 16   7  33  1   
 17   8  10  ar  
 18   8  34  1   
 19   9  11  ar  
 20   9  35  1   
 21  10  12  1   
 22  10  13  ar  
 23  11  13  ar  
 24  11  36  1   
 25  12  14  am  
 26  12  37  1   
 27  13  38  1   
 28  14  15  2   
 29  14  16  1   
 30  16  17  1   
 31  16  39  1   
 32  16  40  1   
 33  17  18  1   
 34  18  19  ar  
 35  18  20  ar  
 36  19  21  ar  
 37  19  41  1   
 38  20  22  ar  
 39  20  42  1   
 40  21  23  ar  
 41  21  24  1   
 42  22  23  ar  
 43  22  25  1   
 44  23  43  1   
 45  24  44  1   
 46  24  45  1   
 47  24  46  1   
 48  25  47  1   
 49  25  48  1   
 50  25  49  1   
@<TRIPOS>SUBSTRUCTURE
  1 ****  12 GROUP 4 **** **** 0

# MOE 2024.06 (io_trps.svl 2023.06)
