@<TRIPOS>MOLECULE
NONAME
50 51 1 0 0 
SMALL
USER_CHARGES


@<TRIPOS>ATOM
  1 S        2.1970     0.2070     0.5270 S.o2  1 <1>   1.3330 
  2 O        3.1610     0.9130     1.3350 O.2   1 <1>  -0.6500 
  3 O        2.6000    -0.9600    -0.2160 O.2   1 <1>  -0.6500 
  4 N        1.6380     1.3530    -0.6340 N.am  1 <1>  -0.6930 
  5 C        0.7390    -0.1830     1.4730 C.3   1 <1>  -0.1350 
  6 C        0.7100     2.3330    -0.2840 C.ar  1 <1>   0.1990 
  7 C        2.6080     1.6160    -1.7450 C.3   1 <1>   0.3370 
  8 C        0.9670     3.2720     0.7090 C.ar  1 <1>  -0.1500 
  9 C       -0.5270     2.3650    -0.9150 C.ar  1 <1>  -0.1500 
 10 C        3.4690     2.8920    -1.5550 C.2   1 <1>   0.5690 
 11 C        1.8430     1.5740    -3.0770 C.3   1 <1>  -0.2400 
 12 C        0.0200     4.2170     1.0540 C.ar  1 <1>  -0.1500 
 13 C       -1.4780     3.3080    -0.5720 C.ar  1 <1>  -0.1500 
 14 O        3.5920     3.6600    -2.4830 O.2   1 <1>  -0.5700 
 15 N        4.0900     3.0980    -0.3490 N.am  1 <1>  -0.5470 
 16 C       -1.2100     4.2400     0.4170 C.ar  1 <1>  -0.1430 
 17 C        4.9020     4.1570     0.1060 C.ar  1 <1>   0.1170 
 18 C       -2.2470     5.2830     0.7930 C.3   1 <1>  -0.0970 
 19 C        4.9610     4.4390     1.4740 C.ar  1 <1>   0.0830 
 20 C        5.6760     4.9310    -0.7530 C.ar  1 <1>  -0.1500 
 21 O        4.2260     3.7070     2.3460 O.3   1 <1>  -0.3620 
 22 C        5.7480     5.4710     1.9560 C.ar  1 <1>  -0.1500 
 23 C        6.4740     5.9610    -0.2760 C.ar  1 <1>  -0.1430 
 24 C        4.9430     2.7770     3.1240 C.3   1 <1>   0.0400 
 25 C        6.5050     6.2310     1.0820 C.ar  1 <1>  -0.1500 
 26 C        7.3010     6.7930    -1.2380 C.3   1 <1>  -0.0970 
 27 H        0.9680    -0.9260     2.2110 H     1 <1>   0.0800 
 28 H       -0.0280    -0.5640     0.8280 H     1 <1>   0.0800 
 29 H        0.3690     0.6920     1.9700 H     1 <1>   0.0800 
 30 H        3.3110     0.8020    -1.7790 H     1 <1>   0.0800 
 31 H        1.9120     3.2750     1.2200 H     1 <1>   0.1500 
 32 H       -0.7430     1.6420    -1.6800 H     1 <1>   0.1500 
 33 H        1.1900     2.4240    -3.1620 H     1 <1>   0.0800 
 34 H        1.2760     0.6650    -3.1540 H     1 <1>   0.0800 
 35 H        2.5410     1.6110    -3.8930 H     1 <1>   0.0800 
 36 H        0.2480     4.9390     1.8190 H     1 <1>   0.1500 
 37 H       -2.4280     3.3160    -1.0780 H     1 <1>   0.1500 
 38 H        3.8210     2.4510     0.4060 H     1 <1>   0.3700 
 39 H       -2.1060     6.1660     0.1960 H     1 <1>   0.0800 
 40 H       -2.1550     5.5480     1.8310 H     1 <1>   0.0800 
 41 H       -3.2400     4.9050     0.6260 H     1 <1>   0.0800 
 42 H        5.6580     4.7290    -1.8070 H     1 <1>   0.1500 
 43 H        5.7630     5.6810     3.0090 H     1 <1>   0.1500 
 44 H        4.2380     2.2180     3.7140 H     1 <1>   0.0800 
 45 H        5.6270     3.3040     3.7640 H     1 <1>   0.0800 
 46 H        5.4750     2.1120     2.4670 H     1 <1>   0.0800 
 47 H        7.1140     7.0320     1.4620 H     1 <1>   0.1500 
 48 H        7.5300     6.2290    -2.1250 H     1 <1>   0.0800 
 49 H        8.2250     7.0910    -0.7780 H     1 <1>   0.0800 
 50 H        6.7520     7.6730    -1.5210 H     1 <1>   0.0800 
@<TRIPOS>BOND
  1   1   2  2   
  2   1   3  2   
  3   1   4  am  
  4   1   5  1   
  5   4   6  1   
  6   4   7  1   
  7   5  27  1   
  8   5  28  1   
  9   5  29  1   
 10   6   8  ar  
 11   6   9  ar  
 12   7  10  1   
 13   7  11  1   
 14   7  30  1   
 15   8  12  ar  
 16   8  31  1   
 17   9  13  ar  
 18   9  32  1   
 19  10  14  2   
 20  10  15  am  
 21  11  33  1   
 22  11  34  1   
 23  11  35  1   
 24  12  16  ar  
 25  12  36  1   
 26  13  16  ar  
 27  13  37  1   
 28  15  17  1   
 29  15  38  1   
 30  16  18  1   
 31  17  19  ar  
 32  17  20  ar  
 33  18  39  1   
 34  18  40  1   
 35  18  41  1   
 36  19  21  1   
 37  19  22  ar  
 38  20  23  ar  
 39  20  42  1   
 40  21  24  1   
 41  22  25  ar  
 42  22  43  1   
 43  23  25  ar  
 44  23  26  1   
 45  24  44  1   
 46  24  45  1   
 47  24  46  1   
 48  25  47  1   
 49  26  48  1   
 50  26  49  1   
 51  26  50  1   
@<TRIPOS>SUBSTRUCTURE
  1 ****  15 GROUP 4 **** **** 0

# MOE 2024.06 (io_trps.svl 2023.06)
