@<TRIPOS>MOLECULE
NONAME
50 52 1 0 0 
SMALL
USER_CHARGES


@<TRIPOS>ATOM
  1 O       -1.4830    -0.1850    -0.0690 O.2   1 <1>  -0.5700 
  2 C       -2.2740    -1.0620    -0.3550 C.2   1 <1>   0.7060 
  3 O       -3.5570    -0.8350    -0.0840 O.3   1 <1>  -0.2330 
  4 C       -1.9100    -2.3070    -0.9740 C.2   1 <1>  -0.1240 
  5 C       -4.5520    -1.6960    -0.3890 C.ar  1 <1>   0.0820 
  6 C       -2.8620    -3.2290    -1.2820 C.2   1 <1>  -0.1670 
  7 C       -0.4120    -2.5110    -1.2350 C.3   1 <1>   0.0390 
  8 C       -4.2430    -2.9230    -1.0010 C.ar  1 <1>   0.0280 
  9 C       -5.8620    -1.3320    -0.0820 C.ar  1 <1>  -0.1440 
 10 C       -2.5520    -4.5950    -1.9010 C.3   1 <1>  -0.1020 
 11 C        0.2300    -3.3430    -0.1430 C.2   1 <1>   0.6590 
 12 C       -5.3120    -3.7750    -1.3030 C.ar  1 <1>  -0.1500 
 13 C       -6.8860    -2.2230    -0.3740 C.ar  1 <1>   0.0830 
 14 C       -6.1630     0.0250     0.5570 C.3   1 <1>  -0.0960 
 15 O        0.7220    -4.4160    -0.3810 O.2   1 <1>  -0.5700 
 16 O        0.2140    -2.8280     1.0790 O.3   1 <1>  -0.4300 
 17 C       -6.6090    -3.4310    -0.9950 C.ar  1 <1>  -0.1500 
 18 O       -8.1710    -1.9510    -0.0810 O.3   1 <1>  -0.3630 
 19 C        0.7720    -3.5080     2.1830 C.3   1 <1>   0.0400 
 20 C       -8.5700    -2.0880     1.2780 C.3   1 <1>   0.1810 
 21 C       -9.2920    -0.8420     1.7870 C.2   1 <1>   0.5690 
 22 O       -8.8400    -0.2920     2.7660 O.2   1 <1>  -0.5700 
 23 N      -10.4260    -0.3780     1.1740 N.am  1 <1>  -0.6600 
 24 C      -11.1440     0.8290     1.6350 C.3   1 <1>   0.1400 
 25 C      -11.0300    -0.9180    -0.0640 C.3   1 <1>   0.1400 
 26 C      -12.0950     1.1750     0.4950 C.3   1 <1>  -0.1600 
 27 C      -12.3370    -0.1500    -0.2220 C.3   1 <1>  -0.1600 
 28 H        0.1100    -1.5750    -1.2930 H     1 <1>   0.0800 
 29 H       -0.2600    -2.9960    -2.1800 H     1 <1>   0.0800 
 30 H       -2.9930    -4.6630    -2.8800 H     1 <1>   0.0800 
 31 H       -2.9580    -5.3760    -1.2820 H     1 <1>   0.0800 
 32 H       -1.5030    -4.7920    -1.9990 H     1 <1>   0.0800 
 33 H       -5.1400    -4.7190    -1.7840 H     1 <1>   0.1500 
 34 H       -6.1370    -0.0590     1.6280 H     1 <1>   0.0800 
 35 H       -7.1350     0.3800     0.2620 H     1 <1>   0.0800 
 36 H       -5.4480     0.7680     0.2530 H     1 <1>   0.0800 
 37 H       -7.4210    -4.0950    -1.2310 H     1 <1>   0.1500 
 38 H        0.6430    -2.8980     3.0590 H     1 <1>   0.0800 
 39 H        1.8190    -3.6730     1.9970 H     1 <1>   0.0800 
 40 H        0.2630    -4.4490     2.3060 H     1 <1>   0.0800 
 41 H       -7.7010    -2.2670     1.8850 H     1 <1>   0.0800 
 42 H       -9.2230    -2.9360     1.3450 H     1 <1>   0.0800 
 43 H      -10.4560     1.6310     1.8400 H     1 <1>   0.0800 
 44 H      -11.6930     0.5880     2.5290 H     1 <1>   0.0800 
 45 H      -11.2000    -1.9780     0.0140 H     1 <1>   0.0800 
 46 H      -10.3740    -0.7130    -0.8940 H     1 <1>   0.0800 
 47 H      -11.6040     1.8660    -0.1690 H     1 <1>   0.0800 
 48 H      -13.0050     1.6220     0.8550 H     1 <1>   0.0800 
 49 H      -13.1240    -0.6940     0.2710 H     1 <1>   0.0800 
 50 H      -12.5990    -0.0160    -1.2570 H     1 <1>   0.0800 
@<TRIPOS>BOND
  1   1   2  2   
  2   2   3  1   
  3   2   4  1   
  4   3   5  1   
  5   4   6  2   
  6   4   7  1   
  7   5   8  ar  
  8   5   9  ar  
  9   6   8  1   
 10   6  10  1   
 11   7  11  1   
 12   7  28  1   
 13   7  29  1   
 14   8  12  ar  
 15   9  13  ar  
 16   9  14  1   
 17  10  30  1   
 18  10  31  1   
 19  10  32  1   
 20  11  15  2   
 21  11  16  1   
 22  12  17  ar  
 23  12  33  1   
 24  13  17  ar  
 25  13  18  1   
 26  14  34  1   
 27  14  35  1   
 28  14  36  1   
 29  16  19  1   
 30  17  37  1   
 31  18  20  1   
 32  19  38  1   
 33  19  39  1   
 34  19  40  1   
 35  20  21  1   
 36  20  41  1   
 37  20  42  1   
 38  21  22  2   
 39  21  23  am  
 40  23  24  1   
 41  23  25  1   
 42  24  26  1   
 43  24  43  1   
 44  24  44  1   
 45  25  27  1   
 46  25  45  1   
 47  25  46  1   
 48  26  27  1   
 49  26  47  1   
 50  26  48  1   
 51  27  49  1   
 52  27  50  1   
@<TRIPOS>SUBSTRUCTURE
  1 ****   9 GROUP 4 **** **** 0

# MOE 2024.06 (io_trps.svl 2023.06)
