@<TRIPOS>MOLECULE
NONAME
37 39 1 0 0 
SMALL
USER_CHARGES


@<TRIPOS>ATOM
  1 O        0.3900    -0.3950    -0.9170 O.2   1 <1>  -0.5700 
  2 C        0.2290    -1.5570    -0.5630 C.2   1 <1>   0.7670 
  3 N       -1.0350    -2.0460    -0.4580 N.2   1 <1>  -0.6610 
  4 C        1.3460    -2.3830    -0.2590 C.2   1 <1>  -0.1240 
  5 C       -1.1860    -3.2770    -0.0660 C.2   1 <1>   0.5500 
  6 C        1.1500    -3.6380     0.1410 C.2   1 <1>  -0.0380 
  7 C        2.8120    -2.0340    -0.3150 C.3   1 <1>  -0.0220 
  8 N       -0.1310    -4.0940     0.2450 N.pl3 1 <1>  -0.5500 
  9 N       -2.4230    -3.8420     0.0430 N.pl3 1 <1>  -0.5500 
 10 C        2.4210    -4.3850     0.4360 C.3   1 <1>  -0.0220 
 11 C        3.5150    -3.3580     0.0670 C.3   1 <1>  -0.1600 
 12 C       -3.7050    -3.2670     0.0070 C.ar  1 <1>   0.1000 
 13 C       -4.7710    -4.0340    -0.4490 C.ar  1 <1>  -0.1500 
 14 C       -3.9600    -1.9680     0.4350 C.ar  1 <1>  -0.1500 
 15 C       -6.0540    -3.5170    -0.4790 C.ar  1 <1>  -0.1500 
 16 C       -5.2400    -1.4450     0.4050 C.ar  1 <1>  -0.1500 
 17 C       -6.3000    -2.2210    -0.0550 C.ar  1 <1>   0.0830 
 18 O       -7.5870    -1.7900    -0.1200 O.3   1 <1>  -0.3620 
 19 C       -7.9220    -0.4670     0.2250 C.3   1 <1>   0.1200 
 20 C       -9.4220    -0.2890     0.0110 C.3   1 <1>  -0.2400 
 21 H        3.0320    -1.2540     0.3940 H     1 <1>   0.0800 
 22 H        3.0870    -1.7120    -1.3040 H     1 <1>   0.0800 
 23 H       -0.3160    -5.0300     0.6000 H     1 <1>   0.4000 
 24 H       -2.4300    -4.8550     0.0460 H     1 <1>   0.4000 
 25 H        2.4970    -5.2700    -0.1710 H     1 <1>   0.0800 
 26 H        2.4700    -4.6450     1.4790 H     1 <1>   0.0800 
 27 H        4.1850    -3.2030     0.8950 H     1 <1>   0.0800 
 28 H        4.0830    -3.7190    -0.7730 H     1 <1>   0.0800 
 29 H       -4.6030    -5.0390    -0.7880 H     1 <1>   0.1500 
 30 H       -3.1520    -1.3590     0.7970 H     1 <1>   0.1500 
 31 H       -6.8750    -4.1120    -0.8350 H     1 <1>   0.1500 
 32 H       -5.3870    -0.4370     0.7420 H     1 <1>   0.1500 
 33 H       -7.3650     0.2020    -0.4090 H     1 <1>   0.0800 
 34 H       -7.6630    -0.3080     1.2570 H     1 <1>   0.0800 
 35 H       -9.6710    -0.4670    -1.0190 H     1 <1>   0.0800 
 36 H       -9.7100     0.7150     0.2670 H     1 <1>   0.0800 
 37 H       -9.9680    -0.9730     0.6360 H     1 <1>   0.0800 
@<TRIPOS>BOND
  1   1   2  2   
  2   2   3  1   
  3   2   4  1   
  4   3   5  2   
  5   4   6  2   
  6   4   7  1   
  7   5   8  1   
  8   5   9  1   
  9   6   8  1   
 10   6  10  1   
 11   7  11  1   
 12   7  21  1   
 13   7  22  1   
 14   8  23  1   
 15   9  12  1   
 16   9  24  1   
 17  10  11  1   
 18  10  25  1   
 19  10  26  1   
 20  11  27  1   
 21  11  28  1   
 22  12  13  ar  
 23  12  14  ar  
 24  13  15  ar  
 25  13  29  1   
 26  14  16  ar  
 27  14  30  1   
 28  15  17  ar  
 29  15  31  1   
 30  16  17  ar  
 31  16  32  1   
 32  17  18  1   
 33  18  19  1   
 34  19  20  1   
 35  19  33  1   
 36  19  34  1   
 37  20  35  1   
 38  20  36  1   
 39  20  37  1   
@<TRIPOS>SUBSTRUCTURE
  1 ****   9 GROUP 4 **** **** 0

# MOE 2024.06 (io_trps.svl 2023.06)
