@<TRIPOS>MOLECULE
NONAME
45 46 1 0 0 
SMALL
USER_CHARGES


@<TRIPOS>ATOM
  1 O       -0.3040     0.1460     0.5380 O.3   1 <1>  -0.3630 
  2 C        0.8570     0.8060     0.2820 C.ar  1 <1>   0.0830 
  3 C       -1.2820     0.2510    -0.4710 C.3   1 <1>   0.1200 
  4 C        1.9070     0.1370    -0.3480 C.ar  1 <1>   0.0830 
  5 C        0.9930     2.1410     0.6660 C.ar  1 <1>   0.0830 
  6 C       -2.5380    -0.4750    -0.0070 C.3   1 <1>   0.1200 
  7 O        1.7170    -1.1650    -0.7110 O.3   1 <1>  -0.3630 
  8 C        3.1000     0.8160    -0.5860 C.ar  1 <1>  -0.1500 
  9 O       -0.0700     2.7480     1.2700 O.3   1 <1>  -0.3630 
 10 C        2.1930     2.8010     0.4180 C.ar  1 <1>  -0.1500 
 11 O       -3.5230    -0.3550    -1.0140 O.3   1 <1>  -0.3630 
 12 C        2.7700    -1.9520    -1.2200 C.3   1 <1>   0.0400 
 13 C        3.2380     2.1390    -0.2030 C.ar  1 <1>  -0.1500 
 14 C        0.0320     4.0440     1.8160 C.3   1 <1>   0.0400 
 15 C       -4.8450    -0.4520    -0.6990 C.ar  1 <1>   0.0830 
 16 C       -5.3890    -1.3430     0.2400 C.ar  1 <1>   0.0830 
 17 C       -5.6810     0.4100    -1.3880 C.ar  1 <1>  -0.1500 
 18 O       -4.5700    -2.2250     0.8860 O.3   1 <1>  -0.3630 
 19 C       -6.7630    -1.3160     0.4750 C.ar  1 <1>  -0.1500 
 20 C       -7.0430     0.4210    -1.1480 C.ar  1 <1>  -0.1500 
 21 C       -5.0640    -3.1860     1.7910 C.3   1 <1>   0.0400 
 22 C       -7.5890    -0.4390    -0.2110 C.ar  1 <1>  -0.1440 
 23 C       -9.0840    -0.4290     0.0580 C.3   1 <1>  -0.0970 
 24 H       -0.8910    -0.2010    -1.3650 H     1 <1>   0.0800 
 25 H       -1.4890     1.2940    -0.6320 H     1 <1>   0.0800 
 26 H       -2.9140    -0.0300     0.8970 H     1 <1>   0.0800 
 27 H       -2.3300    -1.5190     0.1400 H     1 <1>   0.0800 
 28 H        3.9290     0.3350    -1.0690 H     1 <1>   0.1500 
 29 H        2.3350     3.8270     0.6980 H     1 <1>   0.1500 
 30 H        2.3960    -2.9480    -1.3740 H     1 <1>   0.0800 
 31 H        3.5700    -1.9690    -0.5020 H     1 <1>   0.0800 
 32 H        3.0960    -1.5350    -2.1560 H     1 <1>   0.0800 
 33 H        4.1630     2.6560    -0.3920 H     1 <1>   0.1500 
 34 H       -0.9060     4.2800     2.2860 H     1 <1>   0.0800 
 35 H        0.2290     4.7420     1.0220 H     1 <1>   0.0800 
 36 H        0.8200     4.0530     2.5470 H     1 <1>   0.0800 
 37 H       -5.2560     1.0780    -2.1140 H     1 <1>   0.1500 
 38 H       -7.2130    -1.9760     1.1890 H     1 <1>   0.1500 
 39 H       -7.6720     1.1010    -1.6940 H     1 <1>   0.1500 
 40 H       -4.2330    -3.7690     2.1440 H     1 <1>   0.0800 
 41 H       -5.7640    -3.8210     1.2780 H     1 <1>   0.0800 
 42 H       -5.5320    -2.6800     2.6170 H     1 <1>   0.0800 
 43 H       -9.2790    -0.6180     1.0980 H     1 <1>   0.0800 
 44 H       -9.5640    -1.1890    -0.5310 H     1 <1>   0.0800 
 45 H       -9.5070     0.5260    -0.1970 H     1 <1>   0.0800 
@<TRIPOS>BOND
  1   1   2  1   
  2   1   3  1   
  3   2   4  ar  
  4   2   5  ar  
  5   3   6  1   
  6   3  24  1   
  7   3  25  1   
  8   4   7  1   
  9   4   8  ar  
 10   5   9  1   
 11   5  10  ar  
 12   6  11  1   
 13   6  26  1   
 14   6  27  1   
 15   7  12  1   
 16   8  13  ar  
 17   8  28  1   
 18   9  14  1   
 19  10  13  ar  
 20  10  29  1   
 21  11  15  1   
 22  12  30  1   
 23  12  31  1   
 24  12  32  1   
 25  13  33  1   
 26  14  34  1   
 27  14  35  1   
 28  14  36  1   
 29  15  16  ar  
 30  15  17  ar  
 31  16  18  1   
 32  16  19  ar  
 33  17  20  ar  
 34  17  37  1   
 35  18  21  1   
 36  19  22  ar  
 37  19  38  1   
 38  20  22  ar  
 39  20  39  1   
 40  21  40  1   
 41  21  41  1   
 42  21  42  1   
 43  22  23  1   
 44  23  43  1   
 45  23  44  1   
 46  23  45  1   
@<TRIPOS>SUBSTRUCTURE
  1 ****   6 GROUP 4 **** **** 0

# MOE 2024.06 (io_trps.svl 2023.06)
