@<TRIPOS>MOLECULE
Structure1889
44 45 1 0 0 
SMALL
USER_CHARGES


@<TRIPOS>ATOM
  1 O        1.9320    -1.2630     1.3220 O.2   1 <1>  -0.5700 
  2 C        1.3750    -1.1390     0.2500 C.2   1 <1>   0.7800 
  3 O        0.1430    -1.6060     0.0450 O.3   1 <1>  -0.4300 
  4 N        1.9350    -0.5230    -0.8090 N.am  1 <1>  -0.7300 
  5 C       -0.6650    -2.3010     0.9670 C.3   1 <1>   0.2800 
  6 C        3.2570     0.1920    -0.8480 C.3   1 <1>   0.1140 
  7 C        0.0040    -3.6210     1.3710 C.3   1 <1>  -0.2400 
  8 C       -1.9600    -2.6050     0.2120 C.3   1 <1>  -0.2400 
  9 C       -0.9820    -1.4100     2.1740 C.3   1 <1>  -0.2400 
 10 C        3.1490     1.5500    -1.5620 C.2   1 <1>   0.9060 
 11 C        4.2940    -0.6660    -1.5860 C.3   1 <1>   0.0210 
 12 O        2.1900     1.7440    -2.3280 O.co2 1 <1>  -0.9000 
 13 O        4.0300     2.4010    -1.3870 O.co2 1 <1>  -0.9000 
 14 C        4.6530    -1.9460    -0.8400 C.2   1 <1>  -0.1810 
 15 C        5.6370    -2.0000     0.1740 C.ar  1 <1>   0.0000 
 16 C        4.1390    -3.1930    -0.9820 C.2   1 <1>  -0.3320 
 17 C        5.6860    -3.3200     0.6080 C.ar  1 <1>  -0.1520 
 18 C        6.4810    -1.0510     0.7620 C.ar  1 <1>  -0.1500 
 19 N        4.7590    -4.0360    -0.1040 N.pl3 1 <1>   0.0330 
 20 C        3.0350    -3.6750    -1.9050 C.3   1 <1>  -0.0600 
 21 C        6.5730    -3.7160     1.6130 C.ar  1 <1>  -0.1500 
 22 C        7.3540    -1.4390     1.7520 C.ar  1 <1>  -0.1500 
 23 C        7.4020    -2.7730     2.1770 C.ar  1 <1>  -0.1500 
 24 H        1.3120    -0.1600    -1.5370 H     1 <1>   0.3700 
 25 H        3.5970     0.3750     0.1540 H     1 <1>   0.0800 
 26 H        0.8880    -3.4430     1.9560 H     1 <1>   0.0800 
 27 H        0.2700    -4.1860     0.4970 H     1 <1>   0.0800 
 28 H       -0.6690    -4.2070     1.9680 H     1 <1>   0.0800 
 29 H       -1.7520    -3.2060    -0.6540 H     1 <1>   0.0800 
 30 H       -2.4290    -1.6890    -0.1010 H     1 <1>   0.0800 
 31 H       -2.6460    -3.1400     0.8430 H     1 <1>   0.0800 
 32 H       -1.7130    -1.8850     2.8010 H     1 <1>   0.0800 
 33 H       -0.1040    -1.2390     2.7700 H     1 <1>   0.0800 
 34 H       -1.3730    -0.4640     1.8450 H     1 <1>   0.0800 
 35 H        5.1910    -0.0870    -1.7190 H     1 <1>   0.0800 
 36 H        3.9230    -0.8960    -2.5670 H     1 <1>   0.0800 
 37 H        6.4250    -0.0300     0.4290 H     1 <1>   0.1500 
 38 H        4.5510    -5.0270     0.0320 H     1 <1>   0.2700 
 39 H        3.4090    -4.4310    -2.5700 H     1 <1>   0.0800 
 40 H        2.2250    -4.0790    -1.3240 H     1 <1>   0.0800 
 41 H        2.6500    -2.8600    -2.4900 H     1 <1>   0.0800 
 42 H        6.5960    -4.7410     1.9340 H     1 <1>   0.1500 
 43 H        8.0060    -0.7170     2.2090 H     1 <1>   0.1500 
 44 H        8.0930    -3.0510     2.9530 H     1 <1>   0.1500 
@<TRIPOS>BOND
  1   1   2  2   
  2   2   3  1   
  3   2   4  am  
  4   3   5  1   
  5   4   6  1   
  6   4  24  1   
  7   5   7  1   
  8   5   8  1   
  9   5   9  1   
 10   6  10  1   
 11   6  11  1   
 12   6  25  1   
 13   7  26  1   
 14   7  27  1   
 15   7  28  1   
 16   8  29  1   
 17   8  30  1   
 18   8  31  1   
 19   9  32  1   
 20   9  33  1   
 21   9  34  1   
 22  10  12  ar  
 23  10  13  ar  
 24  11  14  1   
 25  11  35  1   
 26  11  36  1   
 27  14  15  1   
 28  14  16  2   
 29  15  17  ar  
 30  15  18  ar  
 31  16  19  1   
 32  16  20  1   
 33  17  19  1   
 34  17  21  ar  
 35  18  22  ar  
 36  18  37  1   
 37  19  38  1   
 38  20  39  1   
 39  20  40  1   
 40  20  41  1   
 41  21  23  ar  
 42  21  42  1   
 43  22  23  ar  
 44  22  43  1   
 45  23  44  1   
@<TRIPOS>SUBSTRUCTURE
  1 ****  14 GROUP 4 **** **** 0

# MOE 2024.06 (io_trps.svl 2023.06)
