@<TRIPOS>MOLECULE
NONAME
33 34 1 0 0 
SMALL
USER_CHARGES


@<TRIPOS>ATOM
  1 S        1.7590    -0.7380     1.8970 S.3   1 <1>  -0.3320 
  2 C        1.6530    -1.9070     0.5260 C.ar  1 <1>   0.1020 
  3 C        1.4340     0.9440     1.2000 C.3   1 <1>  -0.0100 
  4 C        2.1040    -1.6330    -0.7710 C.ar  1 <1>   0.0860 
  5 C        1.0920    -3.1300     0.8510 C.ar  1 <1>  -0.1500 
  6 C        2.7700    -0.4120    -1.1660 C.2   1 <1>   0.5440 
  7 C        1.9180    -2.6300    -1.7310 C.ar  1 <1>  -0.1500 
  8 C        0.9360    -4.1040    -0.1180 C.ar  1 <1>  -0.1500 
  9 O        2.1560     0.3980    -1.8360 O.2   1 <1>  -0.5700 
 10 N        4.0880    -0.1580    -0.8390 N.am  1 <1>  -0.6600 
 11 C        1.3450    -3.8480    -1.4140 C.ar  1 <1>  -0.1500 
 12 C        4.7900     1.0790    -1.2890 C.3   1 <1>   0.1400 
 13 C        4.9460    -1.1020    -0.0680 C.3   1 <1>   0.1400 
 14 C        5.3940     1.8070    -0.0830 C.3   1 <1>  -0.1600 
 15 C        5.5410    -0.3870     1.1490 C.3   1 <1>  -0.1600 
 16 C        6.3000     0.8840     0.7450 C.3   1 <1>  -0.1600 
 17 H        1.0690     1.5630     1.9990 H     1 <1>   0.0800 
 18 H        0.6980     0.8490     0.4220 H     1 <1>   0.0800 
 19 H        2.3580     1.3320     0.8140 H     1 <1>   0.0800 
 20 H        0.7720    -3.3150     1.8610 H     1 <1>   0.1500 
 21 H        2.2360    -2.4370    -2.7410 H     1 <1>   0.1500 
 22 H        0.4950    -5.0530     0.1350 H     1 <1>   0.1500 
 23 H        1.2170    -4.5990    -2.1760 H     1 <1>   0.1500 
 24 H        4.1120     1.7400    -1.8020 H     1 <1>   0.0800 
 25 H        5.5690     0.8040    -1.9780 H     1 <1>   0.0800 
 26 H        5.7390    -1.4500    -0.7070 H     1 <1>   0.0800 
 27 H        4.3860    -1.9590     0.2610 H     1 <1>   0.0800 
 28 H        4.5950     2.1780     0.5330 H     1 <1>   0.0800 
 29 H        5.9600     2.6530    -0.4280 H     1 <1>   0.0800 
 30 H        6.2070    -1.0570     1.6640 H     1 <1>   0.0800 
 31 H        4.7450    -0.1350     1.8280 H     1 <1>   0.0800 
 32 H        6.6400     1.4010     1.6250 H     1 <1>   0.0800 
 33 H        7.1640     0.6140     0.1610 H     1 <1>   0.0800 
@<TRIPOS>BOND
  1   1   2  1   
  2   1   3  1   
  3   2   4  ar  
  4   2   5  ar  
  5   3  17  1   
  6   3  18  1   
  7   3  19  1   
  8   4   6  1   
  9   4   7  ar  
 10   5   8  ar  
 11   5  20  1   
 12   6   9  2   
 13   6  10  am  
 14   7  11  ar  
 15   7  21  1   
 16   8  11  ar  
 17   8  22  1   
 18  10  12  1   
 19  10  13  1   
 20  11  23  1   
 21  12  14  1   
 22  12  24  1   
 23  12  25  1   
 24  13  15  1   
 25  13  26  1   
 26  13  27  1   
 27  14  16  1   
 28  14  28  1   
 29  14  29  1   
 30  15  16  1   
 31  15  30  1   
 32  15  31  1   
 33  16  32  1   
 34  16  33  1   
@<TRIPOS>SUBSTRUCTURE
  1 ****   6 GROUP 4 **** **** 0

# MOE 2024.06 (io_trps.svl 2023.06)
