@<TRIPOS>MOLECULE
NONAME
47 49 1 0 0 
SMALL
USER_CHARGES


@<TRIPOS>ATOM
  1 O       -0.5960    -0.1150     0.4580 O.2   1 <1>  -0.5700 
  2 C       -0.7290    -1.3250     0.3370 C.2   1 <1>   0.8060 
  3 O        0.3260    -2.0510    -0.0580 O.3   1 <1>  -0.4300 
  4 C       -1.9620    -1.9950     0.5980 C.2   1 <1>  -0.0860 
  5 C        1.6280    -1.6120    -0.3740 C.3   1 <1>   0.2800 
  6 C       -3.1530    -1.4300     1.0210 C.2   1 <1>  -0.0680 
  7 C       -2.2050    -3.3890     0.4650 C.ar  1 <1>   0.2560 
  8 C        2.3880    -2.8820    -0.7570 C.3   1 <1>  -0.2400 
  9 C        2.2880    -0.9780     0.8550 C.3   1 <1>  -0.2400 
 10 C        1.5900    -0.6630    -1.5780 C.3   1 <1>  -0.2400 
 11 N       -4.1050    -2.4000     1.1690 N.pl3 1 <1>   0.0480 
 12 N       -3.3820    -0.1010     1.2560 N.pl3 1 <1>  -0.8840 
 13 N       -1.3960    -4.3540     0.0850 N.ar  1 <1>  -0.5660 
 14 C       -3.5560    -3.6120     0.8220 C.ar  1 <1>   0.1050 
 15 C       -5.5160    -2.2010     1.5590 C.3   1 <1>   0.0960 
 16 C       -1.9880    -5.5640     0.0700 C.ar  1 <1>   0.3100 
 17 N       -4.1700    -4.7680     0.8130 N.ar  1 <1>  -0.5670 
 18 C       -6.3620    -1.9780     0.3100 C.3   1 <1>   0.1200 
 19 C       -3.3540    -5.7710     0.4260 C.ar  1 <1>   0.3100 
 20 C       -1.2230    -6.6810    -0.3190 C.ar  1 <1>  -0.1500 
 21 O       -7.6510    -1.6420     0.7140 O.3   1 <1>  -0.5600 
 22 C       -3.8700    -7.0800     0.3720 C.ar  1 <1>  -0.1500 
 23 C       -1.7570    -7.9400    -0.3610 C.ar  1 <1>  -0.1500 
 24 C       -8.5390    -1.4550    -0.3410 C.3   1 <1>   0.0400 
 25 C       -3.0970    -8.1420    -0.0110 C.ar  1 <1>  -0.1500 
 26 H        1.9200    -3.3560    -1.6010 H     1 <1>   0.0800 
 27 H        2.3980    -3.5720     0.0680 H     1 <1>   0.0800 
 28 H        3.4040    -2.6480    -1.0180 H     1 <1>   0.0800 
 29 H        2.2300    -1.6450     1.6960 H     1 <1>   0.0800 
 30 H        1.8220    -0.0450     1.1110 H     1 <1>   0.0800 
 31 H        3.3240    -0.7770     0.6520 H     1 <1>   0.0800 
 32 H        1.0570    -1.1160    -2.3940 H     1 <1>   0.0800 
 33 H        2.5910    -0.4460    -1.9040 H     1 <1>   0.0800 
 34 H        1.1240     0.2710    -1.3230 H     1 <1>   0.0800 
 35 H       -4.2620     0.3080     1.5870 H     1 <1>   0.4000 
 36 H       -2.6190     0.5870     1.1340 H     1 <1>   0.4000 
 37 H       -5.5820    -1.3480     2.2070 H     1 <1>   0.0800 
 38 H       -5.8610    -3.0720     2.0840 H     1 <1>   0.0800 
 39 H       -6.4030    -2.8790    -0.2770 H     1 <1>   0.0800 
 40 H       -5.9640    -1.1650    -0.2740 H     1 <1>   0.0800 
 41 H       -0.1960    -6.5060    -0.5840 H     1 <1>   0.1500 
 42 H       -4.9010    -7.2160     0.6440 H     1 <1>   0.1500 
 43 H       -1.1590    -8.7850    -0.6600 H     1 <1>   0.1500 
 44 H       -9.4990    -1.1990     0.0710 H     1 <1>   0.0800 
 45 H       -8.6180    -2.3690    -0.9040 H     1 <1>   0.0800 
 46 H       -8.1860    -0.6530    -0.9660 H     1 <1>   0.0800 
 47 H       -3.5050    -9.1390    -0.0480 H     1 <1>   0.1500 
@<TRIPOS>BOND
  1   1   2  2   
  2   2   3  1   
  3   2   4  1   
  4   3   5  1   
  5   4   6  2   
  6   4   7  1   
  7   5   8  1   
  8   5   9  1   
  9   5  10  1   
 10   6  11  1   
 11   6  12  1   
 12   7  13  ar  
 13   7  14  ar  
 14   8  26  1   
 15   8  27  1   
 16   8  28  1   
 17   9  29  1   
 18   9  30  1   
 19   9  31  1   
 20  10  32  1   
 21  10  33  1   
 22  10  34  1   
 23  11  14  1   
 24  11  15  1   
 25  12  35  1   
 26  12  36  1   
 27  13  16  ar  
 28  14  17  ar  
 29  15  18  1   
 30  15  37  1   
 31  15  38  1   
 32  16  19  ar  
 33  16  20  ar  
 34  17  19  ar  
 35  18  21  1   
 36  18  39  1   
 37  18  40  1   
 38  19  22  ar  
 39  20  23  ar  
 40  20  41  1   
 41  21  24  1   
 42  22  25  ar  
 43  22  42  1   
 44  23  25  ar  
 45  23  43  1   
 46  24  44  1   
 47  24  45  1   
 48  24  46  1   
 49  25  47  1   
@<TRIPOS>SUBSTRUCTURE
  1 ****   7 GROUP 4 **** **** 0

# MOE 2024.06 (io_trps.svl 2023.06)
