@<TRIPOS>MOLECULE
NONAME
40 42 1 0 0 
SMALL
USER_CHARGES


@<TRIPOS>ATOM
  1 S       -0.2830    -0.4990     0.2920 S.3   1 <1>  -0.0800 
  2 C        0.7430     0.8890    -0.1110 C.2   1 <1>   0.1040 
  3 C       -1.7170     0.4500    -0.0100 C.2   1 <1>  -0.1400 
  4 N        2.1250     0.7570    -0.1240 N.am  1 <1>  -0.4940 
  5 C       -0.0170     1.9880    -0.4260 C.2   1 <1>  -0.0860 
  6 C       -1.4210     1.6860    -0.3690 C.2   1 <1>  -0.1810 
  7 C       -3.1660     0.0940     0.0630 C.3   1 <1>   0.0200 
  8 C        2.9870    -0.1570     0.4430 C.2   1 <1>   0.5440 
  9 C        0.4770     3.2940    -0.7730 C.2   1 <1>   0.7160 
 10 C       -2.6770     2.4730    -0.6330 C.3   1 <1>   0.0210 
 11 C       -3.8110     1.4470    -0.3380 C.3   1 <1>  -0.1600 
 12 O        2.5670    -0.9930     1.2160 O.2   1 <1>  -0.5700 
 13 C        4.4060    -0.0950     0.1310 C.ar  1 <1>   0.0860 
 14 O       -0.0620     3.9810    -1.6170 O.2   1 <1>  -0.5700 
 15 N        1.5710     3.8500    -0.1760 N.am  1 <1>  -0.7300 
 16 C        5.0300     1.0790    -0.3050 C.ar  1 <1>  -0.1500 
 17 C        5.2090    -1.2280     0.2610 C.ar  1 <1>  -0.1500 
 18 C        1.9660     3.6620     1.2460 C.3   1 <1>   0.0600 
 19 C        6.3800     1.1190    -0.6090 C.ar  1 <1>  -0.1430 
 20 C        6.5590    -1.2000    -0.0350 C.ar  1 <1>  -0.1500 
 21 C        7.1450    -0.0260    -0.4720 C.ar  1 <1>  -0.1500 
 22 C        7.0330     2.4060    -1.0830 C.3   1 <1>  -0.0970 
 23 H        2.5960     1.4980    -0.6390 H     1 <1>   0.3700 
 24 H       -3.4370    -0.1990     1.0620 H     1 <1>   0.0800 
 25 H       -3.4020    -0.6860    -0.6390 H     1 <1>   0.0800 
 26 H       -2.7020     2.8020    -1.6570 H     1 <1>   0.0800 
 27 H       -2.7360     3.3230     0.0240 H     1 <1>   0.0800 
 28 H       -4.4300     1.8080     0.4640 H     1 <1>   0.0800 
 29 H       -4.4230     1.3170    -1.2130 H     1 <1>   0.0800 
 30 H        1.7960     4.7680    -0.5660 H     1 <1>   0.3700 
 31 H        4.4580     1.9830    -0.4040 H     1 <1>   0.1500 
 32 H        4.7620    -2.1470     0.6030 H     1 <1>   0.1500 
 33 H        1.3740     2.8900     1.7100 H     1 <1>   0.0800 
 34 H        1.8150     4.5790     1.7890 H     1 <1>   0.0800 
 35 H        3.0050     3.3870     1.3060 H     1 <1>   0.0800 
 36 H        7.1540    -2.0900     0.0750 H     1 <1>   0.1500 
 37 H        8.1960    -0.0100    -0.7010 H     1 <1>   0.1500 
 38 H        6.2970     3.0980    -1.4510 H     1 <1>   0.0800 
 39 H        7.7280     2.1980    -1.8770 H     1 <1>   0.0800 
 40 H        7.5650     2.8660    -0.2690 H     1 <1>   0.0800 
@<TRIPOS>BOND
  1   1   2  1   
  2   1   3  1   
  3   2   4  1   
  4   2   5  2   
  5   3   6  2   
  6   3   7  1   
  7   4   8  am  
  8   4  23  1   
  9   5   6  1   
 10   5   9  1   
 11   6  10  1   
 12   7  11  1   
 13   7  24  1   
 14   7  25  1   
 15   8  12  2   
 16   8  13  1   
 17   9  14  2   
 18   9  15  am  
 19  10  11  1   
 20  10  26  1   
 21  10  27  1   
 22  11  28  1   
 23  11  29  1   
 24  13  16  ar  
 25  13  17  ar  
 26  15  18  1   
 27  15  30  1   
 28  16  19  ar  
 29  16  31  1   
 30  17  20  ar  
 31  17  32  1   
 32  18  33  1   
 33  18  34  1   
 34  18  35  1   
 35  19  21  ar  
 36  19  22  1   
 37  20  21  ar  
 38  20  36  1   
 39  21  37  1   
 40  22  38  1   
 41  22  39  1   
 42  22  40  1   
@<TRIPOS>SUBSTRUCTURE
  1 ****   4 GROUP 4 **** **** 0

# MOE 2024.06 (io_trps.svl 2023.06)
