@<TRIPOS>MOLECULE
NONAME
42 42 1 0 0 
SMALL
USER_CHARGES


@<TRIPOS>ATOM
  1 CL       1.1210     0.9520    -0.7470 Cl    1 <1>  -0.1770 
  2 C       -0.1930     1.9870    -0.2370 C.ar  1 <1>   0.1770 
  3 C        0.0490     2.9850     0.6940 C.ar  1 <1>  -0.1440 
  4 C       -1.4460     1.7900    -0.7850 C.ar  1 <1>  -0.1500 
  5 C       -1.0000     3.8140     1.0680 C.ar  1 <1>  -0.1500 
  6 C        1.4270     3.1640     1.2880 C.3   1 <1>   0.4870 
  7 C       -2.4920     2.6080    -0.3970 C.ar  1 <1>   0.0820 
  8 C       -2.2600     3.6450     0.5170 C.ar  1 <1>   0.0820 
  9 N        2.2960     3.7390     0.2380 N.4   1 <1>  -0.9060 
 10 O       -3.7080     2.3560    -0.9370 O.3   1 <1>  -0.3620 
 11 O       -3.2220     4.5120     0.9130 O.3   1 <1>  -0.3620 
 12 C        3.6910     3.9700     0.7080 C.3   1 <1>   0.3430 
 13 C       -4.7470     1.9400    -0.0740 C.3   1 <1>   0.2000 
 14 C       -3.7880     5.3490    -0.0720 C.3   1 <1>   0.1200 
 15 C        4.5840     4.5160    -0.4120 C.3   1 <1>   0.1200 
 16 C       -4.5520     0.4580     0.2510 C.3   1 <1>  -0.2400 
 17 C       -6.0670     2.1800    -0.8030 C.3   1 <1>  -0.2400 
 18 C       -4.8190     6.2430     0.6080 C.3   1 <1>  -0.2400 
 19 O        5.8400     4.7180     0.1260 O.3   1 <1>  -0.6800 
 20 H       -1.6160     1.0070    -1.5010 H     1 <1>   0.1500 
 21 H       -0.8670     4.6040     1.7880 H     1 <1>   0.1500 
 22 H        1.8110     2.2090     1.6110 H     1 <1>   0.0800 
 23 H        1.3780     3.8240     2.1400 H     1 <1>   0.0800 
 24 H        1.8680     4.6120    -0.0960 H     1 <1>   0.4500 
 25 H        2.2900     3.0790    -0.5530 H     1 <1>   0.4500 
 26 H        4.1150     3.0440     1.0610 H     1 <1>   0.0800 
 27 H        3.6900     4.6780     1.5220 H     1 <1>   0.0800 
 28 H       -4.7170     2.5290     0.8260 H     1 <1>   0.0800 
 29 H       -4.2540     4.7450    -0.8290 H     1 <1>   0.0800 
 30 H       -3.0010     5.9360    -0.5120 H     1 <1>   0.0800 
 31 H        4.2230     5.4630    -0.7770 H     1 <1>   0.0800 
 32 H        4.6770     3.8090    -1.2190 H     1 <1>   0.0800 
 33 H       -4.5340    -0.1250    -0.6520 H     1 <1>   0.0800 
 34 H       -5.3620     0.1110     0.8680 H     1 <1>   0.0800 
 35 H       -3.6350     0.3110     0.7920 H     1 <1>   0.0800 
 36 H       -6.0980     1.6170    -1.7180 H     1 <1>   0.0800 
 37 H       -6.1810     3.2250    -1.0230 H     1 <1>   0.0800 
 38 H       -6.8890     1.8740    -0.1820 H     1 <1>   0.0800 
 39 H       -5.5940     5.6430     1.0500 H     1 <1>   0.0800 
 40 H       -5.2660     6.8980    -0.1180 H     1 <1>   0.0800 
 41 H       -4.3500     6.8420     1.3670 H     1 <1>   0.0800 
 42 H        6.4760     5.0600    -0.5410 H     1 <1>   0.4000 
@<TRIPOS>BOND
  1   1   2  1   
  2   2   3  ar  
  3   2   4  ar  
  4   3   5  ar  
  5   3   6  1   
  6   4   7  ar  
  7   4  20  1   
  8   5   8  ar  
  9   5  21  1   
 10   6   9  1   
 11   6  22  1   
 12   6  23  1   
 13   7   8  ar  
 14   7  10  1   
 15   8  11  1   
 16   9  12  1   
 17   9  24  1   
 18   9  25  1   
 19  10  13  1   
 20  11  14  1   
 21  12  15  1   
 22  12  26  1   
 23  12  27  1   
 24  13  16  1   
 25  13  17  1   
 26  13  28  1   
 27  14  18  1   
 28  14  29  1   
 29  14  30  1   
 30  15  19  1   
 31  15  31  1   
 32  15  32  1   
 33  16  33  1   
 34  16  34  1   
 35  16  35  1   
 36  17  36  1   
 37  17  37  1   
 38  17  38  1   
 39  18  39  1   
 40  18  40  1   
 41  18  41  1   
 42  19  42  1   
@<TRIPOS>SUBSTRUCTURE
  1 ****   5 GROUP 4 **** **** 0

# MOE 2024.06 (io_trps.svl 2023.06)
