@<TRIPOS>MOLECULE
NONAME
48 50 1 0 0 
SMALL
USER_CHARGES


@<TRIPOS>ATOM
  1 S       -0.5560     0.0750    -1.9220 S.o2  1 <1>   1.4470 
  2 O       -0.7810     0.4930    -3.2880 O.2   1 <1>  -0.6500 
  3 O       -0.7600    -1.3000    -1.5270 O.2   1 <1>  -0.6500 
  4 N       -1.5820     1.0760    -0.9480 N.am  1 <1>  -0.6930 
  5 C        1.0860     0.6300    -1.3910 C.ar  1 <1>  -0.0090 
  6 C       -1.6930     1.0010     0.4290 C.ar  1 <1>   0.1990 
  7 C       -1.8090     2.4710    -1.3920 C.3   1 <1>   0.1960 
  8 C        1.8220     1.5350    -2.1480 C.ar  1 <1>  -0.1500 
  9 C        1.6380     0.1890    -0.1930 C.ar  1 <1>  -0.1500 
 10 C       -1.9210     2.2420     0.9830 C.ar  1 <1>  -0.1440 
 11 C       -1.6070    -0.1130     1.2550 C.ar  1 <1>  -0.1500 
 12 C       -2.0080     3.2860    -0.1030 C.3   1 <1>  -0.0160 
 13 C        3.0570     1.9880    -1.7220 C.ar  1 <1>  -0.1500 
 14 C        2.8710     0.6360     0.2450 C.ar  1 <1>  -0.1500 
 15 C       -2.0410     2.4130     2.3480 C.ar  1 <1>  -0.1500 
 16 C       -1.7250     0.0440     2.6260 C.ar  1 <1>  -0.1500 
 17 C        3.5880     1.5480    -0.5220 C.ar  1 <1>   0.0830 
 18 C       -1.9370     1.3020     3.1720 C.ar  1 <1>  -0.1500 
 19 O        4.7940     2.0470    -0.1690 O.3   1 <1>  -0.3630 
 20 C        5.4050     1.6970     1.0690 C.3   1 <1>   0.1810 
 21 C        6.7220     2.4350     1.2670 C.2   1 <1>   0.5690 
 22 O        7.3560     2.2040     2.2690 O.2   1 <1>  -0.5700 
 23 N        7.1270     3.3200     0.3130 N.am  1 <1>  -0.7300 
 24 C        8.3440     4.1490     0.2670 C.3   1 <1>   0.2200 
 25 C        9.5830     3.2570     0.2380 C.3   1 <1>  -0.2400 
 26 C        8.3620     5.1180     1.4470 C.3   1 <1>  -0.2400 
 27 H       -2.6870     2.5100    -2.0140 H     1 <1>   0.0800 
 28 H       -0.9600     2.8360    -1.9450 H     1 <1>   0.0800 
 29 H        1.4250     1.8890    -3.0850 H     1 <1>   0.1500 
 30 H        1.0890    -0.5160     0.4090 H     1 <1>   0.1500 
 31 H       -1.4610    -1.0900     0.8350 H     1 <1>   0.1500 
 32 H       -2.9690     3.7680    -0.1010 H     1 <1>   0.0800 
 33 H       -1.2310     4.0210     0.0070 H     1 <1>   0.0800 
 34 H        3.6140     2.6880    -2.3190 H     1 <1>   0.1500 
 35 H        3.2490     0.2630     1.1790 H     1 <1>   0.1500 
 36 H       -2.2140     3.3880     2.7670 H     1 <1>   0.1500 
 37 H       -1.6570    -0.8150     3.2710 H     1 <1>   0.1500 
 38 H       -2.0280     1.4160     4.2390 H     1 <1>   0.1500 
 39 H        5.5890     0.6390     1.0710 H     1 <1>   0.0800 
 40 H        4.7350     1.9580     1.8670 H     1 <1>   0.0800 
 41 H        6.5050     3.4220    -0.4930 H     1 <1>   0.3700 
 42 H        8.3200     4.7240    -0.6430 H     1 <1>   0.0800 
 43 H        9.6700     2.6960     1.1510 H     1 <1>   0.0800 
 44 H       10.4650     3.8600     0.1280 H     1 <1>   0.0800 
 45 H        9.5300     2.5760    -0.5920 H     1 <1>   0.0800 
 46 H        8.4320     4.5830     2.3770 H     1 <1>   0.0800 
 47 H        7.4700     5.7160     1.4480 H     1 <1>   0.0800 
 48 H        9.2120     5.7710     1.3690 H     1 <1>   0.0800 
@<TRIPOS>BOND
  1   1   2  2   
  2   1   3  2   
  3   1   4  am  
  4   1   5  1   
  5   4   6  1   
  6   4   7  1   
  7   5   8  ar  
  8   5   9  ar  
  9   6  10  ar  
 10   6  11  ar  
 11   7  12  1   
 12   7  27  1   
 13   7  28  1   
 14   8  13  ar  
 15   8  29  1   
 16   9  14  ar  
 17   9  30  1   
 18  10  12  1   
 19  10  15  ar  
 20  11  16  ar  
 21  11  31  1   
 22  12  32  1   
 23  12  33  1   
 24  13  17  ar  
 25  13  34  1   
 26  14  17  ar  
 27  14  35  1   
 28  15  18  ar  
 29  15  36  1   
 30  16  18  ar  
 31  16  37  1   
 32  17  19  1   
 33  18  38  1   
 34  19  20  1   
 35  20  21  1   
 36  20  39  1   
 37  20  40  1   
 38  21  22  2   
 39  21  23  am  
 40  23  24  1   
 41  23  41  1   
 42  24  25  1   
 43  24  26  1   
 44  24  42  1   
 45  25  43  1   
 46  25  44  1   
 47  25  45  1   
 48  26  46  1   
 49  26  47  1   
 50  26  48  1   
@<TRIPOS>SUBSTRUCTURE
  1 ****  14 GROUP 4 **** **** 0

# MOE 2024.06 (io_trps.svl 2023.06)
