@<TRIPOS>MOLECULE
NONAME
46 47 1 0 0 
SMALL
USER_CHARGES


@<TRIPOS>ATOM
  1 S       -0.0680     0.1560     0.0080 S.o2  1 <1>   1.3330 
  2 O        0.3690    -0.2570     1.3230 O.2   1 <1>  -0.6500 
  3 O        0.3830    -0.5660    -1.1610 O.2   1 <1>  -0.6500 
  4 N       -1.7630     0.1260     0.0080 N.am  1 <1>  -0.8490 
  5 C        0.2980     1.8980    -0.2320 C.3   1 <1>  -0.0550 
  6 C       -2.2730    -1.1580    -0.5000 C.3   1 <1>   0.1960 
  7 C       -2.3430     0.4430     1.3130 C.3   1 <1>   0.1960 
  8 C        1.8030     2.2140    -0.2770 C.3   1 <1>  -0.1600 
  9 C       -3.7870    -1.3230    -0.2780 C.3   1 <1>  -0.1600 
 10 C       -3.8420     0.7440     1.1600 C.3   1 <1>  -0.1600 
 11 C        2.0520     3.7120    -0.4820 C.3   1 <1>  -0.2400 
 12 C       -4.4890     0.0280    -0.0460 C.3   1 <1>  -0.0190 
 13 C       -6.0010    -0.0980     0.1260 C.2   1 <1>   0.6590 
 14 O       -6.4960    -1.0780     0.6220 O.2   1 <1>  -0.5700 
 15 O       -6.7010     0.9560    -0.2910 O.3   1 <1>  -0.2320 
 16 C       -8.0530     1.1170    -0.3180 C.ar  1 <1>   0.0820 
 17 C       -8.9420     0.0630    -0.4970 C.ar  1 <1>  -0.1500 
 18 C       -8.5400     2.4080    -0.1780 C.ar  1 <1>  -0.1500 
 19 C      -10.3040     0.3080    -0.5240 C.ar  1 <1>  -0.1500 
 20 C       -9.9020     2.6520    -0.2060 C.ar  1 <1>  -0.1500 
 21 C      -10.7940     1.5960    -0.3790 C.ar  1 <1>   0.0820 
 22 O      -12.1430     1.7440    -0.4170 O.3   1 <1>  -0.3630 
 23 C      -12.7430     3.0110    -0.2620 C.3   1 <1>   0.0400 
 24 H       -0.1480     2.4620     0.5640 H     1 <1>   0.0800 
 25 H       -0.1510     2.2190    -1.1520 H     1 <1>   0.0800 
 26 H       -1.7540    -1.9750    -0.0250 H     1 <1>   0.0800 
 27 H       -2.0650    -1.2100    -1.5570 H     1 <1>   0.0800 
 28 H       -1.8510     1.2970     1.7480 H     1 <1>   0.0800 
 29 H       -2.1990    -0.3940     1.9790 H     1 <1>   0.0800 
 30 H        2.2580     1.6620    -1.0820 H     1 <1>   0.0800 
 31 H        2.2630     1.8960     0.6430 H     1 <1>   0.0800 
 32 H       -3.9420    -1.9560     0.5790 H     1 <1>   0.0800 
 33 H       -4.2170    -1.8270    -1.1250 H     1 <1>   0.0800 
 34 H       -3.9810     1.8060     1.0540 H     1 <1>   0.0800 
 35 H       -4.3330     0.4470     2.0710 H     1 <1>   0.0800 
 36 H        1.6190     4.0450    -1.4090 H     1 <1>   0.0800 
 37 H        3.1100     3.9060    -0.5120 H     1 <1>   0.0800 
 38 H        1.6250     4.2810     0.3260 H     1 <1>   0.0800 
 39 H       -4.3150     0.6280    -0.9230 H     1 <1>   0.0800 
 40 H       -8.5900    -0.9450    -0.6210 H     1 <1>   0.1500 
 41 H       -7.8510     3.2220    -0.0470 H     1 <1>   0.1500 
 42 H      -10.9980    -0.5020    -0.6580 H     1 <1>   0.1500 
 43 H      -10.2480     3.6610    -0.0940 H     1 <1>   0.1500 
 44 H      -13.8090     2.8840    -0.3190 H     1 <1>   0.0800 
 45 H      -12.4090     3.6550    -1.0560 H     1 <1>   0.0800 
 46 H      -12.4740     3.4090     0.7000 H     1 <1>   0.0800 
@<TRIPOS>BOND
  1   1   2  2   
  2   1   3  2   
  3   1   4  am  
  4   1   5  1   
  5   4   6  1   
  6   4   7  1   
  7   5   8  1   
  8   5  24  1   
  9   5  25  1   
 10   6   9  1   
 11   6  26  1   
 12   6  27  1   
 13   7  10  1   
 14   7  28  1   
 15   7  29  1   
 16   8  11  1   
 17   8  30  1   
 18   8  31  1   
 19   9  12  1   
 20   9  32  1   
 21   9  33  1   
 22  10  12  1   
 23  10  34  1   
 24  10  35  1   
 25  11  36  1   
 26  11  37  1   
 27  11  38  1   
 28  12  13  1   
 29  12  39  1   
 30  13  14  2   
 31  13  15  1   
 32  15  16  1   
 33  16  17  ar  
 34  16  18  ar  
 35  17  19  ar  
 36  17  40  1   
 37  18  20  ar  
 38  18  41  1   
 39  19  21  ar  
 40  19  42  1   
 41  20  21  ar  
 42  20  43  1   
 43  21  22  1   
 44  22  23  1   
 45  23  44  1   
 46  23  45  1   
 47  23  46  1   
@<TRIPOS>SUBSTRUCTURE
  1 ****  12 GROUP 4 **** **** 0

# MOE 2024.06 (io_trps.svl 2023.06)
