@<TRIPOS>MOLECULE
NONAME
35 36 1 0 0 
SMALL
USER_CHARGES


@<TRIPOS>ATOM
  1 S       -0.5920     0.0160    -0.0270 S.3   1 <1>  -0.2860 
  2 C        1.0170    -0.7050     0.3160 C.2   1 <1>   0.2420 
  3 C       -1.5710    -0.4540     1.4850 C.3   1 <1>   0.1310 
  4 N        1.2700    -1.4050     1.3630 N.2   1 <1>  -0.3380 
  5 N        2.0610    -0.5670    -0.5010 N.pl3 1 <1>   0.0480 
  6 C       -3.0230    -0.0170     1.3720 C.2   1 <1>   0.5690 
  7 N        2.5510    -1.7650     1.2530 N.2   1 <1>  -0.3380 
  8 C        3.0060    -1.2660     0.1480 C.2   1 <1>   0.0060 
  9 C        2.1310     0.1630    -1.7830 C.3   1 <1>   0.0160 
 10 O       -3.6440     0.1420     2.3940 O.2   1 <1>  -0.5700 
 11 N       -3.5540     0.1700     0.1230 N.am  1 <1>  -0.5470 
 12 C        4.4300    -1.4340    -0.3740 C.3   1 <1>   0.0200 
 13 C       -4.8430     0.5280    -0.3040 C.ar  1 <1>   0.1170 
 14 C        5.2830    -2.3790     0.4830 C.3   1 <1>  -0.2400 
 15 C       -5.0020     1.0070    -1.5990 C.ar  1 <1>  -0.1500 
 16 C       -5.9730     0.4130     0.5010 C.ar  1 <1>  -0.1500 
 17 C       -6.2500     1.3650    -2.0790 C.ar  1 <1>  -0.1500 
 18 C       -7.2220     0.7710     0.0260 C.ar  1 <1>  -0.1500 
 19 C       -7.3630     1.2480    -1.2650 C.ar  1 <1>  -0.1500 
 20 H       -1.1000     0.0190     2.3280 H     1 <1>   0.0800 
 21 H       -1.5090    -1.5210     1.5890 H     1 <1>   0.0800 
 22 H        1.5350     1.0560    -1.7200 H     1 <1>   0.0800 
 23 H        1.7530    -0.4660    -2.5690 H     1 <1>   0.0800 
 24 H        3.1480     0.4350    -1.9950 H     1 <1>   0.0800 
 25 H       -2.8690     0.0860    -0.6270 H     1 <1>   0.3700 
 26 H        4.9050    -0.4690    -0.4030 H     1 <1>   0.0800 
 27 H        4.3910    -1.8210    -1.3760 H     1 <1>   0.0800 
 28 H        5.3610    -2.0000     1.4870 H     1 <1>   0.0800 
 29 H        6.2700    -2.4690     0.0690 H     1 <1>   0.0800 
 30 H        4.8310    -3.3540     0.5200 H     1 <1>   0.0800 
 31 H       -4.1460     1.1050    -2.2400 H     1 <1>   0.1500 
 32 H       -5.8860     0.0400     1.5040 H     1 <1>   0.1500 
 33 H       -6.3570     1.7360    -3.0830 H     1 <1>   0.1500 
 34 H       -8.0840     0.6780     0.6630 H     1 <1>   0.1500 
 35 H       -8.3350     1.5270    -1.6350 H     1 <1>   0.1500 
@<TRIPOS>BOND
  1   1   2  1   
  2   1   3  1   
  3   2   4  2   
  4   2   5  1   
  5   3   6  1   
  6   3  20  1   
  7   3  21  1   
  8   4   7  1   
  9   5   8  1   
 10   5   9  1   
 11   6  10  2   
 12   6  11  am  
 13   7   8  2   
 14   8  12  1   
 15   9  22  1   
 16   9  23  1   
 17   9  24  1   
 18  11  13  1   
 19  11  25  1   
 20  12  14  1   
 21  12  26  1   
 22  12  27  1   
 23  13  15  ar  
 24  13  16  ar  
 25  14  28  1   
 26  14  29  1   
 27  14  30  1   
 28  15  17  ar  
 29  15  31  1   
 30  16  18  ar  
 31  16  32  1   
 32  17  19  ar  
 33  17  33  1   
 34  18  19  ar  
 35  18  34  1   
 36  19  35  1   
@<TRIPOS>SUBSTRUCTURE
  1 ****   1 GROUP 4 **** **** 0

# MOE 2024.06 (io_trps.svl 2023.06)
