@<TRIPOS>MOLECULE
NONAME
53 55 1 0 0 
SMALL
USER_CHARGES


@<TRIPOS>ATOM
  1 O        2.0010    -1.6120     2.2220 O.2   1 <1>  -0.5700 
  2 C        2.1430    -1.4860     1.0280 C.2   1 <1>   0.5690 
  3 N        2.5940    -0.3160     0.4830 N.am  1 <1>  -0.6600 
  4 C        1.7970    -2.6990     0.1590 C.3   1 <1>  -0.0190 
  5 C        2.8510    -0.0130    -0.9450 C.3   1 <1>   0.1400 
  6 C        2.8900     0.8640     1.3280 C.3   1 <1>   0.1400 
  7 C        0.3250    -3.1070     0.3610 C.3   1 <1>  -0.1600 
  8 C        2.7290    -3.8810     0.4920 C.3   1 <1>  -0.1600 
  9 C        3.5420     1.3450    -0.9420 C.3   1 <1>  -0.1600 
 10 C        3.0750     2.0140     0.3470 C.3   1 <1>  -0.1600 
 11 C       -0.0240    -4.4030    -0.3660 C.3   1 <1>   0.3430 
 12 C        2.3270    -5.1610    -0.2370 C.3   1 <1>   0.3430 
 13 N        0.9080    -5.4830     0.0720 N.4   1 <1>  -0.9590 
 14 C        0.5170    -6.8110    -0.4740 C.3   1 <1>   0.4860 
 15 C       -0.8450    -7.1810     0.0780 C.ar  1 <1>  -0.1440 
 16 C       -1.9750    -7.0480    -0.7170 C.ar  1 <1>  -0.1500 
 17 C       -0.9780    -7.6450     1.3800 C.ar  1 <1>  -0.1500 
 18 C       -3.2320    -7.3520    -0.2240 C.ar  1 <1>   0.0820 
 19 C       -2.2290    -7.9720     1.8760 C.ar  1 <1>  -0.1500 
 20 O       -4.2720    -7.1360    -1.0720 O.3   1 <1>  -0.3630 
 21 C       -3.3550    -7.8430     1.0820 C.ar  1 <1>   0.0820 
 22 C       -5.4480    -6.5250    -0.5820 C.3   1 <1>   0.0400 
 23 O       -4.5390    -8.2190     1.6160 O.3   1 <1>  -0.3630 
 24 C       -5.0050    -9.4900     1.2210 C.3   1 <1>   0.0400 
 25 H        1.9300    -2.4500    -0.8770 H     1 <1>   0.0800 
 26 H        1.9110     0.0510    -1.4670 H     1 <1>   0.0800 
 27 H        3.4770    -0.7620    -1.3970 H     1 <1>   0.0800 
 28 H        3.7990     0.6830     1.8760 H     1 <1>   0.0800 
 29 H        2.0860     1.0550     2.0200 H     1 <1>   0.0800 
 30 H       -0.3150    -2.3190     0.0030 H     1 <1>   0.0800 
 31 H        0.1150    -3.2310     1.4100 H     1 <1>   0.0800 
 32 H        2.7210    -4.0660     1.5530 H     1 <1>   0.0800 
 33 H        3.7390    -3.6220     0.2240 H     1 <1>   0.0800 
 34 H        3.2970     1.9230    -1.8160 H     1 <1>   0.0800 
 35 H        4.6080     1.1970    -0.9080 H     1 <1>   0.0800 
 36 H        3.7780     2.7410     0.7120 H     1 <1>   0.0800 
 37 H        2.1250     2.4940     0.1890 H     1 <1>   0.0800 
 38 H        0.0550    -4.2570    -1.4310 H     1 <1>   0.0800 
 39 H       -1.0430    -4.6730    -0.1340 H     1 <1>   0.0800 
 40 H        2.9700    -5.9670     0.0810 H     1 <1>   0.0800 
 41 H        2.4500    -5.0250    -1.2990 H     1 <1>   0.0800 
 42 H        0.8100    -5.5470     1.0940 H     1 <1>   0.4500 
 43 H        1.2330    -7.5600    -0.1790 H     1 <1>   0.0800 
 44 H        0.4810    -6.7770    -1.5510 H     1 <1>   0.0800 
 45 H       -1.9070    -6.6990    -1.7320 H     1 <1>   0.1500 
 46 H       -0.1210    -7.7650     2.0210 H     1 <1>   0.1500 
 47 H       -2.3400    -8.3380     2.8820 H     1 <1>   0.1500 
 48 H       -6.0740    -7.2740    -0.1320 H     1 <1>   0.0800 
 49 H       -5.1840    -5.7720     0.1390 H     1 <1>   0.0800 
 50 H       -5.9640    -6.0770    -1.4120 H     1 <1>   0.0800 
 51 H       -5.9560    -9.6630     1.6920 H     1 <1>   0.0800 
 52 H       -5.1150    -9.5080     0.1510 H     1 <1>   0.0800 
 53 H       -4.2960   -10.2350     1.5370 H     1 <1>   0.0800 
@<TRIPOS>BOND
  1   1   2  2   
  2   2   3  am  
  3   2   4  1   
  4   3   5  1   
  5   3   6  1   
  6   4   7  1   
  7   4   8  1   
  8   4  25  1   
  9   5   9  1   
 10   5  26  1   
 11   5  27  1   
 12   6  10  1   
 13   6  28  1   
 14   6  29  1   
 15   7  11  1   
 16   7  30  1   
 17   7  31  1   
 18   8  12  1   
 19   8  32  1   
 20   8  33  1   
 21   9  10  1   
 22   9  34  1   
 23   9  35  1   
 24  10  36  1   
 25  10  37  1   
 26  11  13  1   
 27  11  38  1   
 28  11  39  1   
 29  12  13  1   
 30  12  40  1   
 31  12  41  1   
 32  13  14  1   
 33  13  42  1   
 34  14  15  1   
 35  14  43  1   
 36  14  44  1   
 37  15  16  ar  
 38  15  17  ar  
 39  16  18  ar  
 40  16  45  1   
 41  17  19  ar  
 42  17  46  1   
 43  18  20  1   
 44  18  21  ar  
 45  19  21  ar  
 46  19  47  1   
 47  20  22  1   
 48  21  23  1   
 49  22  48  1   
 50  22  49  1   
 51  22  50  1   
 52  23  24  1   
 53  24  51  1   
 54  24  52  1   
 55  24  53  1   
@<TRIPOS>SUBSTRUCTURE
  1 ****  11 GROUP 4 **** **** 0

# MOE 2024.06 (io_trps.svl 2023.06)
