@<TRIPOS>MOLECULE
NONAME
29 31 1 0 0 
SMALL
USER_CHARGES


@<TRIPOS>ATOM
  1 O       -9.0520     3.6320     0.0370 O.3   1 <1>  -0.3630 
  2 C       -7.8310     3.0410     0.0220 C.ar  1 <1>   0.0830 
  3 C       -9.1920     5.0370     0.0390 C.3   1 <1>   0.0400 
  4 C       -6.6350     3.7450     0.0080 C.ar  1 <1>  -0.1500 
  5 C       -7.8280     1.6430     0.0210 C.ar  1 <1>  -0.1500 
  6 C       -5.4520     3.0210    -0.0060 C.ar  1 <1>   0.3110 
  7 C       -6.6460     0.9280     0.0070 C.ar  1 <1>  -0.1500 
  8 N       -4.1280     3.4130    -0.0220 N.pl3 1 <1>  -0.7050 
  9 C       -5.4490     1.6320    -0.0070 C.ar  1 <1>   0.3110 
 10 C       -3.3900     2.3240    -0.0310 C.cat 1 <1>   1.2000 
 11 C       -3.3010     4.6390    -0.0310 C.3   1 <1>   0.1680 
 12 N       -4.1180     1.2080    -0.0230 N.pl3 1 <1>  -0.7050 
 13 N       -2.1010     2.5870    -0.0460 N.pl3 1 <1>  -0.8440 
 14 C       -1.8650     4.0570    -0.0480 C.3   1 <1>   0.1680 
 15 C       -3.6720    -0.2090    -0.0290 C.3   1 <1>   0.0880 
 16 H      -10.2430     5.2660     0.0520 H     1 <1>   0.0800 
 17 H       -8.7450     5.4360    -0.8540 H     1 <1>   0.0800 
 18 H       -8.7240     5.4360     0.9210 H     1 <1>   0.0800 
 19 H       -6.5930     4.8170     0.0080 H     1 <1>   0.1500 
 20 H       -8.7760     1.1310     0.0330 H     1 <1>   0.1500 
 21 H       -6.6470    -0.1470     0.0070 H     1 <1>   0.1500 
 22 H       -3.4760     5.2280     0.8550 H     1 <1>   0.0800 
 23 H       -3.4970     5.2280    -0.9110 H     1 <1>   0.0800 
 24 H       -1.3600     1.8890    -0.0550 H     1 <1>   0.4500 
 25 H       -1.3140     4.3620     0.8270 H     1 <1>   0.0800 
 26 H       -1.3350     4.3630    -0.9360 H     1 <1>   0.0800 
 27 H       -4.0590    -0.7100    -0.9010 H     1 <1>   0.0800 
 28 H       -4.0370    -0.7110     0.8520 H     1 <1>   0.0800 
 29 H       -2.5970    -0.2700    -0.0420 H     1 <1>   0.0800 
@<TRIPOS>BOND
  1   1   2  1   
  2   1   3  1   
  3   2   4  ar  
  4   2   5  ar  
  5   3  16  1   
  6   3  17  1   
  7   3  18  1   
  8   4   6  ar  
  9   4  19  1   
 10   5   7  ar  
 11   5  20  1   
 12   6   8  1   
 13   6   9  ar  
 14   7   9  ar  
 15   7  21  1   
 16   8  10  ar  
 17   8  11  1   
 18   9  12  1   
 19  10  12  ar  
 20  10  13  ar  
 21  11  14  1   
 22  11  22  1   
 23  11  23  1   
 24  12  15  1   
 25  13  14  1   
 26  13  24  1   
 27  14  25  1   
 28  14  26  1   
 29  15  27  1   
 30  15  28  1   
 31  15  29  1   
@<TRIPOS>SUBSTRUCTURE
  1 ****   6 GROUP 4 **** **** 0

# MOE 2024.06 (io_trps.svl 2023.06)
