@<TRIPOS>MOLECULE
NONAME
53 55 1 0 0 
SMALL
USER_CHARGES


@<TRIPOS>ATOM
  1 S       -0.2050     0.2040    -0.5240 S.o2  1 <1>   1.4470 
  2 O       -0.5440     0.0550    -1.9190 O.2   1 <1>  -0.6500 
  3 O       -0.8430    -0.6210     0.4750 O.2   1 <1>  -0.6500 
  4 N       -0.7290     1.7700    -0.2120 N.am  1 <1>  -0.9140 
  5 C        1.5840     0.3010    -0.2630 C.ar  1 <1>  -0.0090 
  6 C       -2.1820     1.8350    -0.0860 C.3   1 <1>   0.1960 
  7 C        2.1170     0.3600     1.0200 C.ar  1 <1>  -0.1500 
  8 C        2.4710     0.3460    -1.3320 C.ar  1 <1>  -0.1500 
  9 C       -2.6370     3.2510     0.3110 C.3   1 <1>   0.3430 
 10 C        3.4800     0.4680     1.2270 C.ar  1 <1>  -0.1500 
 11 C        3.8340     0.4540    -1.1280 C.ar  1 <1>  -0.1500 
 12 N       -4.0980     3.3190     0.6440 N.4   1 <1>  -0.9590 
 13 C        4.3620     0.5240     0.1560 C.ar  1 <1>   0.1170 
 14 C       -5.0250     2.9800    -0.4940 C.3   1 <1>   0.3430 
 15 C       -4.4860     4.6390     1.2510 C.3   1 <1>   0.3430 
 16 N        5.7340     0.6320     0.4070 N.am  1 <1>  -0.5470 
 17 C       -6.5080     3.1190    -0.0780 C.3   1 <1>   0.1200 
 18 C       -5.9890     4.6730     1.6130 C.3   1 <1>   0.1200 
 19 C        6.7430     1.1650    -0.3450 C.2   1 <1>   0.6900 
 20 O       -6.6210     3.4680     1.2760 O.3   1 <1>  -0.5600 
 21 O        6.5150     1.7350    -1.3960 O.2   1 <1>  -0.5700 
 22 N        8.0280     1.0640     0.1160 N.am  1 <1>  -0.6600 
 23 C        9.1760     1.5900    -0.6540 C.3   1 <1>   0.1400 
 24 C        8.4870     0.2630     1.2720 C.3   1 <1>   0.1400 
 25 C       10.3890     0.8550    -0.0950 C.3   1 <1>  -0.1600 
 26 C        9.9940     0.4910     1.3330 C.3   1 <1>  -0.1600 
 27 H       -0.4460     2.2600    -1.0620 H     1 <1>   0.4200 
 28 H       -2.4990     1.1530     0.6860 H     1 <1>   0.0800 
 29 H       -2.6350     1.5390    -1.0190 H     1 <1>   0.0800 
 30 H        1.4530     0.3210     1.8680 H     1 <1>   0.1500 
 31 H        2.0960     0.2960    -2.3410 H     1 <1>   0.1500 
 32 H       -2.4160     3.9330    -0.4930 H     1 <1>   0.0800 
 33 H       -2.0660     3.5490     1.1750 H     1 <1>   0.0800 
 34 H        3.8610     0.5160     2.2310 H     1 <1>   0.1500 
 35 H        4.4940     0.4820    -1.9780 H     1 <1>   0.1500 
 36 H       -4.3200     2.6280     1.3810 H     1 <1>   0.4500 
 37 H       -4.8540     1.9680    -0.8240 H     1 <1>   0.0800 
 38 H       -4.8370     3.6300    -1.3320 H     1 <1>   0.0800 
 39 H       -4.2760     5.4390     0.5600 H     1 <1>   0.0800 
 40 H       -3.9080     4.8210     2.1420 H     1 <1>   0.0800 
 41 H        6.0410     0.3610     1.3320 H     1 <1>   0.3700 
 42 H       -7.0240     2.1850    -0.2210 H     1 <1>   0.0800 
 43 H       -7.0040     3.8700    -0.6700 H     1 <1>   0.0800 
 44 H       -6.4880     5.4800     1.1030 H     1 <1>   0.0800 
 45 H       -6.1120     4.8210     2.6730 H     1 <1>   0.0800 
 46 H        9.2580     2.6490    -0.4800 H     1 <1>   0.0800 
 47 H        9.0530     1.4070    -1.7090 H     1 <1>   0.0800 
 48 H        8.2740    -0.7770     1.0870 H     1 <1>   0.0800 
 49 H        8.0100     0.5840     2.1810 H     1 <1>   0.0800 
 50 H       11.2760     1.4620    -0.1360 H     1 <1>   0.0800 
 51 H       10.5500    -0.0390    -0.6720 H     1 <1>   0.0800 
 52 H       10.5160    -0.3770     1.6940 H     1 <1>   0.0800 
 53 H       10.1950     1.3200     1.9880 H     1 <1>   0.0800 
@<TRIPOS>BOND
  1   1   2  2   
  2   1   3  2   
  3   1   4  am  
  4   1   5  1   
  5   4   6  1   
  6   4  27  1   
  7   5   7  ar  
  8   5   8  ar  
  9   6   9  1   
 10   6  28  1   
 11   6  29  1   
 12   7  10  ar  
 13   7  30  1   
 14   8  11  ar  
 15   8  31  1   
 16   9  12  1   
 17   9  32  1   
 18   9  33  1   
 19  10  13  ar  
 20  10  34  1   
 21  11  13  ar  
 22  11  35  1   
 23  12  14  1   
 24  12  15  1   
 25  12  36  1   
 26  13  16  1   
 27  14  17  1   
 28  14  37  1   
 29  14  38  1   
 30  15  18  1   
 31  15  39  1   
 32  15  40  1   
 33  16  19  am  
 34  16  41  1   
 35  17  20  1   
 36  17  42  1   
 37  17  43  1   
 38  18  20  1   
 39  18  44  1   
 40  18  45  1   
 41  19  21  2   
 42  19  22  am  
 43  22  23  1   
 44  22  24  1   
 45  23  25  1   
 46  23  46  1   
 47  23  47  1   
 48  24  26  1   
 49  24  48  1   
 50  24  49  1   
 51  25  26  1   
 52  25  50  1   
 53  25  51  1   
 54  26  52  1   
 55  26  53  1   
@<TRIPOS>SUBSTRUCTURE
  1 ****   5 GROUP 4 **** **** 0

# MOE 2024.06 (io_trps.svl 2023.06)
