@<TRIPOS>MOLECULE
NONAME
39 40 1 0 0 
SMALL
USER_CHARGES


@<TRIPOS>ATOM
  1 CL      -2.5160     0.0380    -0.7950 Cl    1 <1>  -0.1770 
  2 C       -1.4060     1.3680    -0.5520 C.ar  1 <1>   0.1770 
  3 C       -1.7070     2.3940     0.3330 C.ar  1 <1>  -0.1440 
  4 C       -0.2190     1.3450    -1.2650 C.ar  1 <1>  -0.1500 
  5 C       -0.7600     3.3990     0.4890 C.ar  1 <1>   0.1770 
  6 C       -3.0230     2.3990     1.0980 C.3   1 <1>   0.2540 
  7 C        0.7060     2.3620    -1.0970 C.ar  1 <1>  -0.1500 
  8 CL      -1.0390     4.7290     1.5910 Cl    1 <1>  -0.1770 
  9 C        0.4330     3.3920    -0.2140 C.ar  1 <1>  -0.1500 
 10 N       -4.1380     2.8400     0.2310 N.3   1 <1>  -0.8100 
 11 C       -5.4710     2.5270     0.8450 C.3   1 <1>   0.2510 
 12 C       -4.0110     4.2700    -0.1030 C.3   1 <1>   0.1100 
 13 C       -5.6630     1.0550     1.2760 C.2   1 <1>   0.6590 
 14 C       -6.5980     2.9450    -0.1190 C.3   1 <1>  -0.1600 
 15 C       -5.1030     4.6970    -1.0850 C.3   1 <1>  -0.1600 
 16 O       -5.6610     0.7420     2.4420 O.2   1 <1>  -0.5700 
 17 O       -5.8100     0.1500     0.3130 O.3   1 <1>  -0.4300 
 18 C       -6.4980     4.4200    -0.5210 C.3   1 <1>  -0.1600 
 19 C       -5.9030    -1.2240     0.5950 C.3   1 <1>   0.1200 
 20 C       -6.0250    -1.9680    -0.7310 C.3   1 <1>  -0.2400 
 21 H       -0.0250     0.5340    -1.9440 H     1 <1>   0.1500 
 22 H       -2.9680     3.0270     1.9700 H     1 <1>   0.0800 
 23 H       -3.1940     1.3960     1.4470 H     1 <1>   0.0800 
 24 H        1.6310     2.3500    -1.6490 H     1 <1>   0.1500 
 25 H        1.1400     4.1890    -0.0680 H     1 <1>   0.1500 
 26 H       -5.5670     3.1190     1.7390 H     1 <1>   0.0800 
 27 H       -3.0570     4.4550    -0.5650 H     1 <1>   0.0800 
 28 H       -4.0730     4.8640     0.7940 H     1 <1>   0.0800 
 29 H       -7.5510     2.7670     0.3470 H     1 <1>   0.0800 
 30 H       -6.5450     2.3320    -1.0020 H     1 <1>   0.0800 
 31 H       -4.9670     4.1590    -2.0070 H     1 <1>   0.0800 
 32 H       -5.0000     5.7460    -1.2980 H     1 <1>   0.0800 
 33 H       -6.6690     5.0430     0.3410 H     1 <1>   0.0800 
 34 H       -7.2450     4.6520    -1.2590 H     1 <1>   0.0800 
 35 H       -6.7680    -1.3880     1.2160 H     1 <1>   0.0800 
 36 H       -5.0140    -1.5230     1.1240 H     1 <1>   0.0800 
 37 H       -6.9090    -1.6500    -1.2540 H     1 <1>   0.0800 
 38 H       -6.0930    -3.0250    -0.5500 H     1 <1>   0.0800 
 39 H       -5.1590    -1.7790    -1.3390 H     1 <1>   0.0800 
@<TRIPOS>BOND
  1   1   2  1   
  2   2   3  ar  
  3   2   4  ar  
  4   3   5  ar  
  5   3   6  1   
  6   4   7  ar  
  7   4  21  1   
  8   5   8  1   
  9   5   9  ar  
 10   6  10  1   
 11   6  22  1   
 12   6  23  1   
 13   7   9  ar  
 14   7  24  1   
 15   9  25  1   
 16  10  11  1   
 17  10  12  1   
 18  11  13  1   
 19  11  14  1   
 20  11  26  1   
 21  12  15  1   
 22  12  27  1   
 23  12  28  1   
 24  13  16  2   
 25  13  17  1   
 26  14  18  1   
 27  14  29  1   
 28  14  30  1   
 29  15  18  1   
 30  15  31  1   
 31  15  32  1   
 32  17  19  1   
 33  18  33  1   
 34  18  34  1   
 35  19  20  1   
 36  19  35  1   
 37  19  36  1   
 38  20  37  1   
 39  20  38  1   
 40  20  39  1   
@<TRIPOS>SUBSTRUCTURE
  1 ****  10 GROUP 4 **** **** 0

# MOE 2024.06 (io_trps.svl 2023.06)
