@<TRIPOS>MOLECULE
NONAME
59 60 1 0 0 
SMALL
USER_CHARGES


@<TRIPOS>ATOM
  1 O       -0.9150    -0.8670    -0.4930 O.2   1 <1>  -0.5700 
  2 C       -0.6870    -2.0140    -0.1930 C.2   1 <1>   0.5690 
  3 N        0.5690    -2.5020     0.0370 N.am  1 <1>  -0.5470 
  4 C       -1.8590    -2.9940    -0.0620 C.3   1 <1>  -0.0190 
  5 C        1.8540    -1.9240     0.0140 C.ar  1 <1>   0.1170 
  6 C       -2.5970    -3.1710    -1.3990 C.3   1 <1>  -0.2400 
  7 C       -2.8460    -2.5510     1.0300 C.3   1 <1>  -0.2400 
  8 C        2.9540    -2.7620     0.2250 C.ar  1 <1>   0.0820 
  9 C        2.0830    -0.5710    -0.2020 C.ar  1 <1>  -0.1500 
 10 O        2.6940    -4.0880     0.4420 O.3   1 <1>  -0.3620 
 11 C        4.2430    -2.2410     0.2100 C.ar  1 <1>  -0.1500 
 12 C        3.3690    -0.0610    -0.2150 C.ar  1 <1>  -0.1500 
 13 C        3.7310    -5.0070     0.7110 C.3   1 <1>   0.0400 
 14 C        4.4660    -0.8880    -0.0080 C.ar  1 <1>   0.1170 
 15 N        5.7920    -0.4200    -0.0240 N.am  1 <1>  -0.5470 
 16 C        6.3300     0.8290     0.1220 C.2   1 <1>   0.5690 
 17 O        5.6790     1.8270     0.3130 O.2   1 <1>  -0.5700 
 18 C        7.8450     0.9640     0.0490 C.3   1 <1>   0.1810 
 19 O        8.4590    -0.3060    -0.1410 O.3   1 <1>  -0.3630 
 20 C        9.8070    -0.4460    -0.2550 C.ar  1 <1>   0.0820 
 21 C       10.3190    -1.7230    -0.4960 C.ar  1 <1>  -0.1440 
 22 C       10.6740     0.6390    -0.1380 C.ar  1 <1>  -0.1500 
 23 C       11.6940    -1.8780    -0.6110 C.ar  1 <1>  -0.1500 
 24 C        9.4110    -2.9520    -0.6360 C.3   1 <1>   0.0630 
 25 C       12.0420     0.4680    -0.2580 C.ar  1 <1>  -0.1440 
 26 C       12.5480    -0.7970    -0.4930 C.ar  1 <1>  -0.1500 
 27 C        9.7010    -3.9750     0.4680 C.3   1 <1>  -0.2400 
 28 C        9.5610    -3.5920    -2.0210 C.3   1 <1>  -0.2400 
 29 C       12.9840     1.6520    -0.1280 C.3   1 <1>  -0.0970 
 30 H        0.6200    -3.4980     0.2540 H     1 <1>   0.3700 
 31 H       -1.4670    -3.9540     0.2240 H     1 <1>   0.0800 
 32 H       -3.0210    -2.2340    -1.7160 H     1 <1>   0.0800 
 33 H       -3.3880    -3.8940    -1.3030 H     1 <1>   0.0800 
 34 H       -1.9130    -3.5070    -2.1580 H     1 <1>   0.0800 
 35 H       -3.2790    -1.5980     0.7760 H     1 <1>   0.0800 
 36 H       -2.3350    -2.4490     1.9720 H     1 <1>   0.0800 
 37 H       -3.6370    -3.2710     1.1420 H     1 <1>   0.0800 
 38 H        1.2610     0.1010    -0.3640 H     1 <1>   0.1500 
 39 H        5.0950    -2.8710     0.3700 H     1 <1>   0.1500 
 40 H        3.5080     0.9900    -0.3900 H     1 <1>   0.1500 
 41 H        3.2880    -5.9750     0.8650 H     1 <1>   0.0800 
 42 H        4.2510    -4.6990     1.6010 H     1 <1>   0.0800 
 43 H        4.3950    -5.0420    -0.1340 H     1 <1>   0.0800 
 44 H        6.5100    -1.1380    -0.1390 H     1 <1>   0.3700 
 45 H        8.2070     1.3840     0.9690 H     1 <1>   0.0800 
 46 H        8.1070     1.5980    -0.7780 H     1 <1>   0.0800 
 47 H       10.3070     1.6290     0.0490 H     1 <1>   0.1500 
 48 H       12.1160    -2.8490    -0.7940 H     1 <1>   0.1500 
 49 H        8.3810    -2.6630    -0.5350 H     1 <1>   0.0800 
 50 H       13.6090    -0.9470    -0.5860 H     1 <1>   0.1500 
 51 H       10.7000    -4.3610     0.3830 H     1 <1>   0.0800 
 52 H        9.0100    -4.7970     0.4070 H     1 <1>   0.0800 
 53 H        9.5960    -3.5090     1.4310 H     1 <1>   0.0800 
 54 H       10.5540    -3.9760    -2.1640 H     1 <1>   0.0800 
 55 H        9.3650    -2.8580    -2.7830 H     1 <1>   0.0800 
 56 H        8.8610    -4.4000    -2.1370 H     1 <1>   0.0800 
 57 H       12.4880     2.5650    -0.4040 H     1 <1>   0.0800 
 58 H       13.8360     1.5230    -0.7720 H     1 <1>   0.0800 
 59 H       13.3260     1.7350     0.8880 H     1 <1>   0.0800 
@<TRIPOS>BOND
  1   1   2  2   
  2   2   3  am  
  3   2   4  1   
  4   3   5  1   
  5   3  30  1   
  6   4   6  1   
  7   4   7  1   
  8   4  31  1   
  9   5   8  ar  
 10   5   9  ar  
 11   6  32  1   
 12   6  33  1   
 13   6  34  1   
 14   7  35  1   
 15   7  36  1   
 16   7  37  1   
 17   8  10  1   
 18   8  11  ar  
 19   9  12  ar  
 20   9  38  1   
 21  10  13  1   
 22  11  14  ar  
 23  11  39  1   
 24  12  14  ar  
 25  12  40  1   
 26  13  41  1   
 27  13  42  1   
 28  13  43  1   
 29  14  15  1   
 30  15  16  am  
 31  15  44  1   
 32  16  17  2   
 33  16  18  1   
 34  18  19  1   
 35  18  45  1   
 36  18  46  1   
 37  19  20  1   
 38  20  21  ar  
 39  20  22  ar  
 40  21  23  ar  
 41  21  24  1   
 42  22  25  ar  
 43  22  47  1   
 44  23  26  ar  
 45  23  48  1   
 46  24  27  1   
 47  24  28  1   
 48  24  49  1   
 49  25  26  ar  
 50  25  29  1   
 51  26  50  1   
 52  27  51  1   
 53  27  52  1   
 54  27  53  1   
 55  28  54  1   
 56  28  55  1   
 57  28  56  1   
 58  29  57  1   
 59  29  58  1   
 60  29  59  1   
@<TRIPOS>SUBSTRUCTURE
  1 ****  15 GROUP 4 **** **** 0

# MOE 2024.06 (io_trps.svl 2023.06)
