@<TRIPOS>MOLECULE
NONAME
45 47 1 0 0 
SMALL
USER_CHARGES


@<TRIPOS>ATOM
  1 S       -0.4740    -0.5620    -1.5670 S.o2  1 <1>   1.3180 
  2 O       -0.4530     0.4920    -2.5600 O.2   1 <1>  -0.6500 
  3 O       -1.0480    -1.8490    -1.9050 O.2   1 <1>  -0.6500 
  4 C        1.2210    -0.8330    -0.9810 C.ar  1 <1>  -0.0090 
  5 C       -1.2740     0.0620    -0.0670 C.ar  1 <1>  -0.0090 
  6 C        2.2030     0.1390    -1.1320 C.ar  1 <1>  -0.1500 
  7 C        1.5790    -2.0110    -0.3350 C.ar  1 <1>  -0.1500 
  8 C       -1.2010     1.4080     0.2770 C.ar  1 <1>  -0.1500 
  9 C       -1.9560    -0.7920     0.7940 C.ar  1 <1>  -0.1500 
 10 C        3.4900    -0.0600    -0.6640 C.ar  1 <1>  -0.1500 
 11 C        2.8650    -2.2110     0.1340 C.ar  1 <1>  -0.1500 
 12 C       -1.7860     1.8860     1.4370 C.ar  1 <1>  -0.1500 
 13 C       -2.5440    -0.3220     1.9560 C.ar  1 <1>  -0.1500 
 14 C        3.8530    -1.2430    -0.0270 C.ar  1 <1>   0.0860 
 15 C       -2.4580     1.0200     2.2790 C.ar  1 <1>  -0.1500 
 16 C        5.2040    -1.4470     0.4600 C.2   1 <1>   0.5440 
 17 O        5.6270    -0.7010     1.3220 O.2   1 <1>  -0.5700 
 18 N        6.0180    -2.4530    -0.0260 N.am  1 <1>  -0.6600 
 19 C        5.7250    -3.2070    -1.2800 C.3   1 <1>   0.1400 
 20 C        7.3100    -2.7680     0.6440 C.3   1 <1>   0.1400 
 21 C        6.0370    -4.7090    -1.1860 C.3   1 <1>  -0.1600 
 22 C        7.0760    -3.8290     1.7250 C.3   1 <1>  -0.1600 
 23 C        5.6940    -5.3680     0.1610 C.3   1 <1>  -0.1600 
 24 C        6.8330    -5.2490     1.1870 C.3   1 <1>  -0.1600 
 25 H        1.9610     1.0660    -1.6250 H     1 <1>   0.1500 
 26 H        0.8420    -2.7860    -0.1990 H     1 <1>   0.1500 
 27 H       -0.6840     2.0950    -0.3720 H     1 <1>   0.1500 
 28 H       -2.0340    -1.8390     0.5530 H     1 <1>   0.1500 
 29 H        4.2340     0.7090    -0.7860 H     1 <1>   0.1500 
 30 H        3.1180    -3.1290     0.6360 H     1 <1>   0.1500 
 31 H       -1.7200     2.9320     1.6840 H     1 <1>   0.1500 
 32 H       -3.0700    -0.9990     2.6080 H     1 <1>   0.1500 
 33 H       -2.9150     1.3890     3.1810 H     1 <1>   0.1500 
 34 H        6.3000    -2.7770    -2.0830 H     1 <1>   0.0800 
 35 H        4.6880    -3.0970    -1.5400 H     1 <1>   0.0800 
 36 H        7.7050    -1.8780     1.1040 H     1 <1>   0.0800 
 37 H        8.0340    -3.1090    -0.0740 H     1 <1>   0.0800 
 38 H        7.0740    -4.8720    -1.4190 H     1 <1>   0.0800 
 39 H        5.4740    -5.1990    -1.9600 H     1 <1>   0.0800 
 40 H        6.2470    -3.5220     2.3390 H     1 <1>   0.0800 
 41 H        7.9440    -3.8560     2.3580 H     1 <1>   0.0800 
 42 H        5.5240    -6.4170    -0.0140 H     1 <1>   0.0800 
 43 H        4.7840    -4.9580     0.5640 H     1 <1>   0.0800 
 44 H        6.6050    -5.8860     2.0240 H     1 <1>   0.0800 
 45 H        7.7440    -5.6200     0.7480 H     1 <1>   0.0800 
@<TRIPOS>BOND
  1   1   2  2   
  2   1   3  2   
  3   1   4  1   
  4   1   5  1   
  5   4   6  ar  
  6   4   7  ar  
  7   5   8  ar  
  8   5   9  ar  
  9   6  10  ar  
 10   6  25  1   
 11   7  11  ar  
 12   7  26  1   
 13   8  12  ar  
 14   8  27  1   
 15   9  13  ar  
 16   9  28  1   
 17  10  14  ar  
 18  10  29  1   
 19  11  14  ar  
 20  11  30  1   
 21  12  15  ar  
 22  12  31  1   
 23  13  15  ar  
 24  13  32  1   
 25  14  16  1   
 26  15  33  1   
 27  16  17  2   
 28  16  18  am  
 29  18  19  1   
 30  18  20  1   
 31  19  21  1   
 32  19  34  1   
 33  19  35  1   
 34  20  22  1   
 35  20  36  1   
 36  20  37  1   
 37  21  23  1   
 38  21  38  1   
 39  21  39  1   
 40  22  24  1   
 41  22  40  1   
 42  22  41  1   
 43  23  24  1   
 44  23  42  1   
 45  23  43  1   
 46  24  44  1   
 47  24  45  1   
@<TRIPOS>SUBSTRUCTURE
  1 ****  11 GROUP 4 **** **** 0

# MOE 2024.06 (io_trps.svl 2023.06)
