@<TRIPOS>MOLECULE
NONAME
30 31 1 0 0 
SMALL
USER_CHARGES


@<TRIPOS>ATOM
  1 CL      -0.0490    -0.4810     0.7630 Cl    1 <1>  -0.1770 
  2 C        1.5260    -1.1150     0.3710 C.ar  1 <1>   0.1770 
  3 C        2.6340    -0.2970     0.4730 C.ar  1 <1>  -0.1500 
  4 C        1.6490    -2.4280    -0.0400 C.ar  1 <1>  -0.1500 
  5 C        3.8850    -0.8030     0.1620 C.ar  1 <1>  -0.1500 
  6 C        2.9040    -2.9240    -0.3470 C.ar  1 <1>  -0.1500 
  7 C        4.0510    -2.1310    -0.2490 C.ar  1 <1>   0.0860 
  8 C        5.3520    -2.6910    -0.5690 C.2   1 <1>   0.5440 
  9 O        5.4600    -3.5340    -1.4330 O.2   1 <1>  -0.5700 
 10 N        6.4710    -2.2400     0.0800 N.am  1 <1>  -0.4900 
 11 C        7.6410    -2.9000     0.2910 C.2   1 <1>   0.6900 
 12 O        7.6390    -4.0870     0.5470 O.2   1 <1>  -0.5700 
 13 N        8.8030    -2.1780     0.3140 N.am  1 <1>  -0.6600 
 14 C        8.9830    -0.8650    -0.3460 C.3   1 <1>   0.1400 
 15 C       10.1130    -2.8270     0.5560 C.3   1 <1>   0.1400 
 16 C       10.4830    -0.6000    -0.2940 C.3   1 <1>  -0.1600 
 17 C       11.1180    -1.9840    -0.2200 C.3   1 <1>  -0.1600 
 18 H        2.5100     0.7240     0.7900 H     1 <1>   0.1500 
 19 H        0.7750    -3.0500    -0.1170 H     1 <1>   0.1500 
 20 H        4.7340    -0.1490     0.2330 H     1 <1>   0.1500 
 21 H        3.0070    -3.9470    -0.6710 H     1 <1>   0.1500 
 22 H        6.3990    -1.3870     0.6110 H     1 <1>   0.3700 
 23 H        8.4340    -0.0950     0.1670 H     1 <1>   0.0800 
 24 H        8.6510    -0.9360    -1.3690 H     1 <1>   0.0800 
 25 H       10.1130    -3.8500     0.2160 H     1 <1>   0.0800 
 26 H       10.3260    -2.7990     1.6100 H     1 <1>   0.0800 
 27 H       10.7110    -0.0460     0.6000 H     1 <1>   0.0800 
 28 H       10.8210    -0.0400    -1.1490 H     1 <1>   0.0800 
 29 H       11.2220    -2.3940    -1.2100 H     1 <1>   0.0800 
 30 H       12.0820    -1.9720     0.2570 H     1 <1>   0.0800 
@<TRIPOS>BOND
  1   1   2  1   
  2   2   3  ar  
  3   2   4  ar  
  4   3   5  ar  
  5   3  18  1   
  6   4   6  ar  
  7   4  19  1   
  8   5   7  ar  
  9   5  20  1   
 10   6   7  ar  
 11   6  21  1   
 12   7   8  1   
 13   8   9  2   
 14   8  10  am  
 15  10  11  am  
 16  10  22  1   
 17  11  12  2   
 18  11  13  am  
 19  13  14  1   
 20  13  15  1   
 21  14  16  1   
 22  14  23  1   
 23  14  24  1   
 24  15  17  1   
 25  15  25  1   
 26  15  26  1   
 27  16  17  1   
 28  16  27  1   
 29  16  28  1   
 30  17  29  1   
 31  17  30  1   
@<TRIPOS>SUBSTRUCTURE
  1 ****  10 GROUP 4 **** **** 0

# MOE 2024.06 (io_trps.svl 2023.06)
