@<TRIPOS>MOLECULE
NONAME
47 49 1 0 0 
SMALL
USER_CHARGES


@<TRIPOS>ATOM
  1 S        0.2450    -0.8170     1.5400 S.o2  1 <1>   1.4470 
  2 O        0.5910    -2.1930     1.8200 O.2   1 <1>  -0.6500 
  3 O       -0.0460     0.0750     2.6440 O.2   1 <1>  -0.6500 
  4 N        1.5580    -0.1290     0.7120 N.am  1 <1>  -0.8490 
  5 C       -1.0950    -0.7670     0.3170 C.ar  1 <1>  -0.0090 
  6 C        2.8200    -0.4040     1.4020 C.3   1 <1>   0.1960 
  7 C        1.3650     1.3060     0.4790 C.3   1 <1>   0.1960 
  8 C       -2.3450    -0.2520     0.6370 C.ar  1 <1>  -0.1500 
  9 C       -0.9020    -1.2460    -0.9730 C.ar  1 <1>  -0.1500 
 10 C        4.0030     0.1040     0.5730 C.3   1 <1>  -0.1600 
 11 C        2.4960     1.8580    -0.3900 C.3   1 <1>  -0.1600 
 12 C       -3.3650    -0.2080    -0.2980 C.ar  1 <1>  -0.1500 
 13 C       -1.9170    -1.2060    -1.9130 C.ar  1 <1>  -0.1500 
 14 C        3.8680     1.6020     0.2560 C.3   1 <1>  -0.0190 
 15 C       -3.1550    -0.6840    -1.5810 C.ar  1 <1>  -0.1440 
 16 C        5.0150     2.0970    -0.6240 C.2   1 <1>   0.5690 
 17 C       -4.2700    -0.6400    -2.6100 C.3   1 <1>  -0.0970 
 18 O        5.1110     1.6700    -1.7490 O.2   1 <1>  -0.5700 
 19 N        5.8890     2.9990    -0.0780 N.am  1 <1>  -0.5470 
 20 C        7.0130     3.6470    -0.6150 C.ar  1 <1>   0.1170 
 21 C        7.2470     3.7690    -1.9820 C.ar  1 <1>  -0.1500 
 22 C        7.9320     4.2120     0.2630 C.ar  1 <1>  -0.1500 
 23 C        8.3670     4.4290    -2.4550 C.ar  1 <1>  -0.1500 
 24 C        9.0530     4.8740    -0.2060 C.ar  1 <1>  -0.1500 
 25 C        9.2730     4.9830    -1.5670 C.ar  1 <1>  -0.1500 
 26 H        2.9330    -1.4670     1.5430 H     1 <1>   0.0800 
 27 H        2.8150     0.0630     2.3730 H     1 <1>   0.0800 
 28 H        1.3360     1.8320     1.4200 H     1 <1>   0.0800 
 29 H        0.4280     1.4700    -0.0260 H     1 <1>   0.0800 
 30 H       -2.5250     0.1210     1.6320 H     1 <1>   0.1500 
 31 H        0.0570    -1.6550    -1.2420 H     1 <1>   0.1500 
 32 H        4.0480    -0.4590    -0.3440 H     1 <1>   0.0800 
 33 H        4.9180    -0.0760     1.1100 H     1 <1>   0.0800 
 34 H        2.3540     2.9140    -0.5360 H     1 <1>   0.0800 
 35 H        2.4520     1.3860    -1.3570 H     1 <1>   0.0800 
 36 H       -4.3230     0.1960    -0.0220 H     1 <1>   0.1500 
 37 H       -1.7370    -1.5850    -2.9050 H     1 <1>   0.1500 
 38 H        3.8970     2.1400     1.1870 H     1 <1>   0.0800 
 39 H       -4.9340     0.1820    -2.4120 H     1 <1>   0.0800 
 40 H       -4.8320    -1.5560    -2.5750 H     1 <1>   0.0800 
 41 H       -3.8660    -0.5180    -3.5980 H     1 <1>   0.0800 
 42 H        5.7200     3.2170     0.9010 H     1 <1>   0.3700 
 43 H        6.5550     3.3520    -2.6890 H     1 <1>   0.1500 
 44 H        7.7780     4.1340     1.3230 H     1 <1>   0.1500 
 45 H        8.5330     4.5110    -3.5150 H     1 <1>   0.1500 
 46 H        9.7570     5.3040     0.4860 H     1 <1>   0.1500 
 47 H       10.1440     5.4960    -1.9360 H     1 <1>   0.1500 
@<TRIPOS>BOND
  1   1   2  2   
  2   1   3  2   
  3   1   4  am  
  4   1   5  1   
  5   4   6  1   
  6   4   7  1   
  7   5   8  ar  
  8   5   9  ar  
  9   6  10  1   
 10   6  26  1   
 11   6  27  1   
 12   7  11  1   
 13   7  28  1   
 14   7  29  1   
 15   8  12  ar  
 16   8  30  1   
 17   9  13  ar  
 18   9  31  1   
 19  10  14  1   
 20  10  32  1   
 21  10  33  1   
 22  11  14  1   
 23  11  34  1   
 24  11  35  1   
 25  12  15  ar  
 26  12  36  1   
 27  13  15  ar  
 28  13  37  1   
 29  14  16  1   
 30  14  38  1   
 31  15  17  1   
 32  16  18  2   
 33  16  19  am  
 34  17  39  1   
 35  17  40  1   
 36  17  41  1   
 37  19  20  1   
 38  19  42  1   
 39  20  21  ar  
 40  20  22  ar  
 41  21  23  ar  
 42  21  43  1   
 43  22  24  ar  
 44  22  44  1   
 45  23  25  ar  
 46  23  45  1   
 47  24  25  ar  
 48  24  46  1   
 49  25  47  1   
@<TRIPOS>SUBSTRUCTURE
  1 ****  11 GROUP 4 **** **** 0

# MOE 2024.06 (io_trps.svl 2023.06)
