@<TRIPOS>MOLECULE
NONAME
31 32 1 0 0 
SMALL
USER_CHARGES


@<TRIPOS>ATOM
  1 O        2.1430    -4.1120    -1.6070 O.2   1 <1>  -0.5700 
  2 C        1.7960    -3.2870    -0.7870 C.2   1 <1>   0.8050 
  3 O        0.4800    -3.0530    -0.6450 O.3   1 <1>  -0.4300 
  4 C        2.6950    -2.5360     0.0550 C.2   1 <1>   0.0550 
  5 C       -0.4890    -3.7510    -1.4180 C.3   1 <1>   0.2000 
  6 O        4.0090    -2.7350     0.0060 O.3   1 <1>  -0.2800 
  7 C        2.4490    -1.5670     0.9850 C.2   1 <1>  -0.1500 
  8 C       -1.7680    -2.8970    -1.4700 C.3   1 <1>   0.3430 
  9 C       -0.7940    -5.1050    -0.7460 C.3   1 <1>  -0.1600 
 10 C        4.5990    -1.9360     0.8630 C.2   1 <1>  -0.0100 
 11 C        3.6840    -1.1810     1.5070 C.2   1 <1>  -0.1500 
 12 N       -2.2910    -2.5620    -0.0900 N.4   1 <1>  -0.9590 
 13 C       -1.9290    -5.0190     0.2970 C.3   1 <1>  -0.1600 
 14 C       -2.0360    -3.6310     0.9390 C.3   1 <1>   0.3430 
 15 C       -3.7380    -2.1910    -0.1440 C.3   1 <1>   0.2630 
 16 H       -0.1060    -3.8960    -2.4160 H     1 <1>   0.0800 
 17 H        1.5020    -1.1560     1.2830 H     1 <1>   0.1500 
 18 H       -2.5150    -3.4580    -2.0080 H     1 <1>   0.0800 
 19 H       -1.5750    -1.9940    -2.0250 H     1 <1>   0.0800 
 20 H        0.1020    -5.4960    -0.2940 H     1 <1>   0.0800 
 21 H       -1.0880    -5.8110    -1.5050 H     1 <1>   0.0800 
 22 H        5.6710    -1.9650     0.9540 H     1 <1>   0.1500 
 23 H        3.8490    -0.4340     2.2640 H     1 <1>   0.1500 
 24 H       -1.7580    -1.7380     0.2250 H     1 <1>   0.4500 
 25 H       -1.7580    -5.7530     1.0660 H     1 <1>   0.0800 
 26 H       -2.8720    -5.2610    -0.1640 H     1 <1>   0.0800 
 27 H       -2.8160    -3.6270     1.6840 H     1 <1>   0.0800 
 28 H       -1.1030    -3.4230     1.4390 H     1 <1>   0.0800 
 29 H       -4.3290    -3.0350    -0.4630 H     1 <1>   0.0800 
 30 H       -3.8920    -1.3800    -0.8370 H     1 <1>   0.0800 
 31 H       -4.0810    -1.8790     0.8290 H     1 <1>   0.0800 
@<TRIPOS>BOND
  1   1   2  2   
  2   2   3  1   
  3   2   4  1   
  4   3   5  1   
  5   4   6  1   
  6   4   7  2   
  7   5   8  1   
  8   5   9  1   
  9   5  16  1   
 10   6  10  1   
 11   7  11  1   
 12   7  17  1   
 13   8  12  1   
 14   8  18  1   
 15   8  19  1   
 16   9  13  1   
 17   9  20  1   
 18   9  21  1   
 19  10  11  2   
 20  10  22  1   
 21  11  23  1   
 22  12  14  1   
 23  12  15  1   
 24  12  24  1   
 25  13  14  1   
 26  13  25  1   
 27  13  26  1   
 28  14  27  1   
 29  14  28  1   
 30  15  29  1   
 31  15  30  1   
 32  15  31  1   
@<TRIPOS>SUBSTRUCTURE
  1 ****   3 GROUP 4 **** **** 0

# MOE 2024.06 (io_trps.svl 2023.06)
