@<TRIPOS>MOLECULE
NONAME
41 42 1 0 0 
SMALL
USER_CHARGES


@<TRIPOS>ATOM
  1 O       -0.1250    -0.8350     0.4620 O.3   1 <1>  -0.3630 
  2 C       -1.3620    -1.1940     0.0320 C.ar  1 <1>   0.0830 
  3 C        0.6380     0.1540    -0.1930 C.3   1 <1>   0.0400 
  4 C       -2.0020    -2.2330     0.7010 C.ar  1 <1>  -0.1440 
  5 C       -2.0000    -0.5710    -1.0370 C.ar  1 <1>  -0.1500 
  6 C       -3.2660    -2.6330     0.3010 C.ar  1 <1>  -0.1500 
  7 C       -1.3160    -2.9340     1.8660 C.3   1 <1>  -0.0960 
  8 C       -3.2630    -0.9760    -1.4290 C.ar  1 <1>  -0.1500 
  9 C       -3.9060    -2.0040    -0.7570 C.ar  1 <1>  -0.1440 
 10 C       -5.3020    -2.4330    -1.1670 C.3   1 <1>   0.4860 
 11 N       -6.2700    -2.0110    -0.1120 N.4   1 <1>  -0.9590 
 12 C       -7.6480    -2.5430    -0.3110 C.3   1 <1>   0.4230 
 13 C       -6.2510    -0.5220     0.0380 C.3   1 <1>   0.3430 
 14 C       -8.5330    -2.1320     0.8750 C.3   1 <1>  -0.1600 
 15 C       -7.6260    -4.0690    -0.4240 C.3   1 <1>  -0.2400 
 16 C       -7.1090    -0.0970     1.2280 C.3   1 <1>  -0.1600 
 17 C       -8.5430    -0.6160     1.0970 C.3   1 <1>  -0.1600 
 18 H        1.5830     0.2360     0.3130 H     1 <1>   0.0800 
 19 H        0.1140     1.0910    -0.1420 H     1 <1>   0.0800 
 20 H        0.7970    -0.1470    -1.2140 H     1 <1>   0.0800 
 21 H       -1.5250     0.2280    -1.5750 H     1 <1>   0.1500 
 22 H       -3.7440    -3.4450     0.8230 H     1 <1>   0.1500 
 23 H       -1.0970    -2.2220     2.6420 H     1 <1>   0.0800 
 24 H       -0.3910    -3.3690     1.5320 H     1 <1>   0.0800 
 25 H       -1.9310    -3.7130     2.2780 H     1 <1>   0.0800 
 26 H       -3.7310    -0.4790    -2.2620 H     1 <1>   0.1500 
 27 H       -5.3090    -3.5040    -1.2810 H     1 <1>   0.0800 
 28 H       -5.5630    -1.9870    -2.1130 H     1 <1>   0.0800 
 29 H       -5.9190    -2.3930     0.7730 H     1 <1>   0.4500 
 30 H       -8.0660    -2.1270    -1.2140 H     1 <1>   0.0800 
 31 H       -6.6290    -0.0610    -0.8600 H     1 <1>   0.0800 
 32 H       -5.2410    -0.1770     0.1960 H     1 <1>   0.0800 
 33 H       -8.1920    -2.6240     1.7700 H     1 <1>   0.0800 
 34 H       -9.5420    -2.4620     0.6950 H     1 <1>   0.0800 
 35 H       -7.1190    -4.5140     0.4130 H     1 <1>   0.0800 
 36 H       -7.1690    -4.3910    -1.3420 H     1 <1>   0.0800 
 37 H       -8.6360    -4.4420    -0.4350 H     1 <1>   0.0800 
 38 H       -7.1230     0.9780     1.2850 H     1 <1>   0.0800 
 39 H       -6.6640    -0.4610     2.1380 H     1 <1>   0.0800 
 40 H       -9.1020    -0.3800     1.9880 H     1 <1>   0.0800 
 41 H       -9.0300    -0.1310     0.2670 H     1 <1>   0.0800 
@<TRIPOS>BOND
  1   1   2  1   
  2   1   3  1   
  3   2   4  ar  
  4   2   5  ar  
  5   3  18  1   
  6   3  19  1   
  7   3  20  1   
  8   4   6  ar  
  9   4   7  1   
 10   5   8  ar  
 11   5  21  1   
 12   6   9  ar  
 13   6  22  1   
 14   7  23  1   
 15   7  24  1   
 16   7  25  1   
 17   8   9  ar  
 18   8  26  1   
 19   9  10  1   
 20  10  11  1   
 21  10  27  1   
 22  10  28  1   
 23  11  12  1   
 24  11  13  1   
 25  11  29  1   
 26  12  14  1   
 27  12  15  1   
 28  12  30  1   
 29  13  16  1   
 30  13  31  1   
 31  13  32  1   
 32  14  17  1   
 33  14  33  1   
 34  14  34  1   
 35  15  35  1   
 36  15  36  1   
 37  15  37  1   
 38  16  17  1   
 39  16  38  1   
 40  16  39  1   
 41  17  40  1   
 42  17  41  1   
@<TRIPOS>SUBSTRUCTURE
  1 ****   9 GROUP 4 **** **** 0

# MOE 2024.06 (io_trps.svl 2023.06)
