@<TRIPOS>MOLECULE
NONAME
38 39 1 0 0 
SMALL
USER_CHARGES


@<TRIPOS>ATOM
  1 O        3.2760    -1.4670     1.1810 O.2   1 <1>  -0.5700 
  2 C        2.4480    -1.1820     0.3510 C.2   1 <1>   0.5690 
  3 N        1.2570    -1.8010     0.3330 N.am  1 <1>  -0.8000 
  4 C        2.7780    -0.1020    -0.6700 C.3   1 <1>  -0.0190 
  5 C        4.2180    -0.3250    -1.1600 C.3   1 <1>   0.3430 
  6 C        2.5780     1.3100    -0.0610 C.3   1 <1>  -0.1600 
  7 N        5.1650     0.1440    -0.1070 N.4   1 <1>  -0.9590 
  8 C        3.7750     2.2370    -0.3380 C.3   1 <1>  -0.1600 
  9 C        5.1160     1.6280     0.1070 C.3   1 <1>   0.3430 
 10 C        6.5430    -0.3850    -0.3240 C.3   1 <1>   0.3430 
 11 C        7.4020    -0.2630     0.9360 C.3   1 <1>  -0.0170 
 12 C        8.7560    -0.8850     0.6570 C.ar  1 <1>  -0.1440 
 13 C        9.7840    -0.1180     0.1270 C.ar  1 <1>  -0.1500 
 14 C        8.9740    -2.2290     0.9180 C.ar  1 <1>  -0.1500 
 15 C       11.0140    -0.6920    -0.1440 C.ar  1 <1>  -0.1500 
 16 C       10.2040    -2.8020     0.6460 C.ar  1 <1>  -0.1500 
 17 C       11.2240    -2.0340     0.1140 C.ar  1 <1>  -0.1500 
 18 H        1.0480    -2.5080     1.0440 H     1 <1>   0.3700 
 19 H        0.4870    -1.5840    -0.3020 H     1 <1>   0.3700 
 20 H        2.1240    -0.2220    -1.5150 H     1 <1>   0.0800 
 21 H        4.3870     0.2230    -2.0730 H     1 <1>   0.0800 
 22 H        4.3690    -1.3750    -1.3570 H     1 <1>   0.0800 
 23 H        2.4530     1.2320     1.0070 H     1 <1>   0.0800 
 24 H        1.6760     1.7510    -0.4520 H     1 <1>   0.0800 
 25 H        4.7930    -0.3100     0.7550 H     1 <1>   0.4500 
 26 H        3.6330     3.1760     0.1680 H     1 <1>   0.0800 
 27 H        3.8240     2.4560    -1.3910 H     1 <1>   0.0800 
 28 H        5.9120     2.1070    -0.4410 H     1 <1>   0.0800 
 29 H        5.2670     1.8340     1.1550 H     1 <1>   0.0800 
 30 H        7.0190     0.1400    -1.1360 H     1 <1>   0.0800 
 31 H        6.4890    -1.4280    -0.5910 H     1 <1>   0.0800 
 32 H        6.9330    -0.7800     1.7540 H     1 <1>   0.0800 
 33 H        7.5370     0.7680     1.2090 H     1 <1>   0.0800 
 34 H        9.6430     0.9290    -0.0770 H     1 <1>   0.1500 
 35 H        8.1950    -2.8430     1.3350 H     1 <1>   0.1500 
 36 H       11.8100    -0.0950    -0.5540 H     1 <1>   0.1500 
 37 H       10.3710    -3.8460     0.8510 H     1 <1>   0.1500 
 38 H       12.1810    -2.4800    -0.0960 H     1 <1>   0.1500 
@<TRIPOS>BOND
  1   1   2  2   
  2   2   3  am  
  3   2   4  1   
  4   3  18  1   
  5   3  19  1   
  6   4   5  1   
  7   4   6  1   
  8   4  20  1   
  9   5   7  1   
 10   5  21  1   
 11   5  22  1   
 12   6   8  1   
 13   6  23  1   
 14   6  24  1   
 15   7   9  1   
 16   7  10  1   
 17   7  25  1   
 18   8   9  1   
 19   8  26  1   
 20   8  27  1   
 21   9  28  1   
 22   9  29  1   
 23  10  11  1   
 24  10  30  1   
 25  10  31  1   
 26  11  12  1   
 27  11  32  1   
 28  11  33  1   
 29  12  13  ar  
 30  12  14  ar  
 31  13  15  ar  
 32  13  34  1   
 33  14  16  ar  
 34  14  35  1   
 35  15  17  ar  
 36  15  36  1   
 37  16  17  ar  
 38  16  37  1   
 39  17  38  1   
@<TRIPOS>SUBSTRUCTURE
  1 ****  10 GROUP 4 **** **** 0

# MOE 2024.06 (io_trps.svl 2023.06)
