@<TRIPOS>MOLECULE
NONAME
49 51 1 0 0 
SMALL
USER_CHARGES


@<TRIPOS>ATOM
  1 S       -0.5830     0.1620    -1.7200 S.o2  1 <1>   1.4470 
  2 O        0.2430    -0.7920    -2.4310 O.2   1 <1>  -0.6500 
  3 O       -1.2880     1.1700    -2.4840 O.2   1 <1>  -0.6500 
  4 N        0.4510     0.9670    -0.6450 N.am  1 <1>  -0.8490 
  5 C       -1.7580    -0.7130    -0.6240 C.ar  1 <1>  -0.0090 
  6 C        1.2960     0.0370     0.1120 C.3   1 <1>   0.1960 
  7 C        1.2650     1.9680    -1.3400 C.3   1 <1>   0.1960 
  8 C       -2.7210    -0.0760     0.1740 C.ar  1 <1>  -0.1440 
  9 C       -1.6800    -2.0990    -0.5780 C.ar  1 <1>  -0.1500 
 10 C        2.0860     0.7960     1.1830 C.3   1 <1>  -0.1600 
 11 C        2.0650     2.7960    -0.3280 C.3   1 <1>  -0.1600 
 12 C       -3.6030    -0.8220     0.9720 C.ar  1 <1>  -0.0090 
 13 C       -2.8070     1.4560     0.1500 C.3   1 <1>  -0.0970 
 14 C       -2.5160    -2.8500     0.2190 C.ar  1 <1>  -0.1440 
 15 C        2.9410     1.9050     0.5610 C.3   1 <1>  -0.1600 
 16 S       -4.9360    -0.1060     1.9940 S.o2  1 <1>   1.3180 
 17 C       -3.4650    -2.2040     0.9800 C.ar  1 <1>  -0.1500 
 18 C       -2.4020    -4.3640     0.2510 C.3   1 <1>  -0.0970 
 19 O       -4.3550     0.7770     2.9860 O.2   1 <1>  -0.6500 
 20 O       -5.7960    -1.1770     2.4520 O.2   1 <1>  -0.6500 
 21 C       -5.8750     0.8760     0.7940 C.ar  1 <1>  -0.0090 
 22 C       -6.1880     2.2080     1.0420 C.ar  1 <1>  -0.1500 
 23 C       -6.3050     0.3200    -0.4070 C.ar  1 <1>  -0.1500 
 24 C       -6.8910     2.9650     0.1200 C.ar  1 <1>  -0.1500 
 25 C       -7.0070     1.0710    -1.3340 C.ar  1 <1>  -0.1500 
 26 C       -7.2990     2.3960    -1.0720 C.ar  1 <1>  -0.1500 
 27 H        1.9770    -0.4690    -0.5540 H     1 <1>   0.0800 
 28 H        0.6830    -0.7040     0.5960 H     1 <1>   0.0800 
 29 H        0.6270     2.6330    -1.8990 H     1 <1>   0.0800 
 30 H        1.9320     1.4810    -2.0340 H     1 <1>   0.0800 
 31 H       -0.9470    -2.6060    -1.1830 H     1 <1>   0.1500 
 32 H        2.7170     0.1080     1.7160 H     1 <1>   0.0800 
 33 H        1.3930     1.2210     1.8880 H     1 <1>   0.0800 
 34 H        1.3750     3.3520     0.2820 H     1 <1>   0.0800 
 35 H        2.6820     3.5020    -0.8540 H     1 <1>   0.0800 
 36 H       -1.8380     1.9090     0.0700 H     1 <1>   0.0800 
 37 H       -3.2310     1.8650     1.0450 H     1 <1>   0.0800 
 38 H       -3.3980     1.7780    -0.6900 H     1 <1>   0.0800 
 39 H        3.7220     1.4630    -0.0350 H     1 <1>   0.0800 
 40 H        3.4020     2.4950     1.3340 H     1 <1>   0.0800 
 41 H       -4.1220    -2.7970     1.5960 H     1 <1>   0.1500 
 42 H       -1.3970    -4.6740     0.0240 H     1 <1>   0.0800 
 43 H       -3.0690    -4.7960    -0.4730 H     1 <1>   0.0800 
 44 H       -2.6580    -4.7410     1.2260 H     1 <1>   0.0800 
 45 H       -5.8770     2.6620     1.9690 H     1 <1>   0.1500 
 46 H       -6.0910    -0.7130    -0.6240 H     1 <1>   0.1500 
 47 H       -7.1200     3.9960     0.3310 H     1 <1>   0.1500 
 48 H       -7.3270     0.6230    -2.2600 H     1 <1>   0.1500 
 49 H       -7.8430     2.9820    -1.7920 H     1 <1>   0.1500 
@<TRIPOS>BOND
  1   1   2  2   
  2   1   3  2   
  3   1   4  am  
  4   1   5  1   
  5   4   6  1   
  6   4   7  1   
  7   5   8  ar  
  8   5   9  ar  
  9   6  10  1   
 10   6  27  1   
 11   6  28  1   
 12   7  11  1   
 13   7  29  1   
 14   7  30  1   
 15   8  12  ar  
 16   8  13  1   
 17   9  14  ar  
 18   9  31  1   
 19  10  15  1   
 20  10  32  1   
 21  10  33  1   
 22  11  15  1   
 23  11  34  1   
 24  11  35  1   
 25  12  16  1   
 26  12  17  ar  
 27  13  36  1   
 28  13  37  1   
 29  13  38  1   
 30  14  17  ar  
 31  14  18  1   
 32  15  39  1   
 33  15  40  1   
 34  16  19  2   
 35  16  20  2   
 36  16  21  1   
 37  17  41  1   
 38  18  42  1   
 39  18  43  1   
 40  18  44  1   
 41  21  22  ar  
 42  21  23  ar  
 43  22  24  ar  
 44  22  45  1   
 45  23  25  ar  
 46  23  46  1   
 47  24  26  ar  
 48  24  47  1   
 49  25  26  ar  
 50  25  48  1   
 51  26  49  1   
@<TRIPOS>SUBSTRUCTURE
  1 ****   8 GROUP 4 **** **** 0

# MOE 2024.06 (io_trps.svl 2023.06)
