@<TRIPOS>MOLECULE
NONAME
41 42 1 0 0 
SMALL
USER_CHARGES


@<TRIPOS>ATOM
  1 O        0.4720    -0.1050     0.5340 O.3   1 <1>  -0.6800 
  2 C        1.6430    -0.8350     0.4790 C.3   1 <1>   0.1200 
  3 C        2.7450     0.0580    -0.1130 C.3   1 <1>  -0.0800 
  4 C        4.0150    -0.7750    -0.3660 C.3   1 <1>   0.3430 
  5 C        3.0370     1.2890     0.7700 C.3   1 <1>  -0.1600 
  6 N        5.2720     0.0330    -0.2460 N.4   1 <1>  -0.9590 
  7 C        4.1240     2.1790     0.1370 C.3   1 <1>  -0.1600 
  8 C        5.1060     1.4200    -0.7640 C.3   1 <1>   0.3430 
  9 C        6.4430    -0.6590    -0.8490 C.3   1 <1>   0.4860 
 10 C        7.7000     0.0830    -0.4470 C.ar  1 <1>  -0.1440 
 11 C        8.3730     0.8680    -1.3710 C.ar  1 <1>  -0.1500 
 12 C        8.1850    -0.0100     0.8500 C.ar  1 <1>  -0.1500 
 13 C        9.5100     1.5630    -0.9970 C.ar  1 <1>  -0.1500 
 14 C        9.3220     0.6870     1.2190 C.ar  1 <1>  -0.1500 
 15 C        9.9880     1.4800     0.2990 C.ar  1 <1>  -0.1440 
 16 C       11.2390     2.2430     0.7070 C.3   1 <1>  -0.0170 
 17 C       12.4880     1.3890     0.4780 C.3   1 <1>  -0.2400 
 18 H       -0.2630    -0.6300     0.9120 H     1 <1>   0.4000 
 19 H        1.4650    -1.6970    -0.1410 H     1 <1>   0.0800 
 20 H        1.8900    -1.1510     1.4800 H     1 <1>   0.0800 
 21 H        2.3910     0.4020    -1.0700 H     1 <1>   0.0800 
 22 H        3.9480    -1.2070    -1.3510 H     1 <1>   0.0800 
 23 H        4.0550    -1.5840     0.3460 H     1 <1>   0.0800 
 24 H        3.3620     0.9600     1.7430 H     1 <1>   0.0800 
 25 H        2.1420     1.8720     0.9130 H     1 <1>   0.0800 
 26 H        5.4870     0.1480     0.7520 H     1 <1>   0.4500 
 27 H        4.6690     2.6850     0.9150 H     1 <1>   0.0800 
 28 H        3.6550     2.9430    -0.4590 H     1 <1>   0.0800 
 29 H        4.7210     1.3850    -1.7700 H     1 <1>   0.0800 
 30 H        6.0510     1.9420    -0.7780 H     1 <1>   0.0800 
 31 H        6.3530    -0.6810    -1.9230 H     1 <1>   0.0800 
 32 H        6.5020    -1.6740    -0.4890 H     1 <1>   0.0800 
 33 H        8.0290     0.9500    -2.3880 H     1 <1>   0.1500 
 34 H        7.6960    -0.6230     1.5870 H     1 <1>   0.1500 
 35 H       10.0280     2.1690    -1.7210 H     1 <1>   0.1500 
 36 H        9.6950     0.6090     2.2260 H     1 <1>   0.1500 
 37 H       11.1760     2.5180     1.7460 H     1 <1>   0.0800 
 38 H       11.3150     3.1520     0.1350 H     1 <1>   0.0800 
 39 H       12.4330     0.4860     1.0600 H     1 <1>   0.0800 
 40 H       13.3680     1.9340     0.7680 H     1 <1>   0.0800 
 41 H       12.5710     1.1240    -0.5610 H     1 <1>   0.0800 
@<TRIPOS>BOND
  1   1   2  1   
  2   1  18  1   
  3   2   3  1   
  4   2  19  1   
  5   2  20  1   
  6   3   4  1   
  7   3   5  1   
  8   3  21  1   
  9   4   6  1   
 10   4  22  1   
 11   4  23  1   
 12   5   7  1   
 13   5  24  1   
 14   5  25  1   
 15   6   8  1   
 16   6   9  1   
 17   6  26  1   
 18   7   8  1   
 19   7  27  1   
 20   7  28  1   
 21   8  29  1   
 22   8  30  1   
 23   9  10  1   
 24   9  31  1   
 25   9  32  1   
 26  10  11  ar  
 27  10  12  ar  
 28  11  13  ar  
 29  11  33  1   
 30  12  14  ar  
 31  12  34  1   
 32  13  15  ar  
 33  13  35  1   
 34  14  15  ar  
 35  14  36  1   
 36  15  16  1   
 37  16  17  1   
 38  16  37  1   
 39  16  38  1   
 40  17  39  1   
 41  17  40  1   
 42  17  41  1   
@<TRIPOS>SUBSTRUCTURE
  1 ****   6 GROUP 4 **** **** 0

# MOE 2024.06 (io_trps.svl 2023.06)
