@<TRIPOS>MOLECULE
NONAME
55 56 1 0 0 
SMALL
USER_CHARGES


@<TRIPOS>ATOM
  1 S       -1.3920     0.3430     1.2360 S.o2  1 <1>   1.3330 
  2 O       -2.0910    -0.1230     2.4080 O.2   1 <1>  -0.6500 
  3 O       -1.7760     1.5910     0.6240 O.2   1 <1>  -0.6500 
  4 N       -1.5300    -0.8790     0.0200 N.am  1 <1>  -0.6930 
  5 C        0.3620     0.3840     1.5360 C.3   1 <1>  -0.1350 
  6 C       -0.9950    -2.1610     0.1840 C.ar  1 <1>   0.1990 
  7 C       -2.6180    -0.6550    -0.9870 C.3   1 <1>   0.3370 
  8 C       -0.2310    -2.7300    -0.8290 C.ar  1 <1>  -0.1500 
  9 C       -1.1980    -2.9060     1.3420 C.ar  1 <1>  -0.1500 
 10 C       -3.4270    -1.9360    -1.3340 C.2   1 <1>   0.5690 
 11 C       -2.0130     0.0410    -2.2180 C.3   1 <1>  -0.2400 
 12 C        0.3130    -3.9930    -0.6920 C.ar  1 <1>  -0.1500 
 13 C       -0.6530    -4.1690     1.4850 C.ar  1 <1>  -0.1500 
 14 O       -3.2660    -2.4350    -2.4290 O.2   1 <1>  -0.5700 
 15 N       -4.3100    -2.4950    -0.4310 N.am  1 <1>  -0.6600 
 16 C        0.1060    -4.7210     0.4680 C.ar  1 <1>  -0.1430 
 17 C       -4.5910    -1.9630     0.9330 C.3   1 <1>   0.1400 
 18 C       -5.0020    -3.7790    -0.7310 C.3   1 <1>   0.1400 
 19 C        0.7060    -6.1080     0.6150 C.3   1 <1>  -0.0970 
 20 C       -6.0980    -1.7600     1.1010 C.3   1 <1>  -0.1600 
 21 C       -6.5140    -3.5980    -0.5770 C.3   1 <1>  -0.1600 
 22 C       -6.8830    -3.0570     0.8170 C.3   1 <1>  -0.0190 
 23 C       -8.3940    -2.8800     0.9520 C.2   1 <1>   0.6590 
 24 O       -8.9280    -1.8000     0.9470 O.2   1 <1>  -0.5700 
 25 O       -9.0880    -4.0040     1.0750 O.3   1 <1>  -0.4300 
 26 C      -10.4910    -3.9920     1.1980 C.3   1 <1>   0.1200 
 27 C      -10.9690    -5.4360     1.3070 C.3   1 <1>  -0.2400 
 28 H        0.5930     1.1360     2.2640 H     1 <1>   0.0800 
 29 H        0.8860     0.6100     0.6280 H     1 <1>   0.0800 
 30 H        0.6990    -0.5650     1.9030 H     1 <1>   0.0800 
 31 H       -3.3300     0.0350    -0.5710 H     1 <1>   0.0800 
 32 H       -0.0600    -2.1810    -1.7350 H     1 <1>   0.1500 
 33 H       -1.7930    -2.5100     2.1420 H     1 <1>   0.1500 
 34 H       -2.7990     0.2890    -2.9070 H     1 <1>   0.0800 
 35 H       -1.3220    -0.6070    -2.7230 H     1 <1>   0.0800 
 36 H       -1.5140     0.9490    -1.9350 H     1 <1>   0.0800 
 37 H        0.8980    -4.4090    -1.4940 H     1 <1>   0.1500 
 38 H       -0.8250    -4.7210     2.3920 H     1 <1>   0.1500 
 39 H       -4.0930    -1.0280     1.1060 H     1 <1>   0.0800 
 40 H       -4.2330    -2.6670     1.6640 H     1 <1>   0.0800 
 41 H       -4.6480    -4.5330    -0.0490 H     1 <1>   0.0800 
 42 H       -4.7820    -4.1110    -1.7320 H     1 <1>   0.0800 
 43 H        1.7340    -6.0290     0.9190 H     1 <1>   0.0800 
 44 H        0.6600    -6.6340    -0.3220 H     1 <1>   0.0800 
 45 H        0.1690    -6.6790     1.3510 H     1 <1>   0.0800 
 46 H       -6.4200    -0.9810     0.4310 H     1 <1>   0.0800 
 47 H       -6.3000    -1.4280     2.1050 H     1 <1>   0.0800 
 48 H       -6.9980    -4.5440    -0.7400 H     1 <1>   0.0800 
 49 H       -6.8600    -2.9180    -1.3370 H     1 <1>   0.0800 
 50 H       -6.5890    -3.7870     1.5490 H     1 <1>   0.0800 
 51 H      -10.9060    -3.5120     0.3280 H     1 <1>   0.0800 
 52 H      -10.7510    -3.4300     2.0790 H     1 <1>   0.0800 
 53 H      -10.6910    -5.9870     0.4260 H     1 <1>   0.0800 
 54 H      -12.0390    -5.4570     1.4010 H     1 <1>   0.0800 
 55 H      -10.5400    -5.9040     2.1750 H     1 <1>   0.0800 
@<TRIPOS>BOND
  1   1   2  2   
  2   1   3  2   
  3   1   4  am  
  4   1   5  1   
  5   4   6  1   
  6   4   7  1   
  7   5  28  1   
  8   5  29  1   
  9   5  30  1   
 10   6   8  ar  
 11   6   9  ar  
 12   7  10  1   
 13   7  11  1   
 14   7  31  1   
 15   8  12  ar  
 16   8  32  1   
 17   9  13  ar  
 18   9  33  1   
 19  10  14  2   
 20  10  15  am  
 21  11  34  1   
 22  11  35  1   
 23  11  36  1   
 24  12  16  ar  
 25  12  37  1   
 26  13  16  ar  
 27  13  38  1   
 28  15  17  1   
 29  15  18  1   
 30  16  19  1   
 31  17  20  1   
 32  17  39  1   
 33  17  40  1   
 34  18  21  1   
 35  18  41  1   
 36  18  42  1   
 37  19  43  1   
 38  19  44  1   
 39  19  45  1   
 40  20  22  1   
 41  20  46  1   
 42  20  47  1   
 43  21  22  1   
 44  21  48  1   
 45  21  49  1   
 46  22  23  1   
 47  22  50  1   
 48  23  24  2   
 49  23  25  1   
 50  25  26  1   
 51  26  27  1   
 52  26  51  1   
 53  26  52  1   
 54  27  53  1   
 55  27  54  1   
 56  27  55  1   
@<TRIPOS>SUBSTRUCTURE
  1 ****  15 GROUP 4 **** **** 0

# MOE 2024.06 (io_trps.svl 2023.06)
