@<TRIPOS>MOLECULE
NONAME
36 37 1 0 0 
SMALL
USER_CHARGES


@<TRIPOS>ATOM
  1 CL       1.7500     0.6540    -0.8150 Cl    1 <1>  -0.1770 
  2 C        1.1750    -0.9100    -0.2780 C.ar  1 <1>   0.1770 
  3 C        2.0030    -1.7360     0.4720 C.ar  1 <1>   0.0820 
  4 C       -0.1070    -1.3030    -0.6230 C.ar  1 <1>  -0.1500 
  5 O        3.2480    -1.3350     0.8260 O.3   1 <1>  -0.3630 
  6 C        1.5130    -2.9740     0.8690 C.ar  1 <1>   0.1770 
  7 C       -0.5800    -2.5420    -0.2160 C.ar  1 <1>  -0.1500 
  8 C        4.2810    -1.6390    -0.0730 C.3   1 <1>   0.1200 
  9 CL       2.5210    -4.0580     1.8030 Cl    1 <1>  -0.1770 
 10 C        0.2340    -3.3800     0.5320 C.ar  1 <1>  -0.1500 
 11 C        5.5560    -1.0040     0.4790 C.3   1 <1>  -0.1600 
 12 C        6.7350    -1.2470    -0.4600 C.3   1 <1>   0.3430 
 13 N        7.9890    -0.7100     0.1340 N.4   1 <1>  -0.9590 
 14 C        8.0210     0.7900     0.2690 C.3   1 <1>   0.3430 
 15 C        9.2200    -1.1910    -0.5800 C.3   1 <1>   0.3430 
 16 C        9.3730     1.2820     0.8370 C.3   1 <1>   0.1200 
 17 C       10.5090    -0.6310     0.0670 C.3   1 <1>   0.1200 
 18 O       10.2130     0.2050     1.1540 O.3   1 <1>  -0.5600 
 19 H       -0.7270    -0.6430    -1.2040 H     1 <1>   0.1500 
 20 H       -1.5780    -2.8520    -0.4800 H     1 <1>   0.1500 
 21 H        4.0240    -1.2300    -1.0360 H     1 <1>   0.0800 
 22 H        4.3680    -2.7110    -0.1380 H     1 <1>   0.0800 
 23 H       -0.1210    -4.3440     0.8540 H     1 <1>   0.1500 
 24 H        5.7610    -1.4380     1.4420 H     1 <1>   0.0800 
 25 H        5.3790     0.0510     0.5890 H     1 <1>   0.0800 
 26 H        6.5470    -0.7810    -1.4140 H     1 <1>   0.0800 
 27 H        6.8390    -2.3090    -0.6180 H     1 <1>   0.0800 
 28 H        8.0890    -1.0630     1.0990 H     1 <1>   0.4500 
 29 H        7.2320     1.1180     0.9260 H     1 <1>   0.0800 
 30 H        7.8560     1.2520    -0.6900 H     1 <1>   0.0800 
 31 H        9.1900    -0.8860    -1.6130 H     1 <1>   0.0800 
 32 H        9.2610    -2.2680    -0.5620 H     1 <1>   0.0800 
 33 H        9.2120     1.8490     1.7380 H     1 <1>   0.0800 
 34 H        9.8780     1.9160     0.1280 H     1 <1>   0.0800 
 35 H       11.0850    -0.0730    -0.6500 H     1 <1>   0.0800 
 36 H       11.1210    -1.4380     0.4330 H     1 <1>   0.0800 
@<TRIPOS>BOND
  1   1   2  1   
  2   2   3  ar  
  3   2   4  ar  
  4   3   5  1   
  5   3   6  ar  
  6   4   7  ar  
  7   4  19  1   
  8   5   8  1   
  9   6   9  1   
 10   6  10  ar  
 11   7  10  ar  
 12   7  20  1   
 13   8  11  1   
 14   8  21  1   
 15   8  22  1   
 16  10  23  1   
 17  11  12  1   
 18  11  24  1   
 19  11  25  1   
 20  12  13  1   
 21  12  26  1   
 22  12  27  1   
 23  13  14  1   
 24  13  15  1   
 25  13  28  1   
 26  14  16  1   
 27  14  29  1   
 28  14  30  1   
 29  15  17  1   
 30  15  31  1   
 31  15  32  1   
 32  16  18  1   
 33  16  33  1   
 34  16  34  1   
 35  17  18  1   
 36  17  35  1   
 37  17  36  1   
@<TRIPOS>SUBSTRUCTURE
  1 ****   8 GROUP 4 **** **** 0

# MOE 2024.06 (io_trps.svl 2023.06)
