@<TRIPOS>MOLECULE
NONAME
41 42 1 0 0 
SMALL
USER_CHARGES


@<TRIPOS>ATOM
  1 F       -0.4420     0.9910    -0.6650 F     1 <1>  -0.3400 
  2 C       -1.4710     1.2870     0.1210 C.3   1 <1>   1.1640 
  3 F       -1.0270     1.1950     1.3670 F     1 <1>  -0.3400 
  4 F       -1.7350     2.5720    -0.0870 F     1 <1>  -0.3400 
  5 C       -2.6860     0.3780    -0.1240 C.ar  1 <1>  -0.1440 
  6 C       -3.9790     0.8530     0.0620 C.ar  1 <1>  -0.1500 
  7 C       -2.5170    -0.9430    -0.5290 C.ar  1 <1>  -0.1500 
  8 C       -5.0800     0.0400    -0.1520 C.ar  1 <1>   0.0830 
  9 C       -3.6110    -1.7620    -0.7450 C.ar  1 <1>  -0.1500 
 10 O       -6.2960     0.6000     0.0570 O.3   1 <1>  -0.3630 
 11 C       -4.8930    -1.2770    -0.5600 C.ar  1 <1>  -0.1500 
 12 C       -7.4830    -0.1340    -0.1090 C.3   1 <1>   0.1200 
 13 C       -8.6440     0.8120     0.2110 C.3   1 <1>   0.3430 
 14 N       -9.9870     0.1680     0.0410 N.4   1 <1>  -0.9590 
 15 C      -11.0660     1.2090     0.0800 C.3   1 <1>   0.3430 
 16 C      -10.2570    -0.9070     1.0380 C.3   1 <1>   0.3430 
 17 C      -12.4810     0.5940     0.1580 C.3   1 <1>  -0.0800 
 18 C      -11.4990    -1.7000     0.6100 C.3   1 <1>  -0.1600 
 19 C      -12.5000    -0.8920    -0.2370 C.3   1 <1>  -0.1600 
 20 C      -13.4620     1.3880    -0.7140 C.3   1 <1>  -0.2400 
 21 H       -4.1480     1.8680     0.3790 H     1 <1>   0.1500 
 22 H       -1.5280    -1.3450    -0.6780 H     1 <1>   0.1500 
 23 H       -3.4600    -2.7810    -1.0600 H     1 <1>   0.1500 
 24 H       -5.7170    -1.9400    -0.7390 H     1 <1>   0.1500 
 25 H       -7.4540    -0.9670     0.5710 H     1 <1>   0.0800 
 26 H       -7.5280    -0.4680    -1.1310 H     1 <1>   0.0800 
 27 H       -8.5710     1.6610    -0.4490 H     1 <1>   0.0800 
 28 H       -8.5380     1.1630     1.2250 H     1 <1>   0.0800 
 29 H      -10.0420    -0.2670    -0.8900 H     1 <1>   0.4500 
 30 H      -10.9980     1.8170    -0.8080 H     1 <1>   0.0800 
 31 H      -10.9250     1.8570     0.9310 H     1 <1>   0.0800 
 32 H      -10.4310    -0.4610     2.0050 H     1 <1>   0.0800 
 33 H       -9.4170    -1.5770     1.1230 H     1 <1>   0.0800 
 34 H      -12.8170     0.6750     1.1790 H     1 <1>   0.0800 
 35 H      -11.9890    -2.0500     1.5030 H     1 <1>   0.0800 
 36 H      -11.1950    -2.5750     0.0620 H     1 <1>   0.0800 
 37 H      -12.2440    -0.9870    -1.2790 H     1 <1>   0.0800 
 38 H      -13.4900    -1.3000    -0.1120 H     1 <1>   0.0800 
 39 H      -13.1830     1.3420    -1.7530 H     1 <1>   0.0800 
 40 H      -13.4910     2.4210    -0.4110 H     1 <1>   0.0800 
 41 H      -14.4570     0.9880    -0.6150 H     1 <1>   0.0800 
@<TRIPOS>BOND
  1   1   2  1   
  2   2   3  1   
  3   2   4  1   
  4   2   5  1   
  5   5   6  ar  
  6   5   7  ar  
  7   6   8  ar  
  8   6  21  1   
  9   7   9  ar  
 10   7  22  1   
 11   8  10  1   
 12   8  11  ar  
 13   9  11  ar  
 14   9  23  1   
 15  10  12  1   
 16  11  24  1   
 17  12  13  1   
 18  12  25  1   
 19  12  26  1   
 20  13  14  1   
 21  13  27  1   
 22  13  28  1   
 23  14  15  1   
 24  14  16  1   
 25  14  29  1   
 26  15  17  1   
 27  15  30  1   
 28  15  31  1   
 29  16  18  1   
 30  16  32  1   
 31  16  33  1   
 32  17  19  1   
 33  17  20  1   
 34  17  34  1   
 35  18  19  1   
 36  18  35  1   
 37  18  36  1   
 38  19  37  1   
 39  19  38  1   
 40  20  39  1   
 41  20  40  1   
 42  20  41  1   
@<TRIPOS>SUBSTRUCTURE
  1 ****  10 GROUP 4 **** **** 0

# MOE 2024.06 (io_trps.svl 2023.06)
