@<TRIPOS>MOLECULE
NONAME
44 45 1 0 0 
SMALL
USER_CHARGES


@<TRIPOS>ATOM
  1 O        0.3610     0.2540    -0.7120 O.3   1 <1>  -0.3630 
  2 C        1.5750     0.7700    -0.3890 C.ar  1 <1>   0.0830 
  3 C       -0.8300     0.9510    -0.4210 C.3   1 <1>   0.0400 
  4 C        2.6830     0.0320    -0.7620 C.ar  1 <1>  -0.1500 
  5 C        1.7490     1.9770     0.2820 C.ar  1 <1>  -0.1500 
  6 C        3.9700     0.4620    -0.4730 C.ar  1 <1>   0.1000 
  7 C        3.0270     2.4230     0.5700 C.ar  1 <1>  -0.1500 
  8 N        5.0600    -0.3270    -0.8470 N.pl3 1 <1>  -0.8380 
  9 C        4.1270     1.6730     0.1970 C.ar  1 <1>  -0.1500 
 10 C        6.3220     0.2860    -1.3600 C.3   1 <1>   0.2090 
 11 C        5.1820    -1.6890    -0.2490 C.3   1 <1>   0.2090 
 12 C        7.4600     0.1830    -0.3230 C.3   1 <1>   0.3430 
 13 C        6.3320    -1.7440     0.7770 C.3   1 <1>   0.3430 
 14 N        7.6280    -1.2130     0.2220 N.4   1 <1>  -0.9590 
 15 C        8.7290    -1.2980     1.2060 C.3   1 <1>   0.4810 
 16 C       10.0230    -1.0800     0.4440 C.2   1 <1>  -0.2760 
 17 C       10.4630    -1.9710    -0.4580 C.2   1 <1>  -0.2880 
 18 C       10.7270     0.2160     0.8440 C.3   1 <1>  -0.1020 
 19 C       11.7280    -1.9280    -1.3060 C.3   1 <1>  -0.1020 
 20 H       -1.6560     0.3650    -0.7820 H     1 <1>   0.0800 
 21 H       -0.8090     1.9020    -0.9250 H     1 <1>   0.0800 
 22 H       -0.9090     1.0790     0.6440 H     1 <1>   0.0800 
 23 H        2.5370    -0.8900    -1.2920 H     1 <1>   0.1500 
 24 H        0.9110     2.5760     0.5840 H     1 <1>   0.1500 
 25 H        3.1610     3.3580     1.0870 H     1 <1>   0.1500 
 26 H        5.1070     2.0340     0.4360 H     1 <1>   0.1500 
 27 H        6.6120    -0.2190    -2.2650 H     1 <1>   0.0800 
 28 H        6.1500     1.3190    -1.6120 H     1 <1>   0.0800 
 29 H        4.2600    -1.9560     0.2420 H     1 <1>   0.0800 
 30 H        5.3530    -2.4060    -1.0330 H     1 <1>   0.0800 
 31 H        7.2390     0.8590     0.4860 H     1 <1>   0.0800 
 32 H        8.3790     0.5080    -0.7830 H     1 <1>   0.0800 
 33 H        6.4610    -2.7630     1.1030 H     1 <1>   0.0800 
 34 H        6.0400    -1.1580     1.6330 H     1 <1>   0.0800 
 35 H        7.9190    -1.8020    -0.5670 H     1 <1>   0.4500 
 36 H        8.6080    -0.5610     1.9840 H     1 <1>   0.0800 
 37 H        8.7470    -2.2780     1.6550 H     1 <1>   0.0800 
 38 H        9.9190    -2.8780    -0.6690 H     1 <1>   0.1500 
 39 H       10.9760     0.1910     1.8910 H     1 <1>   0.0800 
 40 H       10.0970     1.0680     0.6640 H     1 <1>   0.0800 
 41 H       11.6410     0.3700     0.3030 H     1 <1>   0.0800 
 42 H       11.4700    -1.9680    -2.3490 H     1 <1>   0.0800 
 43 H       12.3450    -2.7800    -1.0790 H     1 <1>   0.0800 
 44 H       12.3130    -1.0440    -1.1420 H     1 <1>   0.0800 
@<TRIPOS>BOND
  1   1   2  1   
  2   1   3  1   
  3   2   4  ar  
  4   2   5  ar  
  5   3  20  1   
  6   3  21  1   
  7   3  22  1   
  8   4   6  ar  
  9   4  23  1   
 10   5   7  ar  
 11   5  24  1   
 12   6   8  1   
 13   6   9  ar  
 14   7   9  ar  
 15   7  25  1   
 16   8  10  1   
 17   8  11  1   
 18   9  26  1   
 19  10  12  1   
 20  10  27  1   
 21  10  28  1   
 22  11  13  1   
 23  11  29  1   
 24  11  30  1   
 25  12  14  1   
 26  12  31  1   
 27  12  32  1   
 28  13  14  1   
 29  13  33  1   
 30  13  34  1   
 31  14  15  1   
 32  14  35  1   
 33  15  16  1   
 34  15  36  1   
 35  15  37  1   
 36  16  17  2   
 37  16  18  1   
 38  17  19  1   
 39  17  38  1   
 40  18  39  1   
 41  18  40  1   
 42  18  41  1   
 43  19  42  1   
 44  19  43  1   
 45  19  44  1   
@<TRIPOS>SUBSTRUCTURE
  1 ****   8 GROUP 4 **** **** 0

# MOE 2024.06 (io_trps.svl 2023.06)
