@<TRIPOS>MOLECULE
NONAME
41 41 1 0 0 
SMALL
USER_CHARGES


@<TRIPOS>ATOM
  1 O        0.8860     1.2450     1.9400 O.2   1 <1>  -0.5700 
  2 C        0.4020     1.9680     1.0980 C.2   1 <1>   0.5690 
  3 N        1.0860     2.2980    -0.0580 N.am  1 <1>  -0.6600 
  4 C       -1.0070     2.4780     1.3940 C.3   1 <1>   0.1810 
  5 C        2.0500     1.3480    -0.6880 C.3   1 <1>   0.2200 
  6 C        1.0540     3.6360    -0.7200 C.3   1 <1>   0.2200 
  7 O       -1.9410     1.9600     0.4600 O.3   1 <1>  -0.3630 
  8 C        1.4800    -0.0700    -0.7630 C.3   1 <1>  -0.2400 
  9 C        3.3940     1.3920     0.0390 C.3   1 <1>  -0.2400 
 10 C        1.3270     4.7610     0.2800 C.3   1 <1>  -0.2400 
 11 C       -0.2320     3.8470    -1.5170 C.3   1 <1>  -0.2400 
 12 C       -3.2320     2.3840     0.4360 C.ar  1 <1>   0.0820 
 13 C       -4.0170     1.9930    -0.6450 C.ar  1 <1>  -0.1440 
 14 C       -3.7820     3.1830     1.4360 C.ar  1 <1>  -0.1500 
 15 C       -5.3360     2.4110    -0.7200 C.ar  1 <1>  -0.1500 
 16 C       -3.4380     1.1120    -1.7430 C.3   1 <1>  -0.0970 
 17 C       -5.1000     3.5950     1.3510 C.ar  1 <1>  -0.1500 
 18 C       -5.8770     3.2100     0.2720 C.ar  1 <1>  -0.1500 
 19 H       -1.0450     3.5460     1.3590 H     1 <1>   0.0800 
 20 H       -1.3020     2.1430     2.3710 H     1 <1>   0.0800 
 21 H        2.2160     1.6550    -1.7070 H     1 <1>   0.0800 
 22 H        1.8640     3.6750    -1.4290 H     1 <1>   0.0800 
 23 H        1.4110    -0.5160     0.2130 H     1 <1>   0.0800 
 24 H        2.1220    -0.6880    -1.3630 H     1 <1>   0.0800 
 25 H        0.5040    -0.0510    -1.2140 H     1 <1>   0.0800 
 26 H        3.2900     1.0390     1.0490 H     1 <1>   0.0800 
 27 H        3.7760     2.3960     0.0540 H     1 <1>   0.0800 
 28 H        4.1030     0.7630    -0.4670 H     1 <1>   0.0800 
 29 H        0.5150     4.9050     0.9630 H     1 <1>   0.0800 
 30 H        1.4740     5.6840    -0.2530 H     1 <1>   0.0800 
 31 H        2.2230     4.5480     0.8340 H     1 <1>   0.0800 
 32 H       -1.0730     4.0310    -0.8780 H     1 <1>   0.0800 
 33 H       -0.4320     2.9850    -2.1280 H     1 <1>   0.0800 
 34 H       -0.1200     4.7000    -2.1600 H     1 <1>   0.0800 
 35 H       -3.2080     3.4910     2.2880 H     1 <1>   0.1500 
 36 H       -5.9510     2.1170    -1.5520 H     1 <1>   0.1500 
 37 H       -3.0610     0.2000    -1.3150 H     1 <1>   0.0800 
 38 H       -2.6280     1.6240    -2.2300 H     1 <1>   0.0800 
 39 H       -4.1820     0.8650    -2.4770 H     1 <1>   0.0800 
 40 H       -5.5240     4.2120     2.1230 H     1 <1>   0.1500 
 41 H       -6.9020     3.5300     0.2060 H     1 <1>   0.1500 
@<TRIPOS>BOND
  1   1   2  2   
  2   2   3  am  
  3   2   4  1   
  4   3   5  1   
  5   3   6  1   
  6   4   7  1   
  7   4  19  1   
  8   4  20  1   
  9   5   8  1   
 10   5   9  1   
 11   5  21  1   
 12   6  10  1   
 13   6  11  1   
 14   6  22  1   
 15   7  12  1   
 16   8  23  1   
 17   8  24  1   
 18   8  25  1   
 19   9  26  1   
 20   9  27  1   
 21   9  28  1   
 22  10  29  1   
 23  10  30  1   
 24  10  31  1   
 25  11  32  1   
 26  11  33  1   
 27  11  34  1   
 28  12  13  ar  
 29  12  14  ar  
 30  13  15  ar  
 31  13  16  1   
 32  14  17  ar  
 33  14  35  1   
 34  15  18  ar  
 35  15  36  1   
 36  16  37  1   
 37  16  38  1   
 38  16  39  1   
 39  17  18  ar  
 40  17  40  1   
 41  18  41  1   
@<TRIPOS>SUBSTRUCTURE
  1 ****   7 GROUP 4 **** **** 0

# MOE 2024.06 (io_trps.svl 2023.06)
