@<TRIPOS>MOLECULE
NONAME
54 55 1 0 0 
SMALL
USER_CHARGES


@<TRIPOS>ATOM
  1 O        0.1790     0.5310    -1.0030 O.2   1 <1>  -0.5700 
  2 C       -0.1210     1.6090    -0.5220 C.2   1 <1>   0.5440 
  3 N        0.8560     2.5770    -0.3900 N.am  1 <1>  -0.6600 
  4 C       -1.4880     1.8180    -0.0920 C.ar  1 <1>   0.0860 
  5 C        0.6550     4.0040    -0.7930 C.3   1 <1>   0.2200 
  6 C        2.2600     2.1270    -0.1590 C.3   1 <1>   0.2200 
  7 C       -1.7940     2.1670     1.2220 C.ar  1 <1>  -0.1500 
  8 C       -2.5570     1.6540    -0.9700 C.ar  1 <1>  -0.1500 
  9 C       -0.0750     4.8000     0.2880 C.3   1 <1>  -0.2400 
 10 C       -0.0610     4.1000    -2.1410 C.3   1 <1>  -0.2400 
 11 C        2.9040     2.9180     0.9800 C.3   1 <1>  -0.2400 
 12 C        3.0790     2.2090    -1.4490 C.3   1 <1>  -0.2400 
 13 C       -3.0980     2.3740     1.6260 C.ar  1 <1>  -0.1500 
 14 C       -3.8620     1.8610    -0.5650 C.ar  1 <1>  -0.1500 
 15 C       -4.1710     2.2380     0.7440 C.ar  1 <1>   0.0860 
 16 C       -5.5340     2.4770     1.1850 C.2   1 <1>   0.3980 
 17 O       -5.8030     2.4540     2.3700 O.2   1 <1>  -0.5700 
 18 C       -6.5860     2.7480     0.2360 C.ar  1 <1>   0.0860 
 19 C       -6.5190     3.8080    -0.6770 C.ar  1 <1>   0.0820 
 20 C       -7.7210     1.9380     0.1970 C.ar  1 <1>  -0.1500 
 21 O       -5.4720     4.6580    -0.6850 O.3   1 <1>  -0.3620 
 22 C       -7.5210     4.0110    -1.6120 C.ar  1 <1>  -0.1500 
 23 C       -8.7310     2.1410    -0.7250 C.ar  1 <1>   0.0820 
 24 C       -5.4410     5.6430     0.3250 C.3   1 <1>   0.0400 
 25 C       -8.6270     3.1840    -1.6420 C.ar  1 <1>  -0.1500 
 26 O       -9.7830     1.2840    -0.6760 O.3   1 <1>  -0.3620 
 27 C      -10.8910     1.4350    -1.5350 C.3   1 <1>   0.0400 
 28 H        1.6190     4.4620    -0.9220 H     1 <1>   0.0800 
 29 H        2.2390     1.0930     0.1460 H     1 <1>   0.0800 
 30 H       -0.9880     2.2780     1.9270 H     1 <1>   0.1500 
 31 H       -2.3470     1.3570    -1.9830 H     1 <1>   0.1500 
 32 H       -1.1190     4.5570     0.3130 H     1 <1>   0.0800 
 33 H        0.0090     5.8500     0.0740 H     1 <1>   0.0800 
 34 H        0.3660     4.6150     1.2500 H     1 <1>   0.0800 
 35 H       -1.0840     3.7860    -2.0660 H     1 <1>   0.0800 
 36 H        0.4460     3.4940    -2.8710 H     1 <1>   0.0800 
 37 H       -0.0510     5.1190    -2.4830 H     1 <1>   0.0800 
 38 H        3.0460     3.9490     0.7160 H     1 <1>   0.0800 
 39 H        3.8660     2.4970     1.2100 H     1 <1>   0.0800 
 40 H        2.2910     2.8530     1.8610 H     1 <1>   0.0800 
 41 H        3.2240     3.2230    -1.7670 H     1 <1>   0.0800 
 42 H        2.5820     1.6560    -2.2270 H     1 <1>   0.0800 
 43 H        4.0450     1.7650    -1.2900 H     1 <1>   0.0800 
 44 H       -3.2980     2.6450     2.6490 H     1 <1>   0.1500 
 45 H       -4.6510     1.7240    -1.2830 H     1 <1>   0.1500 
 46 H       -7.8130     1.1320     0.9030 H     1 <1>   0.1500 
 47 H       -7.4290     4.8230    -2.3120 H     1 <1>   0.1500 
 48 H       -4.5720     6.2560     0.1700 H     1 <1>   0.0800 
 49 H       -5.3870     5.1680     1.2890 H     1 <1>   0.0800 
 50 H       -6.3320     6.2410     0.2540 H     1 <1>   0.0800 
 51 H       -9.3900     3.3640    -2.3750 H     1 <1>   0.1500 
 52 H      -11.6030     0.6650    -1.3000 H     1 <1>   0.0800 
 53 H      -10.5610     1.3290    -2.5530 H     1 <1>   0.0800 
 54 H      -11.3320     2.4020    -1.3690 H     1 <1>   0.0800 
@<TRIPOS>BOND
  1   1   2  2   
  2   2   3  am  
  3   2   4  1   
  4   3   5  1   
  5   3   6  1   
  6   4   7  ar  
  7   4   8  ar  
  8   5   9  1   
  9   5  10  1   
 10   5  28  1   
 11   6  11  1   
 12   6  12  1   
 13   6  29  1   
 14   7  13  ar  
 15   7  30  1   
 16   8  14  ar  
 17   8  31  1   
 18   9  32  1   
 19   9  33  1   
 20   9  34  1   
 21  10  35  1   
 22  10  36  1   
 23  10  37  1   
 24  11  38  1   
 25  11  39  1   
 26  11  40  1   
 27  12  41  1   
 28  12  42  1   
 29  12  43  1   
 30  13  15  ar  
 31  13  44  1   
 32  14  15  ar  
 33  14  45  1   
 34  15  16  1   
 35  16  17  2   
 36  16  18  1   
 37  18  19  ar  
 38  18  20  ar  
 39  19  21  1   
 40  19  22  ar  
 41  20  23  ar  
 42  20  46  1   
 43  21  24  1   
 44  22  25  ar  
 45  22  47  1   
 46  23  25  ar  
 47  23  26  1   
 48  24  48  1   
 49  24  49  1   
 50  24  50  1   
 51  25  51  1   
 52  26  27  1   
 53  27  52  1   
 54  27  53  1   
 55  27  54  1   
@<TRIPOS>SUBSTRUCTURE
  1 ****  14 GROUP 4 **** **** 0

# MOE 2024.06 (io_trps.svl 2023.06)
