@<TRIPOS>MOLECULE
NONAME
49 50 1 0 0 
SMALL
USER_CHARGES


@<TRIPOS>ATOM
  1 S        0.6780    -0.6810     2.1700 S.o2  1 <1>   1.4470 
  2 O        1.8330    -1.2630     2.8210 O.2   1 <1>  -0.6500 
  3 O        0.1140     0.5480     2.6840 O.2   1 <1>  -0.6500 
  4 N        1.1130    -0.4120     0.5510 N.am  1 <1>  -0.8490 
  5 C       -0.6490    -1.9100     2.0220 C.ar  1 <1>  -0.0090 
  6 C        1.8500    -1.5580     0.0020 C.3   1 <1>   0.1960 
  7 C        1.8420     0.8560     0.4190 C.3   1 <1>   0.1960 
  8 C       -1.8090    -1.6180     1.3200 C.ar  1 <1>  -0.1500 
  9 C       -0.5390    -3.1710     2.5910 C.ar  1 <1>  -0.1500 
 10 C        1.6770    -1.6290    -1.5180 C.3   1 <1>  -0.1600 
 11 C        2.0980     1.2730    -1.0350 C.3   1 <1>  -0.1600 
 12 C       -2.8490    -2.5320     1.1570 C.ar  1 <1>   0.0860 
 13 C       -1.5520    -4.1020     2.4530 C.ar  1 <1>  -0.1500 
 14 C        2.7340    -0.8620    -2.3280 C.3   1 <1>  -0.1600 
 15 C        3.2090     0.4640    -1.7180 C.3   1 <1>  -0.1600 
 16 C       -2.6990    -3.7960     1.7410 C.ar  1 <1>  -0.1430 
 17 C       -4.0190    -2.1430     0.3900 C.2   1 <1>   0.5440 
 18 C       -3.7850    -4.8580     1.6090 C.3   1 <1>  -0.0970 
 19 O       -5.1370    -2.2690     0.8500 O.2   1 <1>  -0.5700 
 20 N       -3.8470    -1.6230    -0.8660 N.am  1 <1>  -0.7300 
 21 C       -4.8670    -1.1520    -1.8240 C.3   1 <1>   0.2200 
 22 C       -5.6450     0.0230    -1.2370 C.3   1 <1>  -0.2400 
 23 C       -5.7810    -2.3060    -2.2310 C.3   1 <1>  -0.2400 
 24 H        1.4420    -2.4680     0.4080 H     1 <1>   0.0800 
 25 H        2.8910    -1.5210     0.2820 H     1 <1>   0.0800 
 26 H        2.7730     0.8010     0.9600 H     1 <1>   0.0800 
 27 H        1.2560     1.6400     0.8690 H     1 <1>   0.0800 
 28 H       -1.9090    -0.6360     0.8870 H     1 <1>   0.1500 
 29 H        0.3460    -3.4280     3.1490 H     1 <1>   0.1500 
 30 H        0.6930    -1.2760    -1.7720 H     1 <1>   0.0800 
 31 H        1.7250    -2.6610    -1.8160 H     1 <1>   0.0800 
 32 H        2.4150     2.3010    -1.0120 H     1 <1>   0.0800 
 33 H        1.1830     1.2390    -1.6010 H     1 <1>   0.0800 
 34 H       -1.4380    -5.0720     2.9080 H     1 <1>   0.1500 
 35 H        2.3270    -0.6690    -3.3060 H     1 <1>   0.0800 
 36 H        3.5970    -1.4920    -2.4660 H     1 <1>   0.0800 
 37 H        3.9980     0.2740    -1.0100 H     1 <1>   0.0800 
 38 H        3.6370     1.0570    -2.5080 H     1 <1>   0.0800 
 39 H       -4.6460    -4.5710     2.1870 H     1 <1>   0.0800 
 40 H       -3.4420    -5.8150     1.9590 H     1 <1>   0.0800 
 41 H       -4.0830    -4.9620     0.5810 H     1 <1>   0.0800 
 42 H       -2.8940    -1.5750    -1.2240 H     1 <1>   0.3700 
 43 H       -4.3530    -0.8050    -2.7050 H     1 <1>   0.0800 
 44 H       -6.2190    -0.2880    -0.3820 H     1 <1>   0.0800 
 45 H       -6.3240     0.4150    -1.9710 H     1 <1>   0.0800 
 46 H       -4.9700     0.8050    -0.9430 H     1 <1>   0.0800 
 47 H       -6.3570    -2.6500    -1.3910 H     1 <1>   0.0800 
 48 H       -5.1990    -3.1210    -2.6200 H     1 <1>   0.0800 
 49 H       -6.4630    -1.9780    -2.9940 H     1 <1>   0.0800 
@<TRIPOS>BOND
  1   1   2  2   
  2   1   3  2   
  3   1   4  am  
  4   1   5  1   
  5   4   6  1   
  6   4   7  1   
  7   5   8  ar  
  8   5   9  ar  
  9   6  10  1   
 10   6  24  1   
 11   6  25  1   
 12   7  11  1   
 13   7  26  1   
 14   7  27  1   
 15   8  12  ar  
 16   8  28  1   
 17   9  13  ar  
 18   9  29  1   
 19  10  14  1   
 20  10  30  1   
 21  10  31  1   
 22  11  15  1   
 23  11  32  1   
 24  11  33  1   
 25  12  16  ar  
 26  12  17  1   
 27  13  16  ar  
 28  13  34  1   
 29  14  15  1   
 30  14  35  1   
 31  14  36  1   
 32  15  37  1   
 33  15  38  1   
 34  16  18  1   
 35  17  19  2   
 36  17  20  am  
 37  18  39  1   
 38  18  40  1   
 39  18  41  1   
 40  20  21  1   
 41  20  42  1   
 42  21  22  1   
 43  21  23  1   
 44  21  43  1   
 45  22  44  1   
 46  22  45  1   
 47  22  46  1   
 48  23  47  1   
 49  23  48  1   
 50  23  49  1   
@<TRIPOS>SUBSTRUCTURE
  1 ****   8 GROUP 4 **** **** 0

# MOE 2024.06 (io_trps.svl 2023.06)
