@<TRIPOS>MOLECULE
NONAME
46 46 1 0 0 
SMALL
USER_CHARGES


@<TRIPOS>ATOM
  1 CL       5.4550    -0.2010     4.4380 Cl    1 <1>  -0.1770 
  2 C        4.8110     0.3820     2.9250 C.ar  1 <1>   0.1770 
  3 C        5.4630     0.0760     1.7480 C.ar  1 <1>  -0.1500 
  4 C        3.6550     1.1420     2.9340 C.ar  1 <1>  -0.1500 
  5 C        4.9530     0.5360     0.5400 C.ar  1 <1>   0.1990 
  6 C        3.1440     1.6060     1.7330 C.ar  1 <1>  -0.1500 
  7 N        5.5850     0.2530    -0.6630 N.am  1 <1>  -0.6930 
  8 C        3.7930     1.3040     0.5480 C.ar  1 <1>  -0.1500 
  9 S        5.6060    -1.3550    -1.3040 S.o2  1 <1>   1.3330 
 10 C        6.7210     1.1450    -1.0570 C.3   1 <1>   0.2570 
 11 O        5.8650    -2.2640    -0.2180 O.2   1 <1>  -0.6500 
 12 O        6.4860    -1.3260    -2.4490 O.2   1 <1>  -0.6500 
 13 C        3.9320    -1.5510    -1.8750 C.3   1 <1>  -0.1350 
 14 C        8.0760     0.7360    -0.4690 C.2   1 <1>   0.5690 
 15 O        8.5510     1.4040     0.4200 O.2   1 <1>  -0.5700 
 16 N        8.7280    -0.3510    -0.9630 N.am  1 <1>  -0.7300 
 17 C        9.9710    -0.9190    -0.3940 C.3   1 <1>   0.1400 
 18 C       11.1800    -0.1200    -0.8790 C.3   1 <1>   0.0700 
 19 S       12.6750    -0.7970    -0.0910 S.3   1 <1>  -0.4600 
 20 C       13.1160     0.3440     1.2530 C.3   1 <1>   0.2300 
 21 C       11.9110     0.5140     2.1810 C.3   1 <1>  -0.2400 
 22 C       14.2770    -0.3220     1.9900 C.3   1 <1>  -0.2400 
 23 C       13.5590     1.6680     0.6290 C.3   1 <1>  -0.2400 
 24 H        6.3600    -0.5150     1.7690 H     1 <1>   0.1500 
 25 H        3.1690     1.3640     3.8670 H     1 <1>   0.1500 
 26 H        2.2470     2.2010     1.7250 H     1 <1>   0.1500 
 27 H        3.4010     1.6670    -0.3850 H     1 <1>   0.1500 
 28 H        6.5070     2.1460    -0.7280 H     1 <1>   0.0800 
 29 H        6.8030     1.1690    -2.1290 H     1 <1>   0.0800 
 30 H        3.6970    -0.8000    -2.6030 H     1 <1>   0.0800 
 31 H        3.2490    -1.4650    -1.0530 H     1 <1>   0.0800 
 32 H        3.8080    -2.5170    -2.3240 H     1 <1>   0.0800 
 33 H        8.2600    -0.9220    -1.6840 H     1 <1>   0.3700 
 34 H       10.0670    -1.9490    -0.6940 H     1 <1>   0.0800 
 35 H        9.9160    -0.8800     0.6800 H     1 <1>   0.0800 
 36 H       11.0940     0.9170    -0.6150 H     1 <1>   0.0800 
 37 H       11.3110    -0.2250    -1.9400 H     1 <1>   0.0800 
 38 H       11.1040     1.0200     1.6850 H     1 <1>   0.0800 
 39 H       12.1880     1.0990     3.0390 H     1 <1>   0.0800 
 40 H       11.5650    -0.4450     2.5220 H     1 <1>   0.0800 
 41 H       13.9690    -1.2740     2.3830 H     1 <1>   0.0800 
 42 H       14.6080     0.2960     2.8040 H     1 <1>   0.0800 
 43 H       15.1030    -0.4790     1.3190 H     1 <1>   0.0800 
 44 H       12.7430     2.1540     0.1280 H     1 <1>   0.0800 
 45 H       14.3490     1.4980    -0.0810 H     1 <1>   0.0800 
 46 H       13.9230     2.3310     1.3930 H     1 <1>   0.0800 
@<TRIPOS>BOND
  1   1   2  1   
  2   2   3  ar  
  3   2   4  ar  
  4   3   5  ar  
  5   3  24  1   
  6   4   6  ar  
  7   4  25  1   
  8   5   7  1   
  9   5   8  ar  
 10   6   8  ar  
 11   6  26  1   
 12   7   9  am  
 13   7  10  1   
 14   8  27  1   
 15   9  11  2   
 16   9  12  2   
 17   9  13  1   
 18  10  14  1   
 19  10  28  1   
 20  10  29  1   
 21  13  30  1   
 22  13  31  1   
 23  13  32  1   
 24  14  15  2   
 25  14  16  am  
 26  16  17  1   
 27  16  33  1   
 28  17  18  1   
 29  17  34  1   
 30  17  35  1   
 31  18  19  1   
 32  18  36  1   
 33  18  37  1   
 34  19  20  1   
 35  20  21  1   
 36  20  22  1   
 37  20  23  1   
 38  21  38  1   
 39  21  39  1   
 40  21  40  1   
 41  22  41  1   
 42  22  42  1   
 43  22  43  1   
 44  23  44  1   
 45  23  45  1   
 46  23  46  1   
@<TRIPOS>SUBSTRUCTURE
  1 ****  14 GROUP 4 **** **** 0

# MOE 2024.06 (io_trps.svl 2023.06)
