@<TRIPOS>MOLECULE
NONAME
39 40 1 0 0 
SMALL
USER_CHARGES


@<TRIPOS>ATOM
  1 CL       2.1770     0.0810    -3.2870 Cl    1 <1>  -0.1770 
  2 C        2.7980     0.7310    -1.7890 C.ar  1 <1>   0.1770 
  3 C        2.0110     1.5660    -1.0100 C.ar  1 <1>  -0.1440 
  4 C        4.0820     0.3900    -1.4140 C.ar  1 <1>  -0.1500 
  5 C        2.5460     2.0530     0.1710 C.ar  1 <1>  -0.1500 
  6 C        0.5970     1.9380    -1.4310 C.3   1 <1>  -0.0960 
  7 C        4.6380     0.8820    -0.2340 C.ar  1 <1>   0.0860 
  8 C        3.8330     1.7140     0.5510 C.ar  1 <1>  -0.1500 
  9 C        5.9960     0.5340     0.1490 C.2   1 <1>   0.5440 
 10 O        6.5230    -0.4840    -0.2560 O.2   1 <1>  -0.5700 
 11 N        6.7490     1.3580     0.9410 N.am  1 <1>  -0.7300 
 12 C        7.9750     0.9750     1.7110 C.3   1 <1>   0.1400 
 13 C        9.2610     1.0420     0.8590 C.3   1 <1>   0.3430 
 14 N        9.1980     0.0940    -0.2890 N.4   1 <1>  -0.9590 
 15 C        9.5500    -1.3170     0.0830 C.3   1 <1>   0.3430 
 16 C        9.9650     0.5510    -1.4930 C.3   1 <1>   0.3430 
 17 C        9.4680    -2.2470    -1.1420 C.3   1 <1>   0.1200 
 18 C        9.8690    -0.4770    -2.6370 C.3   1 <1>   0.1200 
 19 O       10.2530    -1.7440    -2.1850 O.3   1 <1>  -0.5600 
 20 H        4.6520    -0.2650    -2.0480 H     1 <1>   0.1500 
 21 H        1.9570     2.6980     0.8020 H     1 <1>   0.1500 
 22 H       -0.0060     1.0510    -1.5190 H     1 <1>   0.0800 
 23 H        0.6160     2.4380    -2.3830 H     1 <1>   0.0800 
 24 H        0.1370     2.5920    -0.7120 H     1 <1>   0.0800 
 25 H        4.2080     2.1000     1.4820 H     1 <1>   0.1500 
 26 H        6.3270     2.2500     1.2180 H     1 <1>   0.3700 
 27 H        7.8520    -0.0210     2.1030 H     1 <1>   0.0800 
 28 H        8.0770     1.6420     2.5500 H     1 <1>   0.0800 
 29 H       10.1180     0.8180     1.4720 H     1 <1>   0.0800 
 30 H        9.3680     2.0500     0.4940 H     1 <1>   0.0800 
 31 H        8.1890     0.0450    -0.5500 H     1 <1>   0.4500 
 32 H        8.8720    -1.6760     0.8400 H     1 <1>   0.0800 
 33 H       10.5510    -1.3560     0.4770 H     1 <1>   0.0800 
 34 H       11.0030     0.6810    -1.2380 H     1 <1>   0.0800 
 35 H        9.5820     1.4990    -1.8350 H     1 <1>   0.0800 
 36 H        8.4510    -2.3440    -1.4840 H     1 <1>   0.0800 
 37 H        9.8400    -3.2250    -0.8920 H     1 <1>   0.0800 
 38 H       10.5290    -0.2020    -3.4410 H     1 <1>   0.0800 
 39 H        8.8650    -0.5360    -3.0220 H     1 <1>   0.0800 
@<TRIPOS>BOND
  1   1   2  1   
  2   2   3  ar  
  3   2   4  ar  
  4   3   5  ar  
  5   3   6  1   
  6   4   7  ar  
  7   4  20  1   
  8   5   8  ar  
  9   5  21  1   
 10   6  22  1   
 11   6  23  1   
 12   6  24  1   
 13   7   8  ar  
 14   7   9  1   
 15   8  25  1   
 16   9  10  2   
 17   9  11  am  
 18  11  12  1   
 19  11  26  1   
 20  12  13  1   
 21  12  27  1   
 22  12  28  1   
 23  13  14  1   
 24  13  29  1   
 25  13  30  1   
 26  14  15  1   
 27  14  16  1   
 28  14  31  1   
 29  15  17  1   
 30  15  32  1   
 31  15  33  1   
 32  16  18  1   
 33  16  34  1   
 34  16  35  1   
 35  17  19  1   
 36  17  36  1   
 37  17  37  1   
 38  18  19  1   
 39  18  38  1   
 40  18  39  1   
@<TRIPOS>SUBSTRUCTURE
  1 ****   9 GROUP 4 **** **** 0

# MOE 2024.06 (io_trps.svl 2023.06)
