@<TRIPOS>MOLECULE
NONAME
21 21 1 0 0 
SMALL
USER_CHARGES


@<TRIPOS>ATOM
  1 O       -0.5740    -0.3740     0.9020 O.2   1 <1>  -0.5200 
  2 N       -1.5690    -1.1210     0.9070 N.pl3 1 <1>   0.8360 
  3 O       -1.4440    -2.2910     1.3110 O.2   1 <1>  -0.5200 
  4 C       -2.8250    -0.7040     0.4350 C.2   1 <1>   0.0540 
  5 C       -3.2450     0.5230     0.0340 C.2   1 <1>  -0.0380 
  6 N       -4.5030     0.8590    -0.4380 N.pl3 1 <1>  -0.8380 
  7 C       -2.4040     1.7860     0.0400 C.3   1 <1>  -0.0220 
  8 C       -4.6780     2.3160    -0.6290 C.3   1 <1>   0.2090 
  9 C       -5.7190    -0.0210    -0.5020 C.3   1 <1>   0.4090 
 10 C       -3.4300     2.9180     0.0070 C.3   1 <1>  -0.1600 
 11 C       -6.5430     0.0300     0.7490 C.1   1 <1>   0.3570 
 12 N       -7.1910     0.0540     1.6850 N.1   1 <1>  -0.5570 
 13 H       -3.5090    -1.5250     0.4120 H     1 <1>   0.1500 
 14 H       -1.7760     1.8650     0.9090 H     1 <1>   0.0800 
 15 H       -1.7970     1.8110    -0.8480 H     1 <1>   0.0800 
 16 H       -4.7150     2.5380    -1.6820 H     1 <1>   0.0800 
 17 H       -5.5710     2.6750    -0.1440 H     1 <1>   0.0800 
 18 H       -6.3310     0.2850    -1.3310 H     1 <1>   0.0800 
 19 H       -5.4190    -1.0380    -0.6760 H     1 <1>   0.0800 
 20 H       -3.0760     3.7750    -0.5370 H     1 <1>   0.0800 
 21 H       -3.6670     3.2160     1.0130 H     1 <1>   0.0800 
@<TRIPOS>BOND
  1   1   2  2   
  2   2   3  2   
  3   2   4  1   
  4   4   5  2   
  5   4  13  1   
  6   5   6  1   
  7   5   7  1   
  8   6   8  1   
  9   6   9  1   
 10   7  10  1   
 11   7  14  1   
 12   7  15  1   
 13   8  10  1   
 14   8  16  1   
 15   8  17  1   
 16   9  11  1   
 17   9  18  1   
 18   9  19  1   
 19  10  20  1   
 20  10  21  1   
 21  11  12  3   
@<TRIPOS>SUBSTRUCTURE
  1 ****   5 GROUP 4 **** **** 0

# MOE 2024.06 (io_trps.svl 2023.06)
