@<TRIPOS>MOLECULE
NONAME
37 37 1 0 0 
SMALL
USER_CHARGES


@<TRIPOS>ATOM
  1 CL      -1.3060    -0.3730     1.5560 Cl    1 <1>  -0.1770 
  2 C       -0.6520    -1.7460     0.6930 C.ar  1 <1>   0.1770 
  3 C       -1.3630    -2.2850    -0.3680 C.ar  1 <1>  -0.1440 
  4 C        0.5590    -2.2720     1.0990 C.ar  1 <1>  -0.1500 
  5 C       -0.8430    -3.3910    -1.0240 C.ar  1 <1>  -0.1500 
  6 C       -2.6800    -1.6780    -0.7970 C.3   1 <1>   0.4870 
  7 C        1.0800    -3.3670     0.4310 C.ar  1 <1>   0.0820 
  8 C        0.3620    -3.9480    -0.6230 C.ar  1 <1>   0.0820 
  9 N       -3.6890    -2.0310     0.2270 N.4   1 <1>  -0.9060 
 10 O        2.2830    -3.8280     0.8400 O.3   1 <1>  -0.3620 
 11 O        0.7700    -5.0490    -1.3030 O.3   1 <1>  -0.3620 
 12 C       -5.0410    -1.4870    -0.0870 C.3   1 <1>   0.3430 
 13 C        3.3690    -3.6030    -0.0320 C.3   1 <1>   0.2580 
 14 C        1.1510    -6.1960    -0.5680 C.3   1 <1>   0.0400 
 15 C       -6.0560    -1.8220     1.0120 C.3   1 <1>   0.1200 
 16 C        4.5470    -4.4130     0.4740 C.2   1 <1>  -0.2880 
 17 O       -7.2720    -1.2950     0.6240 O.3   1 <1>  -0.6800 
 18 C        5.2040    -5.3420    -0.2270 C.2   1 <1>  -0.3000 
 19 H        1.0980    -1.8370     1.9210 H     1 <1>   0.1500 
 20 H       -1.3560    -3.8470    -1.8540 H     1 <1>   0.1500 
 21 H       -2.9680    -2.0670    -1.7600 H     1 <1>   0.0800 
 22 H       -2.5800    -0.6060    -0.8720 H     1 <1>   0.0800 
 23 H       -3.3530    -1.6550     1.1250 H     1 <1>   0.4500 
 24 H       -3.7130    -3.0540     0.3190 H     1 <1>   0.4500 
 25 H       -5.3940    -1.9000    -1.0180 H     1 <1>   0.0800 
 26 H       -4.9880    -0.4140    -0.1870 H     1 <1>   0.0800 
 27 H        3.5950    -2.5520    -0.0250 H     1 <1>   0.0800 
 28 H        3.0950    -3.9080    -1.0270 H     1 <1>   0.0800 
 29 H        1.0860    -7.0490    -1.2200 H     1 <1>   0.0800 
 30 H        0.4850    -6.3210     0.2670 H     1 <1>   0.0800 
 31 H        2.1630    -6.0840    -0.2260 H     1 <1>   0.0800 
 32 H       -5.7810    -1.3700     1.9500 H     1 <1>   0.0800 
 33 H       -6.1750    -2.8860     1.1250 H     1 <1>   0.0800 
 34 H        4.8070    -4.1580     1.4870 H     1 <1>   0.1500 
 35 H       -7.9750    -1.4620     1.2890 H     1 <1>   0.4000 
 36 H        6.0380    -5.9040     0.1580 H     1 <1>   0.1500 
 37 H        4.9690    -5.6210    -1.2400 H     1 <1>   0.1500 
@<TRIPOS>BOND
  1   1   2  1   
  2   2   3  ar  
  3   2   4  ar  
  4   3   5  ar  
  5   3   6  1   
  6   4   7  ar  
  7   4  19  1   
  8   5   8  ar  
  9   5  20  1   
 10   6   9  1   
 11   6  21  1   
 12   6  22  1   
 13   7   8  ar  
 14   7  10  1   
 15   8  11  1   
 16   9  12  1   
 17   9  23  1   
 18   9  24  1   
 19  10  13  1   
 20  11  14  1   
 21  12  15  1   
 22  12  25  1   
 23  12  26  1   
 24  13  16  1   
 25  13  27  1   
 26  13  28  1   
 27  14  29  1   
 28  14  30  1   
 29  14  31  1   
 30  15  17  1   
 31  15  32  1   
 32  15  33  1   
 33  16  18  2   
 34  16  34  1   
 35  17  35  1   
 36  18  36  1   
 37  18  37  1   
@<TRIPOS>SUBSTRUCTURE
  1 ****   3 GROUP 4 **** **** 0

# MOE 2024.06 (io_trps.svl 2023.06)
