@<TRIPOS>MOLECULE
NONAME
36 36 1 0 0 
SMALL
USER_CHARGES


@<TRIPOS>ATOM
  1 O       -0.0060     1.1450    -1.1420 O.co2 1 <1>  -0.9000 
  2 C       -0.3260     1.4030     0.0280 C.2   1 <1>   0.9060 
  3 O        0.1680     0.7740     0.9750 O.co2 1 <1>  -0.9000 
  4 C       -1.4970     2.3500     0.2990 C.3   1 <1>  -0.1860 
  5 C       -1.4380     3.7180    -0.4600 C.3   1 <1>  -0.1860 
  6 C       -2.7860     1.5680    -0.0240 C.3   1 <1>  -0.0220 
  7 C       -0.3010     4.6550    -0.0360 C.2   1 <1>   0.9060 
  8 C       -2.7690     4.4920    -0.3270 C.3   1 <1>  -0.1600 
  9 C       -4.0410     2.4120     0.1620 C.2   1 <1>  -0.2760 
 10 O       -0.1200     4.9040     1.1650 O.co2 1 <1>  -0.9000 
 11 O        0.3100     5.2830    -0.9150 O.co2 1 <1>  -0.9000 
 12 C       -3.9840     3.6510    -0.7180 C.3   1 <1>  -0.0220 
 13 C       -5.0190     2.0600     1.0090 C.2   1 <1>  -0.2880 
 14 C       -6.3070     2.7960     1.3380 C.3   1 <1>   0.1160 
 15 C       -7.5120     1.9390     0.9720 C.2   1 <1>  -0.2880 
 16 C       -8.4900     2.1850     0.0910 C.2   1 <1>  -0.2760 
 17 C       -9.6260     1.1990    -0.1280 C.3   1 <1>  -0.1020 
 18 C       -8.6200     3.4160    -0.7970 C.3   1 <1>  -0.1020 
 19 H       -1.4890     2.5620     1.3520 H     1 <1>   0.0800 
 20 H       -1.2780     3.5010    -1.5000 H     1 <1>   0.0800 
 21 H       -2.8230     0.6950     0.6030 H     1 <1>   0.0800 
 22 H       -2.7380     1.2290    -1.0440 H     1 <1>   0.0800 
 23 H       -2.8770     4.8110     0.6960 H     1 <1>   0.0800 
 24 H       -2.7220     5.3720    -0.9430 H     1 <1>   0.0800 
 25 H       -3.8910     3.3510    -1.7470 H     1 <1>   0.0800 
 26 H       -4.8690     4.2480    -0.6310 H     1 <1>   0.0800 
 27 H       -4.9430     1.1500     1.5770 H     1 <1>   0.1500 
 28 H       -6.3280     2.9890     2.3960 H     1 <1>   0.0800 
 29 H       -6.3400     3.7470     0.8510 H     1 <1>   0.0800 
 30 H       -7.5010     1.0280     1.5450 H     1 <1>   0.1500 
 31 H      -10.5700     1.6650     0.0920 H     1 <1>   0.0800 
 32 H       -9.5150     0.3400     0.5100 H     1 <1>   0.0800 
 33 H       -9.6330     0.8620    -1.1490 H     1 <1>   0.0800 
 34 H       -8.6740     3.1170    -1.8290 H     1 <1>   0.0800 
 35 H       -7.7870     4.0830    -0.6940 H     1 <1>   0.0800 
 36 H       -9.5170     3.9540    -0.5480 H     1 <1>   0.0800 
@<TRIPOS>BOND
  1   1   2  ar  
  2   2   3  ar  
  3   2   4  1   
  4   4   5  1   
  5   4   6  1   
  6   4  19  1   
  7   5   7  1   
  8   5   8  1   
  9   5  20  1   
 10   6   9  1   
 11   6  21  1   
 12   6  22  1   
 13   7  10  ar  
 14   7  11  ar  
 15   8  12  1   
 16   8  23  1   
 17   8  24  1   
 18   9  12  1   
 19   9  13  2   
 20  12  25  1   
 21  12  26  1   
 22  13  14  1   
 23  13  27  1   
 24  14  15  1   
 25  14  28  1   
 26  14  29  1   
 27  15  16  2   
 28  15  30  1   
 29  16  17  1   
 30  16  18  1   
 31  17  31  1   
 32  17  32  1   
 33  17  33  1   
 34  18  34  1   
 35  18  35  1   
 36  18  36  1   
@<TRIPOS>SUBSTRUCTURE
  1 ****   9 GROUP 4 **** **** 0

# MOE 2024.06 (io_trps.svl 2023.06)
