@<TRIPOS>MOLECULE
NONAME
40 41 1 0 0 
SMALL
USER_CHARGES


@<TRIPOS>ATOM
  1 CL      -0.3950     0.9120     1.6650 Cl    1 <1>  -0.1770 
  2 C       -1.9820     1.1120     0.9490 C.ar  1 <1>   0.1770 
  3 C       -2.3550     0.3570    -0.1570 C.ar  1 <1>   0.0830 
  4 C       -2.8380     2.0340     1.5180 C.ar  1 <1>  -0.1500 
  5 O       -1.4570    -0.5360    -0.6620 O.3   1 <1>  -0.3630 
  6 C       -3.6230     0.5480    -0.6960 C.ar  1 <1>  -0.1500 
  7 C       -4.1050     2.2160     0.9760 C.ar  1 <1>   0.0830 
  8 C       -1.7980    -1.3860    -1.7360 C.3   1 <1>   0.0400 
  9 C       -4.5050     1.4680    -0.1380 C.ar  1 <1>   0.1170 
 10 O       -5.0070     3.1090     1.4880 O.3   1 <1>  -0.3630 
 11 N       -5.7930     1.6820    -0.6570 N.am  1 <1>  -0.5470 
 12 C       -4.6650     3.9580     2.5630 C.3   1 <1>   0.0400 
 13 C       -6.6140     0.9750    -1.4850 C.2   1 <1>   0.5690 
 14 O       -6.3000    -0.0500    -2.0430 O.2   1 <1>  -0.5700 
 15 C       -8.0240     1.5370    -1.6880 C.3   1 <1>   0.1710 
 16 N       -8.4530     2.4910    -0.6220 N.3   1 <1>  -0.8100 
 17 C       -8.7570     1.7900     0.6470 C.3   1 <1>   0.1100 
 18 C       -9.6360     3.2670    -1.0390 C.3   1 <1>   0.1100 
 19 C       -9.2330     2.7840     1.7200 C.3   1 <1>   0.1200 
 20 C      -10.0930     4.2180     0.0820 C.3   1 <1>   0.1200 
 21 O      -10.3400     3.5050     1.2610 O.3   1 <1>  -0.5600 
 22 H       -2.4920     2.5850     2.3700 H     1 <1>   0.1500 
 23 H       -3.9400    -0.0090    -1.5540 H     1 <1>   0.1500 
 24 H       -0.9560    -2.0230    -1.9390 H     1 <1>   0.0800 
 25 H       -2.0190    -0.7860    -2.6010 H     1 <1>   0.0800 
 26 H       -2.6480    -1.9830    -1.4550 H     1 <1>   0.0800 
 27 H       -6.2840     2.4770    -0.2280 H     1 <1>   0.3700 
 28 H       -5.5100     4.5890     2.7730 H     1 <1>   0.0800 
 29 H       -3.8220     4.5620     2.2770 H     1 <1>   0.0800 
 30 H       -4.4350     3.3570     3.4250 H     1 <1>   0.0800 
 31 H       -8.7200     0.7190    -1.7510 H     1 <1>   0.0800 
 32 H       -8.0240     2.0430    -2.6370 H     1 <1>   0.0800 
 33 H       -7.8800     1.2820     1.0090 H     1 <1>   0.0800 
 34 H       -9.5270     1.0540     0.4890 H     1 <1>   0.0800 
 35 H      -10.4470     2.6030    -1.2870 H     1 <1>   0.0800 
 36 H       -9.3960     3.8470    -1.9130 H     1 <1>   0.0800 
 37 H       -8.4470     3.4760     1.9680 H     1 <1>   0.0800 
 38 H       -9.5280     2.2590     2.6110 H     1 <1>   0.0800 
 39 H      -11.0050     4.7150    -0.1970 H     1 <1>   0.0800 
 40 H       -9.3380     4.9590     0.2800 H     1 <1>   0.0800 
@<TRIPOS>BOND
  1   1   2  1   
  2   2   3  ar  
  3   2   4  ar  
  4   3   5  1   
  5   3   6  ar  
  6   4   7  ar  
  7   4  22  1   
  8   5   8  1   
  9   6   9  ar  
 10   6  23  1   
 11   7   9  ar  
 12   7  10  1   
 13   8  24  1   
 14   8  25  1   
 15   8  26  1   
 16   9  11  1   
 17  10  12  1   
 18  11  13  am  
 19  11  27  1   
 20  12  28  1   
 21  12  29  1   
 22  12  30  1   
 23  13  14  2   
 24  13  15  1   
 25  15  16  1   
 26  15  31  1   
 27  15  32  1   
 28  16  17  1   
 29  16  18  1   
 30  17  19  1   
 31  17  33  1   
 32  17  34  1   
 33  18  20  1   
 34  18  35  1   
 35  18  36  1   
 36  19  21  1   
 37  19  37  1   
 38  19  38  1   
 39  20  21  1   
 40  20  39  1   
 41  20  40  1   
@<TRIPOS>SUBSTRUCTURE
  1 ****  11 GROUP 4 **** **** 0

# MOE 2024.06 (io_trps.svl 2023.06)
