@<TRIPOS>MOLECULE
NONAME
51 52 1 0 0 
SMALL
USER_CHARGES


@<TRIPOS>ATOM
  1 O       -1.2960     1.8440     0.3410 O.3   1 <1>  -0.5600 
  2 C       -1.8300     2.2950     1.5510 C.3   1 <1>   0.1200 
  3 C       -2.0950     0.9310    -0.3520 C.3   1 <1>   0.1200 
  4 C       -3.1840     2.9910     1.3100 C.3   1 <1>   0.3430 
  5 C       -3.4630     1.5600    -0.6810 C.3   1 <1>   0.3430 
  6 N       -4.1360     2.1050     0.5530 N.4   1 <1>  -0.9590 
  7 C       -5.3980     2.8320     0.2420 C.3   1 <1>   0.3430 
  8 C       -6.4830     1.8540    -0.2130 C.3   1 <1>  -0.1600 
  9 C       -7.8210     2.5790    -0.4160 C.3   1 <1>  -0.1600 
 10 C       -8.9150     1.5950    -0.8530 C.3   1 <1>  -0.1600 
 11 C      -10.2640     2.3000    -1.0300 C.3   1 <1>   0.1200 
 12 O      -11.2310     1.3750    -1.4830 O.3   1 <1>  -0.3630 
 13 C      -11.8010     0.5500    -0.5680 C.ar  1 <1>   0.0830 
 14 C      -12.7180     1.0390     0.3630 C.ar  1 <1>  -0.1430 
 15 C      -11.4680    -0.8030    -0.5830 C.ar  1 <1>  -0.1430 
 16 C      -13.2380     0.1770     1.3140 C.ar  1 <1>  -0.1500 
 17 C      -13.1990     2.4850     0.3660 C.3   1 <1>  -0.0970 
 18 C      -12.0050    -1.6440     0.3760 C.ar  1 <1>  -0.1500 
 19 C      -10.5340    -1.3900    -1.6330 C.3   1 <1>  -0.0970 
 20 C      -12.8830    -1.1610     1.3310 C.ar  1 <1>  -0.1430 
 21 C      -13.4590    -2.0910     2.3840 C.3   1 <1>  -0.0970 
 22 H       -1.1270     2.9900     1.9790 H     1 <1>   0.0800 
 23 H       -1.9320     1.4580     2.2200 H     1 <1>   0.0800 
 24 H       -2.2070     0.0420     0.2450 H     1 <1>   0.0800 
 25 H       -1.5790     0.6690    -1.2600 H     1 <1>   0.0800 
 26 H       -3.0020     3.8940     0.7510 H     1 <1>   0.0800 
 27 H       -3.6130     3.2700     2.2590 H     1 <1>   0.0800 
 28 H       -4.0890     0.8180    -1.1490 H     1 <1>   0.0800 
 29 H       -3.3060     2.3550    -1.3920 H     1 <1>   0.0800 
 30 H       -4.3670     1.3080     1.1610 H     1 <1>   0.4500 
 31 H       -5.2230     3.5700    -0.5250 H     1 <1>   0.0800 
 32 H       -5.7450     3.3440     1.1260 H     1 <1>   0.0800 
 33 H       -6.6150     1.0890     0.5330 H     1 <1>   0.0800 
 34 H       -6.2020     1.3910    -1.1420 H     1 <1>   0.0800 
 35 H       -7.7140     3.3440    -1.1670 H     1 <1>   0.0800 
 36 H       -8.1230     3.0510     0.5050 H     1 <1>   0.0800 
 37 H       -9.0240     0.8290    -0.1050 H     1 <1>   0.0800 
 38 H       -8.6410     1.1360    -1.7860 H     1 <1>   0.0800 
 39 H      -10.1920     3.0740    -1.7740 H     1 <1>   0.0800 
 40 H      -10.5930     2.7320    -0.1030 H     1 <1>   0.0800 
 41 H      -13.9330     0.5470     2.0460 H     1 <1>   0.1500 
 42 H      -12.5970     3.0730     1.0330 H     1 <1>   0.0800 
 43 H      -14.2230     2.5350     0.6900 H     1 <1>   0.0800 
 44 H      -13.1460     2.9040    -0.6230 H     1 <1>   0.0800 
 45 H      -11.7400    -2.6870     0.3790 H     1 <1>   0.1500 
 46 H      -10.6270    -0.8570    -2.5620 H     1 <1>   0.0800 
 47 H      -10.7770    -2.4210    -1.8160 H     1 <1>   0.0800 
 48 H       -9.5170    -1.3300    -1.2940 H     1 <1>   0.0800 
 49 H      -14.4580    -1.7900     2.6430 H     1 <1>   0.0800 
 50 H      -12.8470    -2.0630     3.2670 H     1 <1>   0.0800 
 51 H      -13.4950    -3.1000     2.0160 H     1 <1>   0.0800 
@<TRIPOS>BOND
  1   1   2  1   
  2   1   3  1   
  3   2   4  1   
  4   2  22  1   
  5   2  23  1   
  6   3   5  1   
  7   3  24  1   
  8   3  25  1   
  9   4   6  1   
 10   4  26  1   
 11   4  27  1   
 12   5   6  1   
 13   5  28  1   
 14   5  29  1   
 15   6   7  1   
 16   6  30  1   
 17   7   8  1   
 18   7  31  1   
 19   7  32  1   
 20   8   9  1   
 21   8  33  1   
 22   8  34  1   
 23   9  10  1   
 24   9  35  1   
 25   9  36  1   
 26  10  11  1   
 27  10  37  1   
 28  10  38  1   
 29  11  12  1   
 30  11  39  1   
 31  11  40  1   
 32  12  13  1   
 33  13  14  ar  
 34  13  15  ar  
 35  14  16  ar  
 36  14  17  1   
 37  15  18  ar  
 38  15  19  1   
 39  16  20  ar  
 40  16  41  1   
 41  17  42  1   
 42  17  43  1   
 43  17  44  1   
 44  18  20  ar  
 45  18  45  1   
 46  19  46  1   
 47  19  47  1   
 48  19  48  1   
 49  20  21  1   
 50  21  49  1   
 51  21  50  1   
 52  21  51  1   
@<TRIPOS>SUBSTRUCTURE
  1 ****  10 GROUP 4 **** **** 0

# MOE 2024.06 (io_trps.svl 2023.06)
