@<TRIPOS>MOLECULE
NONAME
26 27 1 0 0 
SMALL
USER_CHARGES


@<TRIPOS>ATOM
  1 S       -0.1690    -0.2730     0.2830 S.3   1 <1>  -0.4600 
  2 C        1.2890     0.6370    -0.2880 C.3   1 <1>   0.0700 
  3 C        0.2350    -1.9850    -0.1470 C.3   1 <1>   0.0700 
  4 C        2.5460    -0.0070     0.3130 C.3   1 <1>   0.3430 
  5 C        1.6090    -2.3350     0.4400 C.3   1 <1>   0.3430 
  6 N        2.7070    -1.4520    -0.0870 N.4   1 <1>  -0.9590 
  7 C        4.0410    -1.9650     0.3240 C.3   1 <1>   0.5240 
  8 C        5.0970    -1.2100    -0.4560 C.2   1 <1>  -0.1810 
  9 C        5.9760    -0.3360     0.0730 C.2   1 <1>  -0.1100 
 10 C        5.2440    -1.3750    -1.8750 C.2   1 <1>  -0.1500 
 11 S        7.0110     0.3390    -1.1710 S.3   1 <1>  -0.0800 
 12 C        6.2190    -0.6170    -2.4090 C.2   1 <1>  -0.1100 
 13 H        1.1760     1.6530     0.0460 H     1 <1>   0.0800 
 14 H        1.2980     0.6110    -1.3640 H     1 <1>   0.0800 
 15 H        0.2190    -2.0710    -1.2190 H     1 <1>   0.0800 
 16 H       -0.5370    -2.6040     0.2750 H     1 <1>   0.0800 
 17 H        2.4940     0.0710     1.3870 H     1 <1>   0.0800 
 18 H        3.4020     0.5590    -0.0180 H     1 <1>   0.0800 
 19 H        1.8270    -3.3640     0.2030 H     1 <1>   0.0800 
 20 H        1.5570    -2.2480     1.5140 H     1 <1>   0.0800 
 21 H        2.6950    -1.4830    -1.1140 H     1 <1>   0.4500 
 22 H        4.1250    -3.0170     0.1080 H     1 <1>   0.0800 
 23 H        4.1880    -1.8170     1.3820 H     1 <1>   0.0800 
 24 H        6.1500     0.0100     1.0780 H     1 <1>   0.1500 
 25 H        4.6310    -2.0540    -2.4440 H     1 <1>   0.1500 
 26 H        6.5800    -0.5100    -3.4180 H     1 <1>   0.1500 
@<TRIPOS>BOND
  1   1   2  1   
  2   1   3  1   
  3   2   4  1   
  4   2  13  1   
  5   2  14  1   
  6   3   5  1   
  7   3  15  1   
  8   3  16  1   
  9   4   6  1   
 10   4  17  1   
 11   4  18  1   
 12   5   6  1   
 13   5  19  1   
 14   5  20  1   
 15   6   7  1   
 16   6  21  1   
 17   7   8  1   
 18   7  22  1   
 19   7  23  1   
 20   8   9  2   
 21   8  10  1   
 22   9  11  1   
 23   9  24  1   
 24  10  12  2   
 25  10  25  1   
 26  11  12  1   
 27  12  26  1   
@<TRIPOS>SUBSTRUCTURE
  1 ****   6 GROUP 4 **** **** 0

# MOE 2024.06 (io_trps.svl 2023.06)
