@<TRIPOS>MOLECULE
NONAME
48 50 1 0 0 
SMALL
USER_CHARGES


@<TRIPOS>ATOM
  1 O        0.5460    -1.5690    -1.7010 O.2   1 <1>  -0.5700 
  2 C       -0.1240    -1.9290    -0.7510 C.2   1 <1>   0.5440 
  3 N       -1.2800    -1.2380    -0.4470 N.am  1 <1>  -0.6600 
  4 C        0.2950    -3.0790     0.0150 C.ar  1 <1>   0.0860 
  5 C       -1.7360    -0.0570    -1.2420 C.3   1 <1>   0.1400 
  6 C       -2.2280    -1.6060     0.6480 C.3   1 <1>   0.1400 
  7 C        1.2970    -2.9960     0.9960 C.ar  1 <1>   0.1170 
  8 C       -0.3040    -4.3160    -0.2250 C.ar  1 <1>  -0.1500 
  9 C       -3.2040    -0.2270    -1.6670 C.3   1 <1>   0.1200 
 10 C       -3.6650    -1.6940     0.1070 C.3   1 <1>   0.1200 
 11 N        1.9710    -1.7980     1.2860 N.am  1 <1>  -0.4770 
 12 C        1.6460    -4.1410     1.7060 C.ar  1 <1>  -0.1500 
 13 C        0.0560    -5.4430     0.4870 C.ar  1 <1>  -0.1500 
 14 O       -4.0120    -0.5140    -0.5590 O.3   1 <1>  -0.5600 
 15 C        3.3400    -1.6230     1.1210 C.2   1 <1>   0.5440 
 16 C        1.1750    -0.6850     1.8730 C.3   1 <1>   0.0600 
 17 C        1.0360    -5.3540     1.4600 C.ar  1 <1>  -0.1500 
 18 O        3.8810    -0.6740     1.6600 O.2   1 <1>  -0.5700 
 19 C        4.1430    -2.5600     0.3580 C.ar  1 <1>   0.0860 
 20 C        3.7840    -2.9800    -0.9240 C.ar  1 <1>  -0.1500 
 21 C        5.3240    -3.0760     0.8930 C.ar  1 <1>  -0.1500 
 22 C        4.5540    -3.8880    -1.6250 C.ar  1 <1>  -0.1500 
 23 C        6.1010    -3.9850     0.1980 C.ar  1 <1>  -0.1500 
 24 C        5.7150    -4.4020    -1.0730 C.ar  1 <1>   0.0830 
 25 O        6.4130    -5.2890    -1.8190 O.3   1 <1>  -0.3630 
 26 C        7.6210    -5.8540    -1.3630 C.3   1 <1>   0.0400 
 27 H       -1.1280     0.0710    -2.1200 H     1 <1>   0.0800 
 28 H       -1.6400     0.8300    -0.6430 H     1 <1>   0.0800 
 29 H       -2.1910    -0.8520     1.4140 H     1 <1>   0.0800 
 30 H       -1.9600    -2.5460     1.0950 H     1 <1>   0.0800 
 31 H       -1.0600    -4.3870    -0.9880 H     1 <1>   0.1500 
 32 H       -3.2990    -1.0250    -2.3820 H     1 <1>   0.0800 
 33 H       -3.5670     0.6820    -2.1130 H     1 <1>   0.0800 
 34 H       -4.3590    -1.8300     0.9170 H     1 <1>   0.0800 
 35 H       -3.7640    -2.5190    -0.5770 H     1 <1>   0.0800 
 36 H        2.4100    -4.0760     2.4610 H     1 <1>   0.1500 
 37 H       -0.4170    -6.3890     0.2860 H     1 <1>   0.1500 
 38 H        0.2030    -1.0350     2.1690 H     1 <1>   0.0800 
 39 H        1.0650     0.0970     1.1420 H     1 <1>   0.0800 
 40 H        1.6770    -0.2890     2.7390 H     1 <1>   0.0800 
 41 H        1.3220    -6.2290     2.0180 H     1 <1>   0.1500 
 42 H        2.8920    -2.5830    -1.3770 H     1 <1>   0.1500 
 43 H        5.6300    -2.7500     1.8720 H     1 <1>   0.1500 
 44 H        4.2590    -4.2040    -2.6100 H     1 <1>   0.1500 
 45 H        6.9990    -4.3530     0.6550 H     1 <1>   0.1500 
 46 H        7.9880    -6.5160    -2.1260 H     1 <1>   0.0800 
 47 H        7.4290    -6.4070    -0.4610 H     1 <1>   0.0800 
 48 H        8.3310    -5.0650    -1.1900 H     1 <1>   0.0800 
@<TRIPOS>BOND
  1   1   2  2   
  2   2   3  am  
  3   2   4  1   
  4   3   5  1   
  5   3   6  1   
  6   4   7  ar  
  7   4   8  ar  
  8   5   9  1   
  9   5  27  1   
 10   5  28  1   
 11   6  10  1   
 12   6  29  1   
 13   6  30  1   
 14   7  11  1   
 15   7  12  ar  
 16   8  13  ar  
 17   8  31  1   
 18   9  14  1   
 19   9  32  1   
 20   9  33  1   
 21  10  14  1   
 22  10  34  1   
 23  10  35  1   
 24  11  15  am  
 25  11  16  1   
 26  12  17  ar  
 27  12  36  1   
 28  13  17  ar  
 29  13  37  1   
 30  15  18  2   
 31  15  19  1   
 32  16  38  1   
 33  16  39  1   
 34  16  40  1   
 35  17  41  1   
 36  19  20  ar  
 37  19  21  ar  
 38  20  22  ar  
 39  20  42  1   
 40  21  23  ar  
 41  21  43  1   
 42  22  24  ar  
 43  22  44  1   
 44  23  24  ar  
 45  23  45  1   
 46  24  25  1   
 47  25  26  1   
 48  26  46  1   
 49  26  47  1   
 50  26  48  1   
@<TRIPOS>SUBSTRUCTURE
  1 ****   7 GROUP 4 **** **** 0

# MOE 2024.06 (io_trps.svl 2023.06)
