@<TRIPOS>MOLECULE
NONAME
35 37 1 0 0 
SMALL
USER_CHARGES


@<TRIPOS>ATOM
  1 O        0.8450    -0.9870     0.4600 O.3   1 <1>  -0.2800 
  2 C        1.2540    -0.2960    -0.5940 C.2   1 <1>   0.0950 
  3 C       -0.3250    -1.5230     0.1850 C.2   1 <1>  -0.0400 
  4 C        2.5140     0.3840    -0.5400 C.2   1 <1>   0.0320 
  5 C        0.3130    -0.3920    -1.5730 C.2   1 <1>  -0.1500 
  6 C       -0.7110    -1.1910    -1.0650 C.2   1 <1>  -0.1500 
  7 C       -1.0080    -2.3680     1.2380 C.3   1 <1>  -0.0600 
  8 N        3.6260    -0.3350    -0.1490 N.2   1 <1>   1.5890 
  9 C        2.6980     1.7040    -0.8450 C.2   1 <1>  -0.0380 
 10 O        3.5630    -1.6150    -0.0390 O.2   1 <1>  -0.5640 
 11 C        4.8650     0.2410     0.0600 C.2   1 <1>  -0.1510 
 12 N        3.9560     2.2340    -0.7710 N.pl3 1 <1>  -0.5080 
 13 C        1.5750     2.6570    -1.2520 C.3   1 <1>  -0.1020 
 14 C        5.0340     1.5380    -0.2810 C.2   1 <1>  -0.0380 
 15 C        6.0070    -0.6030     0.6490 C.3   1 <1>  -0.0220 
 16 O        4.1410     3.4130    -1.1690 O.3   1 <1>  -0.6920 
 17 C        6.3640     2.2750    -0.1420 C.3   1 <1>  -0.0220 
 18 C        7.1600     0.2660     1.1660 C.3   1 <1>  -0.1600 
 19 C        7.5410     1.3310     0.1350 C.3   1 <1>  -0.1600 
 20 H        0.3280     0.0500    -2.5550 H     1 <1>   0.1500 
 21 H       -1.6120    -1.4660    -1.5860 H     1 <1>   0.1500 
 22 H       -1.1840    -1.7790     2.1200 H     1 <1>   0.0800 
 23 H       -0.3840    -3.2050     1.4950 H     1 <1>   0.0800 
 24 H       -1.9490    -2.7350     0.8690 H     1 <1>   0.0800 
 25 H        1.7170     2.9560    -2.2740 H     1 <1>   0.0800 
 26 H        1.6280     3.5410    -0.6410 H     1 <1>   0.0800 
 27 H        0.5970     2.2330    -1.1360 H     1 <1>   0.0800 
 28 H        6.3820    -1.2660    -0.1130 H     1 <1>   0.0800 
 29 H        5.6520    -1.2080     1.4670 H     1 <1>   0.0800 
 30 H        6.2650     2.9920     0.6540 H     1 <1>   0.0800 
 31 H        6.5640     2.8260    -1.0450 H     1 <1>   0.0800 
 32 H        8.0130    -0.3540     1.3840 H     1 <1>   0.0800 
 33 H        6.8640     0.7540     2.0800 H     1 <1>   0.0800 
 34 H        8.3810     1.9050     0.4850 H     1 <1>   0.0800 
 35 H        7.8300     0.8520    -0.7860 H     1 <1>   0.0800 
@<TRIPOS>BOND
  1   1   2  1   
  2   1   3  1   
  3   2   4  1   
  4   2   5  2   
  5   3   6  2   
  6   3   7  1   
  7   4   8  1   
  8   4   9  2   
  9   5   6  1   
 10   5  20  1   
 11   6  21  1   
 12   7  22  1   
 13   7  23  1   
 14   7  24  1   
 15   8  10  2   
 16   8  11  1   
 17   9  12  1   
 18   9  13  1   
 19  11  14  2   
 20  11  15  1   
 21  12  14  1   
 22  12  16  1   
 23  13  25  1   
 24  13  26  1   
 25  13  27  1   
 26  14  17  1   
 27  15  18  1   
 28  15  28  1   
 29  15  29  1   
 30  17  19  1   
 31  17  30  1   
 32  17  31  1   
 33  18  19  1   
 34  18  32  1   
 35  18  33  1   
 36  19  34  1   
 37  19  35  1   
@<TRIPOS>SUBSTRUCTURE
  1 ****   4 GROUP 4 **** **** 0

# MOE 2024.06 (io_trps.svl 2023.06)
