@<TRIPOS>MOLECULE
NONAME
45 46 1 0 0 
SMALL
USER_CHARGES


@<TRIPOS>ATOM
  1 O       -0.8480     0.6960    -0.8540 O.2   1 <1>  -0.5700 
  2 C       -1.5670     1.2840    -0.0810 C.2   1 <1>   0.4950 
  3 C       -1.4250     2.6820     0.2210 C.2   1 <1>   0.0290 
  4 C       -2.6980     0.5040     0.5670 C.3   1 <1>   0.0420 
  5 C       -2.6490     3.3770     0.5440 C.2   1 <1>   0.4950 
  6 C       -0.2020     3.3410     0.1810 C.2   1 <1>  -0.0380 
  7 C       -2.6240    -0.9710     0.1920 C.2   1 <1>   0.6590 
  8 C       -4.0460     1.2290     0.3200 C.3   1 <1>   0.0000 
  9 O       -2.7620     4.5820     0.5700 O.2   1 <1>  -0.5700 
 10 C       -3.9140     2.6280     0.9420 C.3   1 <1>  -0.0990 
 11 N       -0.0820     4.6980     0.2870 N.pl3 1 <1>  -0.6000 
 12 C        1.1340     2.6110     0.0120 C.3   1 <1>  -0.1020 
 13 O       -3.2710    -1.4720    -0.6920 O.2   1 <1>  -0.5700 
 14 O       -1.8060    -1.6980     0.9470 O.3   1 <1>  -0.4300 
 15 C       -4.3900     1.3860    -1.1780 C.3   1 <1>  -0.2400 
 16 C       -5.2090     0.4940     1.0120 C.3   1 <1>  -0.2400 
 17 C        1.0600     5.5150     0.1790 C.ar  1 <1>   0.1000 
 18 C       -1.6080    -3.0760     0.7100 C.3   1 <1>   0.0400 
 19 C        1.8090     5.8680     1.3020 C.ar  1 <1>   0.0820 
 20 C        1.4600     5.9940    -1.0600 C.ar  1 <1>  -0.1500 
 21 O        1.4330     5.3990     2.5030 O.3   1 <1>  -0.5330 
 22 C        2.9240     6.6780     1.1950 C.ar  1 <1>  -0.1500 
 23 C        2.5770     6.8060    -1.1750 C.ar  1 <1>  -0.1500 
 24 C        3.3090     7.1490    -0.0490 C.ar  1 <1>  -0.1500 
 25 H       -2.5130     0.5290     1.6250 H     1 <1>   0.0800 
 26 H       -3.9140     2.5550     2.0150 H     1 <1>   0.0800 
 27 H       -4.7690     3.2250     0.6730 H     1 <1>   0.0800 
 28 H       -0.9730     5.2260     0.3600 H     1 <1>   0.4000 
 29 H        1.9090     3.0770     0.5920 H     1 <1>   0.0800 
 30 H        1.4270     2.6280    -1.0230 H     1 <1>   0.0800 
 31 H        1.0850     1.5900     0.3400 H     1 <1>   0.0800 
 32 H       -3.6140     1.8930    -1.7240 H     1 <1>   0.0800 
 33 H       -5.2990     1.9510    -1.2980 H     1 <1>   0.0800 
 34 H       -4.5490     0.4300    -1.6450 H     1 <1>   0.0800 
 35 H       -6.1200     1.0600     0.9210 H     1 <1>   0.0800 
 36 H       -5.0090     0.3470     2.0590 H     1 <1>   0.0800 
 37 H       -5.3790    -0.4690     0.5630 H     1 <1>   0.0800 
 38 H       -2.5500    -3.5870     0.8080 H     1 <1>   0.0800 
 39 H       -0.9040    -3.4510     1.4310 H     1 <1>   0.0800 
 40 H       -1.2200    -3.2040    -0.2870 H     1 <1>   0.0800 
 41 H        0.8930     5.7260    -1.9330 H     1 <1>   0.1500 
 42 H        0.6450     4.8330     2.3830 H     1 <1>   0.4500 
 43 H        3.4800     6.9330     2.0790 H     1 <1>   0.1500 
 44 H        2.8780     7.1710    -2.1420 H     1 <1>   0.1500 
 45 H        4.1760     7.7800    -0.1390 H     1 <1>   0.1500 
@<TRIPOS>BOND
  1   1   2  2   
  2   2   3  1   
  3   2   4  1   
  4   3   5  1   
  5   3   6  2   
  6   4   7  1   
  7   4   8  1   
  8   4  25  1   
  9   5   9  2   
 10   5  10  1   
 11   6  11  1   
 12   6  12  1   
 13   7  13  2   
 14   7  14  1   
 15   8  10  1   
 16   8  15  1   
 17   8  16  1   
 18  10  26  1   
 19  10  27  1   
 20  11  17  1   
 21  11  28  1   
 22  12  29  1   
 23  12  30  1   
 24  12  31  1   
 25  14  18  1   
 26  15  32  1   
 27  15  33  1   
 28  15  34  1   
 29  16  35  1   
 30  16  36  1   
 31  16  37  1   
 32  17  19  ar  
 33  17  20  ar  
 34  18  38  1   
 35  18  39  1   
 36  18  40  1   
 37  19  21  1   
 38  19  22  ar  
 39  20  23  ar  
 40  20  41  1   
 41  21  42  1   
 42  22  24  ar  
 43  22  43  1   
 44  23  24  ar  
 45  23  44  1   
 46  24  45  1   
@<TRIPOS>SUBSTRUCTURE
  1 ****   3 GROUP 4 **** **** 0

# MOE 2024.06 (io_trps.svl 2023.06)
