@<TRIPOS>MOLECULE
NONAME
43 44 1 0 0 
SMALL
USER_CHARGES


@<TRIPOS>ATOM
  1 O        0.0390     0.5230    -0.4360 O.2   1 <1>  -0.5700 
  2 C       -0.0410     1.7250    -0.6110 C.2   1 <1>   0.5440 
  3 N        1.0900     2.4280    -0.9850 N.am  1 <1>  -0.6600 
  4 C       -1.3210     2.3760    -0.4140 C.ar  1 <1>   0.0860 
  5 C        1.1960     3.9130    -0.9200 C.3   1 <1>   0.1400 
  6 C        2.3580     1.7310    -1.3400 C.3   1 <1>   0.1400 
  7 C       -1.9860     2.2900     0.8090 C.ar  1 <1>  -0.1500 
  8 C       -1.9360     3.1030    -1.4330 C.ar  1 <1>  -0.1500 
  9 C        2.2950     4.3110     0.0690 C.3   1 <1>  -0.1600 
 10 C        3.4580     2.1150    -0.3470 C.3   1 <1>  -0.1600 
 11 C       -3.2020     2.9140     1.0180 C.ar  1 <1>  -0.1500 
 12 C       -3.1510     3.7310    -1.2330 C.ar  1 <1>  -0.1500 
 13 C        3.6410     3.6410    -0.2690 C.3   1 <1>  -0.0190 
 14 C       -3.7930     3.6460    -0.0080 C.ar  1 <1>   0.0830 
 15 C        4.7430     4.0080     0.7250 C.2   1 <1>   0.5690 
 16 O       -4.9760     4.2910     0.1100 O.3   1 <1>  -0.3630 
 17 O        4.4810     4.1380     1.8960 O.2   1 <1>  -0.5700 
 18 N        6.0070     4.1720     0.2510 N.am  1 <1>  -0.7300 
 19 C       -5.7310     4.2430     1.3000 C.3   1 <1>   0.0400 
 20 C        7.1850     4.4930     1.0780 C.3   1 <1>   0.1400 
 21 C        8.3040     3.5200     0.7250 C.3   1 <1>  -0.2400 
 22 H        0.2680     4.3560    -0.6030 H     1 <1>   0.0800 
 23 H        1.4290     4.2910    -1.9010 H     1 <1>   0.0800 
 24 H        2.6450     2.0170    -2.3370 H     1 <1>   0.0800 
 25 H        2.2240     0.6620    -1.3320 H     1 <1>   0.0800 
 26 H       -1.5310     1.7180     1.6000 H     1 <1>   0.1500 
 27 H       -1.4510     3.1680    -2.3910 H     1 <1>   0.1500 
 28 H        1.9850     4.0250     1.0600 H     1 <1>   0.0800 
 29 H        2.4120     5.3800     0.0630 H     1 <1>   0.0800 
 30 H        4.3810     1.6500    -0.6440 H     1 <1>   0.0800 
 31 H        3.1970     1.7300     0.6240 H     1 <1>   0.0800 
 32 H       -3.6730     2.8200     1.9770 H     1 <1>   0.1500 
 33 H       -3.6160     4.2900    -2.0260 H     1 <1>   0.1500 
 34 H        3.9460     3.9920    -1.2380 H     1 <1>   0.0800 
 35 H        6.1940     4.0500    -0.7440 H     1 <1>   0.3700 
 36 H       -6.6280     4.8160     1.1490 H     1 <1>   0.0800 
 37 H       -5.1530     4.6740     2.0980 H     1 <1>   0.0800 
 38 H       -5.9820     3.2190     1.5130 H     1 <1>   0.0800 
 39 H        6.9380     4.4070     2.1240 H     1 <1>   0.0800 
 40 H        7.4950     5.5060     0.8820 H     1 <1>   0.0800 
 41 H        7.9910     2.5100     0.9230 H     1 <1>   0.0800 
 42 H        9.1670     3.7320     1.3300 H     1 <1>   0.0800 
 43 H        8.5800     3.6180    -0.3090 H     1 <1>   0.0800 
@<TRIPOS>BOND
  1   1   2  2   
  2   2   3  am  
  3   2   4  1   
  4   3   5  1   
  5   3   6  1   
  6   4   7  ar  
  7   4   8  ar  
  8   5   9  1   
  9   5  22  1   
 10   5  23  1   
 11   6  10  1   
 12   6  24  1   
 13   6  25  1   
 14   7  11  ar  
 15   7  26  1   
 16   8  12  ar  
 17   8  27  1   
 18   9  13  1   
 19   9  28  1   
 20   9  29  1   
 21  10  13  1   
 22  10  30  1   
 23  10  31  1   
 24  11  14  ar  
 25  11  32  1   
 26  12  14  ar  
 27  12  33  1   
 28  13  15  1   
 29  13  34  1   
 30  14  16  1   
 31  15  17  2   
 32  15  18  am  
 33  16  19  1   
 34  18  20  1   
 35  18  35  1   
 36  19  36  1   
 37  19  37  1   
 38  19  38  1   
 39  20  21  1   
 40  20  39  1   
 41  20  40  1   
 42  21  41  1   
 43  21  42  1   
 44  21  43  1   
@<TRIPOS>SUBSTRUCTURE
  1 ****   5 GROUP 4 **** **** 0

# MOE 2024.06 (io_trps.svl 2023.06)
