@<TRIPOS>MOLECULE
NONAME
33 34 1 0 0 
SMALL
USER_CHARGES


@<TRIPOS>ATOM
  1 S        0.0870     2.2200    -1.9470 S.3   1 <1>  -0.4600 
  2 C        0.8150     1.3530    -0.5500 C.3   1 <1>   0.7960 
  3 C       -1.4840     2.6170    -1.1510 C.3   1 <1>   0.0700 
  4 N        0.2170     2.0850     0.5540 N.4   1 <1>  -0.9060 
  5 C        2.3360     1.4630    -0.4790 C.ar  1 <1>  -0.1430 
  6 C       -1.2730     2.2300     0.3170 C.3   1 <1>   0.3170 
  7 C        2.9660     0.8500     0.6010 C.ar  1 <1>   0.0830 
  8 C        3.1160     2.1250    -1.4230 C.ar  1 <1>  -0.1500 
  9 C       -2.0110     0.9200     0.6320 C.2   1 <1>   0.9060 
 10 O        2.1740     0.2190     1.5050 O.3   1 <1>  -0.3630 
 11 C        4.3480     0.9030     0.7310 C.ar  1 <1>  -0.1500 
 12 C        4.4920     2.1770    -1.2920 C.ar  1 <1>  -0.1500 
 13 O       -3.2280     0.8530     0.4740 O.co2 1 <1>  -0.9000 
 14 O       -1.3090    -0.0190     1.0310 O.co2 1 <1>  -0.9000 
 15 C        2.7000    -0.7220     2.4180 C.3   1 <1>   0.0400 
 16 C        5.1150     1.5640    -0.2100 C.ar  1 <1>   0.0830 
 17 O        6.4540     1.5700    -0.0070 O.3   1 <1>  -0.3630 
 18 C        7.3350     2.1920    -0.9170 C.3   1 <1>   0.0400 
 19 H        0.4770     0.3280    -0.5770 H     1 <1>   0.0800 
 20 H       -2.2690     2.0480    -1.6220 H     1 <1>   0.0800 
 21 H       -1.6610     3.6700    -1.2690 H     1 <1>   0.0800 
 22 H        0.7340     2.9480     0.6940 H     1 <1>   0.4500 
 23 H        0.3340     1.4270     1.3440 H     1 <1>   0.4500 
 24 H       -1.6890     2.9820     0.9620 H     1 <1>   0.0800 
 25 H        2.6770     2.6090    -2.2800 H     1 <1>   0.1500 
 26 H        4.8570     0.4430     1.5560 H     1 <1>   0.1500 
 27 H        5.0620     2.6960    -2.0400 H     1 <1>   0.1500 
 28 H        1.8750    -1.1950     2.9220 H     1 <1>   0.0800 
 29 H        3.3190    -0.2120     3.1340 H     1 <1>   0.0800 
 30 H        3.2650    -1.4600     1.8760 H     1 <1>   0.0800 
 31 H        8.3380     2.0590    -0.5550 H     1 <1>   0.0800 
 32 H        7.1020     3.2410    -0.9680 H     1 <1>   0.0800 
 33 H        7.2300     1.7250    -1.8800 H     1 <1>   0.0800 
@<TRIPOS>BOND
  1   1   2  1   
  2   1   3  1   
  3   2   4  1   
  4   2   5  1   
  5   2  19  1   
  6   3   6  1   
  7   3  20  1   
  8   3  21  1   
  9   4   6  1   
 10   4  22  1   
 11   4  23  1   
 12   5   7  ar  
 13   5   8  ar  
 14   6   9  1   
 15   6  24  1   
 16   7  10  1   
 17   7  11  ar  
 18   8  12  ar  
 19   8  25  1   
 20   9  13  ar  
 21   9  14  ar  
 22  10  15  1   
 23  11  16  ar  
 24  11  26  1   
 25  12  16  ar  
 26  12  27  1   
 27  15  28  1   
 28  15  29  1   
 29  15  30  1   
 30  16  17  1   
 31  17  18  1   
 32  18  31  1   
 33  18  32  1   
 34  18  33  1   
@<TRIPOS>SUBSTRUCTURE
  1 ****   5 GROUP 4 **** **** 0

# MOE 2024.06 (io_trps.svl 2023.06)
