@<TRIPOS>MOLECULE
ka-06910
24 24 1 0 0 
SMALL
USER_CHARGES


@<TRIPOS>ATOM
  1 O        0.0820    -0.2340     0.0390 O.2   1 <1>  -0.5700 
  2 C       -0.0270    -1.4460     0.0170 C.2   1 <1>   0.6340 
  3 O        1.0930    -2.1770    -0.0070 O.3   1 <1>  -0.4300 
  4 C       -1.2780    -2.1580     0.0140 C.ar  1 <1>   0.0860 
  5 C        2.3720    -1.5810    -0.0070 C.3   1 <1>   0.1200 
  6 C       -2.5260    -1.5310     0.0370 C.ar  1 <1>   0.4100 
  7 C       -1.3260    -3.5390    -0.0110 C.ar  1 <1>   0.1600 
  8 C        3.4120    -2.6960    -0.0370 C.3   1 <1>  -0.2400 
  9 N       -3.6560    -2.2060     0.0340 N.ar  1 <1>  -0.6200 
 10 N       -2.7020    -0.1890     0.0630 N.pl3 1 <1>  -0.9000 
 11 N       -2.4430    -4.2330    -0.0150 N.ar  1 <1>  -0.6200 
 12 C       -3.5540    -3.5140     0.0080 C.ar  1 <1>   0.4770 
 13 C       -4.8430    -4.3000     0.0050 C.3   1 <1>  -0.0970 
 14 H        2.4710    -0.9830     0.8840 H     1 <1>   0.0800 
 15 H        2.4560    -0.9500    -0.8760 H     1 <1>   0.0800 
 16 H       -0.4070    -4.1010    -0.0300 H     1 <1>   0.1500 
 17 H        3.3110    -3.3220     0.8310 H     1 <1>   0.0800 
 18 H        4.3990    -2.2700    -0.0370 H     1 <1>   0.0800 
 19 H        3.2960    -3.2890    -0.9260 H     1 <1>   0.0800 
 20 H       -3.6410     0.2100     0.0790 H     1 <1>   0.4000 
 21 H       -1.9030     0.4600     0.0690 H     1 <1>   0.4000 
 22 H       -5.6890    -3.6380     0.0240 H     1 <1>   0.0800 
 23 H       -4.8760    -4.9370     0.8680 H     1 <1>   0.0800 
 24 H       -4.8910    -4.9040    -0.8820 H     1 <1>   0.0800 
@<TRIPOS>BOND
  1   1   2  2   
  2   2   3  1   
  3   2   4  1   
  4   3   5  1   
  5   4   6  ar  
  6   4   7  ar  
  7   5   8  1   
  8   5  14  1   
  9   5  15  1   
 10   6   9  ar  
 11   6  10  1   
 12   7  11  ar  
 13   7  16  1   
 14   8  17  1   
 15   8  18  1   
 16   8  19  1   
 17   9  12  ar  
 18  10  20  1   
 19  10  21  1   
 20  11  12  ar  
 21  12  13  1   
 22  13  22  1   
 23  13  23  1   
 24  13  24  1   
@<TRIPOS>SUBSTRUCTURE
  1 ****   4 GROUP 4 **** **** 0

# MOE 2024.06 (io_trps.svl 2023.06)
