@<TRIPOS>MOLECULE
NONAME
36 37 1 0 0 
SMALL
USER_CHARGES


@<TRIPOS>ATOM
  1 O       -1.2680    -0.0070     1.0680 O.2   1 <1>  -0.5700 
  2 C       -2.1170    -0.7330     0.5880 C.2   1 <1>   0.7060 
  3 O       -3.3740    -0.2930     0.6190 O.3   1 <1>  -0.2330 
  4 C       -1.8470    -2.0210    -0.0010 C.2   1 <1>  -0.1240 
  5 C       -4.4100    -0.9910     0.1150 C.ar  1 <1>   0.0820 
  6 C       -2.8640    -2.7780    -0.5000 C.2   1 <1>  -0.1670 
  7 C       -0.3760    -2.4540    -0.0140 C.3   1 <1>  -0.0220 
  8 C       -4.2050    -2.2500    -0.4670 C.ar  1 <1>   0.0280 
  9 C       -5.6710    -0.4220     0.1890 C.ar  1 <1>  -0.1500 
 10 C       -2.6780    -4.1770    -1.0920 C.3   1 <1>  -0.1020 
 11 C       -0.0210    -3.2190     1.2630 C.3   1 <1>  -0.2400 
 12 C       -5.3350    -2.9000    -0.9800 C.ar  1 <1>  -0.1500 
 13 C       -6.7700    -1.0860    -0.3160 C.ar  1 <1>   0.0830 
 14 C       -6.5940    -2.3360    -0.9080 C.ar  1 <1>  -0.1500 
 15 O       -7.9670    -0.4680    -0.2020 O.3   1 <1>  -0.3630 
 16 C       -9.1740    -1.0920    -0.6120 C.3   1 <1>   0.1810 
 17 C      -10.3750    -0.2040    -0.3230 C.2   1 <1>   0.6590 
 18 O      -11.0810     0.2080    -1.2080 O.2   1 <1>  -0.5700 
 19 O      -10.6190     0.0650     0.9560 O.3   1 <1>  -0.4300 
 20 C      -11.7020     0.8830     1.3500 C.3   1 <1>   0.0400 
 21 H        0.2630    -1.5910    -0.0970 H     1 <1>   0.0800 
 22 H       -0.1610    -3.0590    -0.8750 H     1 <1>   0.0800 
 23 H       -5.7950     0.5440     0.6430 H     1 <1>   0.1500 
 24 H       -2.8970    -4.1620    -2.1450 H     1 <1>   0.0800 
 25 H       -3.3420    -4.8700    -0.6070 H     1 <1>   0.0800 
 26 H       -1.6860    -4.5630    -0.9630 H     1 <1>   0.0800 
 27 H       -0.1720    -2.5910     2.1240 H     1 <1>   0.0800 
 28 H        1.0100    -3.5230     1.2380 H     1 <1>   0.0800 
 29 H       -0.6380    -4.0950     1.3620 H     1 <1>   0.0800 
 30 H       -5.2390    -3.8620    -1.4470 H     1 <1>   0.1500 
 31 H       -7.4240    -2.8780    -1.3180 H     1 <1>   0.1500 
 32 H       -9.2780    -2.0150    -0.0740 H     1 <1>   0.0800 
 33 H       -9.1160    -1.2790    -1.6680 H     1 <1>   0.0800 
 34 H      -11.6960     0.9630     2.4220 H     1 <1>   0.0800 
 35 H      -12.6190     0.4320     1.0150 H     1 <1>   0.0800 
 36 H      -11.5810     1.8550     0.9040 H     1 <1>   0.0800 
@<TRIPOS>BOND
  1   1   2  2   
  2   2   3  1   
  3   2   4  1   
  4   3   5  1   
  5   4   6  2   
  6   4   7  1   
  7   5   8  ar  
  8   5   9  ar  
  9   6   8  1   
 10   6  10  1   
 11   7  11  1   
 12   7  21  1   
 13   7  22  1   
 14   8  12  ar  
 15   9  13  ar  
 16   9  23  1   
 17  10  24  1   
 18  10  25  1   
 19  10  26  1   
 20  11  27  1   
 21  11  28  1   
 22  11  29  1   
 23  12  14  ar  
 24  12  30  1   
 25  13  14  ar  
 26  13  15  1   
 27  14  31  1   
 28  15  16  1   
 29  16  17  1   
 30  16  32  1   
 31  16  33  1   
 32  17  18  2   
 33  17  19  1   
 34  19  20  1   
 35  20  34  1   
 36  20  35  1   
 37  20  36  1   
@<TRIPOS>SUBSTRUCTURE
  1 ****   9 GROUP 4 **** **** 0

# MOE 2024.06 (io_trps.svl 2023.06)
