@<TRIPOS>MOLECULE
NONAME
34 35 1 0 0 
SMALL
USER_CHARGES


@<TRIPOS>ATOM
  1 CL      -2.6240     2.0270    -1.9540 Cl    1 <1>  -0.1770 
  2 C       -1.3280     2.4640    -0.8680 C.ar  1 <1>   0.1770 
  3 C       -1.5360     2.4500     0.5130 C.ar  1 <1>   0.0860 
  4 C       -0.1160     2.8190    -1.4270 C.ar  1 <1>  -0.1500 
  5 C       -2.8070     2.0790     1.0910 C.2   1 <1>   0.5440 
  6 C       -0.4610     2.8010     1.3350 C.ar  1 <1>  -0.1500 
  7 C        0.9140     3.1650    -0.5750 C.ar  1 <1>   0.1900 
  8 O       -2.8890     1.0210     1.6840 O.2   1 <1>  -0.5700 
  9 N       -3.9150     2.8960     1.0220 N.am  1 <1>  -0.6600 
 10 C        0.7630     3.1620     0.7990 C.ar  1 <1>  -0.1500 
 11 F        2.0640     3.5060    -1.0830 F     1 <1>  -0.1900 
 12 C       -5.2570     2.4490     1.5080 C.3   1 <1>   0.1400 
 13 C       -3.9310     4.2730     0.4380 C.3   1 <1>   0.1400 
 14 C       -6.3260     2.6520     0.4210 C.3   1 <1>   0.1960 
 15 C       -5.0570     4.4270    -0.6010 C.3   1 <1>   0.1960 
 16 N       -6.3720     4.0510    -0.0510 N.am  1 <1>  -0.8490 
 17 S       -7.6120     4.3180    -1.1720 S.o2  1 <1>   1.3330 
 18 O       -7.8090     3.0970    -1.9170 O.2   1 <1>  -0.6500 
 19 O       -7.3290     5.5540    -1.8640 O.2   1 <1>  -0.6500 
 20 C       -9.0250     4.5970    -0.1260 C.3   1 <1>  -0.1350 
 21 H        0.0260     2.8240    -2.4920 H     1 <1>   0.1500 
 22 H       -0.5980     2.7820     2.4040 H     1 <1>   0.1500 
 23 H        1.5910     3.4330     1.4310 H     1 <1>   0.1500 
 24 H       -5.5230     3.0170     2.3810 H     1 <1>   0.0800 
 25 H       -5.2340     1.4090     1.7830 H     1 <1>   0.0800 
 26 H       -2.9910     4.5060    -0.0260 H     1 <1>   0.0800 
 27 H       -4.0920     4.9840     1.2290 H     1 <1>   0.0800 
 28 H       -7.2840     2.3730     0.8240 H     1 <1>   0.0800 
 29 H       -6.1100     1.9910    -0.4030 H     1 <1>   0.0800 
 30 H       -4.8370     3.8220    -1.4650 H     1 <1>   0.0800 
 31 H       -5.0780     5.4560    -0.9180 H     1 <1>   0.0800 
 32 H       -9.2270     3.7300     0.4700 H     1 <1>   0.0800 
 33 H       -9.8860     4.8110    -0.7280 H     1 <1>   0.0800 
 34 H       -8.8420     5.4320     0.5220 H     1 <1>   0.0800 
@<TRIPOS>BOND
  1   1   2  1   
  2   2   3  ar  
  3   2   4  ar  
  4   3   5  1   
  5   3   6  ar  
  6   4   7  ar  
  7   4  21  1   
  8   5   8  2   
  9   5   9  am  
 10   6  10  ar  
 11   6  22  1   
 12   7  10  ar  
 13   7  11  1   
 14   9  12  1   
 15   9  13  1   
 16  10  23  1   
 17  12  14  1   
 18  12  24  1   
 19  12  25  1   
 20  13  15  1   
 21  13  26  1   
 22  13  27  1   
 23  14  16  1   
 24  14  28  1   
 25  14  29  1   
 26  15  16  1   
 27  15  30  1   
 28  15  31  1   
 29  16  17  am  
 30  17  18  2   
 31  17  19  2   
 32  17  20  1   
 33  20  32  1   
 34  20  33  1   
 35  20  34  1   
@<TRIPOS>SUBSTRUCTURE
  1 ****   9 GROUP 4 **** **** 0

# MOE 2024.06 (io_trps.svl 2023.06)
