@<TRIPOS>MOLECULE
10407
48 49 1 0 0 
SMALL
USER_CHARGES


@<TRIPOS>ATOM
  1 O        0.1130     0.5450     1.6970 O.2   1 <1>  -0.5700 
  2 C        0.0800    -0.6400     1.4920 C.2   1 <1>   0.5690 
  3 N        1.1040    -1.2260     0.8340 N.am  1 <1>  -0.7300 
  4 C       -1.1260    -1.4220     1.9860 C.3   1 <1>  -0.0990 
  5 C        1.4230    -2.6420     0.6270 C.3   1 <1>   0.3640 
  6 C       -2.3280    -1.2650     1.0400 C.3   1 <1>  -0.1600 
  7 C        2.9340    -2.7690     0.4740 C.ar  1 <1>  -0.1440 
  8 C        0.6950    -3.1550    -0.6140 C.3   1 <1>  -0.2400 
  9 C       -3.5380    -2.0550     1.5380 C.3   1 <1>   0.1200 
 10 C        3.6570    -3.5450     1.3690 C.ar  1 <1>  -0.1500 
 11 C        3.6120    -2.1150    -0.5480 C.ar  1 <1>  -0.1500 
 12 O       -4.5600    -1.9340     0.5790 O.3   1 <1>  -0.3630 
 13 C        5.0300    -3.6690     1.2450 C.ar  1 <1>  -0.1500 
 14 C        4.9850    -2.2380    -0.6730 C.ar  1 <1>  -0.1500 
 15 C       -5.7600    -2.5560     0.7290 C.ar  1 <1>   0.0820 
 16 C        5.6950    -3.0160     0.2230 C.ar  1 <1>  -0.1500 
 17 C       -6.6920    -2.4140    -0.2950 C.ar  1 <1>  -0.1430 
 18 C       -6.0840    -3.3170     1.8500 C.ar  1 <1>  -0.1500 
 19 C       -7.9270    -3.0330    -0.1890 C.ar  1 <1>  -0.1500 
 20 C       -6.3640    -1.5850    -1.5290 C.3   1 <1>  -0.0970 
 21 C       -7.3210    -3.9290     1.9430 C.ar  1 <1>  -0.1500 
 22 C       -8.2480    -3.7920     0.9240 C.ar  1 <1>  -0.1430 
 23 C       -9.6060    -4.4620     1.0250 C.3   1 <1>  -0.0970 
 24 H        1.8750    -0.6030     0.5900 H     1 <1>   0.3700 
 25 H       -1.3880    -1.0420     2.9570 H     1 <1>   0.0800 
 26 H       -0.8820    -2.4600     2.0980 H     1 <1>   0.0800 
 27 H        1.1080    -3.2110     1.4850 H     1 <1>   0.0800 
 28 H       -2.0610    -1.6090     0.0570 H     1 <1>   0.0800 
 29 H       -2.5920    -0.2230     0.9740 H     1 <1>   0.0800 
 30 H        0.9170    -2.5420    -1.4680 H     1 <1>   0.0800 
 31 H       -0.3650    -3.1630    -0.4500 H     1 <1>   0.0800 
 32 H        1.0110    -4.1600    -0.8240 H     1 <1>   0.0800 
 33 H       -3.8980    -1.6570     2.4710 H     1 <1>   0.0800 
 34 H       -3.2980    -3.0990     1.6420 H     1 <1>   0.0800 
 35 H        3.1580    -4.0590     2.1720 H     1 <1>   0.1500 
 36 H        3.0760    -1.5060    -1.2550 H     1 <1>   0.1500 
 37 H        5.5820    -4.2740     1.9440 H     1 <1>   0.1500 
 38 H        5.5010    -1.7280    -1.4680 H     1 <1>   0.1500 
 39 H        6.7620    -3.1120     0.1260 H     1 <1>   0.1500 
 40 H       -5.3920    -3.4440     2.6590 H     1 <1>   0.1500 
 41 H       -8.6490    -2.9230    -0.9790 H     1 <1>   0.1500 
 42 H       -6.1460    -0.5730    -1.2370 H     1 <1>   0.0800 
 43 H       -7.1860    -1.5740    -2.2210 H     1 <1>   0.0800 
 44 H       -5.5020    -1.9950    -2.0230 H     1 <1>   0.0800 
 45 H       -7.5610    -4.5130     2.8140 H     1 <1>   0.1500 
 46 H      -10.3210    -3.7720     1.4350 H     1 <1>   0.0800 
 47 H       -9.5550    -5.3280     1.6600 H     1 <1>   0.0800 
 48 H       -9.9420    -4.7740     0.0530 H     1 <1>   0.0800 
@<TRIPOS>BOND
  1   1   2  2   
  2   2   3  am  
  3   2   4  1   
  4   3   5  1   
  5   3  24  1   
  6   4   6  1   
  7   4  25  1   
  8   4  26  1   
  9   5   7  1   
 10   5   8  1   
 11   5  27  1   
 12   6   9  1   
 13   6  28  1   
 14   6  29  1   
 15   7  10  ar  
 16   7  11  ar  
 17   8  30  1   
 18   8  31  1   
 19   8  32  1   
 20   9  12  1   
 21   9  33  1   
 22   9  34  1   
 23  10  13  ar  
 24  10  35  1   
 25  11  14  ar  
 26  11  36  1   
 27  12  15  1   
 28  13  16  ar  
 29  13  37  1   
 30  14  16  ar  
 31  14  38  1   
 32  15  17  ar  
 33  15  18  ar  
 34  16  39  1   
 35  17  19  ar  
 36  17  20  1   
 37  18  21  ar  
 38  18  40  1   
 39  19  22  ar  
 40  19  41  1   
 41  20  42  1   
 42  20  43  1   
 43  20  44  1   
 44  21  22  ar  
 45  21  45  1   
 46  22  23  1   
 47  23  46  1   
 48  23  47  1   
 49  23  48  1   
@<TRIPOS>SUBSTRUCTURE
  1 ****   6 GROUP 4 **** **** 0

# MOE 2024.06 (io_trps.svl 2023.06)
