@<TRIPOS>MOLECULE
NONAME
39 39 1 0 0 
SMALL
USER_CHARGES


@<TRIPOS>ATOM
  1 F       -2.1650     0.5250     2.7630 F     1 <1>  -0.1900 
  2 C       -2.5130     0.9770     1.5870 C.ar  1 <1>   0.1900 
  3 C       -1.7610     1.9530     0.9570 C.ar  1 <1>   0.1900 
  4 C       -3.6490     0.4600     0.9910 C.ar  1 <1>  -0.1500 
  5 F       -0.6910     2.4400     1.5280 F     1 <1>  -0.1900 
  6 C       -2.1310     2.4300    -0.2870 C.ar  1 <1>  -0.1500 
  7 C       -4.0390     0.9410    -0.2560 C.ar  1 <1>  -0.1440 
  8 C       -3.2720     1.9180    -0.8900 C.ar  1 <1>  -0.1500 
  9 C       -5.2930     0.4020    -0.9240 C.3   1 <1>   0.4870 
 10 N       -6.4910     0.9280    -0.1920 N.4   1 <1>  -0.9590 
 11 C       -7.7310     0.1480    -0.5680 C.3   1 <1>   0.3430 
 12 C       -6.6070     2.4040    -0.4010 C.3   1 <1>   0.3430 
 13 C       -9.0030     0.4840     0.2680 C.3   1 <1>   0.3430 
 14 C       -6.8490     3.0700     0.9460 C.3   1 <1>  -0.2400 
 15 N      -10.2370    -0.3020    -0.1120 N.4   1 <1>  -0.9590 
 16 C      -11.4370     0.2360     0.6170 C.3   1 <1>   0.2630 
 17 C      -10.1270    -1.7750     0.1700 C.3   1 <1>   0.2630 
 18 H       -4.1940    -0.3070     1.5130 H     1 <1>   0.1500 
 19 H       -1.5310     3.1840    -0.7680 H     1 <1>   0.1500 
 20 H       -3.5440     2.2930    -1.8630 H     1 <1>   0.1500 
 21 H       -5.2700    -0.6750    -0.8820 H     1 <1>   0.0800 
 22 H       -5.3190     0.7020    -1.9600 H     1 <1>   0.0800 
 23 H       -6.2550     0.7970     0.8030 H     1 <1>   0.4500 
 24 H       -7.5220    -0.9020    -0.4500 H     1 <1>   0.0800 
 25 H       -7.9490     0.3280    -1.6080 H     1 <1>   0.0800 
 26 H       -7.4060     2.6350    -1.0880 H     1 <1>   0.0800 
 27 H       -5.6920     2.8000    -0.8140 H     1 <1>   0.0800 
 28 H       -9.2170     1.5330     0.1460 H     1 <1>   0.0800 
 29 H       -8.7890     0.3090     1.3100 H     1 <1>   0.0800 
 30 H       -7.7640     2.7460     1.4040 H     1 <1>   0.0800 
 31 H       -6.9150     4.1350     0.8020 H     1 <1>   0.0800 
 32 H       -6.0240     2.8890     1.6130 H     1 <1>   0.0800 
 33 H      -10.4420    -0.1850    -1.1200 H     1 <1>   0.4500 
 34 H      -11.3130     0.1280     1.6840 H     1 <1>   0.0800 
 35 H      -12.3260    -0.3000     0.3230 H     1 <1>   0.0800 
 36 H      -11.5820     1.2800     0.3920 H     1 <1>   0.0800 
 37 H       -9.9480    -1.9480     1.2200 H     1 <1>   0.0800 
 38 H       -9.3250    -2.2170    -0.3970 H     1 <1>   0.0800 
 39 H      -11.0450    -2.2750    -0.1010 H     1 <1>   0.0800 
@<TRIPOS>BOND
  1   1   2  1   
  2   2   3  ar  
  3   2   4  ar  
  4   3   5  1   
  5   3   6  ar  
  6   4   7  ar  
  7   4  18  1   
  8   6   8  ar  
  9   6  19  1   
 10   7   8  ar  
 11   7   9  1   
 12   8  20  1   
 13   9  10  1   
 14   9  21  1   
 15   9  22  1   
 16  10  11  1   
 17  10  12  1   
 18  10  23  1   
 19  11  13  1   
 20  11  24  1   
 21  11  25  1   
 22  12  14  1   
 23  12  26  1   
 24  12  27  1   
 25  13  15  1   
 26  13  28  1   
 27  13  29  1   
 28  14  30  1   
 29  14  31  1   
 30  14  32  1   
 31  15  16  1   
 32  15  17  1   
 33  15  33  1   
 34  16  34  1   
 35  16  35  1   
 36  16  36  1   
 37  17  37  1   
 38  17  38  1   
 39  17  39  1   
@<TRIPOS>SUBSTRUCTURE
  1 ****  10 GROUP 4 **** **** 0

# MOE 2024.06 (io_trps.svl 2023.06)
