@<TRIPOS>MOLECULE
NONAME
46 48 1 0 0 
SMALL
USER_CHARGES


@<TRIPOS>ATOM
  1 O        0.1800    -0.1010     0.5960 O.3   1 <1>  -0.3630 
  2 C       -1.0900    -0.5060     0.3950 C.ar  1 <1>   0.0830 
  3 C        1.0980    -0.3570    -0.4460 C.3   1 <1>   0.1200 
  4 C       -1.9790     0.2890    -0.3740 C.ar  1 <1>   0.0000 
  5 C       -1.4940    -1.6870     0.9600 C.ar  1 <1>  -0.1500 
  6 C        2.5070     0.1260    -0.0620 C.3   1 <1>   0.1100 
  7 C       -3.2950    -0.1890    -0.5690 C.ar  1 <1>   0.0000 
  8 C       -1.6300     1.5300    -0.9510 C.ar  1 <1>  -0.1500 
  9 C       -2.7980    -2.1480     0.7680 C.ar  1 <1>  -0.1500 
 10 N        2.6540     1.6030     0.0020 N.3   1 <1>  -0.8100 
 11 C       -3.6740    -1.4140     0.0170 C.ar  1 <1>  -0.1500 
 12 C       -4.1920     0.5760    -1.3410 C.ar  1 <1>  -0.1500 
 13 C       -2.5220     2.2540    -1.6930 C.ar  1 <1>  -0.1500 
 14 C        1.9570     2.1900     1.1820 C.3   1 <1>   0.1100 
 15 C        4.0870     1.9800     0.0170 C.3   1 <1>   0.1100 
 16 C       -3.8180     1.7700    -1.8920 C.ar  1 <1>  -0.1500 
 17 C        2.3120     3.6760     1.4290 C.3   1 <1>   0.3430 
 18 C        4.2940     3.5150    -0.0140 C.3   1 <1>   0.3430 
 19 N        3.0110     4.2560     0.2390 N.4   1 <1>  -0.9590 
 20 C        3.1470     5.7310     0.3060 C.3   1 <1>   0.3430 
 21 C        3.5210     6.2760    -1.0670 C.3   1 <1>  -0.2400 
 22 H        0.7630     0.1330    -1.3430 H     1 <1>   0.0800 
 23 H        1.1100    -1.4200    -0.6130 H     1 <1>   0.0800 
 24 H       -0.8100    -2.2670     1.5540 H     1 <1>   0.1500 
 25 H        3.1770    -0.2490    -0.8170 H     1 <1>   0.0800 
 26 H        2.7940    -0.3230     0.8740 H     1 <1>   0.0800 
 27 H       -0.6370     1.9060    -0.7960 H     1 <1>   0.1500 
 28 H       -3.0980    -3.0800     1.2160 H     1 <1>   0.1500 
 29 H       -4.6790    -1.7650    -0.1370 H     1 <1>   0.1500 
 30 H       -5.1890     0.2010    -1.4890 H     1 <1>   0.1500 
 31 H       -2.2460     3.1960    -2.1320 H     1 <1>   0.1500 
 32 H        2.1810     1.6220     2.0690 H     1 <1>   0.0800 
 33 H        0.8940     2.1350     1.0290 H     1 <1>   0.0800 
 34 H        4.5850     1.5510    -0.8370 H     1 <1>   0.0800 
 35 H        4.5570     1.5790     0.8990 H     1 <1>   0.0800 
 36 H       -4.5090     2.3480    -2.4800 H     1 <1>   0.1500 
 37 H        2.9460     3.7480     2.2960 H     1 <1>   0.0800 
 38 H        1.4050     4.2210     1.6360 H     1 <1>   0.0800 
 39 H        4.6820     3.7880    -0.9810 H     1 <1>   0.0800 
 40 H        5.0330     3.7860     0.7220 H     1 <1>   0.0800 
 41 H        2.4080     3.9900    -0.5550 H     1 <1>   0.4500 
 42 H        3.8970     6.0040     1.0310 H     1 <1>   0.0800 
 43 H        2.2080     6.1660     0.6100 H     1 <1>   0.0800 
 44 H        4.4980     5.9470    -1.3680 H     1 <1>   0.0800 
 45 H        3.5370     7.3510    -1.0260 H     1 <1>   0.0800 
 46 H        2.7940     5.9830    -1.8050 H     1 <1>   0.0800 
@<TRIPOS>BOND
  1   1   2  1   
  2   1   3  1   
  3   2   4  ar  
  4   2   5  ar  
  5   3   6  1   
  6   3  22  1   
  7   3  23  1   
  8   4   7  ar  
  9   4   8  ar  
 10   5   9  ar  
 11   5  24  1   
 12   6  10  1   
 13   6  25  1   
 14   6  26  1   
 15   7  11  ar  
 16   7  12  ar  
 17   8  13  ar  
 18   8  27  1   
 19   9  11  ar  
 20   9  28  1   
 21  10  14  1   
 22  10  15  1   
 23  11  29  1   
 24  12  16  ar  
 25  12  30  1   
 26  13  16  ar  
 27  13  31  1   
 28  14  17  1   
 29  14  32  1   
 30  14  33  1   
 31  15  18  1   
 32  15  34  1   
 33  15  35  1   
 34  16  36  1   
 35  17  19  1   
 36  17  37  1   
 37  17  38  1   
 38  18  19  1   
 39  18  39  1   
 40  18  40  1   
 41  19  20  1   
 42  19  41  1   
 43  20  21  1   
 44  20  42  1   
 45  20  43  1   
 46  21  44  1   
 47  21  45  1   
 48  21  46  1   
@<TRIPOS>SUBSTRUCTURE
  1 ****   1 GROUP 4 **** **** 0

# MOE 2024.06 (io_trps.svl 2023.06)
