@<TRIPOS>MOLECULE
NONAME
33 33 1 0 0 
SMALL
USER_CHARGES


@<TRIPOS>ATOM
  1 O        0.3940     0.4940     1.0090 O.2   1 <1>  -0.5700 
  2 C        0.2940     1.5050     0.3580 C.2   1 <1>   0.5690 
  3 N        1.3090     1.9450    -0.4260 N.am  1 <1>  -0.7300 
  4 C       -1.0010     2.3170     0.4250 C.3   1 <1>  -0.0190 
  5 C        2.6340     1.3120    -0.5150 C.3   1 <1>   0.2840 
  6 C       -1.6260     2.4680    -0.9840 C.3   1 <1>  -0.1600 
  7 C       -0.7210     3.6660     1.1320 C.3   1 <1>  -0.1600 
  8 C        3.6710     2.4140    -0.6250 C.ar  1 <1>  -0.1440 
  9 C       -3.1610     2.4150    -0.9840 C.3   1 <1>  -0.2400 
 10 C       -1.9630     4.5250     1.3960 C.3   1 <1>  -0.2400 
 11 C        4.2970     2.7230    -1.8170 C.ar  1 <1>  -0.1500 
 12 C        4.0340     3.1710     0.4700 C.ar  1 <1>  -0.1500 
 13 C        5.2300     3.7450    -1.8530 C.ar  1 <1>   0.1600 
 14 C        4.9800     4.1730     0.3260 C.ar  1 <1>   0.1600 
 15 N        5.5850     4.4780    -0.8100 N.ar  1 <1>  -0.6200 
 16 H        1.2160     2.8230    -0.9370 H     1 <1>   0.3700 
 17 H       -1.6780     1.7510     1.0400 H     1 <1>   0.0800 
 18 H        2.6670     0.6720    -1.3800 H     1 <1>   0.0800 
 19 H        2.8200     0.7130     0.3610 H     1 <1>   0.0800 
 20 H       -1.2850     1.6560    -1.6050 H     1 <1>   0.0800 
 21 H       -1.2900     3.3820    -1.4430 H     1 <1>   0.0800 
 22 H       -0.0180     4.2420     0.5550 H     1 <1>   0.0800 
 23 H       -0.2560     3.4540     2.0800 H     1 <1>   0.0800 
 24 H       -3.5020     1.4780    -0.5780 H     1 <1>   0.0800 
 25 H       -3.5290     2.4980    -1.9920 H     1 <1>   0.0800 
 26 H       -3.5880     3.2120    -0.4060 H     1 <1>   0.0800 
 27 H       -2.3630     4.9110     0.4760 H     1 <1>   0.0800 
 28 H       -1.7010     5.3620     2.0190 H     1 <1>   0.0800 
 29 H       -2.7200     3.9500     1.9010 H     1 <1>   0.0800 
 30 H        4.0690     2.1800    -2.7160 H     1 <1>   0.1500 
 31 H        3.5870     2.9900     1.4310 H     1 <1>   0.1500 
 32 H        5.7100     3.9740    -2.7890 H     1 <1>   0.1500 
 33 H        5.2520     4.7530     1.1920 H     1 <1>   0.1500 
@<TRIPOS>BOND
  1   1   2  2   
  2   2   3  am  
  3   2   4  1   
  4   3   5  1   
  5   3  16  1   
  6   4   6  1   
  7   4   7  1   
  8   4  17  1   
  9   5   8  1   
 10   5  18  1   
 11   5  19  1   
 12   6   9  1   
 13   6  20  1   
 14   6  21  1   
 15   7  10  1   
 16   7  22  1   
 17   7  23  1   
 18   8  11  ar  
 19   8  12  ar  
 20   9  24  1   
 21   9  25  1   
 22   9  26  1   
 23  10  27  1   
 24  10  28  1   
 25  10  29  1   
 26  11  13  ar  
 27  11  30  1   
 28  12  14  ar  
 29  12  31  1   
 30  13  15  ar  
 31  13  32  1   
 32  14  15  ar  
 33  14  33  1   
@<TRIPOS>SUBSTRUCTURE
  1 ****   3 GROUP 4 **** **** 0

# MOE 2024.06 (io_trps.svl 2023.06)
