@<TRIPOS>MOLECULE
NONAME
63 64 1 0 0 
SMALL
USER_CHARGES


@<TRIPOS>ATOM
  1 O        7.2270     6.2650     0.5280 O.3   1 <1>  -0.5600 
  2 C        8.1010     7.1870    -0.0430 C.3   1 <1>   0.2000 
  3 C        6.2150     5.7920    -0.3110 C.3   1 <1>   0.1200 
  4 C        9.4180     7.0970     0.7260 C.3   1 <1>  -0.1600 
  5 C        7.5040     8.5930     0.0720 C.3   1 <1>  -0.1600 
  6 C        5.3580     4.8010     0.4880 C.3   1 <1>   0.2000 
  7 C       10.4200     8.1570     0.2450 C.3   1 <1>  -0.1600 
  8 C        8.5000     9.6610    -0.4070 C.3   1 <1>  -0.1600 
  9 O        6.2130     3.9550     1.1960 O.3   1 <1>  -0.6800 
 10 C        4.4140     3.9610    -0.4020 C.3   1 <1>   0.3430 
 11 C        9.8470     9.5910     0.3550 C.3   1 <1>  -0.0800 
 12 N        4.1690     2.6180     0.2190 N.4   1 <1>  -0.9590 
 13 C       10.8640    10.7130    -0.0510 C.3   1 <1>   0.0000 
 14 C        4.4810     1.5180    -0.7300 C.3   1 <1>   0.4230 
 15 C        2.8580     2.4540     0.8990 C.3   1 <1>   0.4230 
 16 C       11.2960    10.6250    -1.5260 C.3   1 <1>  -0.2400 
 17 C       12.1320    10.6350     0.8190 C.3   1 <1>  -0.2400 
 18 C       10.2530    12.1080     0.1810 C.3   1 <1>  -0.2400 
 19 C        3.2130     0.8270    -1.2720 C.3   1 <1>  -0.1600 
 20 C        5.3870     0.5280    -0.0090 C.3   1 <1>  -0.2400 
 21 C        1.7130     2.5150    -0.1290 C.3   1 <1>  -0.1600 
 22 C        2.6840     3.4740     2.0200 C.3   1 <1>  -0.2400 
 23 C        2.0490     1.8100    -1.4580 C.3   1 <1>  -0.1600 
 24 H        8.2740     6.9290    -1.0750 H     1 <1>   0.0800 
 25 H        6.6730     5.3040    -1.1550 H     1 <1>   0.0800 
 26 H        5.6180     6.6200    -0.6510 H     1 <1>   0.0800 
 27 H        9.8440     6.1190     0.5910 H     1 <1>   0.0800 
 28 H        9.2280     7.2450     1.7750 H     1 <1>   0.0800 
 29 H        7.2520     8.7870     1.1010 H     1 <1>   0.0800 
 30 H        6.6100     8.6670    -0.5190 H     1 <1>   0.0800 
 31 H        4.7810     5.3520     1.2100 H     1 <1>   0.0800 
 32 H       10.6830     7.9430    -0.7760 H     1 <1>   0.0800 
 33 H       11.3070     8.0590     0.8430 H     1 <1>   0.0800 
 34 H        8.0390    10.6210    -0.2660 H     1 <1>   0.0800 
 35 H        8.6680     9.5260    -1.4600 H     1 <1>   0.0800 
 36 H        6.9760     4.5150     1.4870 H     1 <1>   0.4000 
 37 H        4.8840     3.8320    -1.3610 H     1 <1>   0.0800 
 38 H        3.4880     4.4870    -0.5610 H     1 <1>   0.0800 
 39 H        9.6180     9.7500     1.3960 H     1 <1>   0.0800 
 40 H        4.9090     2.5830     0.9470 H     1 <1>   0.4500 
 41 H        5.0290     1.9230    -1.5650 H     1 <1>   0.0800 
 42 H        2.8440     1.4720     1.3450 H     1 <1>   0.0800 
 43 H       11.7800     9.6890    -1.7330 H     1 <1>   0.0800 
 44 H       11.9920    11.4120    -1.7570 H     1 <1>   0.0800 
 45 H       10.4540    10.7300    -2.1850 H     1 <1>   0.0800 
 46 H       12.7720    11.4810     0.6360 H     1 <1>   0.0800 
 47 H       12.7040     9.7520     0.6020 H     1 <1>   0.0800 
 48 H       11.8740    10.6300     1.8640 H     1 <1>   0.0800 
 49 H       10.9920    12.8760     0.0320 H     1 <1>   0.0800 
 50 H        9.8780    12.1950     1.1850 H     1 <1>   0.0800 
 51 H        9.4500    12.3040    -0.5050 H     1 <1>   0.0800 
 52 H        2.9060     0.0420    -0.6020 H     1 <1>   0.0800 
 53 H        3.4480     0.3580    -2.2120 H     1 <1>   0.0800 
 54 H        4.8950     0.1020     0.8480 H     1 <1>   0.0800 
 55 H        6.2950     1.0110     0.3040 H     1 <1>   0.0800 
 56 H        5.6520    -0.2720    -0.6760 H     1 <1>   0.0800 
 57 H        1.4330     3.5350    -0.3260 H     1 <1>   0.0800 
 58 H        0.8550     2.0390     0.3140 H     1 <1>   0.0800 
 59 H        2.5770     4.4720     1.6400 H     1 <1>   0.0800 
 60 H        3.5160     3.4310     2.7000 H     1 <1>   0.0800 
 61 H        1.7930     3.2390     2.5760 H     1 <1>   0.0800 
 62 H        1.1790     1.2920    -1.8290 H     1 <1>   0.0800 
 63 H        2.3250     2.5460    -2.1950 H     1 <1>   0.0800 
@<TRIPOS>BOND
  1   1   2  1   
  2   1   3  1   
  3   2   4  1   
  4   2   5  1   
  5   2  24  1   
  6   3   6  1   
  7   3  25  1   
  8   3  26  1   
  9   4   7  1   
 10   4  27  1   
 11   4  28  1   
 12   5   8  1   
 13   5  29  1   
 14   5  30  1   
 15   6   9  1   
 16   6  10  1   
 17   6  31  1   
 18   7  11  1   
 19   7  32  1   
 20   7  33  1   
 21   8  11  1   
 22   8  34  1   
 23   8  35  1   
 24   9  36  1   
 25  10  12  1   
 26  10  37  1   
 27  10  38  1   
 28  11  13  1   
 29  11  39  1   
 30  12  14  1   
 31  12  15  1   
 32  12  40  1   
 33  13  16  1   
 34  13  17  1   
 35  13  18  1   
 36  14  19  1   
 37  14  20  1   
 38  14  41  1   
 39  15  21  1   
 40  15  22  1   
 41  15  42  1   
 42  16  43  1   
 43  16  44  1   
 44  16  45  1   
 45  17  46  1   
 46  17  47  1   
 47  17  48  1   
 48  18  49  1   
 49  18  50  1   
 50  18  51  1   
 51  19  23  1   
 52  19  52  1   
 53  19  53  1   
 54  20  54  1   
 55  20  55  1   
 56  20  56  1   
 57  21  23  1   
 58  21  57  1   
 59  21  58  1   
 60  22  59  1   
 61  22  60  1   
 62  22  61  1   
 63  23  62  1   
 64  23  63  1   
@<TRIPOS>SUBSTRUCTURE
  1 ****   3 GROUP 4 **** **** 0

# MOE 2024.06 (io_trps.svl 2023.06)
