@<TRIPOS>MOLECULE
NONAME
47 49 1 0 0 
SMALL
USER_CHARGES


@<TRIPOS>ATOM
  1 S       -0.5710    -0.1790     0.2690 S.3   1 <1>  -0.4600 
  2 C        0.5750    -1.4070     0.9230 C.3   1 <1>   0.1500 
  3 C        0.6540     1.1070    -0.0130 C.3   1 <1>   0.0700 
  4 C        1.9190    -1.1060     0.2170 C.3   1 <1>   0.2200 
  5 C       -0.0130    -2.8150     0.7210 C.3   1 <1>  -0.1600 
  6 C        1.9680     0.3640    -0.2980 C.3   1 <1>   0.2200 
  7 N        2.1140    -1.8890    -1.0280 N.am  1 <1>  -0.7300 
  8 C       -1.2450    -3.0730     1.6040 C.3   1 <1>  -0.1600 
  9 N        2.1660     0.1970    -1.7540 N.am  1 <1>  -0.7300 
 10 C        2.1290    -1.0930    -2.1010 C.2   1 <1>   0.6900 
 11 C       -1.8110    -4.4770     1.3580 C.3   1 <1>  -0.1600 
 12 O        2.0120    -1.4880    -3.2380 O.2   1 <1>  -0.5700 
 13 C       -3.0700    -4.7290     2.2060 C.3   1 <1>  -0.0990 
 14 C       -3.6780    -6.0940     1.9410 C.2   1 <1>   0.5690 
 15 O       -3.6020    -6.9330     2.8020 O.2   1 <1>  -0.5700 
 16 N       -4.2860    -6.2810     0.7310 N.am  1 <1>  -0.5470 
 17 C       -4.9180    -7.4020     0.1650 C.ar  1 <1>   0.1170 
 18 C       -5.7530    -7.2080    -0.9290 C.ar  1 <1>  -0.1500 
 19 C       -4.7330    -8.6980     0.6390 C.ar  1 <1>  -0.1500 
 20 C       -6.3940    -8.2820    -1.5370 C.ar  1 <1>   0.0820 
 21 C       -5.3680    -9.7700     0.0390 C.ar  1 <1>  -0.1500 
 22 O       -7.2230    -8.1620    -2.6060 O.3   1 <1>  -0.3620 
 23 C       -6.1970    -9.5620    -1.0470 C.ar  1 <1>  -0.1500 
 24 C       -7.5330    -6.9030    -3.1610 C.3   1 <1>   0.0400 
 25 H        0.6710    -1.1850     1.9710 H     1 <1>   0.0800 
 26 H        0.3270     1.7280    -0.8280 H     1 <1>   0.0800 
 27 H        0.7170     1.6760     0.8970 H     1 <1>   0.0800 
 28 H        2.7380    -1.3030     0.8870 H     1 <1>   0.0800 
 29 H       -0.2850    -2.9410    -0.3130 H     1 <1>   0.0800 
 30 H        0.7420    -3.5440     0.9600 H     1 <1>   0.0800 
 31 H        2.8040     0.8970     0.1200 H     1 <1>   0.0800 
 32 H        1.7140    -2.8190    -1.1400 H     1 <1>   0.3700 
 33 H       -0.9750    -2.9700     2.6410 H     1 <1>   0.0800 
 34 H       -2.0070    -2.3440     1.3840 H     1 <1>   0.0800 
 35 H        1.8160     0.8750    -2.4290 H     1 <1>   0.3700 
 36 H       -1.0680    -5.2170     1.6040 H     1 <1>   0.0800 
 37 H       -2.0520    -4.5840     0.3140 H     1 <1>   0.0800 
 38 H       -3.8100    -3.9770     2.0030 H     1 <1>   0.0800 
 39 H       -2.8160    -4.6660     3.2490 H     1 <1>   0.0800 
 40 H       -4.2950    -5.4540     0.1380 H     1 <1>   0.3700 
 41 H       -5.8950    -6.2110    -1.2930 H     1 <1>   0.1500 
 42 H       -4.0890    -8.8810     1.4790 H     1 <1>   0.1500 
 43 H       -5.2160   -10.7660     0.4190 H     1 <1>   0.1500 
 44 H       -6.6950   -10.3890    -1.5210 H     1 <1>   0.1500 
 45 H       -8.2150    -7.0580    -3.9770 H     1 <1>   0.0800 
 46 H       -6.6280    -6.4490    -3.5230 H     1 <1>   0.0800 
 47 H       -7.9980    -6.2940    -2.4070 H     1 <1>   0.0800 
@<TRIPOS>BOND
  1   1   2  1   
  2   1   3  1   
  3   2   4  1   
  4   2   5  1   
  5   2  25  1   
  6   3   6  1   
  7   3  26  1   
  8   3  27  1   
  9   4   6  1   
 10   4   7  1   
 11   4  28  1   
 12   5   8  1   
 13   5  29  1   
 14   5  30  1   
 15   6   9  1   
 16   6  31  1   
 17   7  10  am  
 18   7  32  1   
 19   8  11  1   
 20   8  33  1   
 21   8  34  1   
 22   9  10  am  
 23   9  35  1   
 24  10  12  2   
 25  11  13  1   
 26  11  36  1   
 27  11  37  1   
 28  13  14  1   
 29  13  38  1   
 30  13  39  1   
 31  14  15  2   
 32  14  16  am  
 33  16  17  1   
 34  16  40  1   
 35  17  18  ar  
 36  17  19  ar  
 37  18  20  ar  
 38  18  41  1   
 39  19  21  ar  
 40  19  42  1   
 41  20  22  1   
 42  20  23  ar  
 43  21  23  ar  
 44  21  43  1   
 45  22  24  1   
 46  23  44  1   
 47  24  45  1   
 48  24  46  1   
 49  24  47  1   
@<TRIPOS>SUBSTRUCTURE
  1 ****  11 GROUP 4 **** **** 0

# MOE 2024.06 (io_trps.svl 2023.06)
