@<TRIPOS>MOLECULE
NONAME
37 38 1 0 0 
SMALL
USER_CHARGES


@<TRIPOS>ATOM
  1 CL      -2.6140     1.4260     2.4480 Cl    1 <1>  -0.1770 
  2 C       -1.3450     2.3320     1.6580 C.ar  1 <1>   0.1770 
  3 C       -1.3000     2.3880     0.2730 C.ar  1 <1>  -0.1440 
  4 C       -0.4110     2.9860     2.4390 C.ar  1 <1>  -0.1500 
  5 C       -0.2850     3.1170    -0.3320 C.ar  1 <1>  -0.1500 
  6 C       -2.3410     1.6650    -0.5560 C.3   1 <1>   0.4870 
  7 C        0.5930     3.7140     1.8260 C.ar  1 <1>  -0.1500 
  8 C        0.6550     3.7770     0.4440 C.ar  1 <1>  -0.1500 
  9 N       -3.6480     2.3550    -0.4120 N.4   1 <1>  -0.9590 
 10 C       -4.8010     1.6260    -1.0270 C.3   1 <1>   0.3430 
 11 C       -3.6410     3.8010    -0.8140 C.3   1 <1>   0.3430 
 12 C       -6.1450     2.3160    -0.6820 C.3   1 <1>   0.1100 
 13 C       -5.0120     4.4670    -0.5380 C.3   1 <1>   0.1100 
 14 N       -5.9670     3.5490     0.1300 N.3   1 <1>  -0.8100 
 15 C       -7.2500     4.2330     0.3980 C.3   1 <1>   0.1100 
 16 C       -8.1000     3.4690     1.4220 C.3   1 <1>   0.1200 
 17 O       -9.2670     4.1770     1.6600 O.3   1 <1>  -0.6800 
 18 H       -0.4680     2.9260     3.5120 H     1 <1>   0.1500 
 19 H       -0.2070     3.1790    -1.4050 H     1 <1>   0.1500 
 20 H       -2.4240     0.6470    -0.2090 H     1 <1>   0.0800 
 21 H       -2.0420     1.6500    -1.5910 H     1 <1>   0.0800 
 22 H        1.3290     4.2280     2.4230 H     1 <1>   0.1500 
 23 H        1.4430     4.3420    -0.0270 H     1 <1>   0.1500 
 24 H       -3.8810     2.3870     0.5950 H     1 <1>   0.4500 
 25 H       -4.8300     0.6110    -0.6650 H     1 <1>   0.0800 
 26 H       -4.6870     1.5910    -2.0970 H     1 <1>   0.0800 
 27 H       -3.4050     3.8950    -1.8610 H     1 <1>   0.0800 
 28 H       -2.8840     4.3300    -0.2590 H     1 <1>   0.0800 
 29 H       -6.7540     1.6130    -0.1410 H     1 <1>   0.0800 
 30 H       -6.6630     2.5510    -1.5970 H     1 <1>   0.0800 
 31 H       -5.4290     4.8130    -1.4690 H     1 <1>   0.0800 
 32 H       -4.8520     5.3320     0.0840 H     1 <1>   0.0800 
 33 H       -7.8060     4.3490    -0.5180 H     1 <1>   0.0800 
 34 H       -7.0490     5.2110     0.8020 H     1 <1>   0.0800 
 35 H       -7.5750     3.3560     2.3540 H     1 <1>   0.0800 
 36 H       -8.3860     2.5040     1.0440 H     1 <1>   0.0800 
 37 H       -9.0910     4.9780     2.1920 H     1 <1>   0.4000 
@<TRIPOS>BOND
  1   1   2  1   
  2   2   3  ar  
  3   2   4  ar  
  4   3   5  ar  
  5   3   6  1   
  6   4   7  ar  
  7   4  18  1   
  8   5   8  ar  
  9   5  19  1   
 10   6   9  1   
 11   6  20  1   
 12   6  21  1   
 13   7   8  ar  
 14   7  22  1   
 15   8  23  1   
 16   9  10  1   
 17   9  11  1   
 18   9  24  1   
 19  10  12  1   
 20  10  25  1   
 21  10  26  1   
 22  11  13  1   
 23  11  27  1   
 24  11  28  1   
 25  12  14  1   
 26  12  29  1   
 27  12  30  1   
 28  13  14  1   
 29  13  31  1   
 30  13  32  1   
 31  14  15  1   
 32  15  16  1   
 33  15  33  1   
 34  15  34  1   
 35  16  17  1   
 36  16  35  1   
 37  16  36  1   
 38  17  37  1   
@<TRIPOS>SUBSTRUCTURE
  1 ****   9 GROUP 4 **** **** 0

# MOE 2024.06 (io_trps.svl 2023.06)
