@<TRIPOS>MOLECULE
NONAME
41 43 1 0 0 
SMALL
USER_CHARGES


@<TRIPOS>ATOM
  1 CL      -3.6660    -3.2550    -2.3840 Cl    1 <1>  -0.1770 
  2 C       -2.1790    -3.0620    -1.4770 C.ar  1 <1>   0.1770 
  3 C       -2.2400    -2.6440    -0.1460 C.ar  1 <1>   0.1170 
  4 C       -0.9810    -3.3360    -2.1130 C.ar  1 <1>  -0.1500 
  5 N       -3.4880    -2.3750     0.4410 N.am  1 <1>  -0.5470 
  6 C       -1.0390    -2.5050     0.5440 C.ar  1 <1>  -0.1500 
  7 C        0.2050    -3.1930    -1.4110 C.ar  1 <1>  -0.1500 
  8 C       -3.9110    -2.2980     1.7360 C.2   1 <1>   0.5690 
  9 C        0.1580    -2.7790    -0.0910 C.ar  1 <1>   0.1770 
 10 O       -3.1850    -2.4160     2.6940 O.2   1 <1>  -0.5700 
 11 C       -5.4080    -2.0570     1.9460 C.3   1 <1>   0.1710 
 12 CL       1.6530    -2.5980     0.7900 Cl    1 <1>  -0.1770 
 13 N       -6.2330    -2.3540     0.7350 N.3   1 <1>  -0.8100 
 14 C       -6.4110    -3.8180     0.5500 C.3   1 <1>   0.1100 
 15 C       -7.5660    -1.7150     0.8320 C.3   1 <1>   0.1100 
 16 C       -7.2390    -4.1530    -0.7050 C.3   1 <1>   0.2090 
 17 C       -8.4360    -1.9830    -0.4100 C.3   1 <1>   0.2090 
 18 N       -8.5600    -3.4510    -0.6750 N.pl3 1 <1>  -0.8380 
 19 C       -9.7510    -4.0620    -1.0140 C.ar  1 <1>   0.7200 
 20 N      -10.8400    -3.2930    -1.0590 N.ar  1 <1>  -0.6200 
 21 N       -9.7150    -5.3700    -1.2690 N.ar  1 <1>  -0.6200 
 22 C      -11.9620    -3.8860    -1.3840 C.ar  1 <1>   0.1600 
 23 C      -10.8510    -5.9360    -1.5920 C.ar  1 <1>   0.1600 
 24 C      -12.0240    -5.2270    -1.6650 C.ar  1 <1>  -0.1500 
 25 H       -0.9790    -3.6560    -3.1400 H     1 <1>   0.1500 
 26 H       -4.2870    -2.3200    -0.2050 H     1 <1>   0.3700 
 27 H       -1.0260    -2.1830     1.5680 H     1 <1>   0.1500 
 28 H        1.1540    -3.3980    -1.8750 H     1 <1>   0.1500 
 29 H       -5.5220    -1.0200     2.2080 H     1 <1>   0.0800 
 30 H       -5.7460    -2.6470     2.7790 H     1 <1>   0.0800 
 31 H       -6.9100    -4.2390     1.4070 H     1 <1>   0.0800 
 32 H       -5.4510    -4.2960     0.4600 H     1 <1>   0.0800 
 33 H       -7.4450    -0.6510     0.9400 H     1 <1>   0.0800 
 34 H       -8.0870    -2.0820     1.7000 H     1 <1>   0.0800 
 35 H       -7.3620    -5.2200    -0.7560 H     1 <1>   0.0800 
 36 H       -6.6970    -3.8440    -1.5810 H     1 <1>   0.0800 
 37 H       -7.9880    -1.5100    -1.2660 H     1 <1>   0.0800 
 38 H       -9.3990    -1.5320    -0.2530 H     1 <1>   0.0800 
 39 H      -12.8550    -3.2850    -1.4270 H     1 <1>   0.1500 
 40 H      -10.8460    -6.9920    -1.8030 H     1 <1>   0.1500 
 41 H      -12.9500    -5.7020    -1.9310 H     1 <1>   0.1500 
@<TRIPOS>BOND
  1   1   2  1   
  2   2   3  ar  
  3   2   4  ar  
  4   3   5  1   
  5   3   6  ar  
  6   4   7  ar  
  7   4  25  1   
  8   5   8  am  
  9   5  26  1   
 10   6   9  ar  
 11   6  27  1   
 12   7   9  ar  
 13   7  28  1   
 14   8  10  2   
 15   8  11  1   
 16   9  12  1   
 17  11  13  1   
 18  11  29  1   
 19  11  30  1   
 20  13  14  1   
 21  13  15  1   
 22  14  16  1   
 23  14  31  1   
 24  14  32  1   
 25  15  17  1   
 26  15  33  1   
 27  15  34  1   
 28  16  18  1   
 29  16  35  1   
 30  16  36  1   
 31  17  18  1   
 32  17  37  1   
 33  17  38  1   
 34  18  19  1   
 35  19  20  ar  
 36  19  21  ar  
 37  20  22  ar  
 38  21  23  ar  
 39  22  24  ar  
 40  22  39  1   
 41  23  24  ar  
 42  23  40  1   
 43  24  41  1   
@<TRIPOS>SUBSTRUCTURE
  1 ****  14 GROUP 4 **** **** 0

# MOE 2024.06 (io_trps.svl 2023.06)
