@<TRIPOS>MOLECULE
NONAME
43 45 1 0 0 
SMALL
USER_CHARGES


@<TRIPOS>ATOM
  1 S       -1.8890     0.6520    -2.0970 S.3   1 <1>  -0.0800 
  2 C       -2.0450     0.6350    -0.3450 C.2   1 <1>  -0.1400 
  3 C       -0.2180     1.1630    -1.9880 C.2   1 <1>  -0.1100 
  4 C       -0.8830     0.9900     0.2390 C.2   1 <1>  -0.1810 
  5 C       -3.3930     0.2290     0.2080 C.3   1 <1>   0.5230 
  6 C        0.1530     1.2940    -0.7020 C.2   1 <1>  -0.1500 
  7 C       -0.5820     1.0830     1.7250 C.3   1 <1>  -0.0590 
  8 N       -4.1950     1.4550     0.4620 N.4   1 <1>  -0.9590 
  9 C       -5.4220     1.1610     1.2860 C.3   1 <1>   0.3430 
 10 C       -4.5640     2.1670    -0.8190 C.3   1 <1>   0.3430 
 11 C       -6.2500     2.4270     1.5910 C.3   1 <1>   0.2090 
 12 C       -5.3950     3.4460    -0.5800 C.3   1 <1>   0.2090 
 13 N       -6.5350     3.2050     0.3530 N.pl3 1 <1>  -0.8380 
 14 C       -7.8200     3.1150    -0.1810 C.ar  1 <1>   0.1000 
 15 C       -8.7850     4.0810     0.1100 C.ar  1 <1>  -0.1430 
 16 C       -8.1620     2.0490    -1.0080 C.ar  1 <1>  -0.1500 
 17 C      -10.0580     3.9650    -0.4220 C.ar  1 <1>  -0.1500 
 18 C       -8.4540     5.2680     1.0040 C.3   1 <1>  -0.0970 
 19 C       -9.4340     1.9400    -1.5360 C.ar  1 <1>  -0.1500 
 20 C      -10.3850     2.8990    -1.2430 C.ar  1 <1>  -0.1500 
 21 H        0.3210     1.3120    -2.9080 H     1 <1>   0.1500 
 22 H       -3.2400    -0.3030     1.1330 H     1 <1>   0.0800 
 23 H       -3.8970    -0.4260    -0.4840 H     1 <1>   0.0800 
 24 H        1.1350     1.5940    -0.3730 H     1 <1>   0.1500 
 25 H       -1.4370     0.8170     2.3170 H     1 <1>   0.0800 
 26 H       -0.2840     2.0860     1.9770 H     1 <1>   0.0800 
 27 H        0.2250     0.4160     1.9740 H     1 <1>   0.0800 
 28 H       -3.5900     2.0960     0.9880 H     1 <1>   0.4500 
 29 H       -5.1410     0.6990     2.2170 H     1 <1>   0.0800 
 30 H       -6.0570     0.4720     0.7540 H     1 <1>   0.0800 
 31 H       -5.1380     1.5070    -1.4470 H     1 <1>   0.0800 
 32 H       -3.6720     2.4390    -1.3590 H     1 <1>   0.0800 
 33 H       -5.7200     3.0540     2.2860 H     1 <1>   0.0800 
 34 H       -7.1800     2.1420     2.0550 H     1 <1>   0.0800 
 35 H       -5.7730     3.8070    -1.5210 H     1 <1>   0.0800 
 36 H       -4.7650     4.2150    -0.1700 H     1 <1>   0.0800 
 37 H       -7.4340     1.2990    -1.2410 H     1 <1>   0.1500 
 38 H      -10.8080     4.7050    -0.2030 H     1 <1>   0.1500 
 39 H       -8.2150     4.9240     1.9930 H     1 <1>   0.0800 
 40 H       -9.2830     5.9490     1.0680 H     1 <1>   0.0800 
 41 H       -7.6070     5.7980     0.6070 H     1 <1>   0.0800 
 42 H       -9.6900     1.1130    -2.1760 H     1 <1>   0.1500 
 43 H      -11.3780     2.8200    -1.6510 H     1 <1>   0.1500 
@<TRIPOS>BOND
  1   1   2  1   
  2   1   3  1   
  3   2   4  2   
  4   2   5  1   
  5   3   6  2   
  6   3  21  1   
  7   4   6  1   
  8   4   7  1   
  9   5   8  1   
 10   5  22  1   
 11   5  23  1   
 12   6  24  1   
 13   7  25  1   
 14   7  26  1   
 15   7  27  1   
 16   8   9  1   
 17   8  10  1   
 18   8  28  1   
 19   9  11  1   
 20   9  29  1   
 21   9  30  1   
 22  10  12  1   
 23  10  31  1   
 24  10  32  1   
 25  11  13  1   
 26  11  33  1   
 27  11  34  1   
 28  12  13  1   
 29  12  35  1   
 30  12  36  1   
 31  13  14  1   
 32  14  15  ar  
 33  14  16  ar  
 34  15  17  ar  
 35  15  18  1   
 36  16  19  ar  
 37  16  37  1   
 38  17  20  ar  
 39  17  38  1   
 40  18  39  1   
 41  18  40  1   
 42  18  41  1   
 43  19  20  ar  
 44  19  42  1   
 45  20  43  1   
@<TRIPOS>SUBSTRUCTURE
  1 ****  10 GROUP 4 **** **** 0

# MOE 2024.06 (io_trps.svl 2023.06)
