@<TRIPOS>MOLECULE
NONAME
52 54 1 0 0 
SMALL
USER_CHARGES


@<TRIPOS>ATOM
  1 O       -0.6710     0.8870     0.3390 O.2   1 <1>  -0.5700 
  2 C       -0.8070     2.0930     0.3410 C.2   1 <1>   0.5690 
  3 N       -2.0670     2.6490     0.3140 N.am  1 <1>  -0.6600 
  4 C        0.4610     2.9860     0.3970 C.3   1 <1>   0.2610 
  5 C       -2.3610     4.1150     0.2760 C.3   1 <1>   0.1400 
  6 C       -3.2970     1.8050     0.2390 C.3   1 <1>   0.1400 
  7 O        0.5360     3.8440    -0.7120 O.3   1 <1>  -0.5600 
  8 C        1.7990     2.2460     0.3410 C.3   1 <1>  -0.1600 
  9 C       -3.4290     4.4930     1.3180 C.3   1 <1>   0.1100 
 10 C       -4.3300     2.2450     1.2890 C.3   1 <1>   0.1100 
 11 C        1.1510     3.1860    -1.7750 C.3   1 <1>   0.1200 
 12 C        2.0830     2.1500    -1.1510 C.3   1 <1>  -0.1600 
 13 N       -4.6560     3.6850     1.1650 N.3   1 <1>  -0.8100 
 14 C       -5.6820     4.0860     2.1760 C.3   1 <1>   0.1710 
 15 C       -7.0950     3.5740     1.8790 C.2   1 <1>   0.5690 
 16 O       -7.8810     3.4780     2.7920 O.2   1 <1>  -0.5700 
 17 N       -7.3890     3.2730     0.5870 N.am  1 <1>  -0.7300 
 18 C       -8.6570     2.9040    -0.0680 C.3   1 <1>   0.3640 
 19 C       -9.3710     4.1630    -0.5470 C.ar  1 <1>  -0.1440 
 20 C       -9.5520     2.0300     0.8100 C.3   1 <1>  -0.2400 
 21 C       -9.7810     5.1390     0.3530 C.ar  1 <1>  -0.1500 
 22 C       -9.6210     4.3510    -1.9000 C.ar  1 <1>  -0.1500 
 23 C      -10.4270     6.2800    -0.0900 C.ar  1 <1>  -0.1500 
 24 C      -10.2670     5.4920    -2.3450 C.ar  1 <1>  -0.1500 
 25 C      -10.6700     6.4570    -1.4400 C.ar  1 <1>  -0.1500 
 26 H        0.4110     3.5910     1.2840 H     1 <1>   0.0800 
 27 H       -2.7180     4.3730    -0.7060 H     1 <1>   0.0800 
 28 H       -1.4770     4.6940     0.4650 H     1 <1>   0.0800 
 29 H       -3.0570     0.7680     0.3980 H     1 <1>   0.0800 
 30 H       -3.7270     1.8970    -0.7420 H     1 <1>   0.0800 
 31 H        1.7700     1.2860     0.8240 H     1 <1>   0.0800 
 32 H        2.5490     2.8520     0.8190 H     1 <1>   0.0800 
 33 H       -3.6710     5.5350     1.1970 H     1 <1>   0.0800 
 34 H       -3.0190     4.3560     2.3040 H     1 <1>   0.0800 
 35 H       -3.9370     2.0380     2.2700 H     1 <1>   0.0800 
 36 H       -5.2210     1.6570     1.1600 H     1 <1>   0.0800 
 37 H        1.6820     3.9110    -2.3670 H     1 <1>   0.0800 
 38 H        0.3840     2.7140    -2.3660 H     1 <1>   0.0800 
 39 H        1.8360     1.1720    -1.5260 H     1 <1>   0.0800 
 40 H        3.1130     2.3640    -1.3740 H     1 <1>   0.0800 
 41 H       -5.7440     5.1580     2.2090 H     1 <1>   0.0800 
 42 H       -5.3890     3.7440     3.1520 H     1 <1>   0.0800 
 43 H       -6.6210     3.4630    -0.0620 H     1 <1>   0.3700 
 44 H       -8.4000     2.3140    -0.9320 H     1 <1>   0.0800 
 45 H       -9.9400     2.5870     1.6430 H     1 <1>   0.0800 
 46 H       -9.0010     1.1820     1.1740 H     1 <1>   0.0800 
 47 H      -10.3860     1.6780     0.2320 H     1 <1>   0.0800 
 48 H       -9.5950     5.0100     1.4060 H     1 <1>   0.1500 
 49 H       -9.3150     3.6110    -2.6180 H     1 <1>   0.1500 
 50 H      -10.7390     7.0270     0.6180 H     1 <1>   0.1500 
 51 H      -10.4570     5.6290    -3.3950 H     1 <1>   0.1500 
 52 H      -11.1730     7.3440    -1.7840 H     1 <1>   0.1500 
@<TRIPOS>BOND
  1   1   2  2   
  2   2   3  am  
  3   2   4  1   
  4   3   5  1   
  5   3   6  1   
  6   4   7  1   
  7   4   8  1   
  8   4  26  1   
  9   5   9  1   
 10   5  27  1   
 11   5  28  1   
 12   6  10  1   
 13   6  29  1   
 14   6  30  1   
 15   7  11  1   
 16   8  12  1   
 17   8  31  1   
 18   8  32  1   
 19   9  13  1   
 20   9  33  1   
 21   9  34  1   
 22  10  13  1   
 23  10  35  1   
 24  10  36  1   
 25  11  12  1   
 26  11  37  1   
 27  11  38  1   
 28  12  39  1   
 29  12  40  1   
 30  13  14  1   
 31  14  15  1   
 32  14  41  1   
 33  14  42  1   
 34  15  16  2   
 35  15  17  am  
 36  17  18  1   
 37  17  43  1   
 38  18  19  1   
 39  18  20  1   
 40  18  44  1   
 41  19  21  ar  
 42  19  22  ar  
 43  20  45  1   
 44  20  46  1   
 45  20  47  1   
 46  21  23  ar  
 47  21  48  1   
 48  22  24  ar  
 49  22  49  1   
 50  23  25  ar  
 51  23  50  1   
 52  24  25  ar  
 53  24  51  1   
 54  25  52  1   
@<TRIPOS>SUBSTRUCTURE
  1 ****  13 GROUP 4 **** **** 0

# MOE 2024.06 (io_trps.svl 2023.06)
