@<TRIPOS>MOLECULE
NONAME
54 56 1 0 0 
SMALL
USER_CHARGES


@<TRIPOS>ATOM
  1 O       -0.7540     1.8220    -2.9740 O.2   1 <1>  -0.5700 
  2 C       -0.8490     2.1510    -1.8160 C.2   1 <1>   0.5690 
  3 N       -1.5630     1.4510    -0.8820 N.am  1 <1>  -0.5470 
  4 C       -0.1220     3.4190    -1.3500 C.3   1 <1>   0.1710 
  5 C       -2.2370     0.2180    -0.9180 C.ar  1 <1>   0.1170 
  6 N        1.2660     3.1980    -0.8400 N.3   1 <1>  -0.8100 
  7 C       -2.5690    -0.3780     0.3030 C.ar  1 <1>   0.0830 
  8 C       -2.5930    -0.4220    -2.0990 C.ar  1 <1>  -0.1500 
  9 C        1.9880     4.4630    -0.5860 C.3   1 <1>   0.1100 
 10 C        1.3430     2.2840     0.3310 C.3   1 <1>   0.1100 
 11 O       -2.2030     0.2870     1.4430 O.3   1 <1>  -0.3630 
 12 C       -3.2410    -1.5970     0.3220 C.ar  1 <1>  -0.1500 
 13 C       -3.2620    -1.6330    -2.0740 C.ar  1 <1>  -0.1500 
 14 C        3.4840     4.2160    -0.2630 C.3   1 <1>   0.3430 
 15 C        2.7880     2.1270     0.8670 C.3   1 <1>   0.3430 
 16 C       -2.6130    -0.1750     2.7130 C.3   1 <1>   0.0400 
 17 C       -3.5860    -2.2210    -0.8650 C.ar  1 <1>  -0.1500 
 18 N        3.7700     2.7560    -0.0770 N.4   1 <1>  -0.9590 
 19 C        5.1930     2.4420     0.2160 C.3   1 <1>   0.4860 
 20 C        5.3560     0.9380     0.3140 C.ar  1 <1>  -0.1430 
 21 C        5.2020     0.1360    -0.8080 C.ar  1 <1>  -0.1500 
 22 C        5.6460     0.3490     1.5360 C.ar  1 <1>  -0.1500 
 23 C        5.3220    -1.2380    -0.7030 C.ar  1 <1>  -0.1500 
 24 C        5.7680    -1.0250     1.6360 C.ar  1 <1>  -0.1500 
 25 C        5.6020    -1.8260     0.5190 C.ar  1 <1>  -0.1430 
 26 C        5.7340    -3.3340     0.6280 C.3   1 <1>  -0.0970 
 27 H       -1.5540     1.8270     0.0650 H     1 <1>   0.3700 
 28 H       -0.7140     3.9020    -0.5950 H     1 <1>   0.0800 
 29 H       -0.0760     4.0800    -2.1980 H     1 <1>   0.0800 
 30 H       -2.3550     0.0200    -3.0490 H     1 <1>   0.1500 
 31 H        1.5270     4.9880     0.2340 H     1 <1>   0.0800 
 32 H        1.9240     5.0980    -1.4540 H     1 <1>   0.0800 
 33 H        0.9890     1.3080     0.0430 H     1 <1>   0.0800 
 34 H        0.7090     2.6390     1.1250 H     1 <1>   0.0800 
 35 H       -3.5060    -2.0810     1.2420 H     1 <1>   0.1500 
 36 H       -3.5300    -2.1160    -2.9980 H     1 <1>   0.1500 
 37 H        3.7490     4.7650     0.6260 H     1 <1>   0.0800 
 38 H        4.0800     4.6000    -1.0750 H     1 <1>   0.0800 
 39 H        2.9990     1.0760     0.9850 H     1 <1>   0.0800 
 40 H        2.8630     2.5880     1.8380 H     1 <1>   0.0800 
 41 H       -2.2650     0.5210     3.4550 H     1 <1>   0.0800 
 42 H       -2.1800    -1.1440     2.8910 H     1 <1>   0.0800 
 43 H       -3.6880    -0.2250     2.7370 H     1 <1>   0.0800 
 44 H       -4.1050    -3.1630    -0.8490 H     1 <1>   0.1500 
 45 H        3.5200     2.3250    -0.9800 H     1 <1>   0.4500 
 46 H        5.4900     2.9000     1.1440 H     1 <1>   0.0800 
 47 H        5.8260     2.8190    -0.5710 H     1 <1>   0.0800 
 48 H        4.9870     0.5620    -1.7730 H     1 <1>   0.1500 
 49 H        5.7820     0.9460     2.4220 H     1 <1>   0.1500 
 50 H        5.1990    -1.8530    -1.5780 H     1 <1>   0.1500 
 51 H        5.9960    -1.4730     2.5890 H     1 <1>   0.1500 
 52 H        6.7450    -3.6280     0.4090 H     1 <1>   0.0800 
 53 H        5.0730    -3.8210    -0.0660 H     1 <1>   0.0800 
 54 H        5.4850    -3.6660     1.6200 H     1 <1>   0.0800 
@<TRIPOS>BOND
  1   1   2  2   
  2   2   3  am  
  3   2   4  1   
  4   3   5  1   
  5   3  27  1   
  6   4   6  1   
  7   4  28  1   
  8   4  29  1   
  9   5   7  ar  
 10   5   8  ar  
 11   6   9  1   
 12   6  10  1   
 13   7  11  1   
 14   7  12  ar  
 15   8  13  ar  
 16   8  30  1   
 17   9  14  1   
 18   9  31  1   
 19   9  32  1   
 20  10  15  1   
 21  10  33  1   
 22  10  34  1   
 23  11  16  1   
 24  12  17  ar  
 25  12  35  1   
 26  13  17  ar  
 27  13  36  1   
 28  14  18  1   
 29  14  37  1   
 30  14  38  1   
 31  15  18  1   
 32  15  39  1   
 33  15  40  1   
 34  16  41  1   
 35  16  42  1   
 36  16  43  1   
 37  17  44  1   
 38  18  19  1   
 39  18  45  1   
 40  19  20  1   
 41  19  46  1   
 42  19  47  1   
 43  20  21  ar  
 44  20  22  ar  
 45  21  23  ar  
 46  21  48  1   
 47  22  24  ar  
 48  22  49  1   
 49  23  25  ar  
 50  23  50  1   
 51  24  25  ar  
 52  24  51  1   
 53  25  26  1   
 54  26  52  1   
 55  26  53  1   
 56  26  54  1   
@<TRIPOS>SUBSTRUCTURE
  1 ****  10 GROUP 4 **** **** 0

# MOE 2024.06 (io_trps.svl 2023.06)
