@<TRIPOS>MOLECULE
NONAME
45 46 1 0 0 
SMALL
USER_CHARGES


@<TRIPOS>ATOM
  1 S        0.4440     0.1080     1.0360 S.o2  1 <1>   1.4470 
  2 O        0.2710     0.6280     2.3770 O.2   1 <1>  -0.6500 
  3 O       -0.2210    -1.1200     0.6580 O.2   1 <1>  -0.6500 
  4 N       -0.0750     1.3170    -0.0330 N.am  1 <1>  -0.8490 
  5 C        2.2080    -0.0450     0.6470 C.ar  1 <1>  -0.0090 
  6 C        0.4190     2.6420     0.3560 C.3   1 <1>   0.1960 
  7 C       -1.5360     1.3200    -0.1600 C.3   1 <1>   0.1960 
  8 C        2.6290    -0.2650    -0.6590 C.ar  1 <1>  -0.1500 
  9 C        3.1790     0.0520     1.6370 C.ar  1 <1>  -0.1500 
 10 C        0.0610     3.6770    -0.7150 C.3   1 <1>  -0.1600 
 11 C       -1.9750     2.3150    -1.2410 C.3   1 <1>  -0.1600 
 12 C        3.9710    -0.3820    -0.9760 C.ar  1 <1>  -0.1500 
 13 C        4.5230    -0.0630     1.3330 C.ar  1 <1>  -0.1500 
 14 C       -1.4520     3.7270    -0.9540 C.3   1 <1>  -0.1600 
 15 C        4.9290    -0.2810     0.0270 C.ar  1 <1>   0.0820 
 16 O        6.2600    -0.3850    -0.1870 O.3   1 <1>  -0.3630 
 17 C        6.7820    -0.6460    -1.4850 C.3   1 <1>   0.1810 
 18 C        8.3020    -0.7460    -1.4580 C.2   1 <1>   0.5690 
 19 O        8.8870    -0.9430    -2.4960 O.2   1 <1>  -0.5700 
 20 N        8.9600    -0.6140    -0.2790 N.am  1 <1>  -0.7300 
 21 C       10.4140    -0.6590    -0.1010 C.3   1 <1>   0.2780 
 22 C       10.7700     0.3680     0.9520 C.2   1 <1>  -0.2880 
 23 C       11.3080     0.1010     2.1470 C.2   1 <1>  -0.3000 
 24 H        1.4900     2.6140     0.4690 H     1 <1>   0.0800 
 25 H       -0.0110     2.9340     1.3010 H     1 <1>   0.0800 
 26 H       -1.9840     1.5770     0.7860 H     1 <1>   0.0800 
 27 H       -1.8810     0.3380    -0.4390 H     1 <1>   0.0800 
 28 H        1.8880    -0.3440    -1.4380 H     1 <1>   0.1500 
 29 H        2.8790     0.2190     2.6590 H     1 <1>   0.1500 
 30 H        0.5670     3.4200    -1.6300 H     1 <1>   0.0800 
 31 H        0.4100     4.6460    -0.4070 H     1 <1>   0.0800 
 32 H       -3.0490     2.3300    -1.2950 H     1 <1>   0.0800 
 33 H       -1.6040     1.9750    -2.1920 H     1 <1>   0.0800 
 34 H        4.2420    -0.5520    -2.0010 H     1 <1>   0.1500 
 35 H        5.2640     0.0140     2.1080 H     1 <1>   0.1500 
 36 H       -1.6750     4.3780    -1.7820 H     1 <1>   0.0800 
 37 H       -1.9410     4.1180    -0.0780 H     1 <1>   0.0800 
 38 H        6.4920     0.1570    -2.1370 H     1 <1>   0.0800 
 39 H        6.3740    -1.5750    -1.8370 H     1 <1>   0.0800 
 40 H        8.4150    -0.4460     0.5700 H     1 <1>   0.3700 
 41 H       10.9130    -0.4360    -1.0290 H     1 <1>   0.0800 
 42 H       10.7030    -1.6460     0.2200 H     1 <1>   0.0800 
 43 H       10.5390     1.3690     0.6300 H     1 <1>   0.1500 
 44 H       11.5510     0.8550     2.8760 H     1 <1>   0.1500 
 45 H       11.5500    -0.8880     2.4980 H     1 <1>   0.1500 
@<TRIPOS>BOND
  1   1   2  2   
  2   1   3  2   
  3   1   4  am  
  4   1   5  1   
  5   4   6  1   
  6   4   7  1   
  7   5   8  ar  
  8   5   9  ar  
  9   6  10  1   
 10   6  24  1   
 11   6  25  1   
 12   7  11  1   
 13   7  26  1   
 14   7  27  1   
 15   8  12  ar  
 16   8  28  1   
 17   9  13  ar  
 18   9  29  1   
 19  10  14  1   
 20  10  30  1   
 21  10  31  1   
 22  11  14  1   
 23  11  32  1   
 24  11  33  1   
 25  12  15  ar  
 26  12  34  1   
 27  13  15  ar  
 28  13  35  1   
 29  14  36  1   
 30  14  37  1   
 31  15  16  1   
 32  16  17  1   
 33  17  18  1   
 34  17  38  1   
 35  17  39  1   
 36  18  19  2   
 37  18  20  am  
 38  20  21  1   
 39  20  40  1   
 40  21  22  1   
 41  21  41  1   
 42  21  42  1   
 43  22  23  2   
 44  22  43  1   
 45  23  44  1   
 46  23  45  1   
@<TRIPOS>SUBSTRUCTURE
  1 ****  15 GROUP 4 **** **** 0

# MOE 2024.06 (io_trps.svl 2023.06)
