@<TRIPOS>MOLECULE
NONAME
36 37 1 0 0 
SMALL
USER_CHARGES


@<TRIPOS>ATOM
  1 CL      -1.3540     1.2670     1.7840 Cl    1 <1>  -0.1770 
  2 C       -0.7080     2.2690     0.5070 C.ar  1 <1>   0.1770 
  3 C       -1.4080     2.4210    -0.6880 C.ar  1 <1>   0.0860 
  4 C        0.5040     2.8960     0.7310 C.ar  1 <1>  -0.1500 
  5 C       -2.6800     1.7780    -0.9200 C.2   1 <1>   0.5440 
  6 C       -0.8280     3.2270    -1.6660 C.ar  1 <1>  -0.1500 
  7 C        1.0570     3.7010    -0.2510 C.ar  1 <1>  -0.1430 
  8 O       -2.7350     0.8260    -1.6750 O.2   1 <1>  -0.5700 
  9 N       -3.8370     2.2430    -0.3340 N.am  1 <1>  -0.6600 
 10 C        0.3840     3.8590    -1.4520 C.ar  1 <1>  -0.1500 
 11 C        2.3880     4.3960    -0.0250 C.3   1 <1>  -0.0970 
 12 C       -3.8790     3.4740     0.5130 C.3   1 <1>   0.1400 
 13 C       -5.1660     1.6090    -0.5870 C.3   1 <1>   0.1400 
 14 C       -5.3160     3.8560     0.9210 C.3   1 <1>   0.2000 
 15 C       -6.2570     2.6580    -0.9190 C.3   1 <1>   0.2000 
 16 O       -6.1400     3.8630    -0.2050 O.3   1 <1>  -0.5600 
 17 C       -5.3900     5.2500     1.5380 C.3   1 <1>  -0.2400 
 18 C       -7.6640     2.1210    -0.6640 C.3   1 <1>  -0.2400 
 19 H        1.0060     2.7470     1.6700 H     1 <1>   0.1500 
 20 H       -1.3410     3.3510    -2.6050 H     1 <1>   0.1500 
 21 H        0.8050     4.4760    -2.2280 H     1 <1>   0.1500 
 22 H        3.1730     3.8470    -0.5130 H     1 <1>   0.0800 
 23 H        2.6130     4.4590     1.0250 H     1 <1>   0.0800 
 24 H        2.3600     5.3930    -0.4260 H     1 <1>   0.0800 
 25 H       -3.4440     4.2920    -0.0360 H     1 <1>   0.0800 
 26 H       -3.2940     3.3190     1.4020 H     1 <1>   0.0800 
 27 H       -5.4530     1.0590     0.2910 H     1 <1>   0.0800 
 28 H       -5.1060     0.9030    -1.3970 H     1 <1>   0.0800 
 29 H       -5.7070     3.1350     1.6200 H     1 <1>   0.0800 
 30 H       -6.1680     2.9160    -1.9610 H     1 <1>   0.0800 
 31 H       -5.0430     5.9870     0.8370 H     1 <1>   0.0800 
 32 H       -4.7810     5.2960     2.4220 H     1 <1>   0.0800 
 33 H       -6.4060     5.4720     1.8120 H     1 <1>   0.0800 
 34 H       -7.7930     1.8850     0.3770 H     1 <1>   0.0800 
 35 H       -7.8280     1.2310    -1.2440 H     1 <1>   0.0800 
 36 H       -8.3920     2.8570    -0.9550 H     1 <1>   0.0800 
@<TRIPOS>BOND
  1   1   2  1   
  2   2   3  ar  
  3   2   4  ar  
  4   3   5  1   
  5   3   6  ar  
  6   4   7  ar  
  7   4  19  1   
  8   5   8  2   
  9   5   9  am  
 10   6  10  ar  
 11   6  20  1   
 12   7  10  ar  
 13   7  11  1   
 14   9  12  1   
 15   9  13  1   
 16  10  21  1   
 17  11  22  1   
 18  11  23  1   
 19  11  24  1   
 20  12  14  1   
 21  12  25  1   
 22  12  26  1   
 23  13  15  1   
 24  13  27  1   
 25  13  28  1   
 26  14  16  1   
 27  14  17  1   
 28  14  29  1   
 29  15  16  1   
 30  15  18  1   
 31  15  30  1   
 32  17  31  1   
 33  17  32  1   
 34  17  33  1   
 35  18  34  1   
 36  18  35  1   
 37  18  36  1   
@<TRIPOS>SUBSTRUCTURE
  1 ****   9 GROUP 4 **** **** 0

# MOE 2024.06 (io_trps.svl 2023.06)
