@<TRIPOS>MOLECULE
NONAME
48 50 1 0 0 
SMALL
USER_CHARGES


@<TRIPOS>ATOM
  1 O       -3.8180     0.4690     2.0000 O.2   1 <1>  -0.5700 
  2 C       -3.1740     0.6460     0.9810 C.2   1 <1>   0.5440 
  3 N       -2.6160    -0.4440     0.3480 N.am  1 <1>  -0.6600 
  4 C       -2.9940     1.9870     0.4710 C.ar  1 <1>   0.0860 
  5 C       -2.2430    -0.4420    -1.1000 C.3   1 <1>   0.1400 
  6 C       -2.5640    -1.7970     0.9770 C.3   1 <1>   0.1400 
  7 C       -4.0770     2.7560     0.0200 C.ar  1 <1>   0.1170 
  8 C       -1.7190     2.5530     0.4270 C.ar  1 <1>  -0.1500 
  9 C       -2.9580    -1.5770    -1.8540 C.3   1 <1>   0.1200 
 10 C       -3.2790    -2.8330     0.0960 C.3   1 <1>   0.1200 
 11 N       -5.3780     2.2500     0.0110 N.am  1 <1>  -0.5470 
 12 C       -3.8620     4.0510    -0.4380 C.ar  1 <1>  -0.1500 
 13 C       -1.5150     3.8380    -0.0350 C.ar  1 <1>  -0.1500 
 14 O       -2.7690    -2.8050    -1.2070 O.3   1 <1>  -0.5600 
 15 C       -5.8610     1.2460    -0.7770 C.2   1 <1>   0.5690 
 16 C       -2.5920     4.5920    -0.4680 C.ar  1 <1>  -0.1500 
 17 O       -5.2490     0.8190    -1.7270 O.2   1 <1>  -0.5700 
 18 C       -7.2120     0.6340    -0.4360 C.3   1 <1>   0.1810 
 19 O       -7.9670     1.4950     0.4060 O.3   1 <1>  -0.3630 
 20 C       -9.1960     1.1350     0.8510 C.ar  1 <1>   0.0820 
 21 C       -9.8160    -0.0700     0.5270 C.ar  1 <1>  -0.1500 
 22 C       -9.8490     2.0380     1.6740 C.ar  1 <1>  -0.1500 
 23 C      -11.0750    -0.3650     1.0260 C.ar  1 <1>  -0.1430 
 24 C      -11.1060     1.7480     2.1710 C.ar  1 <1>  -0.1500 
 25 C      -11.7170     0.5490     1.8470 C.ar  1 <1>  -0.1500 
 26 C      -11.7590    -1.6750     0.6780 C.3   1 <1>  -0.0970 
 27 H       -1.1800    -0.5720    -1.1920 H     1 <1>   0.0800 
 28 H       -2.5080     0.4940    -1.5600 H     1 <1>   0.0800 
 29 H       -3.0200    -1.7830     1.9510 H     1 <1>   0.0800 
 30 H       -1.5360    -2.0880     1.0990 H     1 <1>   0.0800 
 31 H       -0.8820     1.9690     0.7690 H     1 <1>   0.1500 
 32 H       -2.5650    -1.6650    -2.8500 H     1 <1>   0.0800 
 33 H       -4.0140    -1.3830    -1.9190 H     1 <1>   0.0800 
 34 H       -4.3360    -2.6320     0.0610 H     1 <1>   0.0800 
 35 H       -3.1260    -3.8220     0.4890 H     1 <1>   0.0800 
 36 H       -5.9900     2.5220     0.7850 H     1 <1>   0.3700 
 37 H       -4.7000     4.6310    -0.7800 H     1 <1>   0.1500 
 38 H       -0.5220     4.2560    -0.0590 H     1 <1>   0.1500 
 39 H       -2.4380     5.5950    -0.8280 H     1 <1>   0.1500 
 40 H       -7.0550    -0.2950     0.0800 H     1 <1>   0.0800 
 41 H       -7.7670     0.4690    -1.3410 H     1 <1>   0.0800 
 42 H       -9.3370    -0.7870    -0.1100 H     1 <1>   0.1500 
 43 H       -9.3700     2.9670     1.9230 H     1 <1>   0.1500 
 44 H      -11.6100     2.4520     2.8100 H     1 <1>   0.1500 
 45 H      -12.6950     0.3300     2.2370 H     1 <1>   0.1500 
 46 H      -11.0480    -2.3940     0.3140 H     1 <1>   0.0800 
 47 H      -12.5020    -1.5070    -0.0810 H     1 <1>   0.0800 
 48 H      -12.2390    -2.0850     1.5490 H     1 <1>   0.0800 
@<TRIPOS>BOND
  1   1   2  2   
  2   2   3  am  
  3   2   4  1   
  4   3   5  1   
  5   3   6  1   
  6   4   7  ar  
  7   4   8  ar  
  8   5   9  1   
  9   5  27  1   
 10   5  28  1   
 11   6  10  1   
 12   6  29  1   
 13   6  30  1   
 14   7  11  1   
 15   7  12  ar  
 16   8  13  ar  
 17   8  31  1   
 18   9  14  1   
 19   9  32  1   
 20   9  33  1   
 21  10  14  1   
 22  10  34  1   
 23  10  35  1   
 24  11  15  am  
 25  11  36  1   
 26  12  16  ar  
 27  12  37  1   
 28  13  16  ar  
 29  13  38  1   
 30  15  17  2   
 31  15  18  1   
 32  16  39  1   
 33  18  19  1   
 34  18  40  1   
 35  18  41  1   
 36  19  20  1   
 37  20  21  ar  
 38  20  22  ar  
 39  21  23  ar  
 40  21  42  1   
 41  22  24  ar  
 42  22  43  1   
 43  23  25  ar  
 44  23  26  1   
 45  24  25  ar  
 46  24  44  1   
 47  25  45  1   
 48  26  46  1   
 49  26  47  1   
 50  26  48  1   
@<TRIPOS>SUBSTRUCTURE
  1 ****  15 GROUP 4 **** **** 0

# MOE 2024.06 (io_trps.svl 2023.06)
