@<TRIPOS>MOLECULE
NONAME
47 48 1 0 0 
SMALL
USER_CHARGES


@<TRIPOS>ATOM
  1 S       -0.1110    -0.0350    -0.5420 S.o2  1 <1>   1.4470 
  2 O       -0.3550     0.9110     0.5220 O.2   1 <1>  -0.6500 
  3 O       -0.2720     0.3760    -1.9180 O.2   1 <1>  -0.6500 
  4 N       -1.2640    -1.2140    -0.2370 N.am  1 <1>  -0.9140 
  5 C        1.4890    -0.8800    -0.3230 C.ar  1 <1>  -0.0090 
  6 C       -2.5610    -0.9020    -0.8430 C.3   1 <1>   0.1960 
  7 C        2.6630    -0.1930    -0.0100 C.ar  1 <1>  -0.1430 
  8 C        1.5760    -2.2580    -0.4950 C.ar  1 <1>  -0.1500 
  9 C       -3.6330    -1.9170    -0.4180 C.3   1 <1>   0.2000 
 10 C        3.8530    -0.8830     0.1490 C.ar  1 <1>  -0.1500 
 11 C        2.6770     1.3220     0.1610 C.3   1 <1>  -0.0960 
 12 C        2.7580    -2.9670    -0.3430 C.ar  1 <1>  -0.1430 
 13 O       -4.8670    -1.5230    -0.9170 O.3   1 <1>  -0.5600 
 14 C       -3.8590    -2.0200     1.0850 C.3   1 <1>  -0.1600 
 15 C        3.9160    -2.2640    -0.0090 C.ar  1 <1>   0.0830 
 16 C        2.7120    -4.4870    -0.5570 C.3   1 <1>   0.0630 
 17 C       -5.8970    -2.1070    -0.1840 C.3   1 <1>   0.1200 
 18 C       -5.3090    -2.4670     1.1780 C.3   1 <1>  -0.1600 
 19 O        5.0770    -2.9520     0.1490 O.3   1 <1>  -0.3630 
 20 C        3.0660    -5.2620     0.7170 C.3   1 <1>  -0.2400 
 21 C        3.5790    -4.9290    -1.7420 C.3   1 <1>  -0.2400 
 22 C        6.2950    -2.3230     0.4760 C.3   1 <1>   0.0400 
 23 H       -1.3910    -1.1390     0.7700 H     1 <1>   0.4200 
 24 H       -2.4720    -0.9230    -1.9160 H     1 <1>   0.0800 
 25 H       -2.8730     0.0860    -0.5430 H     1 <1>   0.0800 
 26 H        0.6820    -2.7940    -0.7630 H     1 <1>   0.1500 
 27 H       -3.4120    -2.8850    -0.8370 H     1 <1>   0.0800 
 28 H        4.7360    -0.3270     0.3980 H     1 <1>   0.1500 
 29 H        2.1920     1.8010    -0.6710 H     1 <1>   0.0800 
 30 H        3.6820     1.6980     0.2160 H     1 <1>   0.0800 
 31 H        2.1660     1.5960     1.0670 H     1 <1>   0.0800 
 32 H       -3.7430    -1.0510     1.5390 H     1 <1>   0.0800 
 33 H       -3.1820    -2.7170     1.5460 H     1 <1>   0.0800 
 34 H        1.7000    -4.7590    -0.8050 H     1 <1>   0.0800 
 35 H       -6.2330    -2.9830    -0.7120 H     1 <1>   0.0800 
 36 H       -6.7010    -1.3950    -0.1040 H     1 <1>   0.0800 
 37 H       -5.8310    -1.9660     1.9740 H     1 <1>   0.0800 
 38 H       -5.3760    -3.5300     1.3290 H     1 <1>   0.0800 
 39 H        4.0970    -5.1180     0.9830 H     1 <1>   0.0800 
 40 H        2.8970    -6.3140     0.5710 H     1 <1>   0.0800 
 41 H        2.4520    -4.9250     1.5330 H     1 <1>   0.0800 
 42 H        4.6220    -4.7750    -1.5370 H     1 <1>   0.0800 
 43 H        3.3150    -4.3640    -2.6180 H     1 <1>   0.0800 
 44 H        3.4240    -5.9730    -1.9460 H     1 <1>   0.0800 
 45 H        7.0540    -3.0820     0.5400 H     1 <1>   0.0800 
 46 H        6.1900    -1.8300     1.4260 H     1 <1>   0.0800 
 47 H        6.5450    -1.6220    -0.3000 H     1 <1>   0.0800 
@<TRIPOS>BOND
  1   1   2  2   
  2   1   3  2   
  3   1   4  am  
  4   1   5  1   
  5   4   6  1   
  6   4  23  1   
  7   5   7  ar  
  8   5   8  ar  
  9   6   9  1   
 10   6  24  1   
 11   6  25  1   
 12   7  10  ar  
 13   7  11  1   
 14   8  12  ar  
 15   8  26  1   
 16   9  13  1   
 17   9  14  1   
 18   9  27  1   
 19  10  15  ar  
 20  10  28  1   
 21  11  29  1   
 22  11  30  1   
 23  11  31  1   
 24  12  15  ar  
 25  12  16  1   
 26  13  17  1   
 27  14  18  1   
 28  14  32  1   
 29  14  33  1   
 30  15  19  1   
 31  16  20  1   
 32  16  21  1   
 33  16  34  1   
 34  17  18  1   
 35  17  35  1   
 36  17  36  1   
 37  18  37  1   
 38  18  38  1   
 39  19  22  1   
 40  20  39  1   
 41  20  40  1   
 42  20  41  1   
 43  21  42  1   
 44  21  43  1   
 45  21  44  1   
 46  22  45  1   
 47  22  46  1   
 48  22  47  1   
@<TRIPOS>SUBSTRUCTURE
  1 ****   8 GROUP 4 **** **** 0

# MOE 2024.06 (io_trps.svl 2023.06)
