@<TRIPOS>MOLECULE
NONAME
50 51 1 0 0 
SMALL
USER_CHARGES


@<TRIPOS>ATOM
  1 O       -3.5590     3.6780     2.0390 O.2   1 <1>  -0.5700 
  2 C       -3.9200     3.9820     0.9320 C.2   1 <1>   0.6590 
  3 O       -5.1960     4.0530     0.5890 O.3   1 <1>  -0.4300 
  4 C       -2.9210     4.3150    -0.1610 C.3   1 <1>  -0.0190 
  5 C       -6.2260     3.7830     1.5130 C.3   1 <1>   0.1200 
  6 C       -1.5670     3.6550     0.1660 C.3   1 <1>   0.3430 
  7 C       -2.7920     5.8370    -0.3690 C.3   1 <1>  -0.1600 
  8 C       -7.5610     3.9600     0.7960 C.3   1 <1>  -0.2400 
  9 N       -0.3860     4.5000    -0.2300 N.4   1 <1>  -0.9590 
 10 C       -1.7460     6.1640    -1.4530 C.3   1 <1>  -0.1600 
 11 C       -0.6030     5.1440    -1.5580 C.3   1 <1>   0.3430 
 12 C        0.8610     3.6780    -0.1780 C.3   1 <1>   0.3430 
 13 C        2.1220     4.5460    -0.1490 C.3   1 <1>  -0.0990 
 14 C        3.3340     3.6440    -0.1110 C.2   1 <1>   0.5690 
 15 O        3.2110     2.5230    -0.5350 O.2   1 <1>  -0.5700 
 16 N        4.4980     4.1360     0.4010 N.am  1 <1>  -0.5470 
 17 C        5.7100     3.4560     0.5780 C.ar  1 <1>   0.1170 
 18 C        6.4770     2.9790    -0.4890 C.ar  1 <1>  -0.1440 
 19 C        6.1750     3.2750     1.8760 C.ar  1 <1>  -0.1500 
 20 C        7.6730     2.3270    -0.2340 C.ar  1 <1>  -0.1500 
 21 C        6.0430     3.1560    -1.9390 C.3   1 <1>  -0.0970 
 22 C        7.3710     2.6270     2.1210 C.ar  1 <1>  -0.1500 
 23 C        8.1210     2.1500     1.0630 C.ar  1 <1>  -0.1500 
 24 H       -3.2920     3.8740    -1.0690 H     1 <1>   0.0800 
 25 H       -6.1370     4.4710     2.3370 H     1 <1>   0.0800 
 26 H       -6.1110     2.7740     1.8710 H     1 <1>   0.0800 
 27 H       -1.5220     2.7020    -0.3350 H     1 <1>   0.0800 
 28 H       -1.5050     3.4620     1.2260 H     1 <1>   0.0800 
 29 H       -2.5000     6.2940     0.5620 H     1 <1>   0.0800 
 30 H       -3.7460     6.2570    -0.6460 H     1 <1>   0.0800 
 31 H       -7.6600     4.9690     0.4370 H     1 <1>   0.0800 
 32 H       -8.3670     3.7610     1.4790 H     1 <1>   0.0800 
 33 H       -7.6360     3.2750    -0.0290 H     1 <1>   0.0800 
 34 H       -0.3160     5.2530     0.4680 H     1 <1>   0.4500 
 35 H       -1.3360     7.1420    -1.2660 H     1 <1>   0.0800 
 36 H       -2.2300     6.2140    -2.4140 H     1 <1>   0.0800 
 37 H       -0.8620     4.3870    -2.2810 H     1 <1>   0.0800 
 38 H        0.2910     5.6410    -1.8970 H     1 <1>   0.0800 
 39 H        0.9010     3.0150    -1.0290 H     1 <1>   0.0800 
 40 H        0.8550     3.0630     0.7090 H     1 <1>   0.0800 
 41 H        2.1180     5.1710     0.7240 H     1 <1>   0.0800 
 42 H        2.1910     5.1510    -1.0330 H     1 <1>   0.0800 
 43 H        4.4940     5.0820     0.7800 H     1 <1>   0.3700 
 44 H        5.5950     3.6370     2.7040 H     1 <1>   0.1500 
 45 H        8.2670     1.9490    -1.0480 H     1 <1>   0.1500 
 46 H        5.6360     4.1370    -2.0950 H     1 <1>   0.0800 
 47 H        5.2970     2.4220    -2.1860 H     1 <1>   0.0800 
 48 H        6.8770     3.0300    -2.6050 H     1 <1>   0.0800 
 49 H        7.7170     2.4900     3.1300 H     1 <1>   0.1500 
 50 H        9.0520     1.6420     1.2460 H     1 <1>   0.1500 
@<TRIPOS>BOND
  1   1   2  2   
  2   2   3  1   
  3   2   4  1   
  4   3   5  1   
  5   4   6  1   
  6   4   7  1   
  7   4  24  1   
  8   5   8  1   
  9   5  25  1   
 10   5  26  1   
 11   6   9  1   
 12   6  27  1   
 13   6  28  1   
 14   7  10  1   
 15   7  29  1   
 16   7  30  1   
 17   8  31  1   
 18   8  32  1   
 19   8  33  1   
 20   9  11  1   
 21   9  12  1   
 22   9  34  1   
 23  10  11  1   
 24  10  35  1   
 25  10  36  1   
 26  11  37  1   
 27  11  38  1   
 28  12  13  1   
 29  12  39  1   
 30  12  40  1   
 31  13  14  1   
 32  13  41  1   
 33  13  42  1   
 34  14  15  2   
 35  14  16  am  
 36  16  17  1   
 37  16  43  1   
 38  17  18  ar  
 39  17  19  ar  
 40  18  20  ar  
 41  18  21  1   
 42  19  22  ar  
 43  19  44  1   
 44  20  23  ar  
 45  20  45  1   
 46  21  46  1   
 47  21  47  1   
 48  21  48  1   
 49  22  23  ar  
 50  22  49  1   
 51  23  50  1   
@<TRIPOS>SUBSTRUCTURE
  1 ****  12 GROUP 4 **** **** 0

# MOE 2024.06 (io_trps.svl 2023.06)
