@<TRIPOS>MOLECULE
NONAME
33 34 1 0 0 
SMALL
USER_CHARGES


@<TRIPOS>ATOM
  1 BR      -3.5280     1.2390    -3.9770 Br    1 <1>  -0.0580 
  2 C       -3.4460     0.6890    -2.1340 C.2   1 <1>   0.1980 
  3 O       -4.4140    -0.0740    -1.6830 O.3   1 <1>  -0.2800 
  4 C       -2.5170     0.9800    -1.2040 C.2   1 <1>  -0.1500 
  5 C       -4.1290    -0.3010    -0.4080 C.2   1 <1>  -0.0400 
  6 C       -2.9750     0.3190    -0.0540 C.2   1 <1>  -0.1500 
  7 C       -5.0790    -1.1600     0.4130 C.3   1 <1>   0.2900 
  8 N       -6.4370    -0.5790     0.3740 N.3   1 <1>  -0.8100 
  9 C       -7.5030    -1.5410     0.7350 C.3   1 <1>   0.1100 
 10 C       -6.5400     0.6990     1.0990 C.3   1 <1>   0.1100 
 11 C       -8.8900    -1.0730     0.2390 C.3   1 <1>   0.3430 
 12 C       -7.2710     1.7210     0.2210 C.3   1 <1>  -0.1600 
 13 N       -8.7230     0.0010    -0.7860 N.4   1 <1>  -0.9590 
 14 C       -8.7060     1.3480    -0.1640 C.3   1 <1>   0.3430 
 15 C       -9.6580    -0.1130    -1.9390 C.3   1 <1>   0.2630 
 16 H       -1.6270     1.5760    -1.2960 H     1 <1>   0.1500 
 17 H       -2.4780     0.3270     0.9000 H     1 <1>   0.1500 
 18 H       -4.7320    -1.2380     1.4290 H     1 <1>   0.0800 
 19 H       -5.0900    -2.1460    -0.0210 H     1 <1>   0.0800 
 20 H       -7.5230    -1.7070     1.7990 H     1 <1>   0.0800 
 21 H       -7.2950    -2.4880     0.2650 H     1 <1>   0.0800 
 22 H       -5.5580     1.0890     1.3150 H     1 <1>   0.0800 
 23 H       -7.0480     0.5670     2.0400 H     1 <1>   0.0800 
 24 H       -9.4700    -0.7060     1.0700 H     1 <1>   0.0800 
 25 H       -9.4110    -1.9180    -0.1810 H     1 <1>   0.0800 
 26 H       -6.6940     1.8840    -0.6730 H     1 <1>   0.0800 
 27 H       -7.2990     2.6590     0.7460 H     1 <1>   0.0800 
 28 H       -7.7340    -0.1400    -1.0890 H     1 <1>   0.4500 
 29 H       -9.0760     2.0800    -0.8640 H     1 <1>   0.0800 
 30 H       -9.3410     1.3620     0.7070 H     1 <1>   0.0800 
 31 H      -10.6760     0.0250    -1.6130 H     1 <1>   0.0800 
 32 H       -9.5680    -1.0850    -2.3970 H     1 <1>   0.0800 
 33 H       -9.4260     0.6350    -2.6800 H     1 <1>   0.0800 
@<TRIPOS>BOND
  1   1   2  1   
  2   2   3  1   
  3   2   4  2   
  4   3   5  1   
  5   4   6  1   
  6   4  16  1   
  7   5   6  2   
  8   5   7  1   
  9   6  17  1   
 10   7   8  1   
 11   7  18  1   
 12   7  19  1   
 13   8   9  1   
 14   8  10  1   
 15   9  11  1   
 16   9  20  1   
 17   9  21  1   
 18  10  12  1   
 19  10  22  1   
 20  10  23  1   
 21  11  13  1   
 22  11  24  1   
 23  11  25  1   
 24  12  14  1   
 25  12  26  1   
 26  12  27  1   
 27  13  14  1   
 28  13  15  1   
 29  13  28  1   
 30  14  29  1   
 31  14  30  1   
 32  15  31  1   
 33  15  32  1   
 34  15  33  1   
@<TRIPOS>SUBSTRUCTURE
  1 ****   8 GROUP 4 **** **** 0

# MOE 2024.06 (io_trps.svl 2023.06)
