@<TRIPOS>MOLECULE
NONAME
25 24 1 0 0 
SMALL
USER_CHARGES


@<TRIPOS>ATOM
  1 S      -11.0050    -1.0270    -0.0700 S.o2  1 <1>   1.0900 
  2 O      -10.7060    -0.6030    -1.4160 O.2   1 <1>  -0.6500 
  3 O      -10.6440    -0.1710     1.0350 O.2   1 <1>  -0.6500 
  4 C      -10.1340    -2.5650     0.1800 C.3   1 <1>  -0.0550 
  5 C      -12.7350    -1.4530     0.0380 C.3   1 <1>  -0.0550 
  6 C       -8.6310    -2.3040     0.1070 C.3   1 <1>   0.0700 
  7 C      -13.6020    -0.2100    -0.1130 C.3   1 <1>   0.1200 
  8 S       -7.7340    -3.9020     0.3590 S.3   1 <1>  -0.3610 
  9 O      -14.9300    -0.5990    -0.0660 O.3   1 <1>  -0.6800 
 10 C       -6.0200    -3.5540     0.2740 C.cat 1 <1>   0.8400 
 11 N       -5.2340    -4.5790     0.4300 N.pl3 1 <1>  -0.7540 
 12 N       -5.6250    -2.3270     0.0650 N.pl3 1 <1>  -0.7540 
 13 H      -10.4100    -3.2720    -0.5790 H     1 <1>   0.0800 
 14 H      -10.3780    -2.9740     1.1430 H     1 <1>   0.0800 
 15 H      -12.9430    -1.8980     0.9920 H     1 <1>   0.0800 
 16 H      -12.9840    -2.1500    -0.7380 H     1 <1>   0.0800 
 17 H       -8.3250    -1.6240     0.8850 H     1 <1>   0.0800 
 18 H       -8.3580    -1.9190    -0.8610 H     1 <1>   0.0800 
 19 H      -13.4210     0.2940    -1.0490 H     1 <1>   0.0800 
 20 H      -13.4260     0.4760     0.7000 H     1 <1>   0.0800 
 21 H      -15.2360    -0.9250    -0.9360 H     1 <1>   0.4000 
 22 H       -4.2150    -4.5560     0.4100 H     1 <1>   0.4500 
 23 H       -5.6230    -5.5120     0.5900 H     1 <1>   0.4500 
 24 H       -4.6470    -2.0440     0.0020 H     1 <1>   0.4500 
 25 H       -6.2730    -1.5470    -0.0530 H     1 <1>   0.4500 
@<TRIPOS>BOND
  1   1   2  2   
  2   1   3  2   
  3   1   4  1   
  4   1   5  1   
  5   4   6  1   
  6   4  13  1   
  7   4  14  1   
  8   5   7  1   
  9   5  15  1   
 10   5  16  1   
 11   6   8  1   
 12   6  17  1   
 13   6  18  1   
 14   7   9  1   
 15   7  19  1   
 16   7  20  1   
 17   8  10  1   
 18   9  21  1   
 19  10  11  ar  
 20  10  12  ar  
 21  11  22  1   
 22  11  23  1   
 23  12  24  1   
 24  12  25  1   
@<TRIPOS>SUBSTRUCTURE
  1 ****   4 GROUP 4 **** **** 0

# MOE 2024.06 (io_trps.svl 2023.06)
