@<TRIPOS>MOLECULE
NONAME
49 52 1 0 0 
SMALL
USER_CHARGES


@<TRIPOS>ATOM
  1 CL       0.5780     0.2600    -1.7030 Cl    1 <1>  -0.1770 
  2 C        2.1120    -0.3500    -1.1410 C.ar  1 <1>   0.1770 
  3 C        2.9850    -0.9290    -2.0440 C.ar  1 <1>  -0.1500 
  4 C        2.4350    -0.2500     0.1980 C.ar  1 <1>  -0.1500 
  5 C        4.2030    -1.4090    -1.5950 C.ar  1 <1>  -0.1500 
  6 C        3.6560    -0.7320     0.6370 C.ar  1 <1>  -0.1500 
  7 C        4.5640    -1.3090    -0.2500 C.ar  1 <1>   0.0530 
  8 C        5.8390    -1.7860     0.2230 C.2   1 <1>   0.1330 
  9 N        6.0050    -2.7680     1.0660 N.2   1 <1>  -0.3380 
 10 N        7.0280    -1.2610    -0.1330 N.pl3 1 <1>   0.0480 
 11 N        7.3130    -2.9090     1.2780 N.2   1 <1>  -0.3380 
 12 C        7.8810    -2.0060     0.5610 C.2   1 <1>   0.2430 
 13 C        7.3120    -0.1040    -1.0130 C.3   1 <1>   0.0960 
 14 S        9.6580    -1.7650     0.5080 S.3   1 <1>  -0.2860 
 15 C        7.1710     1.2100    -0.2380 C.3   1 <1>  -0.2400 
 16 C       10.2770    -3.0320     1.7240 C.3   1 <1>   0.1310 
 17 C       11.7960    -3.0350     1.8100 C.2   1 <1>   0.5690 
 18 O       12.3130    -3.5060     2.7930 O.2   1 <1>  -0.5700 
 19 N       12.5300    -2.5240     0.7880 N.am  1 <1>  -0.7300 
 20 C       14.0080    -2.4540     0.7370 C.3   1 <1>   0.2200 
 21 C       14.5340    -0.9030     0.6790 C.3   1 <1>  -0.0800 
 22 C       14.5580    -3.2230    -0.6380 C.3   1 <1>  -0.1600 
 23 C       15.0610    -1.5450    -0.3720 C.3   1 <1>  -0.1600 
 24 C       15.5470     0.1220    -0.0950 C.3   1 <1>  -0.1600 
 25 C       15.5600    -2.1970    -1.4260 C.3   1 <1>  -0.0800 
 26 C       16.1020    -0.6540    -1.4720 C.3   1 <1>  -0.1600 
 27 H        2.7060    -1.0040    -3.0800 H     1 <1>   0.1500 
 28 H        1.7380     0.1970     0.8840 H     1 <1>   0.1500 
 29 H        4.8800    -1.8740    -2.2890 H     1 <1>   0.1500 
 30 H        3.9170    -0.6680     1.6800 H     1 <1>   0.1500 
 31 H        6.6290    -0.1150    -1.8420 H     1 <1>   0.0800 
 32 H        8.3110    -0.1940    -1.4020 H     1 <1>   0.0800 
 33 H        6.1670     1.3250     0.1310 H     1 <1>   0.0800 
 34 H        7.3900     2.0390    -0.8860 H     1 <1>   0.0800 
 35 H        7.8600     1.2340     0.5880 H     1 <1>   0.0800 
 36 H        9.9210    -3.9910     1.3980 H     1 <1>   0.0800 
 37 H        9.8490    -2.7910     2.6790 H     1 <1>   0.0800 
 38 H       12.0430    -2.1050    -0.0060 H     1 <1>   0.3700 
 39 H       14.4200    -2.9390     1.6100 H     1 <1>   0.0800 
 40 H       13.6050    -0.3550     0.6070 H     1 <1>   0.0800 
 41 H       13.7340    -3.5010    -1.2760 H     1 <1>   0.0800 
 42 H       15.0790    -4.1260    -0.3640 H     1 <1>   0.0800 
 43 H       14.1370    -1.2100    -1.0220 H     1 <1>   0.0800 
 44 H       15.9780    -1.8940     0.2810 H     1 <1>   0.0800 
 45 H       16.3770     0.3780     0.5470 H     1 <1>   0.0800 
 46 H       15.0450     1.0400    -0.3560 H     1 <1>   0.0800 
 47 H       16.4960    -2.7380    -1.3670 H     1 <1>   0.0800 
 48 H       17.1790    -0.6210    -1.5130 H     1 <1>   0.0800 
 49 H       15.7290    -0.1560    -2.3550 H     1 <1>   0.0800 
@<TRIPOS>BOND
  1   1   2  1   
  2   2   3  ar  
  3   2   4  ar  
  4   3   5  ar  
  5   3  27  1   
  6   4   6  ar  
  7   4  28  1   
  8   5   7  ar  
  9   5  29  1   
 10   6   7  ar  
 11   6  30  1   
 12   7   8  1   
 13   8   9  2   
 14   8  10  1   
 15   9  11  1   
 16  10  12  1   
 17  10  13  1   
 18  11  12  2   
 19  12  14  1   
 20  13  15  1   
 21  13  31  1   
 22  13  32  1   
 23  14  16  1   
 24  15  33  1   
 25  15  34  1   
 26  15  35  1   
 27  16  17  1   
 28  16  36  1   
 29  16  37  1   
 30  17  18  2   
 31  17  19  am  
 32  19  20  1   
 33  19  38  1   
 34  20  21  1   
 35  20  22  1   
 36  20  39  1   
 37  21  23  1   
 38  21  24  1   
 39  21  40  1   
 40  22  25  1   
 41  22  41  1   
 42  22  42  1   
 43  23  25  1   
 44  23  43  1   
 45  23  44  1   
 46  24  26  1   
 47  24  45  1   
 48  24  46  1   
 49  25  26  1   
 50  25  47  1   
 51  26  48  1   
 52  26  49  1   
@<TRIPOS>SUBSTRUCTURE
  1 ****  14 GROUP 4 **** **** 0

# MOE 2024.06 (io_trps.svl 2023.06)
