@<TRIPOS>MOLECULE
NONAME
45 47 1 0 0 
SMALL
USER_CHARGES


@<TRIPOS>ATOM
  1 O        2.8170     1.6940    -2.0920 O.co2 1 <1>  -0.9000 
  2 C        3.3170     0.6570    -1.6490 C.2   1 <1>   0.9060 
  3 O        4.3700     0.1930    -2.1060 O.co2 1 <1>  -0.9000 
  4 C        2.6000    -0.0540    -0.5150 C.3   1 <1>  -0.1860 
  5 C        3.0540     0.2940     0.9540 C.3   1 <1>  -0.0190 
  6 C        2.5500    -1.5900    -0.7160 C.3   1 <1>   0.0580 
  7 C        4.3590     1.0690     1.1800 C.2   1 <1>   0.5690 
  8 C        3.1080    -1.0080     1.7980 C.3   1 <1>   0.0580 
  9 C        3.8410    -2.1920    -0.1710 C.2   1 <1>  -0.2880 
 10 C        1.4390    -2.1210     0.2190 C.3   1 <1>  -0.1600 
 11 O        4.4330     1.7610     2.1720 O.2   1 <1>  -0.5700 
 12 N        5.4120     0.9420     0.3380 N.am  1 <1>  -0.7300 
 13 C        4.1150    -1.9160     1.1050 C.2   1 <1>  -0.2880 
 14 C        1.7380    -1.7220     1.6930 C.3   1 <1>  -0.1600 
 15 C        6.7060     1.6370     0.4160 C.3   1 <1>   0.1400 
 16 C        7.8590     0.6350     0.2520 C.3   1 <1>  -0.0800 
 17 C        9.2090     1.3530     0.4300 C.3   1 <1>  -0.1600 
 18 C        7.8070    -0.0860    -1.1110 C.3   1 <1>  -0.1600 
 19 C       10.3910     0.3910     0.2520 C.3   1 <1>  -0.1600 
 20 C        8.9950    -1.0380    -1.2970 C.3   1 <1>  -0.1600 
 21 C       10.3310    -0.3090    -1.1120 C.3   1 <1>  -0.1600 
 22 H        1.5880     0.2940    -0.6070 H     1 <1>   0.0800 
 23 H        2.2860     0.9190     1.3710 H     1 <1>   0.0800 
 24 H        2.3760    -1.8570    -1.7450 H     1 <1>   0.0800 
 25 H        3.3790    -0.8080     2.8200 H     1 <1>   0.0800 
 26 H        4.4280    -2.7760    -0.8570 H     1 <1>   0.1500 
 27 H        1.4020    -3.1930     0.1370 H     1 <1>   0.0800 
 28 H        0.4830    -1.7330    -0.0860 H     1 <1>   0.0800 
 29 H        5.2300     0.4760    -0.5770 H     1 <1>   0.3700 
 30 H        4.9690    -2.2360     1.6740 H     1 <1>   0.1500 
 31 H        0.9640    -1.0730     2.0620 H     1 <1>   0.0800 
 32 H        1.7530    -2.6050     2.3060 H     1 <1>   0.0800 
 33 H        6.7850     2.1390     1.3650 H     1 <1>   0.0800 
 34 H        6.7440     2.3770    -0.3660 H     1 <1>   0.0800 
 35 H        7.7650    -0.1010     1.0330 H     1 <1>   0.0800 
 36 H        9.2550     1.7950     1.4100 H     1 <1>   0.0800 
 37 H        9.2870     2.1460    -0.2950 H     1 <1>   0.0800 
 38 H        7.8030     0.6440    -1.9030 H     1 <1>   0.0800 
 39 H        6.8930    -0.6500    -1.1950 H     1 <1>   0.0800 
 40 H       10.3670    -0.3490     1.0330 H     1 <1>   0.0800 
 41 H       11.3150     0.9350     0.3380 H     1 <1>   0.0800 
 42 H        8.9510    -1.4730    -2.2800 H     1 <1>   0.0800 
 43 H        8.9200    -1.8370    -0.5790 H     1 <1>   0.0800 
 44 H       11.1410    -1.0130    -1.1930 H     1 <1>   0.0800 
 45 H       10.4460     0.4220    -1.8940 H     1 <1>   0.0800 
@<TRIPOS>BOND
  1   1   2  ar  
  2   2   3  ar  
  3   2   4  1   
  4   4   5  1   
  5   4   6  1   
  6   4  22  1   
  7   5   7  1   
  8   5   8  1   
  9   5  23  1   
 10   6   9  1   
 11   6  10  1   
 12   6  24  1   
 13   7  11  2   
 14   7  12  am  
 15   8  13  1   
 16   8  14  1   
 17   8  25  1   
 18   9  13  2   
 19   9  26  1   
 20  10  14  1   
 21  10  27  1   
 22  10  28  1   
 23  12  15  1   
 24  12  29  1   
 25  13  30  1   
 26  14  31  1   
 27  14  32  1   
 28  15  16  1   
 29  15  33  1   
 30  15  34  1   
 31  16  17  1   
 32  16  18  1   
 33  16  35  1   
 34  17  19  1   
 35  17  36  1   
 36  17  37  1   
 37  18  20  1   
 38  18  38  1   
 39  18  39  1   
 40  19  21  1   
 41  19  40  1   
 42  19  41  1   
 43  20  21  1   
 44  20  42  1   
 45  20  43  1   
 46  21  44  1   
 47  21  45  1   
@<TRIPOS>SUBSTRUCTURE
  1 ****  12 GROUP 4 **** **** 0

# MOE 2024.06 (io_trps.svl 2023.06)
