@<TRIPOS>MOLECULE
NONAME
35 36 1 0 0 
SMALL
USER_CHARGES


@<TRIPOS>ATOM
  1 F        0.2030     0.9360    -0.5530 F     1 <1>  -0.1900 
  2 C        1.2990     1.3440    -1.1390 C.ar  1 <1>   0.1900 
  3 C        2.4660     1.4840    -0.3990 C.ar  1 <1>  -0.1440 
  4 C        1.2290     1.6160    -2.4930 C.ar  1 <1>  -0.1500 
  5 C        3.6110     1.9170    -1.0690 C.ar  1 <1>   0.1170 
  6 C        2.5120     1.1770     1.0980 C.3   1 <1>  -0.0970 
  7 C        2.3720     2.0430    -3.1440 C.ar  1 <1>  -0.1500 
  8 N        4.8260     2.0700    -0.3930 N.am  1 <1>  -0.5470 
  9 C        3.5490     2.1870    -2.4320 C.ar  1 <1>  -0.1500 
 10 C        5.4970     3.1900    -0.0060 C.2   1 <1>   0.5690 
 11 O        6.4710     3.0390     0.6900 O.2   1 <1>  -0.5700 
 12 C        4.9690     4.5920    -0.3610 C.3   1 <1>  -0.0190 
 13 C        6.0420     5.5700    -0.9100 C.3   1 <1>  -0.1860 
 14 C        4.2030     5.2150     0.8240 C.3   1 <1>  -0.0220 
 15 C        6.7280     5.0450    -2.1650 C.2   1 <1>   0.9060 
 16 C        7.0540     6.0020     0.1720 C.3   1 <1>  -0.0220 
 17 C        5.1040     5.9880     1.7750 C.2   1 <1>  -0.2880 
 18 O        7.8680     5.4310    -2.4430 O.co2 1 <1>  -0.9000 
 19 O        6.0970     4.2920    -2.9170 O.co2 1 <1>  -0.9000 
 20 C        6.3640     6.3270     1.4890 C.2   1 <1>  -0.2880 
 21 H        0.3010     1.4950    -3.0210 H     1 <1>   0.1500 
 22 H        1.5280     1.0460     1.5100 H     1 <1>   0.0800 
 23 H        2.9870     1.9840     1.6280 H     1 <1>   0.0800 
 24 H        3.0750     0.2770     1.2670 H     1 <1>   0.0800 
 25 H        2.3550     2.2660    -4.1970 H     1 <1>   0.1500 
 26 H        5.3200     1.2210    -0.1310 H     1 <1>   0.3700 
 27 H        4.4410     2.5190    -2.9400 H     1 <1>   0.1500 
 28 H        4.2520     4.4670    -1.1500 H     1 <1>   0.0800 
 29 H        5.5270     6.4570    -1.2240 H     1 <1>   0.0800 
 30 H        3.6900     4.4390     1.3620 H     1 <1>   0.0800 
 31 H        3.4620     5.8940     0.4420 H     1 <1>   0.0800 
 32 H        7.5860     6.8670    -0.1830 H     1 <1>   0.0800 
 33 H        7.7790     5.2220     0.3310 H     1 <1>   0.0800 
 34 H        4.6290     6.2360     2.7080 H     1 <1>   0.1500 
 35 H        7.0020     6.8550     2.1750 H     1 <1>   0.1500 
@<TRIPOS>BOND
  1   1   2  1   
  2   2   3  ar  
  3   2   4  ar  
  4   3   5  ar  
  5   3   6  1   
  6   4   7  ar  
  7   4  21  1   
  8   5   8  1   
  9   5   9  ar  
 10   6  22  1   
 11   6  23  1   
 12   6  24  1   
 13   7   9  ar  
 14   7  25  1   
 15   8  10  am  
 16   8  26  1   
 17   9  27  1   
 18  10  11  2   
 19  10  12  1   
 20  12  13  1   
 21  12  14  1   
 22  12  28  1   
 23  13  15  1   
 24  13  16  1   
 25  13  29  1   
 26  14  17  1   
 27  14  30  1   
 28  14  31  1   
 29  15  18  ar  
 30  15  19  ar  
 31  16  20  1   
 32  16  32  1   
 33  16  33  1   
 34  17  20  2   
 35  17  34  1   
 36  20  35  1   
@<TRIPOS>SUBSTRUCTURE
  1 ****  12 GROUP 4 **** **** 0

# MOE 2024.06 (io_trps.svl 2023.06)
