@<TRIPOS>MOLECULE
NONAME
43 44 1 0 0 
SMALL
USER_CHARGES


@<TRIPOS>ATOM
  1 O        0.9320     7.6690     1.8130 O.2   1 <1>  -0.5700 
  2 C        0.8550     6.7970     0.9820 C.2   1 <1>   0.5690 
  3 N        1.8100     5.8020     0.9270 N.am  1 <1>  -0.6600 
  4 C       -0.3360     6.8590     0.0260 C.3   1 <1>   0.0440 
  5 C        1.8760     4.7450    -0.1340 C.3   1 <1>   0.1400 
  6 C        2.7310     5.5980     2.0940 C.3   1 <1>   0.1400 
  7 C       -1.0520     5.5250    -0.1820 C.ar  1 <1>  -0.1440 
  8 C        3.3250     4.3800    -0.5100 C.3   1 <1>   0.3430 
  9 C        4.1580     5.2350     1.6500 C.3   1 <1>   0.3430 
 10 C       -1.2610     4.6630     0.8830 C.ar  1 <1>  -0.1500 
 11 C       -1.4810     5.1490    -1.4440 C.ar  1 <1>  -0.1500 
 12 N        4.1670     4.0710     0.6970 N.4   1 <1>  -0.9590 
 13 C       -1.8500     3.4240     0.6980 C.ar  1 <1>   0.0830 
 14 C       -2.0800     3.9170    -1.6450 C.ar  1 <1>  -0.1500 
 15 C        5.5600     3.6990     0.3070 C.3   1 <1>   0.2630 
 16 O       -1.9630     2.6620     1.8200 O.3   1 <1>  -0.3630 
 17 C       -2.2600     3.0320    -0.5850 C.ar  1 <1>   0.0830 
 18 C       -3.1460     1.9290     2.0550 C.3   1 <1>   0.0400 
 19 O       -2.8020     1.7930    -0.7700 O.3   1 <1>  -0.3630 
 20 C       -3.3190     1.3780    -2.0160 C.3   1 <1>   0.0400 
 21 H        0.0130     7.2460    -0.9130 H     1 <1>   0.0800 
 22 H       -1.0480     7.5640     0.4160 H     1 <1>   0.0800 
 23 H        1.3790     5.0840    -1.0260 H     1 <1>   0.0800 
 24 H        1.3620     3.8640     0.2120 H     1 <1>   0.0800 
 25 H        2.3350     4.8140     2.7160 H     1 <1>   0.0800 
 26 H        2.7800     6.4890     2.6960 H     1 <1>   0.0800 
 27 H        3.7560     5.2090    -1.0470 H     1 <1>   0.0800 
 28 H        3.3090     3.5300    -1.1730 H     1 <1>   0.0800 
 29 H        4.7450     5.0000     2.5230 H     1 <1>   0.0800 
 30 H        4.5970     6.0980     1.1770 H     1 <1>   0.0800 
 31 H       -0.9630     4.9390     1.8790 H     1 <1>   0.1500 
 32 H       -1.3520     5.8110    -2.2830 H     1 <1>   0.1500 
 33 H        3.7300     3.2720     1.1810 H     1 <1>   0.4500 
 34 H       -2.3940     3.6670    -2.6400 H     1 <1>   0.1500 
 35 H        6.0400     4.5200    -0.2010 H     1 <1>   0.0800 
 36 H        5.5500     2.8450    -0.3500 H     1 <1>   0.0800 
 37 H        6.1400     3.4500     1.1820 H     1 <1>   0.0800 
 38 H       -3.0810     0.9890     1.5390 H     1 <1>   0.0800 
 39 H       -3.2290     1.7570     3.1130 H     1 <1>   0.0800 
 40 H       -3.9900     2.4980     1.7060 H     1 <1>   0.0800 
 41 H       -3.7270     0.3900    -1.8950 H     1 <1>   0.0800 
 42 H       -4.0960     2.0580    -2.3160 H     1 <1>   0.0800 
 43 H       -2.5220     1.3560    -2.7370 H     1 <1>   0.0800 
@<TRIPOS>BOND
  1   1   2  2   
  2   2   3  am  
  3   2   4  1   
  4   3   5  1   
  5   3   6  1   
  6   4   7  1   
  7   4  21  1   
  8   4  22  1   
  9   5   8  1   
 10   5  23  1   
 11   5  24  1   
 12   6   9  1   
 13   6  25  1   
 14   6  26  1   
 15   7  10  ar  
 16   7  11  ar  
 17   8  12  1   
 18   8  27  1   
 19   8  28  1   
 20   9  12  1   
 21   9  29  1   
 22   9  30  1   
 23  10  13  ar  
 24  10  31  1   
 25  11  14  ar  
 26  11  32  1   
 27  12  15  1   
 28  12  33  1   
 29  13  16  1   
 30  13  17  ar  
 31  14  17  ar  
 32  14  34  1   
 33  15  35  1   
 34  15  36  1   
 35  15  37  1   
 36  16  18  1   
 37  17  19  1   
 38  18  38  1   
 39  18  39  1   
 40  18  40  1   
 41  19  20  1   
 42  20  41  1   
 43  20  42  1   
 44  20  43  1   
@<TRIPOS>SUBSTRUCTURE
  1 ****  10 GROUP 4 **** **** 0

# MOE 2024.06 (io_trps.svl 2023.06)
