@<TRIPOS>MOLECULE
NONAME
53 54 1 0 0 
SMALL
USER_CHARGES


@<TRIPOS>ATOM
  1 CL      -0.3580     0.8010    -2.0350 Cl    1 <1>  -0.1770 
  2 C        1.2760     1.1890    -1.5660 C.ar  1 <1>   0.1770 
  3 C        1.8150     0.6080    -0.4360 C.ar  1 <1>  -0.1500 
  4 C        2.0100     2.0750    -2.3290 C.ar  1 <1>  -0.1500 
  5 C        3.1130     0.9230    -0.0660 C.ar  1 <1>  -0.1500 
  6 C        3.3070     2.3800    -1.9490 C.ar  1 <1>  -0.1500 
  7 C        3.8820     1.8110    -0.8150 C.ar  1 <1>  -0.0090 
  8 S        5.5670     2.2500    -0.3040 S.o2  1 <1>   1.4470 
  9 O        6.3830     2.6350    -1.4340 O.2   1 <1>  -0.6500 
 10 O        6.0640     1.2800     0.6420 O.2   1 <1>  -0.6500 
 11 N        5.3170     3.7030     0.6010 N.am  1 <1>  -0.6930 
 12 C        4.5790     4.7620     0.0840 C.ar  1 <1>   0.1990 
 13 C        6.2830     3.9860     1.7110 C.3   1 <1>   0.2570 
 14 C        4.9800     5.4440    -1.0590 C.ar  1 <1>  -0.1500 
 15 C        3.4020     5.1480     0.7120 C.ar  1 <1>  -0.1500 
 16 C        7.6300     4.5890     1.2880 C.2   1 <1>   0.5690 
 17 C        4.2160     6.4790    -1.5650 C.ar  1 <1>  -0.1500 
 18 C        2.6330     6.1830     0.2100 C.ar  1 <1>  -0.1500 
 19 O        8.2280     5.2500     2.1040 O.2   1 <1>  -0.5700 
 20 N        8.1320     4.3840     0.0370 N.am  1 <1>  -0.7300 
 21 C        3.0390     6.8560    -0.9390 C.ar  1 <1>   0.0830 
 22 C        9.3970     4.9400    -0.4890 C.3   1 <1>   0.1400 
 23 O        2.3510     7.8810    -1.5130 O.3   1 <1>  -0.3620 
 24 C        9.1140     5.9330    -1.6280 C.3   1 <1>  -0.0800 
 25 C        1.1970     8.4480    -0.9280 C.3   1 <1>   0.1200 
 26 C       10.4260     6.3450    -2.3070 C.3   1 <1>  -0.2400 
 27 C        8.3840     7.1870    -1.1220 C.3   1 <1>  -0.2400 
 28 C        1.6090     9.4000     0.1960 C.3   1 <1>  -0.2400 
 29 H        1.2260    -0.0810     0.1440 H     1 <1>   0.1500 
 30 H        1.5710     2.5190    -3.2050 H     1 <1>   0.1500 
 31 H        3.5350     0.4720     0.8170 H     1 <1>   0.1500 
 32 H        3.8800     3.0740    -2.5430 H     1 <1>   0.1500 
 33 H        6.4790     3.0850     2.2620 H     1 <1>   0.0800 
 34 H        5.8230     4.6780     2.3930 H     1 <1>   0.0800 
 35 H        5.8920     5.1690    -1.5560 H     1 <1>   0.1500 
 36 H        3.0860     4.6270     1.5980 H     1 <1>   0.1500 
 37 H        4.5290     7.0050    -2.4490 H     1 <1>   0.1500 
 38 H        1.7290     6.4480     0.7230 H     1 <1>   0.1500 
 39 H        7.5980     3.8190    -0.6380 H     1 <1>   0.3700 
 40 H       10.0020     4.1280    -0.8530 H     1 <1>   0.0800 
 41 H        9.9400     5.4340     0.3010 H     1 <1>   0.0800 
 42 H        8.4990     5.4410    -2.3630 H     1 <1>   0.0800 
 43 H        0.5440     7.6640    -0.5890 H     1 <1>   0.0800 
 44 H        0.6900     8.9980    -1.7020 H     1 <1>   0.0800 
 45 H       11.0760     6.8390    -1.6060 H     1 <1>   0.0800 
 46 H       10.2280     7.0180    -3.1230 H     1 <1>   0.0800 
 47 H       10.9330     5.4810    -2.6980 H     1 <1>   0.0800 
 48 H        8.9810     7.6980    -0.3860 H     1 <1>   0.0800 
 49 H        7.4460     6.9270    -0.6670 H     1 <1>   0.0800 
 50 H        8.1880     7.8620    -1.9350 H     1 <1>   0.0800 
 51 H        2.1260     8.8730     0.9770 H     1 <1>   0.0800 
 52 H        0.7350     9.8610     0.6180 H     1 <1>   0.0800 
 53 H        2.2470    10.1720    -0.1940 H     1 <1>   0.0800 
@<TRIPOS>BOND
  1   1   2  1   
  2   2   3  ar  
  3   2   4  ar  
  4   3   5  ar  
  5   3  29  1   
  6   4   6  ar  
  7   4  30  1   
  8   5   7  ar  
  9   5  31  1   
 10   6   7  ar  
 11   6  32  1   
 12   7   8  1   
 13   8   9  2   
 14   8  10  2   
 15   8  11  am  
 16  11  12  1   
 17  11  13  1   
 18  12  14  ar  
 19  12  15  ar  
 20  13  16  1   
 21  13  33  1   
 22  13  34  1   
 23  14  17  ar  
 24  14  35  1   
 25  15  18  ar  
 26  15  36  1   
 27  16  19  2   
 28  16  20  am  
 29  17  21  ar  
 30  17  37  1   
 31  18  21  ar  
 32  18  38  1   
 33  20  22  1   
 34  20  39  1   
 35  21  23  1   
 36  22  24  1   
 37  22  40  1   
 38  22  41  1   
 39  23  25  1   
 40  24  26  1   
 41  24  27  1   
 42  24  42  1   
 43  25  28  1   
 44  25  43  1   
 45  25  44  1   
 46  26  45  1   
 47  26  46  1   
 48  26  47  1   
 49  27  48  1   
 50  27  49  1   
 51  27  50  1   
 52  28  51  1   
 53  28  52  1   
 54  28  53  1   
@<TRIPOS>SUBSTRUCTURE
  1 ****  12 GROUP 4 **** **** 0

# MOE 2024.06 (io_trps.svl 2023.06)
