@<TRIPOS>MOLECULE
NONAME
47 49 1 0 0 
SMALL
USER_CHARGES


@<TRIPOS>ATOM
  1 S      -14.1410     4.4530    -1.2950 S.3   1 <1>  -0.0800 
  2 C      -12.5700     5.1460    -0.8980 C.ar  1 <1>   0.2970 
  3 C      -13.7920     2.9870    -0.3720 C.2   1 <1>  -0.1400 
  4 N      -12.1710     6.3270    -1.3170 N.ar  1 <1>  -0.5670 
  5 C      -11.8550     4.2840    -0.1080 C.ar  1 <1>   0.0000 
  6 C      -12.5650     3.0630     0.1780 C.2   1 <1>  -0.1500 
  7 C      -14.8870     1.9340    -0.3580 C.3   1 <1>   0.0200 
  8 C      -10.9620     6.6360    -0.8960 C.ar  1 <1>   0.4770 
  9 C      -10.5930     4.7400     0.2660 C.ar  1 <1>   0.4100 
 10 C      -14.4970     0.7040     0.4650 C.3   1 <1>  -0.2400 
 11 N      -10.1440     5.9170    -0.1350 N.ar  1 <1>  -0.6200 
 12 C      -10.4290     7.9800    -1.3330 C.3   1 <1>  -0.0960 
 13 N       -9.7700     3.9780     1.0610 N.pl3 1 <1>  -0.8690 
 14 C       -8.5280     4.4720     1.6830 C.3   1 <1>   0.2090 
 15 C       -7.3860     4.2590     0.6910 C.3   1 <1>  -0.1600 
 16 C       -6.1200     4.9580     1.1730 C.3   1 <1>   0.3430 
 17 N       -5.0860     4.9500     0.1030 N.4   1 <1>  -0.9590 
 18 C       -4.5760     3.5840    -0.2700 C.3   1 <1>   0.3430 
 19 C       -3.9390     5.8740     0.3990 C.3   1 <1>   0.3430 
 20 C       -3.4990     3.6630    -1.3780 C.3   1 <1>   0.1200 
 21 C       -2.8680     5.8320    -0.7160 C.3   1 <1>   0.1200 
 22 O       -3.2600     4.9890    -1.7650 O.3   1 <1>  -0.5600 
 23 H      -12.1120     2.3030     0.7860 H     1 <1>   0.1500 
 24 H      -15.0960     1.6340    -1.3710 H     1 <1>   0.0800 
 25 H      -15.7830     2.3680     0.0510 H     1 <1>   0.0800 
 26 H      -13.6150     0.2450     0.0540 H     1 <1>   0.0800 
 27 H      -15.2960    -0.0160     0.4510 H     1 <1>   0.0800 
 28 H      -14.3050     0.9840     1.4860 H     1 <1>   0.0800 
 29 H      -10.0970     8.5330    -0.4750 H     1 <1>   0.0800 
 30 H      -11.1940     8.5440    -1.8350 H     1 <1>   0.0800 
 31 H       -9.6050     7.8360    -2.0050 H     1 <1>   0.0800 
 32 H      -10.1760     3.1360     1.4770 H     1 <1>   0.4000 
 33 H       -8.3470     3.9370     2.6000 H     1 <1>   0.0800 
 34 H       -8.6400     5.5190     1.9150 H     1 <1>   0.0800 
 35 H       -7.6780     4.6760    -0.2570 H     1 <1>   0.0800 
 36 H       -7.2220     3.2030     0.5800 H     1 <1>   0.0800 
 37 H       -5.7450     4.4750     2.0610 H     1 <1>   0.0800 
 38 H       -6.3650     5.9790     1.4210 H     1 <1>   0.0800 
 39 H       -5.5040     5.3190    -0.7670 H     1 <1>   0.4500 
 40 H       -5.3890     2.9690    -0.6210 H     1 <1>   0.0800 
 41 H       -4.1530     3.1000     0.5950 H     1 <1>   0.0800 
 42 H       -3.4770     5.6020     1.3340 H     1 <1>   0.0800 
 43 H       -4.2980     6.8850     0.4980 H     1 <1>   0.0800 
 44 H       -3.8250     3.1210    -2.2490 H     1 <1>   0.0800 
 45 H       -2.5730     3.2290    -1.0410 H     1 <1>   0.0800 
 46 H       -1.9260     5.4840    -0.3280 H     1 <1>   0.0800 
 47 H       -2.7180     6.8170    -1.1250 H     1 <1>   0.0800 
@<TRIPOS>BOND
  1   1   2  1   
  2   1   3  1   
  3   2   4  ar  
  4   2   5  ar  
  5   3   6  2   
  6   3   7  1   
  7   4   8  ar  
  8   5   6  1   
  9   5   9  ar  
 10   6  23  1   
 11   7  10  1   
 12   7  24  1   
 13   7  25  1   
 14   8  11  ar  
 15   8  12  1   
 16   9  11  ar  
 17   9  13  1   
 18  10  26  1   
 19  10  27  1   
 20  10  28  1   
 21  12  29  1   
 22  12  30  1   
 23  12  31  1   
 24  13  14  1   
 25  13  32  1   
 26  14  15  1   
 27  14  33  1   
 28  14  34  1   
 29  15  16  1   
 30  15  35  1   
 31  15  36  1   
 32  16  17  1   
 33  16  37  1   
 34  16  38  1   
 35  17  18  1   
 36  17  19  1   
 37  17  39  1   
 38  18  20  1   
 39  18  40  1   
 40  18  41  1   
 41  19  21  1   
 42  19  42  1   
 43  19  43  1   
 44  20  22  1   
 45  20  44  1   
 46  20  45  1   
 47  21  22  1   
 48  21  46  1   
 49  21  47  1   
@<TRIPOS>SUBSTRUCTURE
  1 ****   9 GROUP 4 **** **** 0

# MOE 2024.06 (io_trps.svl 2023.06)
