@<TRIPOS>MOLECULE
NONAME
24 25 1 0 0 
SMALL
USER_CHARGES


@<TRIPOS>ATOM
  1 S       -0.0760     0.0630    -1.2470 S.o2  1 <1>   1.2860 
  2 O        0.6310    -0.8310    -2.1440 O.2   1 <1>  -0.6500 
  3 O       -0.7310     1.1940    -1.8830 O.2   1 <1>  -0.6500 
  4 C       -1.3610    -0.8790    -0.3740 C.ar  1 <1>  -0.0090 
  5 C        1.0530     0.7300    -0.0400 C.3   1 <1>  -0.1240 
  6 C       -2.5920    -0.3070    -0.0710 C.ar  1 <1>  -0.1500 
  7 C       -1.1520    -2.1980     0.0140 C.ar  1 <1>  -0.1500 
  8 C        1.1290    -0.2570     1.0780 C.2   1 <1>   0.9470 
  9 C        1.1480     2.2050     0.2830 C.3   1 <1>  -0.2000 
 10 C        2.2820     1.5220    -0.4190 C.3   1 <1>  -0.2000 
 11 C       -3.5810    -1.0230     0.5820 C.ar  1 <1>  -0.1500 
 12 C       -2.1330    -2.9230     0.6680 C.ar  1 <1>  -0.1500 
 13 O        0.4940    -0.0240     2.1100 O.co2 1 <1>  -0.9000 
 14 O        1.8020    -1.2800     0.9340 O.co2 1 <1>  -0.9000 
 15 C       -3.3520    -2.3360     0.9510 C.ar  1 <1>  -0.1500 
 16 H       -2.7770     0.7160    -0.3490 H     1 <1>   0.1500 
 17 H       -0.1960    -2.6570    -0.1870 H     1 <1>   0.1500 
 18 H        1.2540     2.4800     1.3190 H     1 <1>   0.1000 
 19 H        0.5340     2.8950    -0.2690 H     1 <1>   0.1000 
 20 H        2.4510     1.7170    -1.4630 H     1 <1>   0.1000 
 21 H        3.1900     1.3070     0.1170 H     1 <1>   0.1000 
 22 H       -4.5240    -0.5570     0.8060 H     1 <1>   0.1500 
 23 H       -1.9360    -3.9380     0.9630 H     1 <1>   0.1500 
 24 H       -4.1150    -2.8960     1.4620 H     1 <1>   0.1500 
@<TRIPOS>BOND
  1   1   2  2   
  2   1   3  2   
  3   1   4  1   
  4   1   5  1   
  5   4   6  ar  
  6   4   7  ar  
  7   5   8  1   
  8   5   9  1   
  9   5  10  1   
 10   6  11  ar  
 11   6  16  1   
 12   7  12  ar  
 13   7  17  1   
 14   8  13  ar  
 15   8  14  ar  
 16   9  10  1   
 17   9  18  1   
 18   9  19  1   
 19  10  20  1   
 20  10  21  1   
 21  11  15  ar  
 22  11  22  1   
 23  12  15  ar  
 24  12  23  1   
 25  15  24  1   
@<TRIPOS>SUBSTRUCTURE
  1 ****   4 GROUP 4 **** **** 0

# MOE 2024.06 (io_trps.svl 2023.06)
