@<TRIPOS>MOLECULE
NONAME
43 45 1 0 0 
SMALL
USER_CHARGES


@<TRIPOS>ATOM
  1 S        0.9980    -0.6600     0.3610 S.o2  1 <1>   1.4470 
  2 O        2.0510    -1.0760     1.2620 O.2   1 <1>  -0.6500 
  3 O        0.3910     0.6320     0.5750 O.2   1 <1>  -0.6500 
  4 N        1.7250    -0.5930    -1.1770 N.am  1 <1>  -0.8490 
  5 C       -0.2720    -1.9450     0.1900 C.ar  1 <1>  -0.0090 
  6 C        2.2620     0.7440    -1.5020 C.3   1 <1>   0.1960 
  7 C        2.7160    -1.6700    -1.4300 C.3   1 <1>   0.1960 
  8 C       -1.1560    -1.9300    -0.8880 C.ar  1 <1>  -0.1500 
  9 C       -0.3960    -2.9650     1.1360 C.ar  1 <1>  -0.1500 
 10 C        3.5150     1.0720    -0.6540 C.3   1 <1>   0.3430 
 11 C        4.1910    -1.1950    -1.5670 C.3   1 <1>   0.3430 
 12 C       -2.1160    -2.9160    -1.0060 C.ar  1 <1>   0.1900 
 13 C       -1.3620    -3.9560     1.0200 C.ar  1 <1>  -0.1500 
 14 N        4.5710    -0.0110    -0.7010 N.4   1 <1>  -0.9590 
 15 F       -2.9270    -2.8830    -2.0320 F     1 <1>  -0.1900 
 16 C       -2.2200    -3.9220    -0.0620 C.ar  1 <1>   0.1900 
 17 C        4.9710    -0.4330     0.6760 C.3   1 <1>   0.4860 
 18 F       -3.1280    -4.8550    -0.1800 F     1 <1>  -0.1900 
 19 C        6.1950    -1.3180     0.5680 C.ar  1 <1>  -0.1440 
 20 C        7.4290    -0.7850     0.2190 C.ar  1 <1>  -0.1500 
 21 C        6.0840    -2.6790     0.8140 C.ar  1 <1>  -0.1500 
 22 C        8.5340    -1.6100     0.1000 C.ar  1 <1>  -0.1500 
 23 C        7.1910    -3.5020     0.6950 C.ar  1 <1>  -0.1500 
 24 C        8.4140    -2.9680     0.3350 C.ar  1 <1>  -0.1500 
 25 H        1.5110     1.5010    -1.3470 H     1 <1>   0.0800 
 26 H        2.5190     0.7810    -2.5470 H     1 <1>   0.0800 
 27 H        2.4470    -2.1640    -2.3490 H     1 <1>   0.0800 
 28 H        2.6640    -2.4250    -0.6640 H     1 <1>   0.0800 
 29 H       -1.1000    -1.1540    -1.6330 H     1 <1>   0.1500 
 30 H        0.2720    -2.9870     1.9820 H     1 <1>   0.1500 
 31 H        3.1950     1.2240     0.3650 H     1 <1>   0.0800 
 32 H        3.9340     2.0030    -0.9990 H     1 <1>   0.0800 
 33 H        4.3340    -0.9150    -2.5980 H     1 <1>   0.0800 
 34 H        4.8520    -2.0260    -1.3830 H     1 <1>   0.0800 
 35 H       -1.4520    -4.7400     1.7520 H     1 <1>   0.1500 
 36 H        5.4300     0.3820    -1.1060 H     1 <1>   0.4500 
 37 H        4.1810    -0.9780     1.1580 H     1 <1>   0.0800 
 38 H        5.2050     0.4290     1.2790 H     1 <1>   0.0800 
 39 H        7.5530     0.2700     0.0420 H     1 <1>   0.1500 
 40 H        5.1430    -3.1150     1.1060 H     1 <1>   0.1500 
 41 H        9.4930    -1.1990    -0.1700 H     1 <1>   0.1500 
 42 H        7.1050    -4.5580     0.8860 H     1 <1>   0.1500 
 43 H        9.2760    -3.6080     0.2440 H     1 <1>   0.1500 
@<TRIPOS>BOND
  1   1   2  2   
  2   1   3  2   
  3   1   4  am  
  4   1   5  1   
  5   4   6  1   
  6   4   7  1   
  7   5   8  ar  
  8   5   9  ar  
  9   6  10  1   
 10   6  25  1   
 11   6  26  1   
 12   7  11  1   
 13   7  27  1   
 14   7  28  1   
 15   8  12  ar  
 16   8  29  1   
 17   9  13  ar  
 18   9  30  1   
 19  10  14  1   
 20  10  31  1   
 21  10  32  1   
 22  11  14  1   
 23  11  33  1   
 24  11  34  1   
 25  12  15  1   
 26  12  16  ar  
 27  13  16  ar  
 28  13  35  1   
 29  14  17  1   
 30  14  36  1   
 31  16  18  1   
 32  17  19  1   
 33  17  37  1   
 34  17  38  1   
 35  19  20  ar  
 36  19  21  ar  
 37  20  22  ar  
 38  20  39  1   
 39  21  23  ar  
 40  21  40  1   
 41  22  24  ar  
 42  22  41  1   
 43  23  24  ar  
 44  23  42  1   
 45  24  43  1   
@<TRIPOS>SUBSTRUCTURE
  1 ****   7 GROUP 4 **** **** 0

# MOE 2024.06 (io_trps.svl 2023.06)
