@<TRIPOS>MOLECULE
NONAME
38 39 1 0 0 
SMALL
USER_CHARGES


@<TRIPOS>ATOM
  1 CL       0.9420     2.2010     2.1620 Cl    1 <1>  -0.1770 
  2 C        2.2870     2.1350     1.0540 C.ar  1 <1>   0.1770 
  3 C        2.6350     0.9270     0.4810 C.ar  1 <1>  -0.1500 
  4 C        2.9860     3.2920     0.7660 C.ar  1 <1>  -0.1500 
  5 C        3.7060     0.8760    -0.3960 C.ar  1 <1>  -0.1500 
  6 C        4.0570     3.2360    -0.1110 C.ar  1 <1>  -0.1500 
  7 C        4.4220     2.0290    -0.6920 C.ar  1 <1>  -0.1430 
  8 C        5.6140     1.9630    -1.6440 C.3   1 <1>   0.0450 
  9 C        6.9150     1.6080    -0.9370 C.2   1 <1>   0.5690 
 10 O        7.9350     1.5430    -1.5800 O.2   1 <1>  -0.5700 
 11 N        6.9210     1.3880     0.4050 N.am  1 <1>  -0.7300 
 12 C        8.0100     0.7710     1.2200 C.3   1 <1>   0.1400 
 13 C        9.1730     1.7440     1.5090 C.3   1 <1>   0.3430 
 14 N        9.8940     2.1250     0.2620 N.4   1 <1>  -0.9590 
 15 C       10.8570     1.1200    -0.2380 C.3   1 <1>   0.3430 
 16 C       10.6120     3.4160     0.3190 C.3   1 <1>   0.3430 
 17 C       11.6940     1.8870    -1.2500 C.3   1 <1>  -0.1600 
 18 C       11.5860     3.3620    -0.8510 C.3   1 <1>  -0.1600 
 19 H        2.0710     0.0420     0.7180 H     1 <1>   0.1500 
 20 H        2.6900     4.2200     1.2220 H     1 <1>   0.1500 
 21 H        3.9740    -0.0660    -0.8450 H     1 <1>   0.1500 
 22 H        4.5980     4.1390    -0.3370 H     1 <1>   0.1500 
 23 H        5.7400     2.9090    -2.1380 H     1 <1>   0.0800 
 24 H        5.4300     1.2270    -2.4040 H     1 <1>   0.0800 
 25 H        6.0060     1.4570     0.8720 H     1 <1>   0.3700 
 26 H        8.3840    -0.1030     0.7140 H     1 <1>   0.0800 
 27 H        7.5900     0.4470     2.1570 H     1 <1>   0.0800 
 28 H        9.8630     1.2900     2.2010 H     1 <1>   0.0800 
 29 H        8.7650     2.6250     1.9780 H     1 <1>   0.0800 
 30 H        9.1730     2.1910    -0.4890 H     1 <1>   0.4500 
 31 H       10.3530     0.2820    -0.6950 H     1 <1>   0.0800 
 32 H       11.4840     0.7760     0.5680 H     1 <1>   0.0800 
 33 H       11.1620     3.4880     1.2430 H     1 <1>   0.0800 
 34 H        9.9340     4.2500     0.2350 H     1 <1>   0.0800 
 35 H       11.2830     1.7380    -2.2350 H     1 <1>   0.0800 
 36 H       12.7120     1.5390    -1.2470 H     1 <1>   0.0800 
 37 H       12.5400     3.7660    -0.5600 H     1 <1>   0.0800 
 38 H       11.2050     3.9460    -1.6720 H     1 <1>   0.0800 
@<TRIPOS>BOND
  1   1   2  1   
  2   2   3  ar  
  3   2   4  ar  
  4   3   5  ar  
  5   3  19  1   
  6   4   6  ar  
  7   4  20  1   
  8   5   7  ar  
  9   5  21  1   
 10   6   7  ar  
 11   6  22  1   
 12   7   8  1   
 13   8   9  1   
 14   8  23  1   
 15   8  24  1   
 16   9  10  2   
 17   9  11  am  
 18  11  12  1   
 19  11  25  1   
 20  12  13  1   
 21  12  26  1   
 22  12  27  1   
 23  13  14  1   
 24  13  28  1   
 25  13  29  1   
 26  14  15  1   
 27  14  16  1   
 28  14  30  1   
 29  15  17  1   
 30  15  31  1   
 31  15  32  1   
 32  16  18  1   
 33  16  33  1   
 34  16  34  1   
 35  17  18  1   
 36  17  35  1   
 37  17  36  1   
 38  18  37  1   
 39  18  38  1   
@<TRIPOS>SUBSTRUCTURE
  1 ****  11 GROUP 4 **** **** 0

# MOE 2024.06 (io_trps.svl 2023.06)
