@<TRIPOS>MOLECULE
NONAME
42 44 1 0 0 
SMALL
USER_CHARGES


@<TRIPOS>ATOM
  1 F       -3.2320     5.0560     0.3410 F     1 <1>  -0.1900 
  2 C       -2.1570     4.3060     0.3730 C.ar  1 <1>   0.1900 
  3 C       -2.2510     2.9760    -0.0380 C.ar  1 <1>   0.1170 
  4 C       -0.9830     4.8800     0.8190 C.ar  1 <1>  -0.1500 
  5 N       -3.4830     2.4600    -0.4840 N.am  1 <1>  -0.5470 
  6 C       -1.0820     2.2220     0.0130 C.ar  1 <1>  -0.1500 
  7 C        0.1630     4.1040     0.8610 C.ar  1 <1>  -0.1500 
  8 C       -3.9360     1.1980    -0.7370 C.2   1 <1>   0.5690 
  9 C        0.1090     2.7780     0.4580 C.ar  1 <1>  -0.1500 
 10 O       -3.2700     0.1980    -0.6170 O.2   1 <1>  -0.5700 
 11 C       -5.3900     1.0740    -1.2000 C.3   1 <1>   0.1710 
 12 N       -6.2390     2.2510    -0.8450 N.3   1 <1>  -0.8100 
 13 C       -7.4870     2.2590    -1.6430 C.3   1 <1>   0.1100 
 14 C       -6.5780     2.2510     0.6030 C.3   1 <1>   0.1100 
 15 C       -8.4000     3.4500    -1.2890 C.3   1 <1>   0.2090 
 16 C       -7.4780     3.4380     0.9950 C.3   1 <1>   0.2090 
 17 N       -8.7190     3.4610     0.1660 N.pl3 1 <1>  -0.8380 
 18 C       -9.7560     4.2810     0.5660 C.ar  1 <1>   0.4100 
 19 N       -9.4420     5.4020     1.2060 N.ar  1 <1>  -0.6200 
 20 C      -11.0670     3.9110     0.2780 C.ar  1 <1>  -0.1500 
 21 C      -10.4580     6.1690     1.5610 C.ar  1 <1>   0.1600 
 22 C      -12.1150     4.7180     0.6520 C.ar  1 <1>  -0.1500 
 23 C      -11.7890     5.8840     1.3140 C.ar  1 <1>  -0.1500 
 24 H       -0.9680     5.9100     1.1250 H     1 <1>   0.1500 
 25 H       -4.2390     3.1510    -0.5780 H     1 <1>   0.3700 
 26 H       -1.0910     1.1930    -0.2960 H     1 <1>   0.1500 
 27 H        1.0920     4.5260     1.2040 H     1 <1>   0.1500 
 28 H        0.9990     2.1730     0.4890 H     1 <1>   0.1500 
 29 H       -5.8130     0.1760    -0.7860 H     1 <1>   0.0800 
 30 H       -5.3660     0.9640    -2.2690 H     1 <1>   0.0800 
 31 H       -8.0340     1.3470    -1.4750 H     1 <1>   0.0800 
 32 H       -7.2410     2.3160    -2.6890 H     1 <1>   0.0800 
 33 H       -5.6770     2.2980     1.1900 H     1 <1>   0.0800 
 34 H       -7.0910     1.3390     0.8590 H     1 <1>   0.0800 
 35 H       -9.3100     3.3870    -1.8590 H     1 <1>   0.0800 
 36 H       -7.9040     4.3690    -1.5490 H     1 <1>   0.0800 
 37 H       -6.9370     4.3590     0.8580 H     1 <1>   0.0800 
 38 H       -7.7460     3.3610     2.0340 H     1 <1>   0.0800 
 39 H      -11.2390     2.9840    -0.2340 H     1 <1>   0.1500 
 40 H      -10.2150     7.0810     2.0790 H     1 <1>   0.1500 
 41 H      -13.1370     4.4550     0.4420 H     1 <1>   0.1500 
 42 H      -12.5580     6.5630     1.6360 H     1 <1>   0.1500 
@<TRIPOS>BOND
  1   1   2  1   
  2   2   3  ar  
  3   2   4  ar  
  4   3   5  1   
  5   3   6  ar  
  6   4   7  ar  
  7   4  24  1   
  8   5   8  am  
  9   5  25  1   
 10   6   9  ar  
 11   6  26  1   
 12   7   9  ar  
 13   7  27  1   
 14   8  10  2   
 15   8  11  1   
 16   9  28  1   
 17  11  12  1   
 18  11  29  1   
 19  11  30  1   
 20  12  13  1   
 21  12  14  1   
 22  13  15  1   
 23  13  31  1   
 24  13  32  1   
 25  14  16  1   
 26  14  33  1   
 27  14  34  1   
 28  15  17  1   
 29  15  35  1   
 30  15  36  1   
 31  16  17  1   
 32  16  37  1   
 33  16  38  1   
 34  17  18  1   
 35  18  19  ar  
 36  18  20  ar  
 37  19  21  ar  
 38  20  22  ar  
 39  20  39  1   
 40  21  23  ar  
 41  21  40  1   
 42  22  23  ar  
 43  22  41  1   
 44  23  42  1   
@<TRIPOS>SUBSTRUCTURE
  1 ****  14 GROUP 4 **** **** 0

# MOE 2024.06 (io_trps.svl 2023.06)
