@<TRIPOS>MOLECULE
NONAME
43 44 1 0 0 
SMALL
USER_CHARGES


@<TRIPOS>ATOM
  1 S       -0.5410    -1.3240     2.7830 S.3   1 <1>  -0.0800 
  2 C       -0.0270    -1.5970     1.1310 C.2   1 <1>  -0.1400 
  3 C       -2.1210    -1.9750     2.4420 C.2   1 <1>  -0.1100 
  4 C       -1.0220    -2.1460     0.4050 C.2   1 <1>  -0.1810 
  5 C        1.4030    -1.1940     0.8230 C.3   1 <1>  -0.0600 
  6 C       -2.2500    -2.3540     1.1480 C.2   1 <1>  -0.0860 
  7 C       -0.9050    -2.5600    -1.0560 C.3   1 <1>  -0.0590 
  8 C       -3.4750    -2.8960     0.6000 C.2   1 <1>   0.7160 
  9 O       -4.0740    -3.7720     1.1890 O.2   1 <1>  -0.5700 
 10 N       -3.9690    -2.3670    -0.5560 N.am  1 <1>  -0.7300 
 11 C       -5.2410    -2.6180    -1.2620 C.3   1 <1>   0.3640 
 12 C       -6.3250    -1.7020    -0.7040 C.ar  1 <1>  -0.1440 
 13 C       -5.6570    -4.0900    -1.2710 C.3   1 <1>  -0.2400 
 14 C       -6.8880    -0.7260    -1.5110 C.ar  1 <1>  -0.1500 
 15 C       -6.7670    -1.8170     0.6050 C.ar  1 <1>  -0.1500 
 16 C       -7.8740     0.1270    -1.0410 C.ar  1 <1>   0.0820 
 17 C       -7.7430    -0.9690     1.0980 C.ar  1 <1>  -0.1500 
 18 O       -8.3340     1.0210    -1.9620 O.3   1 <1>  -0.3620 
 19 C       -8.3060     0.0180     0.2920 C.ar  1 <1>   0.0820 
 20 C       -9.6530     1.5180    -1.9150 C.3   1 <1>   0.0400 
 21 O       -9.2460     0.8790     0.7810 O.3   1 <1>  -0.3630 
 22 C       -9.5930     0.9150     2.1480 C.3   1 <1>   0.0400 
 23 H       -2.8290    -2.0130     3.2510 H     1 <1>   0.1500 
 24 H        1.5410    -0.1520     1.0490 H     1 <1>   0.0800 
 25 H        1.6400    -1.3540    -0.2110 H     1 <1>   0.0800 
 26 H        2.0790    -1.7710     1.4270 H     1 <1>   0.0800 
 27 H        0.1170    -2.5360    -1.3850 H     1 <1>   0.0800 
 28 H       -1.4750    -1.8960    -1.6800 H     1 <1>   0.0800 
 29 H       -1.2690    -3.5640    -1.1840 H     1 <1>   0.0800 
 30 H       -3.5390    -1.4860    -0.8310 H     1 <1>   0.3700 
 31 H       -5.0770    -2.3460    -2.2910 H     1 <1>   0.0800 
 32 H       -5.9680    -4.4150    -0.2960 H     1 <1>   0.0800 
 33 H       -4.8430    -4.7040    -1.6100 H     1 <1>   0.0800 
 34 H       -6.4880    -4.2200    -1.9400 H     1 <1>   0.0800 
 35 H       -6.5700    -0.6120    -2.5320 H     1 <1>   0.1500 
 36 H       -6.3480    -2.5690     1.2510 H     1 <1>   0.1500 
 37 H       -8.0450    -1.1010     2.1180 H     1 <1>   0.1500 
 38 H       -9.8970     1.9150    -2.8830 H     1 <1>   0.0800 
 39 H       -9.7030     2.3000    -1.1790 H     1 <1>   0.0800 
 40 H      -10.3220     0.7140    -1.6660 H     1 <1>   0.0800 
 41 H      -10.2960     1.7150     2.2930 H     1 <1>   0.0800 
 42 H       -8.7060     1.0990     2.7280 H     1 <1>   0.0800 
 43 H      -10.0460    -0.0220     2.4180 H     1 <1>   0.0800 
@<TRIPOS>BOND
  1   1   2  1   
  2   1   3  1   
  3   2   4  2   
  4   2   5  1   
  5   3   6  2   
  6   3  23  1   
  7   4   6  1   
  8   4   7  1   
  9   5  24  1   
 10   5  25  1   
 11   5  26  1   
 12   6   8  1   
 13   7  27  1   
 14   7  28  1   
 15   7  29  1   
 16   8   9  2   
 17   8  10  am  
 18  10  11  1   
 19  10  30  1   
 20  11  12  1   
 21  11  13  1   
 22  11  31  1   
 23  12  14  ar  
 24  12  15  ar  
 25  13  32  1   
 26  13  33  1   
 27  13  34  1   
 28  14  16  ar  
 29  14  35  1   
 30  15  17  ar  
 31  15  36  1   
 32  16  18  1   
 33  16  19  ar  
 34  17  19  ar  
 35  17  37  1   
 36  18  20  1   
 37  19  21  1   
 38  20  38  1   
 39  20  39  1   
 40  20  40  1   
 41  21  22  1   
 42  22  41  1   
 43  22  42  1   
 44  22  43  1   
@<TRIPOS>SUBSTRUCTURE
  1 ****  10 GROUP 4 **** **** 0

# MOE 2024.06 (io_trps.svl 2023.06)
