@<TRIPOS>MOLECULE
NONAME
39 40 1 0 0 
SMALL
USER_CHARGES


@<TRIPOS>ATOM
  1 CL       0.0950    -0.3290    -0.5180 Cl    1 <1>  -0.1770 
  2 C        1.4950     0.6990    -0.3490 C.ar  1 <1>   0.1770 
  3 C        1.3190     2.0650    -0.2110 C.ar  1 <1>  -0.1500 
  4 C        2.7570     0.1300    -0.3550 C.ar  1 <1>  -0.1500 
  5 C        2.4330     2.8790    -0.0770 C.ar  1 <1>  -0.1500 
  6 C        3.8710     0.9430    -0.2210 C.ar  1 <1>  -0.1500 
  7 C        3.6980     2.3140    -0.0830 C.ar  1 <1>   0.1020 
  8 S        5.0920     3.4410     0.0970 S.3   1 <1>  -0.3320 
  9 C        6.6180     2.4020     0.0600 C.3   1 <1>   0.0700 
 10 C        7.8200     3.3380     0.2060 C.3   1 <1>  -0.0990 
 11 C        9.1450     2.5930     0.2100 C.2   1 <1>   0.5690 
 12 O        9.1530     1.4310    -0.1170 O.2   1 <1>  -0.5700 
 13 N       10.3090     3.2310     0.5660 N.am  1 <1>  -0.6600 
 14 C       11.5830     2.4590     0.7170 C.3   1 <1>   0.1400 
 15 C       10.4630     4.7080     0.7460 C.3   1 <1>   0.1400 
 16 C       12.6760     3.0210    -0.2090 C.3   1 <1>   0.3430 
 17 C       11.5860     5.2580    -0.1610 C.3   1 <1>   0.3430 
 18 N       12.8800     4.5010    -0.0030 N.4   1 <1>  -0.9590 
 19 C       13.9280     5.0270    -0.9320 C.3   1 <1>   0.2630 
 20 H        0.3270     2.4800    -0.2100 H     1 <1>   0.1500 
 21 H        2.8610    -0.9350    -0.4630 H     1 <1>   0.1500 
 22 H        2.3250     3.9430     0.0310 H     1 <1>   0.1500 
 23 H        4.8470     0.4970    -0.2260 H     1 <1>   0.1500 
 24 H        6.6350     1.8800    -0.8800 H     1 <1>   0.0800 
 25 H        6.5590     1.7050     0.8780 H     1 <1>   0.0800 
 26 H        7.7200     3.8770     1.1290 H     1 <1>   0.0800 
 27 H        7.8160     4.0340    -0.6120 H     1 <1>   0.0800 
 28 H       11.4330     1.4190     0.4830 H     1 <1>   0.0800 
 29 H       11.9100     2.5110     1.7410 H     1 <1>   0.0800 
 30 H       10.6960     4.9160     1.7770 H     1 <1>   0.0800 
 31 H        9.5490     5.2230     0.5100 H     1 <1>   0.0800 
 32 H       12.3830     2.8320    -1.2300 H     1 <1>   0.0800 
 33 H       13.5970     2.4930    -0.0270 H     1 <1>   0.0800 
 34 H       11.7410     6.3000     0.0640 H     1 <1>   0.0800 
 35 H       11.2540     5.1900    -1.1850 H     1 <1>   0.0800 
 36 H       13.2040     4.6340     0.9660 H     1 <1>   0.4500 
 37 H       13.6190     4.8980    -1.9570 H     1 <1>   0.0800 
 38 H       14.8580     4.5020    -0.7840 H     1 <1>   0.0800 
 39 H       14.0960     6.0770    -0.7520 H     1 <1>   0.0800 
@<TRIPOS>BOND
  1   1   2  1   
  2   2   3  ar  
  3   2   4  ar  
  4   3   5  ar  
  5   3  20  1   
  6   4   6  ar  
  7   4  21  1   
  8   5   7  ar  
  9   5  22  1   
 10   6   7  ar  
 11   6  23  1   
 12   7   8  1   
 13   8   9  1   
 14   9  10  1   
 15   9  24  1   
 16   9  25  1   
 17  10  11  1   
 18  10  26  1   
 19  10  27  1   
 20  11  12  2   
 21  11  13  am  
 22  13  14  1   
 23  13  15  1   
 24  14  16  1   
 25  14  28  1   
 26  14  29  1   
 27  15  17  1   
 28  15  30  1   
 29  15  31  1   
 30  16  18  1   
 31  16  32  1   
 32  16  33  1   
 33  17  18  1   
 34  17  34  1   
 35  17  35  1   
 36  18  19  1   
 37  18  36  1   
 38  19  37  1   
 39  19  38  1   
 40  19  39  1   
@<TRIPOS>SUBSTRUCTURE
  1 ****   9 GROUP 4 **** **** 0

# MOE 2024.06 (io_trps.svl 2023.06)
