@<TRIPOS>MOLECULE
NONAME
41 43 1 0 0 
SMALL
USER_CHARGES


@<TRIPOS>ATOM
  1 O       -0.6850    -0.7710    -1.9430 O.3   1 <1>  -0.5320 
  2 C       -1.7340    -1.1850    -1.2170 C.ar  1 <1>   0.0830 
  3 C       -2.0510    -0.5090    -0.0540 C.ar  1 <1>  -0.1500 
  4 C       -2.4840    -2.2750    -1.6240 C.ar  1 <1>  -0.1500 
  5 C       -3.1300    -0.9200     0.7090 C.ar  1 <1>  -0.1500 
  6 C       -3.5640    -2.6850    -0.8620 C.ar  1 <1>  -0.1500 
  7 C       -3.8970    -2.0060     0.3050 C.ar  1 <1>  -0.1430 
  8 C       -5.0900    -2.4410     1.1330 C.3   1 <1>   0.4860 
  9 N       -6.3310    -1.9780     0.4560 N.4   1 <1>  -0.9590 
 10 C       -6.3920    -0.4670     0.3820 C.3   1 <1>   0.3430 
 11 C       -7.5690    -2.5420     1.1120 C.3   1 <1>   0.3430 
 12 C       -7.6900     0.0460    -0.2770 C.3   1 <1>   0.2090 
 13 C       -8.8720    -2.0420     0.4520 C.3   1 <1>   0.2090 
 14 N       -8.8850    -0.5540     0.3820 N.pl3 1 <1>  -0.8380 
 15 C      -10.1090     0.0350     0.0880 C.ar  1 <1>   0.1000 
 16 C      -10.7840     0.7420     1.0730 C.ar  1 <1>  -0.1500 
 17 C      -10.6820    -0.0670    -1.1760 C.ar  1 <1>  -0.1500 
 18 C      -12.0040     1.3370     0.8070 C.ar  1 <1>  -0.1500 
 19 C      -11.9020     0.5260    -1.4460 C.ar  1 <1>  -0.1500 
 20 C      -12.5650     1.2290    -0.4540 C.ar  1 <1>  -0.1500 
 21 H       -0.5020    -1.3230    -2.7240 H     1 <1>   0.4500 
 22 H       -1.4470     0.3300     0.2460 H     1 <1>   0.1500 
 23 H       -2.2280    -2.8020    -2.5260 H     1 <1>   0.1500 
 24 H       -3.3540    -0.3850     1.6160 H     1 <1>   0.1500 
 25 H       -4.1320    -3.5390    -1.1890 H     1 <1>   0.1500 
 26 H       -5.0250    -2.0200     2.1230 H     1 <1>   0.0800 
 27 H       -5.0910    -3.5160     1.2170 H     1 <1>   0.0800 
 28 H       -6.2890    -2.3170    -0.5120 H     1 <1>   0.4500 
 29 H       -5.5480    -0.0910    -0.1740 H     1 <1>   0.0800 
 30 H       -6.3410    -0.0550     1.3760 H     1 <1>   0.0800 
 31 H       -7.5920    -2.2470     2.1480 H     1 <1>   0.0800 
 32 H       -7.5490    -3.6180     1.0740 H     1 <1>   0.0800 
 33 H       -7.6910    -0.1960    -1.3250 H     1 <1>   0.0800 
 34 H       -7.7380     1.1190    -0.1860 H     1 <1>   0.0800 
 35 H       -9.7170    -2.3750     1.0310 H     1 <1>   0.0800 
 36 H       -8.9670    -2.4530    -0.5380 H     1 <1>   0.0800 
 37 H      -10.3460     0.8240     2.0500 H     1 <1>   0.1500 
 38 H      -10.1740    -0.6100    -1.9490 H     1 <1>   0.1500 
 39 H      -12.5180     1.8830     1.5790 H     1 <1>   0.1500 
 40 H      -12.3390     0.4430    -2.4260 H     1 <1>   0.1500 
 41 H      -13.5140     1.6910    -0.6630 H     1 <1>   0.1500 
@<TRIPOS>BOND
  1   1   2  1   
  2   1  21  1   
  3   2   3  ar  
  4   2   4  ar  
  5   3   5  ar  
  6   3  22  1   
  7   4   6  ar  
  8   4  23  1   
  9   5   7  ar  
 10   5  24  1   
 11   6   7  ar  
 12   6  25  1   
 13   7   8  1   
 14   8   9  1   
 15   8  26  1   
 16   8  27  1   
 17   9  10  1   
 18   9  11  1   
 19   9  28  1   
 20  10  12  1   
 21  10  29  1   
 22  10  30  1   
 23  11  13  1   
 24  11  31  1   
 25  11  32  1   
 26  12  14  1   
 27  12  33  1   
 28  12  34  1   
 29  13  14  1   
 30  13  35  1   
 31  13  36  1   
 32  14  15  1   
 33  15  16  ar  
 34  15  17  ar  
 35  16  18  ar  
 36  16  37  1   
 37  17  19  ar  
 38  17  38  1   
 39  18  20  ar  
 40  18  39  1   
 41  19  20  ar  
 42  19  40  1   
 43  20  41  1   
@<TRIPOS>SUBSTRUCTURE
  1 ****  10 GROUP 4 **** **** 0

# MOE 2024.06 (io_trps.svl 2023.06)
