@<TRIPOS>MOLECULE
NONAME
40 40 1 0 0 
SMALL
USER_CHARGES


@<TRIPOS>ATOM
  1 CL      -1.8540     0.7080    -1.5750 Cl    1 <1>  -0.1770 
  2 C       -0.9810     2.0790    -0.9420 C.ar  1 <1>   0.1770 
  3 C        0.2570     2.3900    -1.4720 C.ar  1 <1>  -0.1500 
  4 C       -1.5360     2.8290     0.0750 C.ar  1 <1>  -0.1500 
  5 C        0.9610     3.4770    -0.9730 C.ar  1 <1>  -0.1440 
  6 C       -0.8390     3.9140     0.5770 C.ar  1 <1>  -0.1500 
  7 C        0.4130     4.2420     0.0560 C.ar  1 <1>   0.0830 
  8 C        2.3130     3.8330    -1.5520 C.3   1 <1>   0.4870 
  9 O        1.1500     5.2890     0.5180 O.3   1 <1>  -0.3630 
 10 N        3.2860     3.7690    -0.4350 N.4   1 <1>  -0.9060 
 11 C        0.5540     6.2950     1.3140 C.3   1 <1>   0.1200 
 12 C        4.6460     4.2990    -0.7780 C.3   1 <1>   0.3430 
 13 C        1.5800     7.4050     1.5210 C.3   1 <1>  -0.2400 
 14 C        5.6190     4.3330     0.4380 C.3   1 <1>   0.3430 
 15 N        7.0070     4.8420     0.1250 N.4   1 <1>  -0.9590 
 16 C        7.9050     4.6540     1.3160 C.3   1 <1>   0.2630 
 17 C        7.0450     6.2900    -0.2800 C.3   1 <1>   0.2630 
 18 H        0.6390     1.7750    -2.2690 H     1 <1>   0.1500 
 19 H       -2.5040     2.5630     0.4660 H     1 <1>   0.1500 
 20 H       -1.2890     4.4810     1.3710 H     1 <1>   0.1500 
 21 H        2.2690     4.8310    -1.9600 H     1 <1>   0.0800 
 22 H        2.5800     3.1430    -2.3370 H     1 <1>   0.0800 
 23 H        3.2840     2.7980    -0.0920 H     1 <1>   0.4500 
 24 H        2.8140     4.3310     0.2990 H     1 <1>   0.4500 
 25 H        0.2660     5.8660     2.2590 H     1 <1>   0.0800 
 26 H       -0.3150     6.6730     0.8010 H     1 <1>   0.0800 
 27 H        4.5420     5.3000    -1.1630 H     1 <1>   0.0800 
 28 H        5.0770     3.6820    -1.5500 H     1 <1>   0.0800 
 29 H        2.4410     7.0330     2.0440 H     1 <1>   0.0800 
 30 H        1.1400     8.1880     2.1140 H     1 <1>   0.0800 
 31 H        1.8720     7.8270     0.5760 H     1 <1>   0.0800 
 32 H        5.7030     3.3320     0.8300 H     1 <1>   0.0800 
 33 H        5.1890     4.9540     1.2080 H     1 <1>   0.0800 
 34 H        7.4300     4.2850    -0.6390 H     1 <1>   0.4500 
 35 H        7.5440     5.2260     2.1570 H     1 <1>   0.0800 
 36 H        8.9070     4.9830     1.0870 H     1 <1>   0.0800 
 37 H        7.9470     3.6140     1.6000 H     1 <1>   0.0800 
 38 H        6.6440     6.9130     0.5040 H     1 <1>   0.0800 
 39 H        6.4750     6.4530    -1.1800 H     1 <1>   0.0800 
 40 H        8.0620     6.5970    -0.4670 H     1 <1>   0.0800 
@<TRIPOS>BOND
  1   1   2  1   
  2   2   3  ar  
  3   2   4  ar  
  4   3   5  ar  
  5   3  18  1   
  6   4   6  ar  
  7   4  19  1   
  8   5   7  ar  
  9   5   8  1   
 10   6   7  ar  
 11   6  20  1   
 12   7   9  1   
 13   8  10  1   
 14   8  21  1   
 15   8  22  1   
 16   9  11  1   
 17  10  12  1   
 18  10  23  1   
 19  10  24  1   
 20  11  13  1   
 21  11  25  1   
 22  11  26  1   
 23  12  14  1   
 24  12  27  1   
 25  12  28  1   
 26  13  29  1   
 27  13  30  1   
 28  13  31  1   
 29  14  15  1   
 30  14  32  1   
 31  14  33  1   
 32  15  16  1   
 33  15  17  1   
 34  15  34  1   
 35  16  35  1   
 36  16  36  1   
 37  16  37  1   
 38  17  38  1   
 39  17  39  1   
 40  17  40  1   
@<TRIPOS>SUBSTRUCTURE
  1 ****  10 GROUP 4 **** **** 0

# MOE 2024.06 (io_trps.svl 2023.06)
