@<TRIPOS>MOLECULE
NONAME
37 37 1 0 0 
SMALL
USER_CHARGES


@<TRIPOS>ATOM
  1 S       -0.4350     0.0690     0.1030 S.o2  1 <1>   1.4470 
  2 O       -1.3120    -0.0190     1.2480 O.2   1 <1>  -0.6500 
  3 O       -0.9520    -0.1580    -1.2280 O.2   1 <1>  -0.6500 
  4 N        0.6630    -1.1550     0.4350 N.am  1 <1>  -0.9140 
  5 C        0.5710     1.5800     0.1370 C.ar  1 <1>  -0.0090 
  6 C        0.3110    -2.4340    -0.1210 C.3   1 <1>   0.2760 
  7 C       -0.0510     2.8240     0.1830 C.ar  1 <1>   0.0830 
  8 C        1.9600     1.5430     0.0940 C.ar  1 <1>  -0.1500 
  9 C        0.7230    -3.4940     0.8930 C.3   1 <1>  -0.2400 
 10 C        1.0770    -2.6210    -1.4270 C.3   1 <1>  -0.2400 
 11 O       -1.4030     2.8460     0.1980 O.3   1 <1>  -0.3630 
 12 C        0.7130     3.9870     0.2100 C.ar  1 <1>  -0.1500 
 13 C        2.7510     2.6910     0.1110 C.ar  1 <1>   0.0860 
 14 C       -2.1530     4.0370     0.2730 C.3   1 <1>   0.0400 
 15 C        2.0910     3.9170     0.1780 C.ar  1 <1>  -0.1500 
 16 C        4.1990     2.5990     0.0630 C.2   1 <1>   0.5440 
 17 O        4.7730     1.6450     0.5510 O.2   1 <1>  -0.5700 
 18 N        4.9420     3.5750    -0.5450 N.am  1 <1>  -0.7300 
 19 C        6.4240     3.5910    -0.6490 C.3   1 <1>   0.0600 
 20 H        0.5570    -1.2550     1.4420 H     1 <1>   0.4200 
 21 H       -0.7530    -2.5050    -0.2930 H     1 <1>   0.0800 
 22 H        2.4650     0.5920     0.0430 H     1 <1>   0.1500 
 23 H        1.7790    -3.4370     1.0960 H     1 <1>   0.0800 
 24 H        0.5050    -4.4720     0.5040 H     1 <1>   0.0800 
 25 H        0.1740    -3.3700     1.8090 H     1 <1>   0.0800 
 26 H        2.1370    -2.5430    -1.2590 H     1 <1>   0.0800 
 27 H        0.7800    -1.8810    -2.1470 H     1 <1>   0.0800 
 28 H        0.8650    -3.5900    -1.8410 H     1 <1>   0.0800 
 29 H        0.2490     4.9550     0.2570 H     1 <1>   0.1500 
 30 H       -3.1960     3.7730     0.2810 H     1 <1>   0.0800 
 31 H       -1.9370     4.6420    -0.5900 H     1 <1>   0.0800 
 32 H       -1.9010     4.5530     1.1830 H     1 <1>   0.0800 
 33 H        2.6640     4.8260     0.2130 H     1 <1>   0.1500 
 34 H        4.4560     4.3110    -1.0610 H     1 <1>   0.3700 
 35 H        6.8520     2.7950    -0.0620 H     1 <1>   0.0800 
 36 H        6.8050     4.5290    -0.2870 H     1 <1>   0.0800 
 37 H        6.7180     3.4590    -1.6750 H     1 <1>   0.0800 
@<TRIPOS>BOND
  1   1   2  2   
  2   1   3  2   
  3   1   4  am  
  4   1   5  1   
  5   4   6  1   
  6   4  20  1   
  7   5   7  ar  
  8   5   8  ar  
  9   6   9  1   
 10   6  10  1   
 11   6  21  1   
 12   7  11  1   
 13   7  12  ar  
 14   8  13  ar  
 15   8  22  1   
 16   9  23  1   
 17   9  24  1   
 18   9  25  1   
 19  10  26  1   
 20  10  27  1   
 21  10  28  1   
 22  11  14  1   
 23  12  15  ar  
 24  12  29  1   
 25  13  15  ar  
 26  13  16  1   
 27  14  30  1   
 28  14  31  1   
 29  14  32  1   
 30  15  33  1   
 31  16  17  2   
 32  16  18  am  
 33  18  19  1   
 34  18  34  1   
 35  19  35  1   
 36  19  36  1   
 37  19  37  1   
@<TRIPOS>SUBSTRUCTURE
  1 ****   8 GROUP 4 **** **** 0

# MOE 2024.06 (io_trps.svl 2023.06)
