@<TRIPOS>MOLECULE
NONAME
40 42 1 0 0 
SMALL
USER_CHARGES


@<TRIPOS>ATOM
  1 BR      -0.4730     0.0450    -0.3770 Br    1 <1>  -0.1110 
  2 C        0.5790     1.6570    -0.3500 C.ar  1 <1>   0.1110 
  3 C        0.0880     2.8490    -0.8670 C.ar  1 <1>  -0.0090 
  4 C        1.8360     1.5530     0.2150 C.ar  1 <1>  -0.1500 
  5 S       -1.5600     2.9850    -1.6020 S.o2  1 <1>   1.4470 
  6 C        0.9270     3.9540    -0.7880 C.ar  1 <1>  -0.1500 
  7 C        2.6430     2.6720     0.2740 C.ar  1 <1>  -0.1500 
  8 O       -1.8130     4.3620    -1.9700 O.2   1 <1>  -0.6500 
  9 O       -1.7330     1.9630    -2.6100 O.2   1 <1>  -0.6500 
 10 N       -2.5980     2.6240    -0.3140 N.am  1 <1>  -0.8490 
 11 C        2.2070     3.8990    -0.2330 C.ar  1 <1>   0.0860 
 12 C       -3.9300     2.2410    -0.7450 C.3   1 <1>   0.1960 
 13 C       -2.7910     3.6950     0.6500 C.3   1 <1>   0.1960 
 14 C        3.0400     5.0830    -0.1880 C.2   1 <1>   0.5440 
 15 C       -4.7830     2.3330     0.5160 C.3   1 <1>  -0.1600 
 16 C       -4.0000     3.2480     1.4600 C.3   1 <1>  -0.1600 
 17 O        2.5450     6.1690     0.0340 O.2   1 <1>  -0.5700 
 18 N        4.3840     4.9720    -0.4140 N.am  1 <1>  -0.4930 
 19 C        5.3890     5.9360    -0.3980 C.2   1 <1>   0.3520 
 20 N        6.6050     5.6250    -0.6800 N.2   1 <1>  -0.4100 
 21 C        5.2860     7.2960    -0.0990 C.2   1 <1>  -0.1500 
 22 O        7.2960     6.7320    -0.5760 O.3   1 <1>  -0.0190 
 23 C        6.5410     7.7430    -0.2330 C.2   1 <1>  -0.0400 
 24 C        7.1500     9.1180    -0.0590 C.3   1 <1>  -0.0600 
 25 H        2.1700     0.6070     0.6060 H     1 <1>   0.1500 
 26 H        0.5810     4.9010    -1.1730 H     1 <1>   0.1500 
 27 H        3.6160     2.5930     0.7270 H     1 <1>   0.1500 
 28 H       -3.9270     1.2470    -1.1600 H     1 <1>   0.0800 
 29 H       -4.2900     2.9390    -1.4850 H     1 <1>   0.0800 
 30 H       -3.0230     4.6200     0.1450 H     1 <1>   0.0800 
 31 H       -1.9190     3.8280     1.2670 H     1 <1>   0.0800 
 32 H       -4.8970     1.3560     0.9510 H     1 <1>   0.0800 
 33 H       -5.7550     2.7300     0.2840 H     1 <1>   0.0800 
 34 H       -4.5810     4.0930     1.7840 H     1 <1>   0.0800 
 35 H       -3.6690     2.6950     2.3210 H     1 <1>   0.0800 
 36 H        4.7360     4.0600    -0.6920 H     1 <1>   0.3700 
 37 H        4.3900     7.8230     0.1700 H     1 <1>   0.1500 
 38 H        6.3920     9.8260     0.2230 H     1 <1>   0.0800 
 39 H        7.6000     9.4360    -0.9820 H     1 <1>   0.0800 
 40 H        7.9040     9.0890     0.7070 H     1 <1>   0.0800 
@<TRIPOS>BOND
  1   1   2  1   
  2   2   3  ar  
  3   2   4  ar  
  4   3   5  1   
  5   3   6  ar  
  6   4   7  ar  
  7   4  25  1   
  8   5   8  2   
  9   5   9  2   
 10   5  10  am  
 11   6  11  ar  
 12   6  26  1   
 13   7  11  ar  
 14   7  27  1   
 15  10  12  1   
 16  10  13  1   
 17  11  14  1   
 18  12  15  1   
 19  12  28  1   
 20  12  29  1   
 21  13  16  1   
 22  13  30  1   
 23  13  31  1   
 24  14  17  2   
 25  14  18  am  
 26  15  16  1   
 27  15  32  1   
 28  15  33  1   
 29  16  34  1   
 30  16  35  1   
 31  18  19  1   
 32  18  36  1   
 33  19  20  2   
 34  19  21  1   
 35  20  22  1   
 36  21  23  2   
 37  21  37  1   
 38  22  23  1   
 39  23  24  1   
 40  24  38  1   
 41  24  39  1   
 42  24  40  1   
@<TRIPOS>SUBSTRUCTURE
  1 ****   6 GROUP 4 **** **** 0

# MOE 2024.06 (io_trps.svl 2023.06)
