@<TRIPOS>MOLECULE
NONAME
50 52 1 0 0 
SMALL
USER_CHARGES


@<TRIPOS>ATOM
  1 S       -0.8090     1.3460     1.7070 S.o2  1 <1>   1.4470 
  2 O       -1.4050     2.2460     2.6720 O.2   1 <1>  -0.6500 
  3 O       -0.7510    -0.0700     1.9960 O.2   1 <1>  -0.6500 
  4 N       -1.7000     1.5150     0.2760 N.am  1 <1>  -0.8490 
  5 C        0.8430     1.9300     1.2350 C.ar  1 <1>  -0.0090 
  6 C       -2.9960     0.8180     0.3730 C.3   1 <1>   0.1960 
  7 C       -1.9380     2.9300    -0.0740 C.3   1 <1>   0.1960 
  8 C        1.4090     3.0550     1.8240 C.ar  1 <1>  -0.1500 
  9 C        1.5800     1.2690     0.2580 C.ar  1 <1>  -0.1500 
 10 C       -3.8150     0.8960    -0.9320 C.3   1 <1>   0.2090 
 11 C       -2.6880     3.0850    -1.4110 C.3   1 <1>   0.2090 
 12 C        2.6630     3.5050     1.4500 C.ar  1 <1>  -0.1500 
 13 C        2.8360     1.7090    -0.1230 C.ar  1 <1>  -0.1500 
 14 N       -3.9530     2.2920    -1.4510 N.pl3 1 <1>  -0.8380 
 15 C        3.3860     2.8380     0.4750 C.ar  1 <1>   0.0830 
 16 C       -5.1470     2.9650    -1.2150 C.ar  1 <1>   0.1000 
 17 O        4.6060     3.3410     0.1670 O.3   1 <1>  -0.3630 
 18 C       -5.5240     3.3720     0.0590 C.ar  1 <1>  -0.1500 
 19 C       -5.9890     3.2470    -2.2810 C.ar  1 <1>  -0.1500 
 20 C        5.4490     2.7100    -0.7680 C.3   1 <1>   0.1200 
 21 C       -6.7140     4.0450     0.2700 C.ar  1 <1>   0.0830 
 22 C       -7.1820     3.9180    -2.0850 C.ar  1 <1>  -0.1500 
 23 C        6.7420     3.5150    -0.8580 C.3   1 <1>  -0.2400 
 24 O       -6.9970     4.4020     1.5490 O.3   1 <1>  -0.3630 
 25 C       -7.5490     4.3200    -0.8110 C.ar  1 <1>  -0.1500 
 26 C       -8.1840     5.0940     1.8690 C.3   1 <1>   0.0400 
 27 H       -3.5770     1.2380     1.1770 H     1 <1>   0.0800 
 28 H       -2.8300    -0.2210     0.6020 H     1 <1>   0.0800 
 29 H       -0.9970     3.4460    -0.1530 H     1 <1>   0.0800 
 30 H       -2.5120     3.4120     0.7000 H     1 <1>   0.0800 
 31 H        0.8640     3.5870     2.5860 H     1 <1>   0.1500 
 32 H        1.1590     0.3940    -0.2090 H     1 <1>   0.1500 
 33 H       -4.7930     0.4790    -0.7630 H     1 <1>   0.0800 
 34 H       -3.3300     0.2960    -1.6820 H     1 <1>   0.0800 
 35 H       -2.0490     2.7590    -2.2130 H     1 <1>   0.0800 
 36 H       -2.9150     4.1250    -1.5740 H     1 <1>   0.0800 
 37 H        3.0920     4.3760     1.9120 H     1 <1>   0.1500 
 38 H        3.3670     1.1650    -0.8810 H     1 <1>   0.1500 
 39 H       -4.8890     3.1670     0.8970 H     1 <1>   0.1500 
 40 H       -5.6950     2.9310    -3.2650 H     1 <1>   0.1500 
 41 H        4.9480     2.6890    -1.7210 H     1 <1>   0.0800 
 42 H        5.6470     1.7080    -0.4270 H     1 <1>   0.0800 
 43 H       -7.8230     4.1280    -2.9230 H     1 <1>   0.1500 
 44 H        6.5320     4.5180    -1.1840 H     1 <1>   0.0800 
 45 H        7.4090     3.0570    -1.5660 H     1 <1>   0.0800 
 46 H        7.2270     3.5430     0.1020 H     1 <1>   0.0800 
 47 H       -8.4790     4.8400    -0.6840 H     1 <1>   0.1500 
 48 H       -8.1920     5.2690     2.9300 H     1 <1>   0.0800 
 49 H       -9.0270     4.4860     1.5930 H     1 <1>   0.0800 
 50 H       -8.1940     6.0320     1.3440 H     1 <1>   0.0800 
@<TRIPOS>BOND
  1   1   2  2   
  2   1   3  2   
  3   1   4  am  
  4   1   5  1   
  5   4   6  1   
  6   4   7  1   
  7   5   8  ar  
  8   5   9  ar  
  9   6  10  1   
 10   6  27  1   
 11   6  28  1   
 12   7  11  1   
 13   7  29  1   
 14   7  30  1   
 15   8  12  ar  
 16   8  31  1   
 17   9  13  ar  
 18   9  32  1   
 19  10  14  1   
 20  10  33  1   
 21  10  34  1   
 22  11  14  1   
 23  11  35  1   
 24  11  36  1   
 25  12  15  ar  
 26  12  37  1   
 27  13  15  ar  
 28  13  38  1   
 29  14  16  1   
 30  15  17  1   
 31  16  18  ar  
 32  16  19  ar  
 33  17  20  1   
 34  18  21  ar  
 35  18  39  1   
 36  19  22  ar  
 37  19  40  1   
 38  20  23  1   
 39  20  41  1   
 40  20  42  1   
 41  21  24  1   
 42  21  25  ar  
 43  22  25  ar  
 44  22  43  1   
 45  23  44  1   
 46  23  45  1   
 47  23  46  1   
 48  24  26  1   
 49  25  47  1   
 50  26  48  1   
 51  26  49  1   
 52  26  50  1   
@<TRIPOS>SUBSTRUCTURE
  1 ****   7 GROUP 4 **** **** 0

# MOE 2024.06 (io_trps.svl 2023.06)
