@<TRIPOS>MOLECULE
NONAME
46 48 1 0 0 
SMALL
USER_CHARGES


@<TRIPOS>ATOM
  1 O       -1.1020     0.6710    -2.3980 O.2   1 <1>  -0.5700 
  2 C       -1.8400     1.0950    -1.5430 C.2   1 <1>   0.5690 
  3 N       -3.2080     0.8720    -1.5400 N.am  1 <1>  -0.4690 
  4 C       -1.2310     1.8650    -0.3940 C.3   1 <1>  -0.0990 
  5 C       -4.0390     1.4500    -0.5750 C.2   1 <1>  -0.0290 
  6 C       -3.7770     0.0290    -2.6360 C.3   1 <1>   0.0600 
  7 C       -2.1680     2.9490     0.1480 C.3   1 <1>   0.2020 
  8 C       -3.6100     2.4470     0.2450 C.2   1 <1>  -0.1240 
  9 C       -5.4810     0.9400    -0.4710 C.3   1 <1>  -0.0220 
 10 C       -2.0720     4.2240    -0.7000 C.ar  1 <1>  -0.1440 
 11 C       -4.4380     3.0950     1.2140 C.2   1 <1>   0.4950 
 12 C       -6.1480     1.2520     0.8870 C.3   1 <1>   0.0000 
 13 C       -1.3330     5.3200    -0.2580 C.ar  1 <1>   0.0820 
 14 C       -2.7140     4.3160    -1.9300 C.ar  1 <1>  -0.1500 
 15 O       -4.0530     3.9190     2.0080 O.2   1 <1>  -0.5700 
 16 C       -5.9080     2.7280     1.2550 C.3   1 <1>  -0.0990 
 17 C       -5.5700     0.3340     1.9820 C.3   1 <1>  -0.2400 
 18 C       -7.6600     0.9900     0.7930 C.3   1 <1>  -0.2400 
 19 O       -0.6840     5.2740     0.9250 O.3   1 <1>  -0.3630 
 20 C       -1.2360     6.4690    -1.0290 C.ar  1 <1>  -0.1500 
 21 C       -2.6230     5.4660    -2.6970 C.ar  1 <1>  -0.1500 
 22 C       -1.2390     6.0490     1.9640 C.3   1 <1>   0.0400 
 23 C       -1.8830     6.5450    -2.2470 C.ar  1 <1>  -0.1500 
 24 H       -0.3020     2.3070    -0.7040 H     1 <1>   0.0800 
 25 H       -1.0190     1.1610     0.3880 H     1 <1>   0.0800 
 26 H       -3.1030    -0.0200    -3.4740 H     1 <1>   0.0800 
 27 H       -4.7030     0.4470    -2.9860 H     1 <1>   0.0800 
 28 H       -3.9440    -0.9690    -2.2720 H     1 <1>   0.0800 
 29 H       -1.8270     3.1600     1.1460 H     1 <1>   0.0800 
 30 H       -5.5070    -0.1250    -0.6160 H     1 <1>   0.0800 
 31 H       -6.0510     1.3940    -1.2630 H     1 <1>   0.0800 
 32 H       -3.2910     3.4930    -2.3090 H     1 <1>   0.1500 
 33 H       -6.4240     3.3700     0.5650 H     1 <1>   0.0800 
 34 H       -6.2920     2.9300     2.2390 H     1 <1>   0.0800 
 35 H       -4.5050     0.4530     2.0750 H     1 <1>   0.0800 
 36 H       -5.7690    -0.6980     1.7550 H     1 <1>   0.0800 
 37 H       -6.0150     0.5580     2.9360 H     1 <1>   0.0800 
 38 H       -8.1110     1.6170     0.0440 H     1 <1>   0.0800 
 39 H       -8.1380     1.1940     1.7350 H     1 <1>   0.0800 
 40 H       -7.8520    -0.0370     0.5340 H     1 <1>   0.0800 
 41 H       -0.6500     7.2970    -0.6750 H     1 <1>   0.1500 
 42 H       -3.1260     5.5180    -3.6460 H     1 <1>   0.1500 
 43 H       -0.6960     5.8400     2.8680 H     1 <1>   0.0800 
 44 H       -2.2730     5.7780     2.0860 H     1 <1>   0.0800 
 45 H       -1.1530     7.0900     1.7120 H     1 <1>   0.0800 
 46 H       -1.8090     7.4360    -2.8450 H     1 <1>   0.1500 
@<TRIPOS>BOND
  1   1   2  2   
  2   2   3  am  
  3   2   4  1   
  4   3   5  1   
  5   3   6  1   
  6   4   7  1   
  7   4  24  1   
  8   4  25  1   
  9   5   8  2   
 10   5   9  1   
 11   6  26  1   
 12   6  27  1   
 13   6  28  1   
 14   7   8  1   
 15   7  10  1   
 16   7  29  1   
 17   8  11  1   
 18   9  12  1   
 19   9  30  1   
 20   9  31  1   
 21  10  13  ar  
 22  10  14  ar  
 23  11  15  2   
 24  11  16  1   
 25  12  16  1   
 26  12  17  1   
 27  12  18  1   
 28  13  19  1   
 29  13  20  ar  
 30  14  21  ar  
 31  14  32  1   
 32  16  33  1   
 33  16  34  1   
 34  17  35  1   
 35  17  36  1   
 36  17  37  1   
 37  18  38  1   
 38  18  39  1   
 39  18  40  1   
 40  19  22  1   
 41  20  23  ar  
 42  20  41  1   
 43  21  23  ar  
 44  21  42  1   
 45  22  43  1   
 46  22  44  1   
 47  22  45  1   
 48  23  46  1   
@<TRIPOS>SUBSTRUCTURE
  1 ****   8 GROUP 4 **** **** 0

# MOE 2024.06 (io_trps.svl 2023.06)
