@<TRIPOS>MOLECULE
NONAME
23 24 1 0 0 
SMALL
USER_CHARGES


@<TRIPOS>ATOM
  1 O       -0.0240    -0.3400     0.4770 O.2   1 <1>  -0.5700 
  2 C       -0.1200    -1.4950     0.1380 C.2   1 <1>   0.4230 
  3 C       -1.3660    -2.2050     0.0300 C.ar  1 <1>   0.0860 
  4 C        1.1630    -2.2240    -0.2110 C.3   1 <1>  -0.0990 
  5 C       -1.3570    -3.5880    -0.2100 C.ar  1 <1>   0.1000 
  6 C       -2.5990    -1.5610     0.1550 C.ar  1 <1>  -0.1500 
  7 C        1.0940    -3.6910     0.2020 C.3   1 <1>   0.2090 
  8 N       -0.1630    -4.2860    -0.3080 N.pl3 1 <1>  -0.8690 
  9 C       -2.5610    -4.2700    -0.3390 C.ar  1 <1>  -0.1500 
 10 C       -3.7920    -2.2470     0.0340 C.ar  1 <1>  -0.1430 
 11 C       -3.7670    -3.6110    -0.2190 C.ar  1 <1>  -0.1500 
 12 C       -5.1240    -1.5320     0.1690 C.3   1 <1>  -0.0970 
 13 H        1.9920    -1.7500     0.2820 H     1 <1>   0.0800 
 14 H        1.3200    -2.1570    -1.2710 H     1 <1>   0.0800 
 15 H       -2.6030    -0.5020     0.3490 H     1 <1>   0.1500 
 16 H        1.1110    -3.7710     1.2760 H     1 <1>   0.0800 
 17 H        1.9380    -4.2260    -0.2000 H     1 <1>   0.0800 
 18 H       -0.2090    -5.3110    -0.2650 H     1 <1>   0.4000 
 19 H       -2.5470    -5.3260    -0.5350 H     1 <1>   0.1500 
 20 H       -4.6890    -4.1560    -0.3210 H     1 <1>   0.1500 
 21 H       -4.9800    -0.4860     0.3730 H     1 <1>   0.0800 
 22 H       -5.6910    -1.9620     0.9760 H     1 <1>   0.0800 
 23 H       -5.6860    -1.6290    -0.7420 H     1 <1>   0.0800 
@<TRIPOS>BOND
  1   1   2  2   
  2   2   3  1   
  3   2   4  1   
  4   3   5  ar  
  5   3   6  ar  
  6   4   7  1   
  7   4  13  1   
  8   4  14  1   
  9   5   8  1   
 10   5   9  ar  
 11   6  10  ar  
 12   6  15  1   
 13   7   8  1   
 14   7  16  1   
 15   7  17  1   
 16   8  18  1   
 17   9  11  ar  
 18   9  19  1   
 19  10  11  ar  
 20  10  12  1   
 21  11  20  1   
 22  12  21  1   
 23  12  22  1   
 24  12  23  1   
@<TRIPOS>SUBSTRUCTURE
  1 ****   3 GROUP 4 **** **** 0

# MOE 2024.06 (io_trps.svl 2023.06)
