@<TRIPOS>MOLECULE
NONAME
37 38 1 0 0 
SMALL
USER_CHARGES


@<TRIPOS>ATOM
  1 CL      -0.1230     5.0670    -1.0420 Cl    1 <1>  -0.1770 
  2 C        0.6440     3.5280    -0.6820 C.ar  1 <1>   0.1770 
  3 C        1.9490     3.2940    -1.0770 C.ar  1 <1>   0.1770 
  4 C       -0.0880     2.5570    -0.0010 C.ar  1 <1>   0.1170 
  5 CL       2.8560     4.5180    -1.9360 Cl    1 <1>  -0.1770 
  6 C        2.5630     2.0860    -0.8020 C.ar  1 <1>  -0.1500 
  7 N       -1.4130     2.8370     0.3830 N.am  1 <1>  -0.5470 
  8 C        0.5460     1.3450     0.2750 C.ar  1 <1>  -0.1500 
  9 C        1.8530     1.1100    -0.1220 C.ar  1 <1>  -0.1500 
 10 C       -2.4660     2.0330     0.6890 C.2   1 <1>   0.6900 
 11 O       -2.3790     0.8230     0.7530 O.2   1 <1>  -0.5700 
 12 N       -3.6860     2.6160     0.8590 N.am  1 <1>  -0.6600 
 13 C       -4.3810     3.1130    -0.3610 C.3   1 <1>   0.1400 
 14 C       -4.6170     1.9920     1.8450 C.3   1 <1>   0.1400 
 15 C       -5.1690     1.9620    -1.0250 C.3   1 <1>   0.3430 
 16 C       -5.4040     0.8420     1.1850 C.3   1 <1>   0.3430 
 17 N       -6.1220     1.2870    -0.0700 N.4   1 <1>  -0.9590 
 18 C       -6.8000     0.1490    -0.7430 C.3   1 <1>   0.3430 
 19 C       -8.0200    -0.2750     0.0660 C.3   1 <1>  -0.2400 
 20 H        3.5780     1.9150    -1.1140 H     1 <1>   0.1500 
 21 H       -1.6490     3.8280     0.3990 H     1 <1>   0.3700 
 22 H        0.0230     0.5720     0.8090 H     1 <1>   0.1500 
 23 H        2.3180     0.1640     0.1030 H     1 <1>   0.1500 
 24 H       -3.6590     3.4980    -1.0620 H     1 <1>   0.0800 
 25 H       -5.0460     3.9170    -0.0980 H     1 <1>   0.0800 
 26 H       -5.2920     2.7350     2.2300 H     1 <1>   0.0800 
 27 H       -4.0500     1.6010     2.6740 H     1 <1>   0.0800 
 28 H       -4.4580     1.2380    -1.3910 H     1 <1>   0.0800 
 29 H       -5.7110     2.3490    -1.8720 H     1 <1>   0.0800 
 30 H       -6.1110     0.4480     1.8960 H     1 <1>   0.0800 
 31 H       -4.7070     0.0560     0.9430 H     1 <1>   0.0800 
 32 H       -6.8400     1.9710     0.2010 H     1 <1>   0.4500 
 33 H       -6.1180    -0.6800    -0.8520 H     1 <1>   0.0800 
 34 H       -7.1240     0.4500    -1.7270 H     1 <1>   0.0800 
 35 H       -7.7400    -0.6750     1.0240 H     1 <1>   0.0800 
 36 H       -8.5410    -1.0500    -0.4680 H     1 <1>   0.0800 
 37 H       -8.7000     0.5470     0.1990 H     1 <1>   0.0800 
@<TRIPOS>BOND
  1   1   2  1   
  2   2   3  ar  
  3   2   4  ar  
  4   3   5  1   
  5   3   6  ar  
  6   4   7  1   
  7   4   8  ar  
  8   6   9  ar  
  9   6  20  1   
 10   7  10  am  
 11   7  21  1   
 12   8   9  ar  
 13   8  22  1   
 14   9  23  1   
 15  10  11  2   
 16  10  12  am  
 17  12  13  1   
 18  12  14  1   
 19  13  15  1   
 20  13  24  1   
 21  13  25  1   
 22  14  16  1   
 23  14  26  1   
 24  14  27  1   
 25  15  17  1   
 26  15  28  1   
 27  15  29  1   
 28  16  17  1   
 29  16  30  1   
 30  16  31  1   
 31  17  18  1   
 32  17  32  1   
 33  18  19  1   
 34  18  33  1   
 35  18  34  1   
 36  19  35  1   
 37  19  36  1   
 38  19  37  1   
@<TRIPOS>SUBSTRUCTURE
  1 ****  10 GROUP 4 **** **** 0

# MOE 2024.06 (io_trps.svl 2023.06)
