@<TRIPOS>MOLECULE
NONAME
51 54 1 0 0 
SMALL
USER_CHARGES


@<TRIPOS>ATOM
  1 O        0.6580     0.6060     0.9600 O.2   1 <1>  -0.5700 
  2 C        1.0960     1.5790     0.3730 C.2   1 <1>   0.5440 
  3 N        0.2140     2.5460    -0.0730 N.am  1 <1>  -0.6600 
  4 C        2.5260     1.6910     0.1710 C.ar  1 <1>   0.0860 
  5 C       -1.2580     2.3140    -0.0870 C.3   1 <1>   0.1400 
  6 C        0.6180     3.9390    -0.4180 C.3   1 <1>   0.1400 
  7 C        3.4140     1.5520     1.2370 C.ar  1 <1>  -0.1500 
  8 C        3.0750     1.9310    -1.0890 C.ar  1 <1>  -0.1500 
  9 C       -1.9480     3.2890     0.8720 C.3   1 <1>  -0.1600 
 10 C       -0.0650     4.9290     0.5330 C.3   1 <1>  -0.1600 
 11 C        4.7790     1.6730     1.0580 C.ar  1 <1>  -0.1500 
 12 C        4.4390     2.0530    -1.2700 C.ar  1 <1>  -0.1500 
 13 C       -1.5890     4.7460     0.5510 C.3   1 <1>  -0.1600 
 14 C        5.3170     1.9340    -0.1970 C.ar  1 <1>   0.1170 
 15 N        6.7040     2.0540    -0.3190 N.am  1 <1>  -0.5470 
 16 C        7.5080     2.5920    -1.2920 C.2   1 <1>   0.5690 
 17 O        7.0850     3.0470    -2.3310 O.2   1 <1>  -0.5700 
 18 C        9.0220     2.6160    -1.0220 C.3   1 <1>   0.4040 
 19 O        9.3770     1.4670    -0.2710 O.3   1 <1>  -0.5600 
 20 C        9.4660     3.8940    -0.2870 C.ar  1 <1>  -0.1440 
 21 C       10.7120     1.4260     0.1230 C.3   1 <1>   0.1200 
 22 C       10.3760     3.8290     0.7630 C.ar  1 <1>  -0.1430 
 23 C        8.9760     5.1340    -0.6770 C.ar  1 <1>  -0.1500 
 24 C       10.9360     2.4870     1.2010 C.3   1 <1>  -0.0170 
 25 C       10.7730     4.9860     1.4150 C.ar  1 <1>  -0.1500 
 26 C        9.3750     6.2870    -0.0250 C.ar  1 <1>  -0.1500 
 27 C       10.2730     6.2140     1.0230 C.ar  1 <1>  -0.1500 
 28 H       -1.4890     1.3010     0.1980 H     1 <1>   0.0800 
 29 H       -1.6240     2.4660    -1.0880 H     1 <1>   0.0800 
 30 H        0.3250     4.1460    -1.4330 H     1 <1>   0.0800 
 31 H        1.6830     4.0640    -0.3430 H     1 <1>   0.0800 
 32 H        3.0140     1.3460     2.2150 H     1 <1>   0.1500 
 33 H        2.4150     2.0190    -1.9340 H     1 <1>   0.1500 
 34 H       -1.6460     3.0510     1.8780 H     1 <1>   0.0800 
 35 H       -3.0130     3.1540     0.8100 H     1 <1>   0.0800 
 36 H        0.1750     5.9330     0.2330 H     1 <1>   0.0800 
 37 H        0.3270     4.7810     1.5240 H     1 <1>   0.0800 
 38 H        5.4340     1.5650     1.9030 H     1 <1>   0.1500 
 39 H        4.8200     2.2360    -2.2580 H     1 <1>   0.1500 
 40 H       -2.0260     5.3990     1.2860 H     1 <1>   0.0800 
 41 H       -1.9930     5.0090    -0.4120 H     1 <1>   0.0800 
 42 H        7.2500     1.6810     0.4600 H     1 <1>   0.3700 
 43 H        9.5330     2.5560    -1.9670 H     1 <1>   0.0800 
 44 H       11.3370     1.6050    -0.7360 H     1 <1>   0.0800 
 45 H       10.9170     0.4430     0.5110 H     1 <1>   0.0800 
 46 H        8.2790     5.2180    -1.4950 H     1 <1>   0.1500 
 47 H       11.9900     2.5730     1.3980 H     1 <1>   0.0800 
 48 H       10.4510     2.1780     2.1090 H     1 <1>   0.0800 
 49 H       11.4720     4.9360     2.2310 H     1 <1>   0.1500 
 50 H        8.9860     7.2420    -0.3350 H     1 <1>   0.1500 
 51 H       10.5830     7.1100     1.5310 H     1 <1>   0.1500 
@<TRIPOS>BOND
  1   1   2  2   
  2   2   3  am  
  3   2   4  1   
  4   3   5  1   
  5   3   6  1   
  6   4   7  ar  
  7   4   8  ar  
  8   5   9  1   
  9   5  28  1   
 10   5  29  1   
 11   6  10  1   
 12   6  30  1   
 13   6  31  1   
 14   7  11  ar  
 15   7  32  1   
 16   8  12  ar  
 17   8  33  1   
 18   9  13  1   
 19   9  34  1   
 20   9  35  1   
 21  10  13  1   
 22  10  36  1   
 23  10  37  1   
 24  11  14  ar  
 25  11  38  1   
 26  12  14  ar  
 27  12  39  1   
 28  13  40  1   
 29  13  41  1   
 30  14  15  1   
 31  15  16  am  
 32  15  42  1   
 33  16  17  2   
 34  16  18  1   
 35  18  19  1   
 36  18  20  1   
 37  18  43  1   
 38  19  21  1   
 39  20  22  ar  
 40  20  23  ar  
 41  21  24  1   
 42  21  44  1   
 43  21  45  1   
 44  22  24  1   
 45  22  25  ar  
 46  23  26  ar  
 47  23  46  1   
 48  24  47  1   
 49  24  48  1   
 50  25  27  ar  
 51  25  49  1   
 52  26  27  ar  
 53  26  50  1   
 54  27  51  1   
@<TRIPOS>SUBSTRUCTURE
  1 ****  14 GROUP 4 **** **** 0

# MOE 2024.06 (io_trps.svl 2023.06)
