@<TRIPOS>MOLECULE
NONAME
47 49 1 0 0 
SMALL
USER_CHARGES


@<TRIPOS>ATOM
  1 O        2.1020     1.5550    -0.7900 O.3   1 <1>  -0.6800 
  2 C        2.3430     0.9430     0.4180 C.3   1 <1>   0.7670 
  3 C        3.8310     0.9640     0.5820 C.1   1 <1>  -0.2000 
  4 C        1.5780     1.7810     1.4580 C.ar  1 <1>  -0.1440 
  5 C        1.8970    -0.5310     0.3640 C.ar  1 <1>  -0.1440 
  6 C        5.0200     0.9270     0.6170 C.1   1 <1>  -0.2000 
  7 C        0.2640     1.4620     1.7950 C.ar  1 <1>  -0.1500 
  8 C        2.1590     2.8910     2.0670 C.ar  1 <1>  -0.1500 
  9 C        1.9080    -1.2800     1.5380 C.ar  1 <1>  -0.1500 
 10 C        1.4960    -1.1610    -0.8130 C.ar  1 <1>  -0.1500 
 11 C        6.5000     0.8160     0.5130 C.3   1 <1>   0.6230 
 12 C       -0.4380     2.2150     2.7190 C.ar  1 <1>  -0.1500 
 13 C        1.4580     3.6450     2.9920 C.ar  1 <1>  -0.1500 
 14 C        1.5260    -2.6100     1.5400 C.ar  1 <1>  -0.1500 
 15 C        1.1130    -2.4910    -0.8120 C.ar  1 <1>  -0.1500 
 16 N        6.8180     0.1930    -0.8040 N.4   1 <1>  -0.9590 
 17 C        7.0310    -0.0620     1.6530 C.3   1 <1>  -0.1600 
 18 C        0.1580     3.3070     3.3210 C.ar  1 <1>  -0.1500 
 19 C        1.1280    -3.2170     0.3650 C.ar  1 <1>  -0.1500 
 20 C        8.2770    -0.0480    -0.9900 C.3   1 <1>   0.3430 
 21 C        6.2630     0.9790    -1.9550 C.3   1 <1>   0.2630 
 22 C        8.5280    -0.3620     1.5110 C.3   1 <1>  -0.1600 
 23 C        8.8140    -0.9480     0.1240 C.3   1 <1>  -0.1600 
 24 H        1.1720     1.8420    -0.7650 H     1 <1>   0.4000 
 25 H       -0.2340     0.6200     1.3420 H     1 <1>   0.1500 
 26 H        3.1630     3.1900     1.8260 H     1 <1>   0.1500 
 27 H        2.2130    -0.8260     2.4660 H     1 <1>   0.1500 
 28 H        1.4770    -0.6290    -1.7480 H     1 <1>   0.1500 
 29 H        6.9440     1.7960     0.5720 H     1 <1>   0.0800 
 30 H       -1.4510     1.9520     2.9710 H     1 <1>   0.1500 
 31 H        1.9220     4.4980     3.4560 H     1 <1>   0.1500 
 32 H        1.5370    -3.1720     2.4580 H     1 <1>   0.1500 
 33 H        0.8030    -2.9630    -1.7280 H     1 <1>   0.1500 
 34 H        6.3370    -0.7140    -0.7790 H     1 <1>   0.4500 
 35 H        6.4800    -0.9870     1.6800 H     1 <1>   0.0800 
 36 H        6.8570     0.4390     2.5890 H     1 <1>   0.0800 
 37 H       -0.3870     3.8920     4.0410 H     1 <1>   0.1500 
 38 H        0.8290    -4.2510     0.3650 H     1 <1>   0.1500 
 39 H        8.8060     0.8920    -0.9760 H     1 <1>   0.0800 
 40 H        8.4530    -0.5190    -1.9440 H     1 <1>   0.0800 
 41 H        6.6880     1.9700    -1.9740 H     1 <1>   0.0800 
 42 H        5.1910     1.0690    -1.8710 H     1 <1>   0.0800 
 43 H        6.4870     0.4870    -2.8870 H     1 <1>   0.0800 
 44 H        8.8360    -1.0590     2.2730 H     1 <1>   0.0800 
 45 H        9.0960     0.5440     1.6460 H     1 <1>   0.0800 
 46 H        9.8770    -1.0650    -0.0010 H     1 <1>   0.0800 
 47 H        8.3720    -1.9260     0.0380 H     1 <1>   0.0800 
@<TRIPOS>BOND
  1   1   2  1   
  2   1  24  1   
  3   2   3  1   
  4   2   4  1   
  5   2   5  1   
  6   3   6  3   
  7   4   7  ar  
  8   4   8  ar  
  9   5   9  ar  
 10   5  10  ar  
 11   6  11  1   
 12   7  12  ar  
 13   7  25  1   
 14   8  13  ar  
 15   8  26  1   
 16   9  14  ar  
 17   9  27  1   
 18  10  15  ar  
 19  10  28  1   
 20  11  16  1   
 21  11  17  1   
 22  11  29  1   
 23  12  18  ar  
 24  12  30  1   
 25  13  18  ar  
 26  13  31  1   
 27  14  19  ar  
 28  14  32  1   
 29  15  19  ar  
 30  15  33  1   
 31  16  20  1   
 32  16  21  1   
 33  16  34  1   
 34  17  22  1   
 35  17  35  1   
 36  17  36  1   
 37  18  37  1   
 38  19  38  1   
 39  20  23  1   
 40  20  39  1   
 41  20  40  1   
 42  21  41  1   
 43  21  42  1   
 44  21  43  1   
 45  22  23  1   
 46  22  44  1   
 47  22  45  1   
 48  23  46  1   
 49  23  47  1   
@<TRIPOS>SUBSTRUCTURE
  1 ****   3 GROUP 4 **** **** 0

# MOE 2024.06 (io_trps.svl 2023.06)
