@<TRIPOS>MOLECULE
NONAME
44 45 1 0 0 
SMALL
USER_CHARGES


@<TRIPOS>ATOM
  1 O       -0.4280    -2.9150     1.8350 O.2   1 <1>  -0.5700 
  2 C        0.0610    -2.4750     0.8240 C.2   1 <1>   0.5690 
  3 N       -0.5600    -1.5090     0.1000 N.am  1 <1>  -0.7300 
  4 C        1.3920    -3.0150     0.3410 C.3   1 <1>  -0.0990 
  5 C       -1.8210    -0.8820     0.5140 C.3   1 <1>   0.2200 
  6 C        2.5010    -1.9490     0.3690 C.3   1 <1>  -0.1600 
  7 C       -2.9900    -1.6640    -0.0790 C.3   1 <1>  -0.1600 
  8 C       -1.8530     0.5740     0.0590 C.3   1 <1>  -0.1600 
  9 C        3.8580    -2.5280    -0.0490 C.3   1 <1>  -0.0170 
 10 C       -4.3120    -1.0020     0.2970 C.3   1 <1>   0.3430 
 11 C       -3.1920     1.2100     0.4290 C.3   1 <1>   0.3430 
 12 C        4.9130    -1.4340    -0.0640 C.ar  1 <1>  -0.1440 
 13 N       -4.3150     0.4200    -0.1630 N.4   1 <1>  -0.9590 
 14 C        5.2450    -0.7930    -1.2480 C.ar  1 <1>  -0.1500 
 15 C        5.5510    -1.0650     1.1100 C.ar  1 <1>  -0.1500 
 16 C       -5.6300     1.0650     0.1360 C.3   1 <1>   0.2630 
 17 C        6.2040     0.2050    -1.2580 C.ar  1 <1>  -0.1500 
 18 C        6.5110    -0.0670     1.1020 C.ar  1 <1>  -0.1500 
 19 C        6.8380     0.5690    -0.0830 C.ar  1 <1>  -0.1500 
 20 H       -0.1210    -1.1680    -0.7560 H     1 <1>   0.3700 
 21 H        1.2690    -3.3960    -0.6550 H     1 <1>   0.0800 
 22 H        1.6710    -3.8380     0.9760 H     1 <1>   0.0800 
 23 H       -1.8870    -0.9150     1.5910 H     1 <1>   0.0800 
 24 H        2.5820    -1.5480     1.3650 H     1 <1>   0.0800 
 25 H        2.2470    -1.1390    -0.2920 H     1 <1>   0.0800 
 26 H       -2.9800    -2.6650     0.3170 H     1 <1>   0.0800 
 27 H       -2.9040    -1.7250    -1.1490 H     1 <1>   0.0800 
 28 H       -1.7030     0.6440    -1.0030 H     1 <1>   0.0800 
 29 H       -1.0640     1.1170     0.5500 H     1 <1>   0.0800 
 30 H        3.7840    -2.9700    -1.0270 H     1 <1>   0.0800 
 31 H        4.1550    -3.3010     0.6380 H     1 <1>   0.0800 
 32 H       -4.4390    -1.0410     1.3680 H     1 <1>   0.0800 
 33 H       -5.1260    -1.5430    -0.1590 H     1 <1>   0.0800 
 34 H       -3.2210     2.2240     0.0640 H     1 <1>   0.0800 
 35 H       -3.2920     1.2340     1.5030 H     1 <1>   0.0800 
 36 H       -4.1860     0.4120    -1.1860 H     1 <1>   0.4500 
 37 H        4.7600    -1.0680    -2.1680 H     1 <1>   0.1500 
 38 H        5.3030    -1.5530     2.0360 H     1 <1>   0.1500 
 39 H       -5.8030     1.0890     1.2000 H     1 <1>   0.0800 
 40 H       -6.4320     0.5150    -0.3300 H     1 <1>   0.0800 
 41 H       -5.6460     2.0760    -0.2380 H     1 <1>   0.0800 
 42 H        6.4570     0.6980    -2.1800 H     1 <1>   0.1500 
 43 H        7.0020     0.2140     2.0160 H     1 <1>   0.1500 
 44 H        7.5830     1.3440    -0.0900 H     1 <1>   0.1500 
@<TRIPOS>BOND
  1   1   2  2   
  2   2   3  am  
  3   2   4  1   
  4   3   5  1   
  5   3  20  1   
  6   4   6  1   
  7   4  21  1   
  8   4  22  1   
  9   5   7  1   
 10   5   8  1   
 11   5  23  1   
 12   6   9  1   
 13   6  24  1   
 14   6  25  1   
 15   7  10  1   
 16   7  26  1   
 17   7  27  1   
 18   8  11  1   
 19   8  28  1   
 20   8  29  1   
 21   9  12  1   
 22   9  30  1   
 23   9  31  1   
 24  10  13  1   
 25  10  32  1   
 26  10  33  1   
 27  11  13  1   
 28  11  34  1   
 29  11  35  1   
 30  12  14  ar  
 31  12  15  ar  
 32  13  16  1   
 33  13  36  1   
 34  14  17  ar  
 35  14  37  1   
 36  15  18  ar  
 37  15  38  1   
 38  16  39  1   
 39  16  40  1   
 40  16  41  1   
 41  17  19  ar  
 42  17  42  1   
 43  18  19  ar  
 44  18  43  1   
 45  19  44  1   
@<TRIPOS>SUBSTRUCTURE
  1 ****   3 GROUP 4 **** **** 0

# MOE 2024.06 (io_trps.svl 2023.06)
