@<TRIPOS>MOLECULE
NONAME
41 42 1 0 0 
SMALL
USER_CHARGES


@<TRIPOS>ATOM
  1 O       -1.3280    -3.8920     0.8680 O.2   1 <1>  -0.5700 
  2 C       -1.0160    -2.9790     0.1460 C.2   1 <1>   0.5690 
  3 N       -1.8930    -2.0610    -0.3600 N.am  1 <1>  -0.5470 
  4 C        0.4470    -2.8330    -0.2120 C.3   1 <1>  -0.0990 
  5 C       -3.2870    -1.9540    -0.2240 C.ar  1 <1>   0.1170 
  6 C        1.1990    -4.1020     0.2010 C.3   1 <1>   0.3430 
  7 C       -3.8860    -0.7260    -0.4830 C.ar  1 <1>  -0.1500 
  8 C       -4.1060    -3.0190     0.1400 C.ar  1 <1>  -0.1500 
  9 N        2.6480    -4.0460    -0.1620 N.4   1 <1>  -0.9590 
 10 C       -5.2560    -0.5630    -0.3780 C.ar  1 <1>  -0.1500 
 11 C       -5.4750    -2.8580     0.2470 C.ar  1 <1>  -0.1500 
 12 C        3.2390    -5.4150    -0.0710 C.3   1 <1>   0.3430 
 13 C        3.4090    -3.0780     0.6860 C.3   1 <1>   0.3430 
 14 C       -6.0600    -1.6290    -0.0090 C.ar  1 <1>  -0.1430 
 15 C        4.6840    -5.3890    -0.5730 C.3   1 <1>  -0.1600 
 16 C        4.8580    -2.9960     0.2020 C.3   1 <1>  -0.1600 
 17 C       -7.5630    -1.4550     0.1080 C.3   1 <1>  -0.0970 
 18 C        5.5350    -4.3730     0.2000 C.3   1 <1>  -0.1600 
 19 H       -1.4850    -1.2970    -0.8950 H     1 <1>   0.3700 
 20 H        0.8320    -1.9770     0.3090 H     1 <1>   0.0800 
 21 H        0.5310    -2.6860    -1.2720 H     1 <1>   0.0800 
 22 H        0.7350    -4.9430    -0.2910 H     1 <1>   0.0800 
 23 H        1.0900    -4.2520     1.2640 H     1 <1>   0.0800 
 24 H       -3.2840     0.1160    -0.7670 H     1 <1>   0.1500 
 25 H       -3.6840    -3.9850     0.3400 H     1 <1>   0.1500 
 26 H        2.7400    -3.7490    -1.1420 H     1 <1>   0.4500 
 27 H       -5.6960     0.3970    -0.5830 H     1 <1>   0.1500 
 28 H       -6.0850    -3.6970     0.5320 H     1 <1>   0.1500 
 29 H        2.6650    -6.1070    -0.6670 H     1 <1>   0.0800 
 30 H        3.2200    -5.7530     0.9530 H     1 <1>   0.0800 
 31 H        3.3910    -3.4020     1.7140 H     1 <1>   0.0800 
 32 H        2.9620    -2.0990     0.6310 H     1 <1>   0.0800 
 33 H        4.6940    -5.1540    -1.6240 H     1 <1>   0.0800 
 34 H        5.1120    -6.3700    -0.4600 H     1 <1>   0.0800 
 35 H        5.4080    -2.3330     0.8480 H     1 <1>   0.0800 
 36 H        4.8830    -2.5730    -0.7870 H     1 <1>   0.0800 
 37 H       -7.8060    -0.4420     0.3740 H     1 <1>   0.0800 
 38 H       -7.9570    -2.1080     0.8660 H     1 <1>   0.0800 
 39 H       -8.0300    -1.6910    -0.8310 H     1 <1>   0.0800 
 40 H        6.5140    -4.3010    -0.2450 H     1 <1>   0.0800 
 41 H        5.6620    -4.7120     1.2150 H     1 <1>   0.0800 
@<TRIPOS>BOND
  1   1   2  2   
  2   2   3  am  
  3   2   4  1   
  4   3   5  1   
  5   3  19  1   
  6   4   6  1   
  7   4  20  1   
  8   4  21  1   
  9   5   7  ar  
 10   5   8  ar  
 11   6   9  1   
 12   6  22  1   
 13   6  23  1   
 14   7  10  ar  
 15   7  24  1   
 16   8  11  ar  
 17   8  25  1   
 18   9  12  1   
 19   9  13  1   
 20   9  26  1   
 21  10  14  ar  
 22  10  27  1   
 23  11  14  ar  
 24  11  28  1   
 25  12  15  1   
 26  12  29  1   
 27  12  30  1   
 28  13  16  1   
 29  13  31  1   
 30  13  32  1   
 31  14  17  1   
 32  15  18  1   
 33  15  33  1   
 34  15  34  1   
 35  16  18  1   
 36  16  35  1   
 37  16  36  1   
 38  17  37  1   
 39  17  38  1   
 40  17  39  1   
 41  18  40  1   
 42  18  41  1   
@<TRIPOS>SUBSTRUCTURE
  1 ****   2 GROUP 4 **** **** 0

# MOE 2024.06 (io_trps.svl 2023.06)
