@<TRIPOS>MOLECULE
NONAME
38 39 1 0 0 
SMALL
USER_CHARGES


@<TRIPOS>ATOM
  1 O        0.1140     0.2470     1.0490 O.2   1 <1>  -0.5700 
  2 C        0.2360     1.4040     0.7290 C.2   1 <1>   0.6300 
  3 N        1.3150     1.8550     0.0510 N.am  1 <1>  -0.7300 
  4 C       -0.8450     2.4040     1.1060 C.3   1 <1>  -0.1000 
  5 C        2.4860     1.0500    -0.2930 C.3   1 <1>   0.3640 
  6 C       -2.1860     2.3680     0.4360 C.3   1 <1>  -0.1950 
  7 C       -1.2650     3.5130     0.1720 C.3   1 <1>  -0.2000 
  8 C        3.6990     1.9720    -0.3270 C.ar  1 <1>  -0.1430 
  9 C        2.2430     0.3670    -1.6360 C.3   1 <1>  -0.2400 
 10 C       -3.4700     2.5730     1.2410 C.3   1 <1>  -0.1450 
 11 C        4.7260     1.7910     0.5880 C.ar  1 <1>  -0.1500 
 12 C        3.8020     3.0020    -1.2490 C.ar  1 <1>  -0.1500 
 13 C        5.8420     2.6140     0.5890 C.ar  1 <1>  -0.1430 
 14 C        4.9110     3.8280    -1.2550 C.ar  1 <1>  -0.1500 
 15 C        5.9360     3.6430    -0.3410 C.ar  1 <1>  -0.1430 
 16 C        6.9390     2.3690     1.6150 C.3   1 <1>  -0.0970 
 17 C        7.1400     4.5740    -0.3810 C.3   1 <1>  -0.0970 
 18 H        1.4280     2.8530    -0.1170 H     1 <1>   0.3700 
 19 H       -0.8270     2.6150     2.1590 H     1 <1>   0.1000 
 20 H        2.6250     0.2920     0.4620 H     1 <1>   0.0800 
 21 H       -2.3080     1.6390    -0.3490 H     1 <1>   0.1000 
 22 H       -0.8260     3.5840    -0.8080 H     1 <1>   0.1000 
 23 H       -1.4930     4.4780     0.5920 H     1 <1>   0.1000 
 24 H        2.0200     1.0850    -2.4020 H     1 <1>   0.0800 
 25 H        1.4240    -0.3240    -1.5480 H     1 <1>   0.0800 
 26 H        3.1220    -0.1830    -1.9230 H     1 <1>   0.0800 
 27 H       -3.3220     3.2970     2.0220 H     1 <1>   0.0800 
 28 H       -3.7720     1.6420     1.6870 H     1 <1>   0.0800 
 29 H       -4.2570     2.9170     0.5950 H     1 <1>   0.0800 
 30 H        4.6530     0.9970     1.3100 H     1 <1>   0.1500 
 31 H        3.0220     3.1690    -1.9700 H     1 <1>   0.1500 
 32 H        4.9700     4.6200    -1.9810 H     1 <1>   0.1500 
 33 H        6.6960     1.5380     2.2510 H     1 <1>   0.0800 
 34 H        7.0660     3.2400     2.2330 H     1 <1>   0.0800 
 35 H        7.8660     2.1530     1.1170 H     1 <1>   0.0800 
 36 H        8.0360     4.0080    -0.5610 H     1 <1>   0.0800 
 37 H        7.2340     5.0940     0.5550 H     1 <1>   0.0800 
 38 H        7.0380     5.3030    -1.1630 H     1 <1>   0.0800 
@<TRIPOS>BOND
  1   1   2  2   
  2   2   3  am  
  3   2   4  1   
  4   3   5  1   
  5   3  18  1   
  6   4   6  1   
  7   4   7  1   
  8   4  19  1   
  9   5   8  1   
 10   5   9  1   
 11   5  20  1   
 12   6   7  1   
 13   6  10  1   
 14   6  21  1   
 15   7  22  1   
 16   7  23  1   
 17   8  11  ar  
 18   8  12  ar  
 19   9  24  1   
 20   9  25  1   
 21   9  26  1   
 22  10  27  1   
 23  10  28  1   
 24  10  29  1   
 25  11  13  ar  
 26  11  30  1   
 27  12  14  ar  
 28  12  31  1   
 29  13  15  ar  
 30  13  16  1   
 31  14  15  ar  
 32  14  32  1   
 33  15  17  1   
 34  16  33  1   
 35  16  34  1   
 36  16  35  1   
 37  17  36  1   
 38  17  37  1   
 39  17  38  1   
@<TRIPOS>SUBSTRUCTURE
  1 ****   3 GROUP 4 **** **** 0

# MOE 2024.06 (io_trps.svl 2023.06)
