@<TRIPOS>MOLECULE
NONAME
36 36 1 0 0 
SMALL
USER_CHARGES


@<TRIPOS>ATOM
  1 S       -0.2000     0.1820     0.4710 S.o2  1 <1>   1.4470 
  2 O        1.1670     0.1070     0.0210 O.2   1 <1>  -0.6500 
  3 O       -0.5340     0.8220     1.7170 O.2   1 <1>  -0.6500 
  4 N       -0.8890     1.1800    -0.6550 N.am  1 <1>  -0.9780 
  5 C       -1.0740    -1.3920     0.2590 C.ar  1 <1>  -0.0090 
  6 C       -2.4530    -1.4620     0.3880 C.ar  1 <1>  -0.1500 
  7 C       -0.3930    -2.5650    -0.0360 C.ar  1 <1>  -0.1500 
  8 C       -3.1710    -2.6460     0.2240 C.ar  1 <1>   0.0860 
  9 C       -1.0720    -3.7580    -0.1990 C.ar  1 <1>  -0.1500 
 10 C       -2.4500    -3.8090    -0.0730 C.ar  1 <1>  -0.1430 
 11 C       -4.6170    -2.6140     0.3560 C.2   1 <1>   0.5440 
 12 C       -3.1580    -5.1440    -0.2660 C.3   1 <1>  -0.0960 
 13 O       -5.2040    -3.3670     1.1070 O.2   1 <1>  -0.5700 
 14 N       -5.3340    -1.7070    -0.3710 N.am  1 <1>  -0.7300 
 15 C       -6.7930    -1.4730    -0.2740 C.3   1 <1>   0.1400 
 16 C       -7.0770     0.0110     0.0100 C.3   1 <1>  -0.0800 
 17 C       -8.5870     0.2320     0.1710 C.3   1 <1>  -0.2400 
 18 C       -6.5390     0.9340    -1.0960 C.3   1 <1>  -0.2400 
 19 H       -0.1480     1.3000    -1.3410 H     1 <1>   0.4200 
 20 H       -0.9560     2.0680    -0.1620 H     1 <1>   0.4200 
 21 H       -2.9940    -0.5630     0.6300 H     1 <1>   0.1500 
 22 H        0.6800    -2.5460    -0.1400 H     1 <1>   0.1500 
 23 H       -0.5150    -4.6520    -0.4240 H     1 <1>   0.1500 
 24 H       -3.9690    -5.0400    -0.9650 H     1 <1>   0.0800 
 25 H       -3.5580    -5.4840     0.6730 H     1 <1>   0.0800 
 26 H       -2.4850    -5.8940    -0.6400 H     1 <1>   0.0800 
 27 H       -4.8480    -1.1180    -1.0460 H     1 <1>   0.3700 
 28 H       -7.2050    -2.0770     0.5180 H     1 <1>   0.0800 
 29 H       -7.2590    -1.7700    -1.1970 H     1 <1>   0.0800 
 30 H       -6.6040     0.2690     0.9430 H     1 <1>   0.0800 
 31 H       -9.1070    -0.0140    -0.7380 H     1 <1>   0.0800 
 32 H       -8.7910     1.2590     0.4170 H     1 <1>   0.0800 
 33 H       -8.9710    -0.3860     0.9650 H     1 <1>   0.0800 
 34 H       -6.9570     0.6650    -2.0500 H     1 <1>   0.0800 
 35 H       -5.4680     0.8760    -1.1570 H     1 <1>   0.0800 
 36 H       -6.8000     1.9560    -0.8840 H     1 <1>   0.0800 
@<TRIPOS>BOND
  1   1   2  2   
  2   1   3  2   
  3   1   4  am  
  4   1   5  1   
  5   4  19  1   
  6   4  20  1   
  7   5   6  ar  
  8   5   7  ar  
  9   6   8  ar  
 10   6  21  1   
 11   7   9  ar  
 12   7  22  1   
 13   8  10  ar  
 14   8  11  1   
 15   9  10  ar  
 16   9  23  1   
 17  10  12  1   
 18  11  13  2   
 19  11  14  am  
 20  12  24  1   
 21  12  25  1   
 22  12  26  1   
 23  14  15  1   
 24  14  27  1   
 25  15  16  1   
 26  15  28  1   
 27  15  29  1   
 28  16  17  1   
 29  16  18  1   
 30  16  30  1   
 31  17  31  1   
 32  17  32  1   
 33  17  33  1   
 34  18  34  1   
 35  18  35  1   
 36  18  36  1   
@<TRIPOS>SUBSTRUCTURE
  1 ****   6 GROUP 4 **** **** 0

# MOE 2024.06 (io_trps.svl 2023.06)
