@<TRIPOS>MOLECULE
NONAME
40 41 1 0 0 
SMALL
USER_CHARGES


@<TRIPOS>ATOM
  1 S       -0.0910     0.2580    -1.0120 S.o2  1 <1>   1.4470 
  2 O        0.3760    -1.0670    -1.3550 O.2   1 <1>  -0.6500 
  3 O       -0.0450     1.2830    -2.0320 O.2   1 <1>  -0.6500 
  4 N        0.9490     0.6640     0.2400 N.am  1 <1>  -0.9140 
  5 C       -1.7290     0.1370    -0.2470 C.ar  1 <1>  -0.0090 
  6 C        2.0390     1.5310    -0.1400 C.3   1 <1>   0.2760 
  7 C       -2.3540     1.2510     0.3070 C.ar  1 <1>   0.0830 
  8 C       -2.3960    -1.0830    -0.1980 C.ar  1 <1>  -0.1500 
  9 C        3.2420     1.1840     0.7450 C.3   1 <1>  -0.1600 
 10 C        1.6260     2.9950     0.0650 C.3   1 <1>  -0.1600 
 11 O       -1.6950     2.4360     0.2530 O.3   1 <1>  -0.3630 
 12 C       -3.6130     1.1310     0.8920 C.ar  1 <1>  -0.1500 
 13 C       -3.6460    -1.2100     0.3830 C.ar  1 <1>  -0.1430 
 14 C        4.4230     2.1320     0.4850 C.3   1 <1>  -0.1600 
 15 C        2.7990     3.9540    -0.1900 C.3   1 <1>  -0.1600 
 16 C       -2.2370     3.6310     0.7660 C.3   1 <1>   0.0400 
 17 C       -4.2530    -0.0930     0.9280 C.ar  1 <1>  -0.1500 
 18 C       -4.3450    -2.5570     0.4160 C.3   1 <1>  -0.0970 
 19 C        4.0090     3.5960     0.6830 C.3   1 <1>  -0.1600 
 20 H        1.3610    -0.2370     0.4650 H     1 <1>   0.4200 
 21 H        2.3140     1.3680    -1.1710 H     1 <1>   0.0800 
 22 H       -1.9250    -1.9520    -0.6260 H     1 <1>   0.1500 
 23 H        3.5560     0.1740     0.5480 H     1 <1>   0.0800 
 24 H        2.9560     1.2600     1.7800 H     1 <1>   0.0800 
 25 H        1.2740     3.1250     1.0730 H     1 <1>   0.0800 
 26 H        0.8240     3.2450    -0.6050 H     1 <1>   0.0800 
 27 H       -4.1120     1.9770     1.3240 H     1 <1>   0.1500 
 28 H        4.7770     1.9950    -0.5230 H     1 <1>   0.0800 
 29 H        5.2320     1.8930     1.1540 H     1 <1>   0.0800 
 30 H        2.4890     4.9630     0.0180 H     1 <1>   0.0800 
 31 H        3.0780     3.9020    -1.2280 H     1 <1>   0.0800 
 32 H       -1.5260     4.4190     0.5930 H     1 <1>   0.0800 
 33 H       -2.4030     3.5150     1.8220 H     1 <1>   0.0800 
 34 H       -3.1550     3.8480     0.2500 H     1 <1>   0.0800 
 35 H       -5.2260    -0.1730     1.3800 H     1 <1>   0.1500 
 36 H       -3.6250    -3.3550     0.4460 H     1 <1>   0.0800 
 37 H       -4.9550    -2.6720    -0.4620 H     1 <1>   0.0800 
 38 H       -4.9720    -2.6350     1.2860 H     1 <1>   0.0800 
 39 H        4.8340     4.2410     0.4370 H     1 <1>   0.0800 
 40 H        3.7600     3.7590     1.7180 H     1 <1>   0.0800 
@<TRIPOS>BOND
  1   1   2  2   
  2   1   3  2   
  3   1   4  am  
  4   1   5  1   
  5   4   6  1   
  6   4  20  1   
  7   5   7  ar  
  8   5   8  ar  
  9   6   9  1   
 10   6  10  1   
 11   6  21  1   
 12   7  11  1   
 13   7  12  ar  
 14   8  13  ar  
 15   8  22  1   
 16   9  14  1   
 17   9  23  1   
 18   9  24  1   
 19  10  15  1   
 20  10  25  1   
 21  10  26  1   
 22  11  16  1   
 23  12  17  ar  
 24  12  27  1   
 25  13  17  ar  
 26  13  18  1   
 27  14  19  1   
 28  14  28  1   
 29  14  29  1   
 30  15  19  1   
 31  15  30  1   
 32  15  31  1   
 33  16  32  1   
 34  16  33  1   
 35  16  34  1   
 36  17  35  1   
 37  18  36  1   
 38  18  37  1   
 39  18  38  1   
 40  19  39  1   
 41  19  40  1   
@<TRIPOS>SUBSTRUCTURE
  1 ****   1 GROUP 4 **** **** 0

# MOE 2024.06 (io_trps.svl 2023.06)
