@<TRIPOS>MOLECULE
NONAME
52 56 1 0 0 
SMALL
USER_CHARGES


@<TRIPOS>ATOM
  1 O        6.6010     5.0420    -0.6890 O.2   1 <1>  -0.5740 
  2 C        6.2840     4.3700     0.2670 C.2   1 <1>   0.5650 
  3 N        6.9050     3.2000     0.5620 N.am  1 <1>  -0.7330 
  4 C        5.0960     4.8520     1.1100 C.3   1 <1>   0.4100 
  5 C        8.0490     2.6280    -0.1770 C.3   1 <1>   0.2140 
  6 N        3.7530     4.4840     0.5440 N.pl3 1 <1>  -0.7670 
  7 C        7.5500     1.3990    -1.1230 C.3   1 <1>  -0.0870 
  8 C        9.1260     2.0950     0.8380 C.3   1 <1>  -0.0870 
  9 C        3.3310     4.5890    -0.7200 C.cat 1 <1>   1.0690 
 10 C        2.6830     4.0190     1.2980 C.ar  1 <1>   0.3030 
 11 C        7.0150     0.2160    -0.2070 C.3   1 <1>  -0.1670 
 12 C        8.8240     0.8350    -1.8800 C.3   1 <1>  -0.1670 
 13 C        8.5630     0.9520     1.7630 C.3   1 <1>  -0.1670 
 14 C       10.3930     1.5870     0.0620 C.3   1 <1>  -0.1670 
 15 N        4.0600     5.0060    -1.7280 N.pl3 1 <1>  -0.8390 
 16 N        2.0540     4.2200    -0.8350 N.pl3 1 <1>  -0.7670 
 17 C        1.6180     3.8510     0.4310 C.ar  1 <1>   0.3030 
 18 C        2.5430     3.7310     2.6530 C.ar  1 <1>  -0.1160 
 19 C        8.0870    -0.3010     0.8420 C.3   1 <1>  -0.0870 
 20 C        9.9710     0.3450    -0.9020 C.3   1 <1>  -0.0870 
 21 C        1.1820     4.1810    -2.0370 C.3   1 <1>   0.2680 
 22 C        0.3890     3.3900     0.8920 C.ar  1 <1>  -0.1160 
 23 C        1.3230     3.2730     3.1120 C.ar  1 <1>  -0.1570 
 24 C        9.3390    -0.7880     0.0040 C.3   1 <1>  -0.1670 
 25 C        0.2510     3.1030     2.2360 C.ar  1 <1>  -0.1570 
 26 H        6.6080     2.5980     1.3330 H     1 <1>   0.3640 
 27 H        5.1540     5.9220     1.1990 H     1 <1>   0.0730 
 28 H        5.1980     4.4380     2.0960 H     1 <1>   0.0730 
 29 H        8.4940     3.3910    -0.7950 H     1 <1>   0.0730 
 30 H        6.8060     1.7300    -1.8260 H     1 <1>   0.0730 
 31 H        8.8900     1.4680     0.3560 H     1 <1>   0.0730 
 32 H        6.7190    -0.6050    -0.8350 H     1 <1>   0.0730 
 33 H        6.1370     0.5410     0.3210 H     1 <1>   0.0730 
 34 H        9.2190     1.6040    -2.5200 H     1 <1>   0.0730 
 35 H        8.5270     0.0160    -2.5120 H     1 <1>   0.0730 
 36 H        7.7410     1.3090     2.3550 H     1 <1>   0.0730 
 37 H        9.3330     0.6260     2.4420 H     1 <1>   0.0730 
 38 H       10.8070     2.3840    -0.5310 H     1 <1>   0.0730 
 39 H       11.1480     1.2660     0.7590 H     1 <1>   0.0730 
 40 H        3.7210     5.0700    -2.6800 H     1 <1>   0.4450 
 41 H        5.0660     5.2000    -1.6110 H     1 <1>   0.4450 
 42 H        3.3640     3.8620     3.3340 H     1 <1>   0.1430 
 43 H        7.6910    -1.1000     1.4440 H     1 <1>   0.0730 
 44 H       10.8190    -0.0250    -1.4520 H     1 <1>   0.0730 
 45 H        1.7130     4.5090    -2.9130 H     1 <1>   0.0730 
 46 H        0.3300     4.8220    -1.8890 H     1 <1>   0.0730 
 47 H        0.8360     3.1740    -2.2010 H     1 <1>   0.0730 
 48 H       -0.4360     3.2610     0.2150 H     1 <1>   0.1430 
 49 H        1.1890     3.0430     4.1580 H     1 <1>   0.1430 
 50 H        9.0480    -1.6170    -0.6180 H     1 <1>   0.0730 
 51 H       10.0920    -1.1500     0.6830 H     1 <1>   0.0730 
 52 H       -0.6910     2.7430     2.6190 H     1 <1>   0.1430 
@<TRIPOS>BOND
  1   1   2  2   
  2   2   3  am  
  3   2   4  1   
  4   3   5  1   
  5   3  26  1   
  6   4   6  1   
  7   4  27  1   
  8   4  28  1   
  9   5   7  1   
 10   5   8  1   
 11   5  29  1   
 12   6   9  ar  
 13   6  10  1   
 14   7  11  1   
 15   7  12  1   
 16   7  30  1   
 17   8  13  1   
 18   8  14  1   
 19   8  31  1   
 20   9  15  ar  
 21   9  16  ar  
 22  10  17  ar  
 23  10  18  ar  
 24  11  19  1   
 25  11  32  1   
 26  11  33  1   
 27  12  20  1   
 28  12  34  1   
 29  12  35  1   
 30  13  19  1   
 31  13  36  1   
 32  13  37  1   
 33  14  20  1   
 34  14  38  1   
 35  14  39  1   
 36  15  40  1   
 37  15  41  1   
 38  16  17  1   
 39  16  21  1   
 40  17  22  ar  
 41  18  23  ar  
 42  18  42  1   
 43  19  24  1   
 44  19  43  1   
 45  20  24  1   
 46  20  44  1   
 47  21  45  1   
 48  21  46  1   
 49  21  47  1   
 50  22  25  ar  
 51  22  48  1   
 52  23  25  ar  
 53  23  49  1   
 54  24  50  1   
 55  24  51  1   
 56  25  52  1   
@<TRIPOS>SUBSTRUCTURE
  1 ****   3 GROUP 4 **** **** 0

# MOE 2024.06 (io_trps.svl 2023.06)
