@<TRIPOS>MOLECULE
NONAME
37 37 1 0 0 
SMALL
USER_CHARGES


@<TRIPOS>ATOM
  1 S       -0.3580     0.5870     0.8030 S.o2  1 <1>   1.4470 
  2 O       -0.6160     1.6890     1.7040 O.2   1 <1>  -0.6500 
  3 O       -0.9910    -0.6880     1.0560 O.2   1 <1>  -0.6500 
  4 N       -0.9820     1.0120    -0.6970 N.am  1 <1>  -0.9140 
  5 C        1.4270     0.3680     0.4980 C.ar  1 <1>  -0.0090 
  6 C       -2.2400     1.7650    -0.6550 C.3   1 <1>   0.1960 
  7 C        2.3220     1.4210     0.2640 C.ar  1 <1>  -0.1430 
  8 C        1.9300    -0.9280     0.4910 C.ar  1 <1>  -0.1500 
  9 C       -3.3850     0.9840     0.0060 C.3   1 <1>   0.1200 
 10 C        3.6840     1.1670     0.0680 C.ar  1 <1>  -0.1430 
 11 C        1.7960     2.8610     0.2350 C.3   1 <1>  -0.0960 
 12 C        3.2650    -1.1910     0.2700 C.ar  1 <1>  -0.1500 
 13 O       -4.5820     1.6360    -0.2750 O.3   1 <1>  -0.5600 
 14 C        4.1530    -0.1470     0.0560 C.ar  1 <1>   0.0830 
 15 C        4.6780     2.3170    -0.1310 C.3   1 <1>  -0.0970 
 16 C       -5.6910     1.0600     0.3360 C.3   1 <1>   0.0400 
 17 O        5.4750    -0.3670    -0.1690 O.3   1 <1>  -0.3630 
 18 C        6.0340    -1.6620    -0.1970 C.3   1 <1>   0.0400 
 19 H       -1.1690     0.1180    -1.1460 H     1 <1>   0.4200 
 20 H       -2.5260     1.9990    -1.6660 H     1 <1>   0.0800 
 21 H       -2.0910     2.6920    -0.1270 H     1 <1>   0.0800 
 22 H        1.2640    -1.7570     0.6630 H     1 <1>   0.1500 
 23 H       -3.2520     0.9540     1.0750 H     1 <1>   0.0800 
 24 H       -3.4440    -0.0140    -0.3920 H     1 <1>   0.0800 
 25 H        0.8210     2.9170    -0.2110 H     1 <1>   0.0800 
 26 H        2.4180     3.5120    -0.3480 H     1 <1>   0.0800 
 27 H        1.7370     3.2470     1.2370 H     1 <1>   0.0800 
 28 H        3.5890    -2.2140     0.2730 H     1 <1>   0.1500 
 29 H        4.4940     3.1000     0.5810 H     1 <1>   0.0800 
 30 H        4.5820     2.7110    -1.1270 H     1 <1>   0.0800 
 31 H        5.6960     2.0070     0.0080 H     1 <1>   0.0800 
 32 H       -6.5610     1.6280     0.0550 H     1 <1>   0.0800 
 33 H       -5.5660     1.0960     1.4050 H     1 <1>   0.0800 
 34 H       -5.7960     0.0430     0.0000 H     1 <1>   0.0800 
 35 H        7.0870    -1.5660    -0.3910 H     1 <1>   0.0800 
 36 H        5.5680    -2.2260    -0.9850 H     1 <1>   0.0800 
 37 H        5.8790    -2.1290     0.7590 H     1 <1>   0.0800 
@<TRIPOS>BOND
  1   1   2  2   
  2   1   3  2   
  3   1   4  am  
  4   1   5  1   
  5   4   6  1   
  6   4  19  1   
  7   5   7  ar  
  8   5   8  ar  
  9   6   9  1   
 10   6  20  1   
 11   6  21  1   
 12   7  10  ar  
 13   7  11  1   
 14   8  12  ar  
 15   8  22  1   
 16   9  13  1   
 17   9  23  1   
 18   9  24  1   
 19  10  14  ar  
 20  10  15  1   
 21  11  25  1   
 22  11  26  1   
 23  11  27  1   
 24  12  14  ar  
 25  12  28  1   
 26  13  16  1   
 27  14  17  1   
 28  15  29  1   
 29  15  30  1   
 30  15  31  1   
 31  16  32  1   
 32  16  33  1   
 33  16  34  1   
 34  17  18  1   
 35  18  35  1   
 36  18  36  1   
 37  18  37  1   
@<TRIPOS>SUBSTRUCTURE
  1 ****   5 GROUP 4 **** **** 0

# MOE 2024.06 (io_trps.svl 2023.06)
