@<TRIPOS>MOLECULE
NONAME
53 56 1 0 0 
SMALL
USER_CHARGES


@<TRIPOS>ATOM
  1 O       -1.0580    -2.8720     2.0240 O.2   1 <1>  -0.5700 
  2 C       -0.9500    -2.1880     1.0310 C.2   1 <1>   0.5690 
  3 N        0.2310    -1.5840     0.7090 N.am  1 <1>  -0.7300 
  4 C       -2.1480    -2.0110     0.0750 C.3   1 <1>   0.0610 
  5 C        1.5530    -1.8310     1.3080 C.3   1 <1>   0.2810 
  6 C       -1.7900    -2.5650    -1.3280 C.3   1 <1>  -0.1600 
  7 C       -2.5230    -0.5140    -0.0680 C.3   1 <1>  -0.1600 
  8 C       -3.4030    -2.7730     0.5810 C.3   1 <1>  -0.1600 
  9 C        2.0710    -3.2840     1.1160 C.2   1 <1>   0.5690 
 10 C        1.5630    -1.3740     2.7720 C.3   1 <1>  -0.2400 
 11 C       -2.9650    -2.3930    -2.3070 C.3   1 <1>  -0.0800 
 12 C       -3.7020    -0.3340    -1.0440 C.3   1 <1>  -0.0800 
 13 C       -4.5870    -2.6030    -0.3880 C.3   1 <1>  -0.0800 
 14 O        3.1630    -3.4810     0.5910 O.2   1 <1>  -0.5700 
 15 N        1.2810    -4.3140     1.5050 N.am  1 <1>  -0.7300 
 16 C       -3.3080    -0.8960    -2.4240 C.3   1 <1>  -0.1600 
 17 C       -4.1890    -3.1550    -1.7680 C.3   1 <1>  -0.1600 
 18 C       -4.9230    -1.1060    -0.5140 C.3   1 <1>  -0.1600 
 19 C        1.4080    -5.7050     1.0530 C.3   1 <1>   0.2840 
 20 C        0.2690    -5.9830     0.0860 C.ar  1 <1>  -0.1440 
 21 C       -1.0220    -6.1690     0.5580 C.ar  1 <1>  -0.1500 
 22 C        0.5080    -6.0410    -1.2780 C.ar  1 <1>  -0.1500 
 23 C       -2.0600    -6.4200    -0.3230 C.ar  1 <1>  -0.1500 
 24 C       -0.5290    -6.2920    -2.1600 C.ar  1 <1>  -0.1500 
 25 C       -1.8140    -6.4830    -1.6830 C.ar  1 <1>  -0.1500 
 26 H        0.2300    -1.0390    -0.1340 H     1 <1>   0.3700 
 27 H        2.2660    -1.1960     0.7800 H     1 <1>   0.0800 
 28 H       -1.5370    -3.6080    -1.2460 H     1 <1>   0.0800 
 29 H       -0.9280    -2.0590    -1.7230 H     1 <1>   0.0800 
 30 H       -1.6810     0.0490    -0.4270 H     1 <1>   0.0800 
 31 H       -2.7900    -0.1180     0.8970 H     1 <1>   0.0800 
 32 H       -3.6800    -2.4080     1.5550 H     1 <1>   0.0800 
 33 H       -3.1720    -3.8190     0.6840 H     1 <1>   0.0800 
 34 H        0.9220    -2.0160     3.3750 H     1 <1>   0.0800 
 35 H        1.2090    -0.3460     2.8400 H     1 <1>   0.0800 
 36 H        2.5800    -1.4310     3.1600 H     1 <1>   0.0800 
 37 H       -2.6920    -2.7820    -3.2730 H     1 <1>   0.0800 
 38 H       -3.9440     0.7110    -1.1330 H     1 <1>   0.0800 
 39 H       -5.4420    -3.1390    -0.0140 H     1 <1>   0.0800 
 40 H        0.3400    -4.0630     1.8440 H     1 <1>   0.3700 
 41 H       -2.4630    -0.3560    -2.8120 H     1 <1>   0.0800 
 42 H       -4.1230    -0.7640    -3.1150 H     1 <1>   0.0800 
 43 H       -3.9580    -4.2030    -1.6890 H     1 <1>   0.0800 
 44 H       -5.0120    -3.0520    -2.4530 H     1 <1>   0.0800 
 45 H       -5.7560    -0.9760    -1.1830 H     1 <1>   0.0800 
 46 H       -5.2130    -0.7160     0.4460 H     1 <1>   0.0800 
 47 H        1.3460    -6.3640     1.9010 H     1 <1>   0.0800 
 48 H        2.3600    -5.8550     0.5720 H     1 <1>   0.0800 
 49 H       -1.2250    -6.1120     1.6140 H     1 <1>   0.1500 
 50 H        1.5040    -5.8860    -1.6580 H     1 <1>   0.1500 
 51 H       -3.0590    -6.5630     0.0510 H     1 <1>   0.1500 
 52 H       -0.3360    -6.3380    -3.2180 H     1 <1>   0.1500 
 53 H       -2.6200    -6.6790    -2.3680 H     1 <1>   0.1500 
@<TRIPOS>BOND
  1   1   2  2   
  2   2   3  am  
  3   2   4  1   
  4   3   5  1   
  5   3  26  1   
  6   4   6  1   
  7   4   7  1   
  8   4   8  1   
  9   5   9  1   
 10   5  10  1   
 11   5  27  1   
 12   6  11  1   
 13   6  28  1   
 14   6  29  1   
 15   7  12  1   
 16   7  30  1   
 17   7  31  1   
 18   8  13  1   
 19   8  32  1   
 20   8  33  1   
 21   9  14  2   
 22   9  15  am  
 23  10  34  1   
 24  10  35  1   
 25  10  36  1   
 26  11  16  1   
 27  11  17  1   
 28  11  37  1   
 29  12  16  1   
 30  12  18  1   
 31  12  38  1   
 32  13  17  1   
 33  13  18  1   
 34  13  39  1   
 35  15  19  1   
 36  15  40  1   
 37  16  41  1   
 38  16  42  1   
 39  17  43  1   
 40  17  44  1   
 41  18  45  1   
 42  18  46  1   
 43  19  20  1   
 44  19  47  1   
 45  19  48  1   
 46  20  21  ar  
 47  20  22  ar  
 48  21  23  ar  
 49  21  49  1   
 50  22  24  ar  
 51  22  50  1   
 52  23  25  ar  
 53  23  51  1   
 54  24  25  ar  
 55  24  52  1   
 56  25  53  1   
@<TRIPOS>SUBSTRUCTURE
  1 ****   2 GROUP 4 **** **** 0

# MOE 2024.06 (io_trps.svl 2023.06)
