@<TRIPOS>MOLECULE
NONAME
41 42 1 0 0 
SMALL
USER_CHARGES


@<TRIPOS>ATOM
  1 O        0.4460     0.3580    -0.5780 O.2   1 <1>  -0.5700 
  2 C        0.7420     1.3070     0.1240 C.2   1 <1>   0.6900 
  3 N        2.0470     1.6020     0.4100 N.am  1 <1>  -0.6600 
  4 N       -0.2020     2.1370     0.6510 N.am  1 <1>  -0.5470 
  5 C        3.0800     0.5640     0.6800 C.3   1 <1>   0.2200 
  6 C        2.6200     2.8490    -0.1590 C.3   1 <1>   0.1400 
  7 C       -1.5940     2.2010     0.4890 C.ar  1 <1>   0.1170 
  8 C        3.7710     0.1830    -0.6360 C.3   1 <1>  -0.1600 
  9 C        2.5180    -0.6540     1.4180 C.3   1 <1>  -0.2400 
 10 C        3.3260     2.5260    -1.4820 C.3   1 <1>  -0.1600 
 11 C       -2.2500     1.6770    -0.6200 C.ar  1 <1>  -0.1500 
 12 C       -2.3520     2.8320     1.4670 C.ar  1 <1>  -0.1500 
 13 C        4.3790     1.4190    -1.3180 C.3   1 <1>  -0.1600 
 14 C       -3.6250     1.7730    -0.7480 C.ar  1 <1>  -0.1500 
 15 C       -3.7260     2.9340     1.3440 C.ar  1 <1>  -0.1500 
 16 C       -4.3730     2.4060     0.2400 C.ar  1 <1>   0.0820 
 17 O       -5.7250     2.5470     0.1970 O.3   1 <1>  -0.3620 
 18 C       -6.4720     2.0090    -0.8680 C.3   1 <1>   0.1200 
 19 C       -7.9450     2.3150    -0.6130 C.3   1 <1>  -0.2400 
 20 H        0.1910     2.7480     1.3590 H     1 <1>   0.3700 
 21 H        3.8190     1.0080     1.3260 H     1 <1>   0.0800 
 22 H        3.3210     3.2700     0.5410 H     1 <1>   0.0800 
 23 H        1.8410     3.5720    -0.3350 H     1 <1>   0.0800 
 24 H        3.0510    -0.2780    -1.2900 H     1 <1>   0.0800 
 25 H        4.5460    -0.5360    -0.4410 H     1 <1>   0.0800 
 26 H        1.8640    -1.2250     0.7840 H     1 <1>   0.0800 
 27 H        1.9810    -0.3420     2.2950 H     1 <1>   0.0800 
 28 H        3.3240    -1.2950     1.7230 H     1 <1>   0.0800 
 29 H        3.7920     3.4160    -1.8660 H     1 <1>   0.0800 
 30 H        2.5850     2.2100    -2.1980 H     1 <1>   0.0800 
 31 H       -1.6850     1.1890    -1.3940 H     1 <1>   0.1500 
 32 H       -1.8690     3.2450     2.3330 H     1 <1>   0.1500 
 33 H        4.7720     1.1440    -2.2820 H     1 <1>   0.0800 
 34 H        5.1940     1.7900    -0.7210 H     1 <1>   0.0800 
 35 H       -4.0870     1.3510    -1.6200 H     1 <1>   0.1500 
 36 H       -4.3090     3.4210     2.1050 H     1 <1>   0.1500 
 37 H       -6.3040     0.9460    -0.9000 H     1 <1>   0.0800 
 38 H       -6.1410     2.4690    -1.7830 H     1 <1>   0.0800 
 39 H       -8.2600     1.8650     0.3120 H     1 <1>   0.0800 
 40 H       -8.5430     1.9160    -1.4110 H     1 <1>   0.0800 
 41 H       -8.0980     3.3780    -0.5660 H     1 <1>   0.0800 
@<TRIPOS>BOND
  1   1   2  2   
  2   2   3  am  
  3   2   4  am  
  4   3   5  1   
  5   3   6  1   
  6   4   7  1   
  7   4  20  1   
  8   5   8  1   
  9   5   9  1   
 10   5  21  1   
 11   6  10  1   
 12   6  22  1   
 13   6  23  1   
 14   7  11  ar  
 15   7  12  ar  
 16   8  13  1   
 17   8  24  1   
 18   8  25  1   
 19   9  26  1   
 20   9  27  1   
 21   9  28  1   
 22  10  13  1   
 23  10  29  1   
 24  10  30  1   
 25  11  14  ar  
 26  11  31  1   
 27  12  15  ar  
 28  12  32  1   
 29  13  33  1   
 30  13  34  1   
 31  14  16  ar  
 32  14  35  1   
 33  15  16  ar  
 34  15  36  1   
 35  16  17  1   
 36  17  18  1   
 37  18  19  1   
 38  18  37  1   
 39  18  38  1   
 40  19  39  1   
 41  19  40  1   
 42  19  41  1   
@<TRIPOS>SUBSTRUCTURE
  1 ****   4 GROUP 4 **** **** 0

# MOE 2024.06 (io_trps.svl 2023.06)
