@<TRIPOS>MOLECULE
NONAME
37 37 1 0 0 
SMALL
USER_CHARGES


@<TRIPOS>ATOM
  1 O        0.1250    -0.1860    -0.0320 O.2   1 <1>  -0.5700 
  2 C        0.0820     1.0270     0.0300 C.2   1 <1>   0.6900 
  3 N       -1.0860     1.7150    -0.0980 N.am  1 <1>  -0.5470 
  4 N        1.2010     1.7670     0.2370 N.am  1 <1>  -0.7300 
  5 C       -2.4130     1.3330    -0.3670 C.ar  1 <1>   0.1170 
  6 C        2.5920     1.3280     0.4070 C.3   1 <1>   0.3000 
  7 C       -3.4230     2.2820    -0.1680 C.ar  1 <1>   0.0820 
  8 C       -2.7640     0.0700    -0.8310 C.ar  1 <1>  -0.1500 
  9 C        3.4520     2.5900     0.6330 C.3   1 <1>  -0.1600 
 10 C        2.6940     0.4350     1.6470 C.3   1 <1>  -0.2400 
 11 C        3.0490     0.5670    -0.8420 C.3   1 <1>  -0.2400 
 12 O       -3.0400     3.5180     0.2780 O.3   1 <1>  -0.3630 
 13 C       -4.7510     1.9520    -0.4240 C.ar  1 <1>  -0.1500 
 14 C       -4.0860    -0.2530    -1.0840 C.ar  1 <1>  -0.1500 
 15 C        3.4270     3.6390    -0.4970 C.3   1 <1>  -0.2400 
 16 C       -3.9930     4.5180     0.5680 C.3   1 <1>   0.0400 
 17 C       -5.0790     0.6860    -0.8790 C.ar  1 <1>  -0.1500 
 18 H       -1.0270     2.6940     0.1650 H     1 <1>   0.3700 
 19 H        1.1220     2.7730     0.1420 H     1 <1>   0.3700 
 20 H       -2.0070    -0.6730    -1.0020 H     1 <1>   0.1500 
 21 H        4.4730     2.2840     0.7800 H     1 <1>   0.0800 
 22 H        3.1380     3.0620     1.5470 H     1 <1>   0.0800 
 23 H        2.3160     0.9470     2.5130 H     1 <1>   0.0800 
 24 H        3.7180     0.1660     1.8280 H     1 <1>   0.0800 
 25 H        2.1350    -0.4730     1.5110 H     1 <1>   0.0800 
 26 H        2.8550     1.1370    -1.7320 H     1 <1>   0.0800 
 27 H        2.5310    -0.3720    -0.9210 H     1 <1>   0.0800 
 28 H        4.1010     0.3590    -0.7860 H     1 <1>   0.0800 
 29 H       -5.5440     2.6590    -0.2780 H     1 <1>   0.1500 
 30 H       -4.3360    -1.2370    -1.4400 H     1 <1>   0.1500 
 31 H        3.8220     3.2290    -1.4090 H     1 <1>   0.0800 
 32 H        4.0380     4.4800    -0.2210 H     1 <1>   0.0800 
 33 H        2.4300     3.9960    -0.6810 H     1 <1>   0.0800 
 34 H       -3.4700     5.3860     0.9240 H     1 <1>   0.0800 
 35 H       -4.6600     4.1550     1.3310 H     1 <1>   0.0800 
 36 H       -4.5310     4.7600    -0.3320 H     1 <1>   0.0800 
 37 H       -6.1070     0.4320    -1.0760 H     1 <1>   0.1500 
@<TRIPOS>BOND
  1   1   2  2   
  2   2   3  am  
  3   2   4  am  
  4   3   5  1   
  5   3  18  1   
  6   4   6  1   
  7   4  19  1   
  8   5   7  ar  
  9   5   8  ar  
 10   6   9  1   
 11   6  10  1   
 12   6  11  1   
 13   7  12  1   
 14   7  13  ar  
 15   8  14  ar  
 16   8  20  1   
 17   9  15  1   
 18   9  21  1   
 19   9  22  1   
 20  10  23  1   
 21  10  24  1   
 22  10  25  1   
 23  11  26  1   
 24  11  27  1   
 25  11  28  1   
 26  12  16  1   
 27  13  17  ar  
 28  13  29  1   
 29  14  17  ar  
 30  14  30  1   
 31  15  31  1   
 32  15  32  1   
 33  15  33  1   
 34  16  34  1   
 35  16  35  1   
 36  16  36  1   
 37  17  37  1   
@<TRIPOS>SUBSTRUCTURE
  1 ****   3 GROUP 4 **** **** 0

# MOE 2024.06 (io_trps.svl 2023.06)
