@<TRIPOS>MOLECULE
NONAME
40 41 1 0 0 
SMALL
USER_CHARGES


@<TRIPOS>ATOM
  1 S       -0.0800    -0.2820     0.5920 S.o2  1 <1>   1.4470 
  2 O       -0.5370    -0.4510     1.9530 O.2   1 <1>  -0.6500 
  3 O        0.0880    -1.4280    -0.2720 O.2   1 <1>  -0.6500 
  4 N       -1.1970     0.6730    -0.2170 N.am  1 <1>  -0.9140 
  5 C        1.4190     0.7400     0.5710 C.ar  1 <1>  -0.0090 
  6 C       -2.5710     0.5710     0.2310 C.3   1 <1>   0.2760 
  7 C        1.4120     2.0230     1.1090 C.ar  1 <1>  -0.1500 
  8 C        2.6080     0.2680     0.0210 C.ar  1 <1>  -0.1500 
  9 C       -3.1900    -0.7540    -0.2530 C.3   1 <1>  -0.1600 
 10 C       -3.2860     1.8190    -0.3010 C.3   1 <1>  -0.1600 
 11 C        2.5500     2.8120     1.0980 C.ar  1 <1>  -0.1500 
 12 C        3.7540     1.0460     0.0030 C.ar  1 <1>  -0.1500 
 13 C       -4.5280    -1.0610     0.4370 C.3   1 <1>  -0.1600 
 14 C       -4.7880     1.9090     0.0170 C.3   1 <1>  -0.1600 
 15 C        3.7160     2.3190     0.5450 C.ar  1 <1>   0.1010 
 16 C       -5.7670    -0.4720    -0.2540 C.3   1 <1>  -0.1600 
 17 C       -5.6260     0.9440    -0.8340 C.3   1 <1>  -0.1600 
 18 S        5.1550     3.4010     0.5640 S.3   1 <1>  -0.3320 
 19 C        6.5350     2.4680    -0.2320 C.3   1 <1>  -0.0100 
 20 H       -1.1700     0.3250    -1.1720 H     1 <1>   0.4200 
 21 H       -2.6020     0.6110     1.3090 H     1 <1>   0.0800 
 22 H        0.5030     2.4070     1.5410 H     1 <1>   0.1500 
 23 H        2.6370    -0.7240    -0.4000 H     1 <1>   0.1500 
 24 H       -2.5280    -1.5620     0.0040 H     1 <1>   0.0800 
 25 H       -3.3100    -0.7550    -1.3210 H     1 <1>   0.0800 
 26 H       -3.1480     1.8870    -1.3660 H     1 <1>   0.0800 
 27 H       -2.8080     2.6760     0.1390 H     1 <1>   0.0800 
 28 H        2.5360     3.8030     1.5160 H     1 <1>   0.1500 
 29 H        4.6530     0.6500    -0.4290 H     1 <1>   0.1500 
 30 H       -4.4900    -0.7190     1.4580 H     1 <1>   0.0800 
 31 H       -4.6560    -2.1290     0.4790 H     1 <1>   0.0800 
 32 H       -5.1070     2.9110    -0.2140 H     1 <1>   0.0800 
 33 H       -4.9700     1.7520     1.0670 H     1 <1>   0.0800 
 34 H       -6.5730    -0.4730     0.4600 H     1 <1>   0.0800 
 35 H       -6.0610    -1.1290    -1.0550 H     1 <1>   0.0800 
 36 H       -5.2100     0.8850    -1.8250 H     1 <1>   0.0800 
 37 H       -6.6160     1.3520    -0.9420 H     1 <1>   0.0800 
 38 H        7.4020     3.1040    -0.2250 H     1 <1>   0.0800 
 39 H        6.2420     2.2350    -1.2400 H     1 <1>   0.0800 
 40 H        6.7110     1.5780     0.3440 H     1 <1>   0.0800 
@<TRIPOS>BOND
  1   1   2  2   
  2   1   3  2   
  3   1   4  am  
  4   1   5  1   
  5   4   6  1   
  6   4  20  1   
  7   5   7  ar  
  8   5   8  ar  
  9   6   9  1   
 10   6  10  1   
 11   6  21  1   
 12   7  11  ar  
 13   7  22  1   
 14   8  12  ar  
 15   8  23  1   
 16   9  13  1   
 17   9  24  1   
 18   9  25  1   
 19  10  14  1   
 20  10  26  1   
 21  10  27  1   
 22  11  15  ar  
 23  11  28  1   
 24  12  15  ar  
 25  12  29  1   
 26  13  16  1   
 27  13  30  1   
 28  13  31  1   
 29  14  17  1   
 30  14  32  1   
 31  14  33  1   
 32  15  18  1   
 33  16  17  1   
 34  16  34  1   
 35  16  35  1   
 36  17  36  1   
 37  17  37  1   
 38  18  19  1   
 39  19  38  1   
 40  19  39  1   
 41  19  40  1   
@<TRIPOS>SUBSTRUCTURE
  1 ****   4 GROUP 4 **** **** 0

# MOE 2024.06 (io_trps.svl 2023.06)
