@<TRIPOS>MOLECULE
NONAME
42 43 1 0 0 
SMALL
USER_CHARGES


@<TRIPOS>ATOM
  1 O        0.5740     0.0470    -0.5260 O.2   1 <1>  -0.5700 
  2 C        1.5550    -0.6250    -0.2800 C.2   1 <1>   0.6340 
  3 O        2.6790     0.0240     0.0570 O.3   1 <1>  -0.0870 
  4 C        1.5360    -2.0760    -0.3200 C.ar  1 <1>   0.0860 
  5 N        3.6730    -0.5430     0.7630 N.2   1 <1>  -0.5130 
  6 C        0.4490    -2.7860     0.1930 C.ar  1 <1>  -0.1500 
  7 C        2.5790    -2.8240    -0.8700 C.ar  1 <1>  -0.1500 
  8 C        4.8430    -0.0160     0.6730 C.2   1 <1>   0.5860 
  9 C        0.4160    -4.1680     0.1800 C.ar  1 <1>  -0.1500 
 10 C        2.5520    -4.2060    -0.8840 C.ar  1 <1>  -0.1500 
 11 N        5.0530     1.1490    -0.0890 N.pl3 1 <1>  -0.7880 
 12 C        5.9700    -0.6380     1.3440 C.2   1 <1>   0.2030 
 13 C        1.4710    -4.8880    -0.3540 C.ar  1 <1>  -0.1430 
 14 C        6.2260     1.2560    -0.9950 C.3   1 <1>   0.2090 
 15 C        4.4910     2.4260     0.4220 C.3   1 <1>   0.2090 
 16 N        7.0080    -0.0780     1.8630 N.2   1 <1>  -0.4100 
 17 C        6.1180    -1.9950     1.5570 C.2   1 <1>   0.3720 
 18 C        1.4380    -6.4060    -0.3700 C.3   1 <1>  -0.0960 
 19 C        6.1350     0.1800    -2.0720 C.3   1 <1>  -0.2400 
 20 C        5.4820     3.1080     1.3620 C.3   1 <1>  -0.2400 
 21 O        7.7610    -1.0130     2.3790 O.3   1 <1>   0.2420 
 22 N        7.2000    -2.1880     2.1870 N.2   1 <1>  -0.4100 
 23 N        5.2930    -3.0490     1.1840 N.pl3 1 <1>  -0.8830 
 24 H       -0.3800    -2.2380     0.6080 H     1 <1>   0.1500 
 25 H        3.4270    -2.3120    -1.2940 H     1 <1>   0.1500 
 26 H       -0.4380    -4.6820     0.5870 H     1 <1>   0.1500 
 27 H        3.3780    -4.7490    -1.3110 H     1 <1>   0.1500 
 28 H        6.2270     2.2240    -1.4670 H     1 <1>   0.0800 
 29 H        7.1420     1.1560    -0.4380 H     1 <1>   0.0800 
 30 H        4.2580     3.0710    -0.4090 H     1 <1>   0.0800 
 31 H        3.5740     2.2330     0.9540 H     1 <1>   0.0800 
 32 H        1.0090    -6.7500    -1.2940 H     1 <1>   0.0800 
 33 H        0.8490    -6.7790     0.4470 H     1 <1>   0.0800 
 34 H        2.4330    -6.8030    -0.2800 H     1 <1>   0.0800 
 35 H        5.2030     0.2660    -2.6020 H     1 <1>   0.0800 
 36 H        6.2130    -0.8010    -1.6400 H     1 <1>   0.0800 
 37 H        6.9410     0.3030    -2.7730 H     1 <1>   0.0800 
 38 H        6.3930     3.3540     0.8490 H     1 <1>   0.0800 
 39 H        5.7030     2.4690     2.1980 H     1 <1>   0.0800 
 40 H        5.0500     4.0170     1.7390 H     1 <1>   0.0800 
 41 H        5.4280    -3.8570     1.7970 H     1 <1>   0.4000 
 42 H        4.3020    -2.7780     1.1490 H     1 <1>   0.4000 
@<TRIPOS>BOND
  1   1   2  2   
  2   2   3  1   
  3   2   4  1   
  4   3   5  1   
  5   4   6  ar  
  6   4   7  ar  
  7   5   8  2   
  8   6   9  ar  
  9   6  24  1   
 10   7  10  ar  
 11   7  25  1   
 12   8  11  1   
 13   8  12  1   
 14   9  13  ar  
 15   9  26  1   
 16  10  13  ar  
 17  10  27  1   
 18  11  14  1   
 19  11  15  1   
 20  12  16  2   
 21  12  17  1   
 22  13  18  1   
 23  14  19  1   
 24  14  28  1   
 25  14  29  1   
 26  15  20  1   
 27  15  30  1   
 28  15  31  1   
 29  16  21  1   
 30  17  22  2   
 31  17  23  1   
 32  18  32  1   
 33  18  33  1   
 34  18  34  1   
 35  19  35  1   
 36  19  36  1   
 37  19  37  1   
 38  20  38  1   
 39  20  39  1   
 40  20  40  1   
 41  21  22  1   
 42  23  41  1   
 43  23  42  1   
@<TRIPOS>SUBSTRUCTURE
  1 ****   5 GROUP 4 **** **** 0

# MOE 2024.06 (io_trps.svl 2023.06)
