@<TRIPOS>MOLECULE
NONAME
38 39 1 0 0 
SMALL
USER_CHARGES


@<TRIPOS>ATOM
  1 S       -0.0270     0.6030    -1.4270 S.o2  1 <1>   1.4470 
  2 O       -0.3770     1.1230    -2.7300 O.2   1 <1>  -0.6500 
  3 O        0.2120    -0.8150    -1.2670 O.2   1 <1>  -0.6500 
  4 N       -1.2940     1.0090    -0.3760 N.am  1 <1>  -0.8490 
  5 C        1.3830     1.5360    -0.7660 C.ar  1 <1>  -0.0090 
  6 C       -1.1630     0.3760     0.9470 C.3   1 <1>   0.1960 
  7 C       -2.6010     0.6580    -0.9520 C.3   1 <1>   0.1960 
  8 C        2.6400     0.9590    -0.6670 C.ar  1 <1>  -0.1500 
  9 C        1.2440     2.8540    -0.3550 C.ar  1 <1>  -0.1500 
 10 C       -2.3400     0.7640     1.8610 C.3   1 <1>   0.1200 
 11 C       -3.7500     1.0210     0.0080 C.3   1 <1>   0.1200 
 12 C        3.7490     1.6380    -0.1620 C.ar  1 <1>   0.0860 
 13 C        2.3210     3.5580     0.1490 C.ar  1 <1>  -0.1500 
 14 O       -3.5570     0.4240     1.2600 O.3   1 <1>  -0.5600 
 15 C        3.5660     2.9630     0.2520 C.ar  1 <1>  -0.1430 
 16 C        5.0260     0.9470    -0.0860 C.2   1 <1>   0.5440 
 17 C        4.7220     3.7780     0.8200 C.3   1 <1>  -0.0960 
 18 O        6.0360     1.4350    -0.5530 O.2   1 <1>  -0.5700 
 19 N        5.1000    -0.2810     0.5140 N.am  1 <1>  -0.7300 
 20 C        6.3260    -1.1100     0.6380 C.3   1 <1>   0.0600 
 21 H       -0.2430     0.6880     1.4100 H     1 <1>   0.0800 
 22 H       -1.1430    -0.6970     0.8490 H     1 <1>   0.0800 
 23 H       -2.6400    -0.3970    -1.1670 H     1 <1>   0.0800 
 24 H       -2.7440     1.1910    -1.8780 H     1 <1>   0.0800 
 25 H        2.7690    -0.0570    -1.0020 H     1 <1>   0.1500 
 26 H        0.2820     3.3340    -0.4330 H     1 <1>   0.1500 
 27 H       -2.3350     1.8210     2.0580 H     1 <1>   0.0800 
 28 H       -2.2770     0.2350     2.7950 H     1 <1>   0.0800 
 29 H       -4.6870     0.6690    -0.3830 H     1 <1>   0.0800 
 30 H       -3.8070     2.0880     0.1400 H     1 <1>   0.0800 
 31 H        2.1800     4.5800     0.4590 H     1 <1>   0.1500 
 32 H        5.2320     3.2210     1.5860 H     1 <1>   0.0800 
 33 H        4.3780     4.7020     1.2470 H     1 <1>   0.0800 
 34 H        5.4260     4.0050     0.0380 H     1 <1>   0.0800 
 35 H        4.2570    -0.6670     0.9430 H     1 <1>   0.3700 
 36 H        7.1570    -0.6310     0.1500 H     1 <1>   0.0800 
 37 H        6.1630    -2.0700     0.1800 H     1 <1>   0.0800 
 38 H        6.5680    -1.2470     1.6780 H     1 <1>   0.0800 
@<TRIPOS>BOND
  1   1   2  2   
  2   1   3  2   
  3   1   4  am  
  4   1   5  1   
  5   4   6  1   
  6   4   7  1   
  7   5   8  ar  
  8   5   9  ar  
  9   6  10  1   
 10   6  21  1   
 11   6  22  1   
 12   7  11  1   
 13   7  23  1   
 14   7  24  1   
 15   8  12  ar  
 16   8  25  1   
 17   9  13  ar  
 18   9  26  1   
 19  10  14  1   
 20  10  27  1   
 21  10  28  1   
 22  11  14  1   
 23  11  29  1   
 24  11  30  1   
 25  12  15  ar  
 26  12  16  1   
 27  13  15  ar  
 28  13  31  1   
 29  15  17  1   
 30  16  18  2   
 31  16  19  am  
 32  17  32  1   
 33  17  33  1   
 34  17  34  1   
 35  19  20  1   
 36  19  35  1   
 37  20  36  1   
 38  20  37  1   
 39  20  38  1   
@<TRIPOS>SUBSTRUCTURE
  1 ****   5 GROUP 4 **** **** 0

# MOE 2024.06 (io_trps.svl 2023.06)
