@<TRIPOS>MOLECULE
NONAME
52 55 1 0 0 
SMALL
USER_CHARGES


@<TRIPOS>ATOM
  1 F       -0.6310    -0.5720     0.2290 F     1 <1>  -0.1900 
  2 C       -1.8110    -1.1290     0.1310 C.ar  1 <1>   0.1900 
  3 C       -2.1390    -2.1550     0.9980 C.ar  1 <1>  -0.1500 
  4 C       -2.6870    -0.6700    -0.8350 C.ar  1 <1>  -0.1500 
  5 C       -3.3890    -2.7380     0.8890 C.ar  1 <1>  -0.1500 
  6 C       -3.9330    -1.2650    -0.9310 C.ar  1 <1>  -0.1500 
  7 C       -4.2950    -2.2990    -0.0750 C.ar  1 <1>   0.1000 
  8 N       -5.5540    -2.8730    -0.2010 N.pl3 1 <1>  -0.8380 
  9 C       -5.5900    -4.2870    -0.6920 C.3   1 <1>   0.2090 
 10 C       -6.5000    -2.6530     0.9400 C.3   1 <1>   0.2090 
 11 C       -7.0230    -4.7410    -1.0310 C.3   1 <1>   0.2090 
 12 C       -7.9310    -3.1170     0.6030 C.3   1 <1>   0.2090 
 13 N       -7.9540    -4.5340     0.1200 N.pl3 1 <1>  -0.8380 
 14 C       -9.1500    -5.2210     0.1220 C.ar  1 <1>   0.4100 
 15 N      -10.2550    -4.5390     0.0550 N.ar  1 <1>  -0.6200 
 16 C       -9.1320    -6.6220     0.1940 C.ar  1 <1>  -0.1500 
 17 C      -11.4190    -5.2290     0.0340 C.ar  1 <1>   0.3100 
 18 C      -10.2810    -7.3520     0.1760 C.ar  1 <1>  -0.1430 
 19 C      -11.5130    -6.6450     0.0860 C.ar  1 <1>   0.0000 
 20 C      -12.5810    -4.4530    -0.0480 C.ar  1 <1>  -0.1500 
 21 C      -10.1680    -8.8700     0.2610 C.3   1 <1>  -0.0970 
 22 C      -12.8210    -7.2130     0.0470 C.ar  1 <1>   0.0830 
 23 C      -13.8270    -5.0240    -0.0830 C.ar  1 <1>   0.0830 
 24 O      -12.9440    -8.5650     0.0890 O.3   1 <1>  -0.3630 
 25 C      -13.9380    -6.4100    -0.0350 C.ar  1 <1>  -0.1500 
 26 O      -14.9870    -4.3290    -0.1620 O.3   1 <1>  -0.3620 
 27 C      -14.1900    -9.2280     0.0640 C.3   1 <1>   0.0400 
 28 C      -14.9900    -2.9190    -0.2240 C.3   1 <1>   0.0400 
 29 H       -1.4300    -2.4830     1.7360 H     1 <1>   0.1500 
 30 H       -2.3970     0.1300    -1.4920 H     1 <1>   0.1500 
 31 H       -3.6700    -3.5370     1.5490 H     1 <1>   0.1500 
 32 H       -4.6420    -0.9360    -1.6690 H     1 <1>   0.1500 
 33 H       -5.1880    -4.9380     0.0640 H     1 <1>   0.0800 
 34 H       -4.9730    -4.3700    -1.5690 H     1 <1>   0.0800 
 35 H       -6.5170    -1.6060     1.1890 H     1 <1>   0.0800 
 36 H       -6.1550    -3.1960     1.8020 H     1 <1>   0.0800 
 37 H       -7.0090    -5.7790    -1.3130 H     1 <1>   0.0800 
 38 H       -7.3780    -4.1740    -1.8750 H     1 <1>   0.0800 
 39 H       -8.3390    -2.4760    -0.1580 H     1 <1>   0.0800 
 40 H       -8.5490    -3.0280     1.4800 H     1 <1>   0.0800 
 41 H       -8.1710    -7.0900     0.2710 H     1 <1>   0.1500 
 42 H      -12.4430    -3.3910    -0.0840 H     1 <1>   0.1500 
 43 H       -9.1420    -9.1820     0.3340 H     1 <1>   0.0800 
 44 H      -10.5920    -9.3200    -0.6180 H     1 <1>   0.0800 
 45 H      -10.6880    -9.2290     1.1300 H     1 <1>   0.0800 
 46 H      -14.9340    -6.8060    -0.0660 H     1 <1>   0.1500 
 47 H      -14.0050   -10.2860     0.1120 H     1 <1>   0.0800 
 48 H      -14.6950    -8.9880    -0.8540 H     1 <1>   0.0800 
 49 H      -14.7670    -8.9190     0.9170 H     1 <1>   0.0800 
 50 H      -16.0110    -2.5890    -0.2850 H     1 <1>   0.0800 
 51 H      -14.4510    -2.6080    -1.1020 H     1 <1>   0.0800 
 52 H      -14.5310    -2.5300     0.6670 H     1 <1>   0.0800 
@<TRIPOS>BOND
  1   1   2  1   
  2   2   3  ar  
  3   2   4  ar  
  4   3   5  ar  
  5   3  29  1   
  6   4   6  ar  
  7   4  30  1   
  8   5   7  ar  
  9   5  31  1   
 10   6   7  ar  
 11   6  32  1   
 12   7   8  1   
 13   8   9  1   
 14   8  10  1   
 15   9  11  1   
 16   9  33  1   
 17   9  34  1   
 18  10  12  1   
 19  10  35  1   
 20  10  36  1   
 21  11  13  1   
 22  11  37  1   
 23  11  38  1   
 24  12  13  1   
 25  12  39  1   
 26  12  40  1   
 27  13  14  1   
 28  14  15  ar  
 29  14  16  ar  
 30  15  17  ar  
 31  16  18  ar  
 32  16  41  1   
 33  17  19  ar  
 34  17  20  ar  
 35  18  19  ar  
 36  18  21  1   
 37  19  22  ar  
 38  20  23  ar  
 39  20  42  1   
 40  21  43  1   
 41  21  44  1   
 42  21  45  1   
 43  22  24  1   
 44  22  25  ar  
 45  23  25  ar  
 46  23  26  1   
 47  24  27  1   
 48  25  46  1   
 49  26  28  1   
 50  27  47  1   
 51  27  48  1   
 52  27  49  1   
 53  28  50  1   
 54  28  51  1   
 55  28  52  1   
@<TRIPOS>SUBSTRUCTURE
  1 ****  13 GROUP 4 **** **** 0

# MOE 2024.06 (io_trps.svl 2023.06)
