@<TRIPOS>MOLECULE
NONAME
39 40 1 0 0 
SMALL
USER_CHARGES


@<TRIPOS>ATOM
  1 S        0.2220     1.0640     1.9590 S.3   1 <1>  -0.0800 
  2 C        0.3130     1.4950     0.2500 C.2   1 <1>  -0.1400 
  3 C       -1.3080     0.2410     1.7220 C.2   1 <1>  -0.1100 
  4 C       -0.7590     1.0050    -0.4040 C.2   1 <1>  -0.1500 
  5 C        1.5280     2.2720    -0.2570 C.3   1 <1>   0.3800 
  6 C       -1.6830     0.3000     0.4320 C.2   1 <1>  -0.1500 
  7 O        2.6120     1.9970     0.6000 O.3   1 <1>  -0.4300 
  8 C        1.3670     3.8030    -0.4680 C.3   1 <1>   0.0610 
  9 C        3.7510     2.6700     0.6430 C.2   1 <1>   0.6590 
 10 C        2.7250     4.1660    -1.1040 C.2   1 <1>   0.4480 
 11 C        1.1610     4.6140     0.8560 C.3   1 <1>  -0.1600 
 12 C        0.1830     4.0630    -1.4600 C.3   1 <1>  -0.1600 
 13 O        4.5680     2.3840     1.4770 O.2   1 <1>  -0.5700 
 14 C        4.0190     3.7980    -0.3640 C.3   1 <1>   0.1220 
 15 O        2.7980     4.6770    -2.1840 O.2   1 <1>  -0.5700 
 16 C       -0.2470     4.6260     1.4820 C.3   1 <1>  -0.2400 
 17 C       -0.0900     5.5290    -1.8590 C.3   1 <1>  -0.2400 
 18 C        4.5840     5.0530     0.3430 C.3   1 <1>  -0.2400 
 19 C        5.0900     3.3040    -1.3680 C.3   1 <1>  -0.2400 
 20 H       -1.7670    -0.2070     2.5860 H     1 <1>   0.1500 
 21 H       -0.9520     1.1030    -1.4580 H     1 <1>   0.1500 
 22 H        1.7850     1.8380    -1.2090 H     1 <1>   0.0800 
 23 H       -2.5810    -0.1290     0.0240 H     1 <1>   0.1500 
 24 H        1.8360     4.2580     1.6150 H     1 <1>   0.0800 
 25 H        1.4300     5.6390     0.6670 H     1 <1>   0.0800 
 26 H       -0.7260     3.6770    -1.0360 H     1 <1>   0.0800 
 27 H        0.3600     3.5080    -2.3660 H     1 <1>   0.0800 
 28 H       -0.6180     3.6370     1.6560 H     1 <1>   0.0800 
 29 H       -0.9560     5.1440     0.8640 H     1 <1>   0.0800 
 30 H       -0.2120     5.1350     2.4300 H     1 <1>   0.0800 
 31 H       -0.2500     6.1590    -1.0050 H     1 <1>   0.0800 
 32 H       -0.9740     5.5730    -2.4710 H     1 <1>   0.0800 
 33 H        0.7190     5.9420    -2.4330 H     1 <1>   0.0800 
 34 H        3.9100     5.4080     1.0990 H     1 <1>   0.0800 
 35 H        4.7440     5.8430    -0.3700 H     1 <1>   0.0800 
 36 H        5.5240     4.8270     0.8160 H     1 <1>   0.0800 
 37 H        4.7270     2.4510    -1.9150 H     1 <1>   0.0800 
 38 H        5.9890     3.0160    -0.8490 H     1 <1>   0.0800 
 39 H        5.3390     4.0780    -2.0730 H     1 <1>   0.0800 
@<TRIPOS>BOND
  1   1   2  1   
  2   1   3  1   
  3   2   4  2   
  4   2   5  1   
  5   3   6  2   
  6   3  20  1   
  7   4   6  1   
  8   4  21  1   
  9   5   7  1   
 10   5   8  1   
 11   5  22  1   
 12   6  23  1   
 13   7   9  1   
 14   8  10  1   
 15   8  11  1   
 16   8  12  1   
 17   9  13  2   
 18   9  14  1   
 19  10  14  1   
 20  10  15  2   
 21  11  16  1   
 22  11  24  1   
 23  11  25  1   
 24  12  17  1   
 25  12  26  1   
 26  12  27  1   
 27  14  18  1   
 28  14  19  1   
 29  16  28  1   
 30  16  29  1   
 31  16  30  1   
 32  17  31  1   
 33  17  32  1   
 34  17  33  1   
 35  18  34  1   
 36  18  35  1   
 37  18  36  1   
 38  19  37  1   
 39  19  38  1   
 40  19  39  1   
@<TRIPOS>SUBSTRUCTURE
  1 ****   5 GROUP 4 **** **** 0

# MOE 2024.06 (io_trps.svl 2023.06)
