@<TRIPOS>MOLECULE
NONAME
38 38 1 0 0 
SMALL
USER_CHARGES


@<TRIPOS>ATOM
  1 BR      -0.1750     0.0050    -1.2030 Br    1 <1>  -0.1110 
  2 C       -0.2490     1.7100    -0.3060 C.ar  1 <1>   0.1110 
  3 C       -1.3800     2.5080    -0.4140 C.ar  1 <1>  -0.1440 
  4 C        0.8660     2.0840     0.4210 C.ar  1 <1>  -0.1500 
  5 C       -1.3560     3.7400     0.2340 C.ar  1 <1>  -0.1500 
  6 C       -2.5660     2.0120    -1.2290 C.3   1 <1>   0.4870 
  7 C        0.8630     3.3070     1.0640 C.ar  1 <1>  -0.1500 
  8 C       -0.2460     4.1310     0.9670 C.ar  1 <1>  -0.1500 
  9 N       -3.8540     2.3420    -0.5570 N.4   1 <1>  -0.9590 
 10 C       -4.7820     1.1640    -0.5260 C.3   1 <1>   0.3430 
 11 C       -4.4860     3.5940    -1.0790 C.3   1 <1>   0.3430 
 12 C       -4.5100     0.2070     0.6590 C.3   1 <1>   0.2000 
 13 C       -5.2510     4.3620     0.0320 C.3   1 <1>   0.2000 
 14 O       -3.1780    -0.1610     0.6720 O.3   1 <1>  -0.6800 
 15 C       -5.3300    -1.0770     0.5640 C.3   1 <1>  -0.2400 
 16 O       -4.6020     4.1730     1.2450 O.3   1 <1>  -0.6800 
 17 C       -6.6990     3.9150     0.2280 C.3   1 <1>  -0.2400 
 18 H        1.7200     1.4320     0.4800 H     1 <1>   0.1500 
 19 H       -2.1870     4.4190     0.1880 H     1 <1>   0.1500 
 20 H       -2.4910     0.9420    -1.3320 H     1 <1>   0.0800 
 21 H       -2.5350     2.4400    -2.2160 H     1 <1>   0.0800 
 22 H        1.7200     3.6190     1.6370 H     1 <1>   0.1500 
 23 H       -0.2420     5.0850     1.4680 H     1 <1>   0.1500 
 24 H       -3.6080     2.5600     0.4270 H     1 <1>   0.4500 
 25 H       -4.7020     0.6110    -1.4470 H     1 <1>   0.0800 
 26 H       -5.7990     1.5040    -0.4470 H     1 <1>   0.0800 
 27 H       -5.1440     3.3770    -1.9040 H     1 <1>   0.0800 
 28 H       -3.7130     4.2490    -1.4470 H     1 <1>   0.0800 
 29 H       -4.7250     0.7100     1.5880 H     1 <1>   0.0800 
 30 H       -5.2350     5.4150    -0.1990 H     1 <1>   0.0800 
 31 H       -3.0000    -0.7950     1.3990 H     1 <1>   0.4000 
 32 H       -5.0920    -1.6170    -0.3360 H     1 <1>   0.0800 
 33 H       -6.3800    -0.8460     0.5550 H     1 <1>   0.0800 
 34 H       -5.1400    -1.7080     1.4150 H     1 <1>   0.0800 
 35 H       -5.0310     4.7050     1.9500 H     1 <1>   0.4000 
 36 H       -6.7580     2.9200     0.6300 H     1 <1>   0.0800 
 37 H       -7.2270     3.9430    -0.7090 H     1 <1>   0.0800 
 38 H       -7.2010     4.5860     0.9030 H     1 <1>   0.0800 
@<TRIPOS>BOND
  1   1   2  1   
  2   2   3  ar  
  3   2   4  ar  
  4   3   5  ar  
  5   3   6  1   
  6   4   7  ar  
  7   4  18  1   
  8   5   8  ar  
  9   5  19  1   
 10   6   9  1   
 11   6  20  1   
 12   6  21  1   
 13   7   8  ar  
 14   7  22  1   
 15   8  23  1   
 16   9  10  1   
 17   9  11  1   
 18   9  24  1   
 19  10  12  1   
 20  10  25  1   
 21  10  26  1   
 22  11  13  1   
 23  11  27  1   
 24  11  28  1   
 25  12  14  1   
 26  12  15  1   
 27  12  29  1   
 28  13  16  1   
 29  13  17  1   
 30  13  30  1   
 31  14  31  1   
 32  15  32  1   
 33  15  33  1   
 34  15  34  1   
 35  16  35  1   
 36  17  36  1   
 37  17  37  1   
 38  17  38  1   
@<TRIPOS>SUBSTRUCTURE
  1 ****   9 GROUP 4 **** **** 0

# MOE 2024.06 (io_trps.svl 2023.06)
