@<TRIPOS>MOLECULE
NONAME
46 47 1 0 0 
SMALL
USER_CHARGES


@<TRIPOS>ATOM
  1 O       -1.0420    -0.3160    -2.2280 O.2   1 <1>  -0.5700 
  2 C       -1.8140    -0.9710    -1.5540 C.2   1 <1>   0.7060 
  3 O       -3.0270    -0.4620    -1.3540 O.3   1 <1>  -0.2330 
  4 C       -1.5010    -2.2520    -0.9830 C.2   1 <1>  -0.1240 
  5 C       -4.0040    -1.0960    -0.6700 C.ar  1 <1>   0.0820 
  6 C       -2.4330    -2.9300    -0.2600 C.2   1 <1>  -0.1670 
  7 C       -0.0780    -2.7670    -1.2330 C.3   1 <1>   0.0390 
  8 C       -3.7440    -2.3520    -0.0990 C.ar  1 <1>   0.0280 
  9 C       -5.2460    -0.4740    -0.5530 C.ar  1 <1>  -0.1440 
 10 C       -2.1670    -4.2780     0.4180 C.3   1 <1>  -0.1020 
 11 C        0.8270    -2.4810    -0.0530 C.2   1 <1>   0.6590 
 12 C       -4.7920    -2.9620     0.5970 C.ar  1 <1>  -0.1500 
 13 C       -6.2590    -1.1040     0.1580 C.ar  1 <1>   0.0820 
 14 C       -5.4930     0.8950    -1.1910 C.3   1 <1>  -0.0960 
 15 O        1.3110    -3.3730     0.5950 O.2   1 <1>  -0.5700 
 16 O        1.0490    -1.2030     0.2260 O.3   1 <1>  -0.4300 
 17 C       -6.0220    -2.3550     0.7270 C.ar  1 <1>  -0.1500 
 18 O       -7.4510    -0.4680     0.2740 O.3   1 <1>  -0.3630 
 19 C        1.8650    -0.8060     1.3080 C.3   1 <1>   0.0400 
 20 C       -8.5530    -1.0350     0.9430 C.3   1 <1>   0.2580 
 21 C       -9.7020    -0.0450     0.8780 C.2   1 <1>  -0.2880 
 22 C      -10.9500    -0.2320     0.4270 C.2   1 <1>  -0.2760 
 23 C      -11.9750     0.8910     0.4350 C.3   1 <1>  -0.1020 
 24 C      -11.5180    -1.5270    -0.1390 C.3   1 <1>  -0.1020 
 25 H        0.3560    -2.3170    -2.1060 H     1 <1>   0.0800 
 26 H       -0.0890    -3.8240    -1.4180 H     1 <1>   0.0800 
 27 H       -2.7990    -5.0350    -0.0110 H     1 <1>   0.0800 
 28 H       -2.3780    -4.2030     1.4700 H     1 <1>   0.0800 
 29 H       -1.1510    -4.6080     0.3290 H     1 <1>   0.0800 
 30 H       -4.6550    -3.9260     1.0490 H     1 <1>   0.1500 
 31 H       -6.5130     0.9880    -1.5170 H     1 <1>   0.0800 
 32 H       -4.8680     1.0490    -2.0510 H     1 <1>   0.0800 
 33 H       -5.2900     1.6690    -0.4730 H     1 <1>   0.0800 
 34 H       -6.7870    -2.8690     1.2770 H     1 <1>   0.1500 
 35 H        1.8970     0.2680     1.3330 H     1 <1>   0.0800 
 36 H        2.8540    -1.2040     1.1610 H     1 <1>   0.0800 
 37 H        1.4420    -1.1870     2.2210 H     1 <1>   0.0800 
 38 H       -8.7930    -1.9650     0.4630 H     1 <1>   0.0800 
 39 H       -8.2730    -1.2080     1.9670 H     1 <1>   0.0800 
 40 H       -9.3850     0.9090     1.2620 H     1 <1>   0.1500 
 41 H      -12.8210     0.6180     1.0390 H     1 <1>   0.0800 
 42 H      -12.3120     1.0920    -0.5660 H     1 <1>   0.0800 
 43 H      -11.5490     1.7940     0.8360 H     1 <1>   0.0800 
 44 H      -11.8350    -1.3720    -1.1550 H     1 <1>   0.0800 
 45 H      -12.3670    -1.8400     0.4420 H     1 <1>   0.0800 
 46 H      -10.7990    -2.3230    -0.1340 H     1 <1>   0.0800 
@<TRIPOS>BOND
  1   1   2  2   
  2   2   3  1   
  3   2   4  1   
  4   3   5  1   
  5   4   6  2   
  6   4   7  1   
  7   5   8  ar  
  8   5   9  ar  
  9   6   8  1   
 10   6  10  1   
 11   7  11  1   
 12   7  25  1   
 13   7  26  1   
 14   8  12  ar  
 15   9  13  ar  
 16   9  14  1   
 17  10  27  1   
 18  10  28  1   
 19  10  29  1   
 20  11  15  2   
 21  11  16  1   
 22  12  17  ar  
 23  12  30  1   
 24  13  17  ar  
 25  13  18  1   
 26  14  31  1   
 27  14  32  1   
 28  14  33  1   
 29  16  19  1   
 30  17  34  1   
 31  18  20  1   
 32  19  35  1   
 33  19  36  1   
 34  19  37  1   
 35  20  21  1   
 36  20  38  1   
 37  20  39  1   
 38  21  22  2   
 39  21  40  1   
 40  22  23  1   
 41  22  24  1   
 42  23  41  1   
 43  23  42  1   
 44  23  43  1   
 45  24  44  1   
 46  24  45  1   
 47  24  46  1   
@<TRIPOS>SUBSTRUCTURE
  1 ****   5 GROUP 4 **** **** 0

# MOE 2024.06 (io_trps.svl 2023.06)
