@<TRIPOS>MOLECULE
NONAME
38 39 1 0 0 
SMALL
USER_CHARGES


@<TRIPOS>ATOM
  1 CL      -0.3540    -0.3610     0.4470 Cl    1 <1>  -0.1770 
  2 C       -2.0670    -0.0380     0.2970 C.ar  1 <1>   0.1770 
  3 C       -2.5980     1.2130     0.5830 C.ar  1 <1>  -0.1440 
  4 C       -2.8700    -1.0840    -0.1210 C.ar  1 <1>  -0.1500 
  5 C       -3.9720     1.3870     0.4380 C.ar  1 <1>  -0.1500 
  6 C       -1.6840     2.3520     1.0400 C.3   1 <1>   1.1640 
  7 C       -4.2310    -0.8890    -0.2570 C.ar  1 <1>  -0.1500 
  8 C       -4.7980     0.3460     0.0240 C.ar  1 <1>   0.1000 
  9 F       -1.0420     2.0720     2.1670 F     1 <1>  -0.3400 
 10 F       -2.3450     3.4800     1.2730 F     1 <1>  -0.3400 
 11 F       -0.7600     2.6570     0.1380 F     1 <1>  -0.3400 
 12 N       -6.1820     0.5030    -0.1270 N.pl3 1 <1>  -0.6000 
 13 C       -7.0150     1.4780     0.3370 C.2   1 <1>  -0.0500 
 14 C       -8.3740     1.5580     0.1230 C.2   1 <1>   0.0290 
 15 C       -9.1080     2.6590     0.6740 C.2   1 <1>   0.4950 
 16 C       -9.0930     0.5710    -0.6360 C.2   1 <1>   0.4950 
 17 O       -8.5890     3.5360     1.3240 O.2   1 <1>  -0.5700 
 18 C      -10.6040     2.8050     0.4570 C.3   1 <1>  -0.0990 
 19 O       -8.5810    -0.4090    -1.1290 O.2   1 <1>  -0.5700 
 20 C      -10.5860     0.7110    -0.8850 C.3   1 <1>  -0.0990 
 21 C      -11.3170     1.4640     0.2350 C.3   1 <1>   0.0000 
 22 C      -12.7740     1.7190    -0.1820 C.3   1 <1>  -0.2400 
 23 C      -11.3240     0.6330     1.5320 C.3   1 <1>  -0.2400 
 24 H       -2.4290    -2.0410    -0.3360 H     1 <1>   0.1500 
 25 H       -4.4170     2.3440     0.6420 H     1 <1>   0.1500 
 26 H       -4.8590    -1.7010    -0.5790 H     1 <1>   0.1500 
 27 H       -6.6500    -0.2500    -0.6640 H     1 <1>   0.4000 
 28 H       -6.5510     2.2500     0.9290 H     1 <1>   0.1500 
 29 H      -11.0320     3.3060     1.3080 H     1 <1>   0.0800 
 30 H      -10.7470     3.4460    -0.3950 H     1 <1>   0.0800 
 31 H      -10.7140     1.2250    -1.8210 H     1 <1>   0.0800 
 32 H      -11.0140    -0.2700    -0.9980 H     1 <1>   0.0800 
 33 H      -12.8200     2.2980    -1.0880 H     1 <1>   0.0800 
 34 H      -13.3000     2.2580     0.5870 H     1 <1>   0.0800 
 35 H      -13.2880     0.7890    -0.3520 H     1 <1>   0.0800 
 36 H      -11.8450     1.1600     2.3130 H     1 <1>   0.0800 
 37 H      -10.3300     0.4220     1.8820 H     1 <1>   0.0800 
 38 H      -11.8260    -0.3060     1.3740 H     1 <1>   0.0800 
@<TRIPOS>BOND
  1   1   2  1   
  2   2   3  ar  
  3   2   4  ar  
  4   3   5  ar  
  5   3   6  1   
  6   4   7  ar  
  7   4  24  1   
  8   5   8  ar  
  9   5  25  1   
 10   6   9  1   
 11   6  10  1   
 12   6  11  1   
 13   7   8  ar  
 14   7  26  1   
 15   8  12  1   
 16  12  13  1   
 17  12  27  1   
 18  13  14  2   
 19  13  28  1   
 20  14  15  1   
 21  14  16  1   
 22  15  17  2   
 23  15  18  1   
 24  16  19  2   
 25  16  20  1   
 26  18  21  1   
 27  18  29  1   
 28  18  30  1   
 29  20  21  1   
 30  20  31  1   
 31  20  32  1   
 32  21  22  1   
 33  21  23  1   
 34  22  33  1   
 35  22  34  1   
 36  22  35  1   
 37  23  36  1   
 38  23  37  1   
 39  23  38  1   
@<TRIPOS>SUBSTRUCTURE
  1 ****  12 GROUP 4 **** **** 0

# MOE 2024.06 (io_trps.svl 2023.06)
