@<TRIPOS>MOLECULE
NONAME
40 41 1 0 0 
SMALL
USER_CHARGES


@<TRIPOS>ATOM
  1 S       -0.2020    -0.1750     0.7740 S.3   1 <1>  -0.3320 
  2 C       -0.3030    -1.8790     0.2440 C.ar  1 <1>   0.7220 
  3 C        1.6030     0.2250     0.7660 C.3   1 <1>  -0.0100 
  4 N        0.8260    -2.4720    -0.0050 N.ar  1 <1>  -0.6200 
  5 N       -1.5040    -2.3570     0.1640 N.ar  1 <1>  -0.6200 
  6 C        0.6730    -3.7180    -0.3900 C.ar  1 <1>   0.7200 
  7 C       -1.5180    -3.6040    -0.2280 C.ar  1 <1>   0.7200 
  8 N       -0.4770    -4.3300    -0.5180 N.ar  1 <1>  -0.6200 
  9 N        1.8140    -4.4310    -0.6810 N.pl3 1 <1>  -0.8380 
 10 N       -2.6960    -4.2520    -0.3660 N.pl3 1 <1>  -0.8690 
 11 C        1.8020    -5.7880    -1.3160 C.3   1 <1>   0.2090 
 12 C        3.2000    -3.9170    -0.4440 C.3   1 <1>   0.2090 
 13 C       -4.0500    -3.9010     0.0590 C.3   1 <1>   0.3690 
 14 C        2.7540    -6.7450    -0.5770 C.3   1 <1>   0.1200 
 15 C        4.0710    -4.9870     0.2390 C.3   1 <1>   0.1200 
 16 C       -4.0800    -3.6400     1.5650 C.3   1 <1>  -0.2400 
 17 C       -4.5500    -2.6970    -0.7370 C.3   1 <1>  -0.2400 
 18 C       -4.9170    -5.1160    -0.2610 C.3   1 <1>  -0.2400 
 19 O        4.0390    -6.1950    -0.4700 O.3   1 <1>  -0.5600 
 20 H        1.7130     1.2490     1.0700 H     1 <1>   0.0800 
 21 H        1.9680     0.0760    -0.2340 H     1 <1>   0.0800 
 22 H        2.0900    -0.4390     1.4570 H     1 <1>   0.0800 
 23 H       -2.5830    -5.2230    -0.6400 H     1 <1>   0.4000 
 24 H        2.1200    -5.6990    -2.3400 H     1 <1>   0.0800 
 25 H        0.8160    -6.2170    -1.3160 H     1 <1>   0.0800 
 26 H        3.1900    -3.0390     0.1770 H     1 <1>   0.0800 
 27 H        3.6430    -3.6500    -1.3870 H     1 <1>   0.0800 
 28 H        2.8380    -7.6720    -1.1150 H     1 <1>   0.0800 
 29 H        2.3830    -6.9510     0.4120 H     1 <1>   0.0800 
 30 H        3.7230    -5.1670     1.2410 H     1 <1>   0.0800 
 31 H        5.0940    -4.6590     0.2820 H     1 <1>   0.0800 
 32 H       -3.5210    -2.7550     1.8100 H     1 <1>   0.0800 
 33 H       -3.6640    -4.4750     2.0990 H     1 <1>   0.0800 
 34 H       -5.0910    -3.4900     1.8940 H     1 <1>   0.0800 
 35 H       -3.9870    -1.8150    -0.4910 H     1 <1>   0.0800 
 36 H       -5.5810    -2.5030    -0.5070 H     1 <1>   0.0800 
 37 H       -4.4620    -2.8830    -1.7920 H     1 <1>   0.0800 
 38 H       -4.8940    -5.3260    -1.3160 H     1 <1>   0.0800 
 39 H       -4.5730    -5.9780     0.2810 H     1 <1>   0.0800 
 40 H       -5.9370    -4.9260     0.0210 H     1 <1>   0.0800 
@<TRIPOS>BOND
  1   1   2  1   
  2   1   3  1   
  3   2   4  ar  
  4   2   5  ar  
  5   3  20  1   
  6   3  21  1   
  7   3  22  1   
  8   4   6  ar  
  9   5   7  ar  
 10   6   8  ar  
 11   6   9  1   
 12   7   8  ar  
 13   7  10  1   
 14   9  11  1   
 15   9  12  1   
 16  10  13  1   
 17  10  23  1   
 18  11  14  1   
 19  11  24  1   
 20  11  25  1   
 21  12  15  1   
 22  12  26  1   
 23  12  27  1   
 24  13  16  1   
 25  13  17  1   
 26  13  18  1   
 27  14  19  1   
 28  14  28  1   
 29  14  29  1   
 30  15  19  1   
 31  15  30  1   
 32  15  31  1   
 33  16  32  1   
 34  16  33  1   
 35  16  34  1   
 36  17  35  1   
 37  17  36  1   
 38  17  37  1   
 39  18  38  1   
 40  18  39  1   
 41  18  40  1   
@<TRIPOS>SUBSTRUCTURE
  1 ****   8 GROUP 4 **** **** 0

# MOE 2024.06 (io_trps.svl 2023.06)
