@<TRIPOS>MOLECULE
NONAME
47 48 1 0 0 
SMALL
USER_CHARGES


@<TRIPOS>ATOM
  1 S       -0.4520     1.0820     0.1840 S.o2  1 <1>   1.4470 
  2 O       -1.3050     2.1320    -0.3110 O.2   1 <1>  -0.6500 
  3 O       -0.8210    -0.3030     0.0330 O.2   1 <1>  -0.6500 
  4 N       -0.5150     1.3060     1.8210 N.am  1 <1>  -0.9780 
  5 C        1.2890     1.3680    -0.2410 C.ar  1 <1>  -0.0090 
  6 C        1.8090     2.6510    -0.3100 C.ar  1 <1>  -0.1500 
  7 C        2.1520     0.3110    -0.4890 C.ar  1 <1>  -0.1500 
  8 C        3.1450     2.9290    -0.6180 C.ar  1 <1>   0.0860 
  9 C        3.4790     0.5340    -0.7970 C.ar  1 <1>  -0.1500 
 10 C        3.9880     1.8290    -0.8640 C.ar  1 <1>   0.0830 
 11 C        3.5770     4.3210    -0.6630 C.2   1 <1>   0.5440 
 12 O        5.2960     2.0480    -1.1580 O.3   1 <1>  -0.3620 
 13 O        2.8960     5.2030    -0.1730 O.2   1 <1>  -0.5700 
 14 N        4.7440     4.7120    -1.2550 N.am  1 <1>  -0.7300 
 15 C        6.2300     1.0050    -1.3540 C.3   1 <1>   0.0400 
 16 C        5.2050     6.1100    -1.4600 C.3   1 <1>   0.1400 
 17 C        5.3300     6.8610    -0.1110 C.3   1 <1>   0.4230 
 18 N        4.6970     8.2070    -0.1000 N.4   1 <1>  -0.9590 
 19 C        6.7660     7.1310     0.3250 C.3   1 <1>  -0.1600 
 20 C        5.2600     8.8940     1.0880 C.3   1 <1>   0.3430 
 21 C        3.2120     8.1130    -0.0820 C.3   1 <1>   0.3430 
 22 C        6.6910     8.3810     1.2060 C.3   1 <1>  -0.1600 
 23 C        2.6060     9.4980    -0.2760 C.3   1 <1>  -0.2400 
 24 H       -0.9760     0.4620     2.1530 H     1 <1>   0.4200 
 25 H       -1.1910     2.0590     1.9270 H     1 <1>   0.4200 
 26 H        1.1410     3.4740    -0.1170 H     1 <1>   0.1500 
 27 H        1.7790    -0.7000    -0.4400 H     1 <1>   0.1500 
 28 H        4.0990    -0.3240    -0.9810 H     1 <1>   0.1500 
 29 H        5.3380     3.9550    -1.6250 H     1 <1>   0.3700 
 30 H        7.1930     1.4460    -1.5400 H     1 <1>   0.0800 
 31 H        5.9300     0.4180    -2.2040 H     1 <1>   0.0800 
 32 H        6.2740     0.4010    -0.4650 H     1 <1>   0.0800 
 33 H        4.4910     6.6060    -2.0940 H     1 <1>   0.0800 
 34 H        6.1510     6.0920    -1.9720 H     1 <1>   0.0800 
 35 H        4.8530     6.2650     0.6510 H     1 <1>   0.0800 
 36 H        4.9950     8.7090    -0.9430 H     1 <1>   0.4500 
 37 H        7.3920     7.3250    -0.5290 H     1 <1>   0.0800 
 38 H        7.1640     6.2850     0.8580 H     1 <1>   0.0800 
 39 H        4.7050     8.6090     1.9680 H     1 <1>   0.0800 
 40 H        5.2270     9.9670     0.9790 H     1 <1>   0.0800 
 41 H        2.8760     7.6820     0.8490 H     1 <1>   0.0800 
 42 H        2.8770     7.4670    -0.8790 H     1 <1>   0.0800 
 43 H        7.3850     9.1300     0.8660 H     1 <1>   0.0800 
 44 H        6.9130     8.1520     2.2340 H     1 <1>   0.0800 
 45 H        2.8470    10.1500     0.5430 H     1 <1>   0.0800 
 46 H        1.5350     9.4060    -0.3180 H     1 <1>   0.0800 
 47 H        2.9380     9.9330    -1.2020 H     1 <1>   0.0800 
@<TRIPOS>BOND
  1   1   2  2   
  2   1   3  2   
  3   1   4  am  
  4   1   5  1   
  5   4  24  1   
  6   4  25  1   
  7   5   6  ar  
  8   5   7  ar  
  9   6   8  ar  
 10   6  26  1   
 11   7   9  ar  
 12   7  27  1   
 13   8  10  ar  
 14   8  11  1   
 15   9  10  ar  
 16   9  28  1   
 17  10  12  1   
 18  11  13  2   
 19  11  14  am  
 20  12  15  1   
 21  14  16  1   
 22  14  29  1   
 23  15  30  1   
 24  15  31  1   
 25  15  32  1   
 26  16  17  1   
 27  16  33  1   
 28  16  34  1   
 29  17  18  1   
 30  17  19  1   
 31  17  35  1   
 32  18  20  1   
 33  18  21  1   
 34  18  36  1   
 35  19  22  1   
 36  19  37  1   
 37  19  38  1   
 38  20  22  1   
 39  20  39  1   
 40  20  40  1   
 41  21  23  1   
 42  21  41  1   
 43  21  42  1   
 44  22  43  1   
 45  22  44  1   
 46  23  45  1   
 47  23  46  1   
 48  23  47  1   
@<TRIPOS>SUBSTRUCTURE
  1 ****  11 GROUP 4 **** **** 0

# MOE 2024.06 (io_trps.svl 2023.06)
