@<TRIPOS>MOLECULE
NONAME
35 35 1 0 0 
SMALL
USER_CHARGES


@<TRIPOS>ATOM
  1 S       -0.2540     0.3140    -1.2930 S.o2  1 <1>   1.4470 
  2 O        0.4230     1.3840    -1.9960 O.2   1 <1>  -0.6500 
  3 O       -1.0890    -0.5600    -2.0940 O.2   1 <1>  -0.6500 
  4 N       -1.2910     1.0450    -0.1610 N.am  1 <1>  -0.8490 
  5 C        0.9580    -0.5790    -0.2750 C.ar  1 <1>  -0.0090 
  6 C       -2.1790     0.0800     0.4860 C.3   1 <1>   0.1960 
  7 C       -2.0110     2.1870    -0.7250 C.3   1 <1>   0.1960 
  8 C        0.8140    -1.9250     0.0550 C.ar  1 <1>   0.0820 
  9 C        2.0690     0.0870     0.2290 C.ar  1 <1>  -0.1500 
 10 C       -2.6610     0.6310     1.8270 C.3   1 <1>  -0.2400 
 11 C       -1.3550     3.4670    -0.2190 C.3   1 <1>  -0.2400 
 12 O       -0.2480    -2.6370    -0.3640 O.3   1 <1>  -0.3620 
 13 C        1.7490    -2.5670     0.8520 C.ar  1 <1>  -0.1500 
 14 C        3.0350    -0.5290     1.0300 C.ar  1 <1>  -0.1790 
 15 C       -0.0380    -3.4950    -1.4630 C.3   1 <1>   0.0400 
 16 C        2.8440    -1.8770     1.3270 C.ar  1 <1>  -0.1500 
 17 C        4.1900     0.2010     1.5400 C.2   1 <1>   0.9790 
 18 O        4.3330     1.4120     1.2990 O.co2 1 <1>  -0.9000 
 19 O        5.0510    -0.3780     2.2270 O.co2 1 <1>  -0.9000 
 20 H       -1.6430    -0.8310     0.6840 H     1 <1>   0.0800 
 21 H       -3.0080    -0.1600    -0.1600 H     1 <1>   0.0800 
 22 H       -3.0440     2.1820    -0.4230 H     1 <1>   0.0800 
 23 H       -1.9910     2.1600    -1.8030 H     1 <1>   0.0800 
 24 H        2.2040     1.1330    -0.0030 H     1 <1>   0.1500 
 25 H       -1.8150     0.8810     2.4410 H     1 <1>   0.0800 
 26 H       -3.2400    -0.1200     2.3340 H     1 <1>   0.0800 
 27 H       -3.2770     1.5010     1.6970 H     1 <1>   0.0800 
 28 H       -1.3860     3.4990     0.8550 H     1 <1>   0.0800 
 29 H       -1.8750     4.3220    -0.6080 H     1 <1>   0.0800 
 30 H       -0.3300     3.5130    -0.5440 H     1 <1>   0.0800 
 31 H        1.6160    -3.6020     1.1030 H     1 <1>   0.1500 
 32 H        0.6930    -4.2370    -1.1960 H     1 <1>   0.0800 
 33 H        0.3060    -2.9100    -2.2980 H     1 <1>   0.0800 
 34 H       -0.9740    -3.9640    -1.7060 H     1 <1>   0.0800 
 35 H        3.5740    -2.3760     1.9460 H     1 <1>   0.1500 
@<TRIPOS>BOND
  1   1   2  2   
  2   1   3  2   
  3   1   4  am  
  4   1   5  1   
  5   4   6  1   
  6   4   7  1   
  7   5   8  ar  
  8   5   9  ar  
  9   6  10  1   
 10   6  20  1   
 11   6  21  1   
 12   7  11  1   
 13   7  22  1   
 14   7  23  1   
 15   8  12  1   
 16   8  13  ar  
 17   9  14  ar  
 18   9  24  1   
 19  10  25  1   
 20  10  26  1   
 21  10  27  1   
 22  11  28  1   
 23  11  29  1   
 24  11  30  1   
 25  12  15  1   
 26  13  16  ar  
 27  13  31  1   
 28  14  16  ar  
 29  14  17  1   
 30  15  32  1   
 31  15  33  1   
 32  15  34  1   
 33  16  35  1   
 34  17  18  ar  
 35  17  19  ar  
@<TRIPOS>SUBSTRUCTURE
  1 ****   5 GROUP 4 **** **** 0

# MOE 2024.06 (io_trps.svl 2023.06)
