@<TRIPOS>MOLECULE
NONAME
39 41 1 0 0 
SMALL
USER_CHARGES


@<TRIPOS>ATOM
  1 O       -0.1510     1.9230     2.3750 O.co2 1 <1>  -0.9000 
  2 C        0.2270     1.7940     1.2080 C.2   1 <1>   0.9060 
  3 O        1.4300     1.6320     0.9550 O.co2 1 <1>  -0.9000 
  4 C       -0.7670     1.9280     0.0240 C.3   1 <1>  -0.1060 
  5 C       -0.9310     3.5680    -0.4960 C.3   1 <1>  -0.0190 
  6 C       -2.3030     1.4310     0.4450 C.3   1 <1>   0.0580 
  7 C       -0.2660     1.0430    -1.1600 C.3   1 <1>  -0.2400 
  8 C        0.0450     4.6330     0.0320 C.2   1 <1>   0.5690 
  9 C       -2.5310     3.9680    -0.2850 C.3   1 <1>   0.0580 
 10 C       -3.8390     1.9440     0.4080 C.2   1 <1>  -0.2880 
 11 C       -2.2910     2.7130     0.0860 C.3   1 <1>  -0.1600 
 12 O       -0.3300     5.7810     0.1290 O.2   1 <1>  -0.5700 
 13 N        1.3290     4.3080     0.3010 N.am  1 <1>  -0.7300 
 14 C       -3.9580     3.2720     0.0220 C.2   1 <1>  -0.2880 
 15 C        2.3040     5.1780     0.9690 C.3   1 <1>   0.2840 
 16 C        3.6950     4.8940     0.4240 C.ar  1 <1>  -0.1440 
 17 C        4.2650     3.6420     0.5990 C.ar  1 <1>  -0.1500 
 18 C        4.4080     5.8770    -0.2470 C.ar  1 <1>  -0.1500 
 19 C        5.5340     3.3760     0.1140 C.ar  1 <1>  -0.1500 
 20 C        5.6780     5.6130    -0.7310 C.ar  1 <1>  -0.1500 
 21 C        6.2420     4.3620    -0.5500 C.ar  1 <1>  -0.1500 
 22 H       -0.7410     3.5850    -1.5590 H     1 <1>   0.0800 
 23 H       -2.2110     1.1310     1.4780 H     1 <1>   0.0800 
 24 H        0.6910     1.3960    -1.5030 H     1 <1>   0.0800 
 25 H       -0.9500     1.0540    -1.9880 H     1 <1>   0.0800 
 26 H       -0.1470     0.0280    -0.8250 H     1 <1>   0.0800 
 27 H       -2.5140     4.7570     0.4530 H     1 <1>   0.0800 
 28 H       -4.6130     1.2460     0.6780 H     1 <1>   0.1500 
 29 H       -2.4830     2.3560    -1.0590 H     1 <1>   0.0800 
 30 H       -2.1700     3.0420     1.1950 H     1 <1>   0.0800 
 31 H        1.5740     3.3010     0.3850 H     1 <1>   0.3700 
 32 H       -4.8490     3.8670    -0.0830 H     1 <1>   0.1500 
 33 H        2.2810     4.9710     2.0250 H     1 <1>   0.0800 
 34 H        2.0400     6.2100     0.8160 H     1 <1>   0.0800 
 35 H        3.7130     2.8660     1.1090 H     1 <1>   0.1500 
 36 H        3.9720     6.8490    -0.3960 H     1 <1>   0.1500 
 37 H        5.9610     2.3990     0.2550 H     1 <1>   0.1500 
 38 H        6.2240     6.3800    -1.2500 H     1 <1>   0.1500 
 39 H        7.2280     4.1540    -0.9260 H     1 <1>   0.1500 
@<TRIPOS>BOND
  1   1   2  ar  
  2   2   3  ar  
  3   2   4  1   
  4   4   5  1   
  5   4   6  1   
  6   4   7  1   
  7   5   8  1   
  8   5   9  1   
  9   5  22  1   
 10   6  10  1   
 11   6  11  1   
 12   6  23  1   
 13   7  24  1   
 14   7  25  1   
 15   7  26  1   
 16   8  12  2   
 17   8  13  am  
 18   9  11  1   
 19   9  14  1   
 20   9  27  1   
 21  10  14  2   
 22  10  28  1   
 23  11  29  1   
 24  11  30  1   
 25  13  15  1   
 26  13  31  1   
 27  14  32  1   
 28  15  16  1   
 29  15  33  1   
 30  15  34  1   
 31  16  17  ar  
 32  16  18  ar  
 33  17  19  ar  
 34  17  35  1   
 35  18  20  ar  
 36  18  36  1   
 37  19  21  ar  
 38  19  37  1   
 39  20  21  ar  
 40  20  38  1   
 41  21  39  1   
@<TRIPOS>SUBSTRUCTURE
  1 ****  13 GROUP 4 **** **** 0

# MOE 2024.06 (io_trps.svl 2023.06)
