@<TRIPOS>MOLECULE
NONAME
43 45 1 0 0 
SMALL
USER_CHARGES


@<TRIPOS>ATOM
  1 O       -0.7120    -0.0720    -0.2210 O.2   1 <1>  -0.5700 
  2 C       -0.6310    -1.2670    -0.3900 C.2   1 <1>   0.6340 
  3 O        0.5520    -1.7420    -0.7920 O.3   1 <1>  -0.4300 
  4 C       -1.7400    -2.1630    -0.1410 C.ar  1 <1>   0.0860 
  5 C        1.0030    -3.0490    -0.4990 C.3   1 <1>   0.0400 
  6 C       -2.4610    -2.0900     1.0530 C.ar  1 <1>  -0.1500 
  7 C       -2.1400    -3.1200    -1.0760 C.ar  1 <1>  -0.1500 
  8 C       -3.5080    -2.9530     1.3170 C.ar  1 <1>  -0.1500 
  9 C       -3.1850    -3.9860    -0.8190 C.ar  1 <1>  -0.1500 
 10 C       -3.8690    -3.9160     0.3890 C.ar  1 <1>   0.0830 
 11 O       -4.9040    -4.7380     0.6890 O.3   1 <1>  -0.1650 
 12 C       -4.9580    -6.0540     0.3830 C.ar  1 <1>   0.3920 
 13 N       -3.8530    -6.7170     0.1240 N.ar  1 <1>  -0.6200 
 14 C       -6.1950    -6.6540     0.3710 C.ar  1 <1>  -0.1500 
 15 C       -4.0080    -7.9990    -0.1730 C.ar  1 <1>   0.7200 
 16 C       -6.2440    -7.9880     0.0590 C.ar  1 <1>   0.1670 
 17 N       -5.1590    -8.6660    -0.2160 N.ar  1 <1>  -0.6200 
 18 N       -2.8600    -8.7020    -0.4580 N.pl3 1 <1>  -0.8380 
 19 C       -7.5560    -8.7410     0.0160 C.3   1 <1>  -0.0970 
 20 C       -2.8860   -10.0480    -1.1090 C.3   1 <1>   0.2090 
 21 C       -1.6130    -8.4810     0.3320 C.3   1 <1>   0.2090 
 22 C       -2.5760   -11.1460    -0.0780 C.3   1 <1>   0.1200 
 23 C       -1.3570    -9.6690     1.2780 C.3   1 <1>   0.1200 
 24 O       -1.3650   -10.8860     0.5810 O.3   1 <1>  -0.5600 
 25 H        2.0610    -3.0870    -0.6910 H     1 <1>   0.0800 
 26 H        0.4960    -3.7530    -1.1320 H     1 <1>   0.0800 
 27 H        0.8140    -3.2640     0.5390 H     1 <1>   0.0800 
 28 H       -2.1880    -1.3410     1.7780 H     1 <1>   0.1500 
 29 H       -1.6250    -3.1810    -2.0190 H     1 <1>   0.1500 
 30 H       -4.0490    -2.8840     2.2440 H     1 <1>   0.1500 
 31 H       -3.4710    -4.7160    -1.5570 H     1 <1>   0.1500 
 32 H       -7.0760    -6.0870     0.5970 H     1 <1>   0.1500 
 33 H       -8.3810    -8.0970     0.2570 H     1 <1>   0.0800 
 34 H       -7.5280    -9.5510     0.7230 H     1 <1>   0.0800 
 35 H       -7.7050    -9.1460    -0.9680 H     1 <1>   0.0800 
 36 H       -2.1440   -10.0760    -1.8860 H     1 <1>   0.0800 
 37 H       -3.8400   -10.2390    -1.5680 H     1 <1>   0.0800 
 38 H       -1.6770    -7.5780     0.9130 H     1 <1>   0.0800 
 39 H       -0.7810    -8.3770    -0.3430 H     1 <1>   0.0800 
 40 H       -2.4870   -12.0990    -0.5670 H     1 <1>   0.0800 
 41 H       -3.3640   -11.2030     0.6540 H     1 <1>   0.0800 
 42 H       -2.1150    -9.7060     2.0410 H     1 <1>   0.0800 
 43 H       -0.3970    -9.5670     1.7500 H     1 <1>   0.0800 
@<TRIPOS>BOND
  1   1   2  2   
  2   2   3  1   
  3   2   4  1   
  4   3   5  1   
  5   4   6  ar  
  6   4   7  ar  
  7   5  25  1   
  8   5  26  1   
  9   5  27  1   
 10   6   8  ar  
 11   6  28  1   
 12   7   9  ar  
 13   7  29  1   
 14   8  10  ar  
 15   8  30  1   
 16   9  10  ar  
 17   9  31  1   
 18  10  11  1   
 19  11  12  1   
 20  12  13  ar  
 21  12  14  ar  
 22  13  15  ar  
 23  14  16  ar  
 24  14  32  1   
 25  15  17  ar  
 26  15  18  1   
 27  16  17  ar  
 28  16  19  1   
 29  18  20  1   
 30  18  21  1   
 31  19  33  1   
 32  19  34  1   
 33  19  35  1   
 34  20  22  1   
 35  20  36  1   
 36  20  37  1   
 37  21  23  1   
 38  21  38  1   
 39  21  39  1   
 40  22  24  1   
 41  22  40  1   
 42  22  41  1   
 43  23  24  1   
 44  23  42  1   
 45  23  43  1   
@<TRIPOS>SUBSTRUCTURE
  1 ****  13 GROUP 4 **** **** 0

# MOE 2024.06 (io_trps.svl 2023.06)
