@<TRIPOS>MOLECULE
NONAME
35 35 1 0 0 
SMALL
USER_CHARGES


@<TRIPOS>ATOM
  1 F       -0.4350     1.4100     1.5480 F     1 <1>  -0.1900 
  2 C       -0.4090     2.3120     0.6020 C.ar  1 <1>   0.1900 
  3 C       -1.4530     2.3740    -0.3090 C.ar  1 <1>  -0.1440 
  4 C        0.6770     3.1710     0.5590 C.ar  1 <1>  -0.1500 
  5 C       -1.3530     3.3520    -1.2860 C.ar  1 <1>   0.1900 
  6 C       -2.6390     1.4240    -0.2530 C.3   1 <1>   0.2540 
  7 C        0.7380     4.1390    -0.4320 C.ar  1 <1>  -0.1500 
  8 F       -2.2950     3.4580    -2.1880 F     1 <1>  -0.1900 
  9 C       -0.2850     4.2310    -1.3630 C.ar  1 <1>  -0.1500 
 10 N       -3.8250     2.1060     0.3080 N.3   1 <1>  -0.8100 
 11 C       -5.0710     1.3980    -0.0060 C.3   1 <1>   0.1100 
 12 C       -3.6610     2.3540     1.7530 C.3   1 <1>   0.0300 
 13 C       -6.2410     2.3950     0.0090 C.3   1 <1>   0.3430 
 14 N       -7.5070     1.8160    -0.5540 N.4   1 <1>  -0.9590 
 15 C       -8.5230     2.8980    -0.7360 C.3   1 <1>   0.2630 
 16 C       -8.0570     0.7150     0.2980 C.3   1 <1>   0.2630 
 17 H        1.4600     3.0810     1.2910 H     1 <1>   0.1500 
 18 H       -2.4040     0.5490     0.3290 H     1 <1>   0.0800 
 19 H       -2.8460     1.0990    -1.2590 H     1 <1>   0.0800 
 20 H        1.5750     4.8150    -0.4780 H     1 <1>   0.1500 
 21 H       -0.2580     4.9720    -2.1410 H     1 <1>   0.1500 
 22 H       -5.2260     0.5990     0.6990 H     1 <1>   0.0800 
 23 H       -4.9980     0.9830    -0.9970 H     1 <1>   0.0800 
 24 H       -2.8000     2.9770     1.9250 H     1 <1>   0.0800 
 25 H       -3.5270     1.4270     2.2850 H     1 <1>   0.0800 
 26 H       -4.5180     2.8680     2.1510 H     1 <1>   0.0800 
 27 H       -5.9470     3.2470    -0.5830 H     1 <1>   0.0800 
 28 H       -6.4070     2.7300     1.0190 H     1 <1>   0.0800 
 29 H       -7.2820     1.4360    -1.4870 H     1 <1>   0.4500 
 30 H       -8.7790     3.3360     0.2160 H     1 <1>   0.0800 
 31 H       -9.4180     2.5010    -1.1850 H     1 <1>   0.0800 
 32 H       -8.1330     3.6730    -1.3770 H     1 <1>   0.0800 
 33 H       -8.2820     1.0830     1.2860 H     1 <1>   0.0800 
 34 H       -7.3440    -0.0880     0.3830 H     1 <1>   0.0800 
 35 H       -8.9620     0.3230    -0.1370 H     1 <1>   0.0800 
@<TRIPOS>BOND
  1   1   2  1   
  2   2   3  ar  
  3   2   4  ar  
  4   3   5  ar  
  5   3   6  1   
  6   4   7  ar  
  7   4  17  1   
  8   5   8  1   
  9   5   9  ar  
 10   6  10  1   
 11   6  18  1   
 12   6  19  1   
 13   7   9  ar  
 14   7  20  1   
 15   9  21  1   
 16  10  11  1   
 17  10  12  1   
 18  11  13  1   
 19  11  22  1   
 20  11  23  1   
 21  12  24  1   
 22  12  25  1   
 23  12  26  1   
 24  13  14  1   
 25  13  27  1   
 26  13  28  1   
 27  14  15  1   
 28  14  16  1   
 29  14  29  1   
 30  15  30  1   
 31  15  31  1   
 32  15  32  1   
 33  16  33  1   
 34  16  34  1   
 35  16  35  1   
@<TRIPOS>SUBSTRUCTURE
  1 ****  10 GROUP 4 **** **** 0

# MOE 2024.06 (io_trps.svl 2023.06)
