@<TRIPOS>MOLECULE
NONAME
50 52 1 0 0 
SMALL
USER_CHARGES


@<TRIPOS>ATOM
  1 O        0.5630    -1.7280    -2.0150 O.2   1 <1>  -0.5700 
  2 C        0.2380    -1.8000    -0.8460 C.2   1 <1>   0.5440 
  3 N        0.4350    -0.7190    -0.0170 N.am  1 <1>  -0.5470 
  4 C       -0.3480    -3.0320    -0.3330 C.ar  1 <1>   0.0860 
  5 C        0.7850     0.6310    -0.2010 C.ar  1 <1>   0.1170 
  6 C       -1.1500    -3.1040     0.8220 C.ar  1 <1>   0.0830 
  7 C       -0.1310    -4.2290    -1.0240 C.ar  1 <1>  -0.1500 
  8 C        1.0020     1.4410     0.9230 C.ar  1 <1>  -0.1440 
  9 C        0.8840     1.2000    -1.4670 C.ar  1 <1>  -0.1500 
 10 O       -1.3960    -1.9760     1.5260 O.3   1 <1>  -0.3630 
 11 C       -1.6870    -4.3170     1.2450 C.ar  1 <1>  -0.1500 
 12 C       -0.6690    -5.4300    -0.6050 C.ar  1 <1>  -0.1500 
 13 C        1.2870     2.7960     0.7600 C.ar  1 <1>  -0.1430 
 14 C        0.9150     0.8230     2.3230 C.3   1 <1>  -0.0970 
 15 C        1.1800     2.5370    -1.6260 C.ar  1 <1>  -0.1500 
 16 C       -2.6240    -1.7590     2.2070 C.3   1 <1>   0.1810 
 17 C       -1.4500    -5.4760     0.5340 C.ar  1 <1>  -0.1500 
 18 C        1.3780     3.3320    -0.5150 C.ar  1 <1>  -0.1500 
 19 C        1.5000     3.7370     1.9390 C.3   1 <1>  -0.0970 
 20 C       -2.7680    -0.2840     2.5630 C.2   1 <1>   0.5690 
 21 O       -2.6990     0.0240     3.7310 O.2   1 <1>  -0.5700 
 22 N       -2.9560     0.6570     1.5850 N.am  1 <1>  -0.6600 
 23 C       -3.0020     0.4030     0.1250 C.3   1 <1>   0.1400 
 24 C       -2.9230     2.1090     1.8640 C.3   1 <1>   0.1400 
 25 C       -3.1800     1.7770    -0.5120 C.3   1 <1>  -0.1600 
 26 C       -2.6260     2.7560     0.5180 C.3   1 <1>  -0.1600 
 27 H        0.1280    -0.9130     0.9370 H     1 <1>   0.3700 
 28 H        0.4750    -4.2130    -1.9150 H     1 <1>   0.1500 
 29 H        0.7250     0.6040    -2.3450 H     1 <1>   0.1500 
 30 H       -2.2860    -4.3770     2.1350 H     1 <1>   0.1500 
 31 H       -0.4790    -6.3300    -1.1650 H     1 <1>   0.1500 
 32 H        1.3710    -0.1500     2.3410 H     1 <1>   0.0800 
 33 H       -0.1140     0.7330     2.6180 H     1 <1>   0.0800 
 34 H        1.4260     1.4110     3.0600 H     1 <1>   0.0800 
 35 H        1.2550     2.9580    -2.6130 H     1 <1>   0.1500 
 36 H       -2.6230    -2.3460     3.1070 H     1 <1>   0.0800 
 37 H       -3.4340    -2.0630     1.5700 H     1 <1>   0.0800 
 38 H       -1.8670    -6.4130     0.8630 H     1 <1>   0.1500 
 39 H        1.6040     4.3740    -0.6540 H     1 <1>   0.1500 
 40 H        0.6810     3.6570     2.6310 H     1 <1>   0.0800 
 41 H        1.5600     4.7600     1.6140 H     1 <1>   0.0800 
 42 H        2.4160     3.4900     2.4440 H     1 <1>   0.0800 
 43 H       -3.8150    -0.2540    -0.1300 H     1 <1>   0.0800 
 44 H       -2.0710    -0.0280    -0.1960 H     1 <1>   0.0800 
 45 H       -2.1670     2.3460     2.5940 H     1 <1>   0.0800 
 46 H       -3.8880     2.4160     2.2300 H     1 <1>   0.0800 
 47 H       -4.2280     1.9600    -0.6660 H     1 <1>   0.0800 
 48 H       -2.6660     1.8450    -1.4550 H     1 <1>   0.0800 
 49 H       -1.5600     2.8420     0.3990 H     1 <1>   0.0800 
 50 H       -3.0660     3.7340     0.4360 H     1 <1>   0.0800 
@<TRIPOS>BOND
  1   1   2  2   
  2   2   3  am  
  3   2   4  1   
  4   3   5  1   
  5   3  27  1   
  6   4   6  ar  
  7   4   7  ar  
  8   5   8  ar  
  9   5   9  ar  
 10   6  10  1   
 11   6  11  ar  
 12   7  12  ar  
 13   7  28  1   
 14   8  13  ar  
 15   8  14  1   
 16   9  15  ar  
 17   9  29  1   
 18  10  16  1   
 19  11  17  ar  
 20  11  30  1   
 21  12  17  ar  
 22  12  31  1   
 23  13  18  ar  
 24  13  19  1   
 25  14  32  1   
 26  14  33  1   
 27  14  34  1   
 28  15  18  ar  
 29  15  35  1   
 30  16  20  1   
 31  16  36  1   
 32  16  37  1   
 33  17  38  1   
 34  18  39  1   
 35  19  40  1   
 36  19  41  1   
 37  19  42  1   
 38  20  21  2   
 39  20  22  am  
 40  22  23  1   
 41  22  24  1   
 42  23  25  1   
 43  23  43  1   
 44  23  44  1   
 45  24  26  1   
 46  24  45  1   
 47  24  46  1   
 48  25  26  1   
 49  25  47  1   
 50  25  48  1   
 51  26  49  1   
 52  26  50  1   
@<TRIPOS>SUBSTRUCTURE
  1 ****   3 GROUP 4 **** **** 0

# MOE 2024.06 (io_trps.svl 2023.06)
