@<TRIPOS>MOLECULE
NONAME
28 28 1 0 0 
SMALL
USER_CHARGES


@<TRIPOS>ATOM
  1 CL      -1.7170    -1.3140    -2.1950 Cl    1 <1>  -0.1770 
  2 C       -0.8750    -2.2920    -1.0170 C.ar  1 <1>   0.1770 
  3 C       -1.3390    -2.3360     0.2910 C.ar  1 <1>  -0.1440 
  4 C        0.2320    -3.0130    -1.4220 C.ar  1 <1>  -0.1500 
  5 C       -0.6700    -3.1300     1.2150 C.ar  1 <1>  -0.1500 
  6 C       -2.5500    -1.5240     0.6990 C.3   1 <1>   0.4870 
  7 C        0.8800    -3.7950    -0.4870 C.ar  1 <1>   0.1770 
  8 C        0.4420    -3.8610     0.8240 C.ar  1 <1>  -0.1500 
  9 N       -3.7460    -2.1580     0.1010 N.4   1 <1>  -0.9060 
 10 CL       2.2770    -4.7190    -0.9680 Cl    1 <1>  -0.1770 
 11 C       -5.0080    -1.4410     0.4460 C.3   1 <1>   0.3430 
 12 C       -6.2280    -2.0830    -0.2210 C.3   1 <1>   0.1200 
 13 O       -7.3340    -1.3590     0.1910 O.3   1 <1>  -0.5600 
 14 C       -8.5460    -1.8040    -0.3360 C.3   1 <1>   0.0400 
 15 H        0.5840    -2.9700    -2.4370 H     1 <1>   0.1500 
 16 H       -0.9930    -3.1890     2.2430 H     1 <1>   0.1500 
 17 H       -2.4460    -0.5110     0.3420 H     1 <1>   0.0800 
 18 H       -2.6340    -1.5030     1.7740 H     1 <1>   0.0800 
 19 H        0.9730    -4.4800     1.5270 H     1 <1>   0.1500 
 20 H       -3.7870    -3.1380     0.4040 H     1 <1>   0.4500 
 21 H       -3.6110    -2.1630    -0.9200 H     1 <1>   0.4500 
 22 H       -4.9450    -0.4140     0.1220 H     1 <1>   0.0800 
 23 H       -5.1560    -1.4540     1.5130 H     1 <1>   0.0800 
 24 H       -6.3540    -3.1040     0.0980 H     1 <1>   0.0800 
 25 H       -6.1610    -2.0210    -1.2940 H     1 <1>   0.0800 
 26 H       -9.3310    -1.1750     0.0480 H     1 <1>   0.0800 
 27 H       -8.7200    -2.8210    -0.0310 H     1 <1>   0.0800 
 28 H       -8.5210    -1.7290    -1.4100 H     1 <1>   0.0800 
@<TRIPOS>BOND
  1   1   2  1   
  2   2   3  ar  
  3   2   4  ar  
  4   3   5  ar  
  5   3   6  1   
  6   4   7  ar  
  7   4  15  1   
  8   5   8  ar  
  9   5  16  1   
 10   6   9  1   
 11   6  17  1   
 12   6  18  1   
 13   7   8  ar  
 14   7  10  1   
 15   8  19  1   
 16   9  11  1   
 17   9  20  1   
 18   9  21  1   
 19  11  12  1   
 20  11  22  1   
 21  11  23  1   
 22  12  13  1   
 23  12  24  1   
 24  12  25  1   
 25  13  14  1   
 26  14  26  1   
 27  14  27  1   
 28  14  28  1   
@<TRIPOS>SUBSTRUCTURE
  1 ****   3 GROUP 4 **** **** 0

# MOE 2024.06 (io_trps.svl 2023.06)
