@<TRIPOS>MOLECULE
Structure1963
17 17 1 0 0 
SMALL
USER_CHARGES


@<TRIPOS>ATOM
  1 O        0.6600     0.2890    -1.3700 O.co2 1 <1>  -0.9000 
  2 C        1.0640     1.3800    -0.9280 C.2   1 <1>   1.0330 
  3 O        0.3690     2.3950    -1.1150 O.co2 1 <1>  -0.9000 
  4 C        2.3230     1.4480    -0.2090 C.2   1 <1>  -0.2330 
  5 C        3.0370     2.4560     0.3790 C.2   1 <1>  -0.3320 
  6 C        3.1140     0.3220     0.0250 C.2   1 <1>   0.1390 
  7 N        4.1460     1.9050     0.9000 N.pl3 1 <1>   0.3000 
  8 C        2.7050     3.9350     0.4720 C.3   1 <1>   0.0200 
  9 N        4.2040     0.5810     0.6850 N.2   1 <1>  -0.7070 
 10 C        3.6960     4.7600    -0.3500 C.3   1 <1>  -0.2400 
 11 H        2.8320    -0.6610    -0.3170 H     1 <1>   0.1500 
 12 H        4.8830     2.4080     1.4040 H     1 <1>   0.2700 
 13 H        2.7230     4.2470     1.5010 H     1 <1>   0.0800 
 14 H        1.7100     4.1070     0.0980 H     1 <1>   0.0800 
 15 H        4.6960     4.6400     0.0250 H     1 <1>   0.0800 
 16 H        3.4280     5.8000    -0.3110 H     1 <1>   0.0800 
 17 H        3.6650     4.4350    -1.3750 H     1 <1>   0.0800 
@<TRIPOS>BOND
  1   1   2  ar  
  2   2   3  ar  
  3   2   4  1   
  4   4   5  2   
  5   4   6  1   
  6   5   7  1   
  7   5   8  1   
  8   6   9  2   
  9   6  11  1   
 10   7   9  1   
 11   7  12  1   
 12   8  10  1   
 13   8  13  1   
 14   8  14  1   
 15  10  15  1   
 16  10  16  1   
 17  10  17  1   
@<TRIPOS>SUBSTRUCTURE
  1 ****   4 GROUP 4 **** **** 0

# MOE 2024.06 (io_trps.svl 2023.06)
