@<TRIPOS>MOLECULE
ka-06651
32 34 1 0 0 
SMALL
USER_CHARGES


@<TRIPOS>ATOM
  1 O       -0.5550     0.4530     1.4810 O.2   1 <1>  -0.5700 
  2 C       -1.4260     0.9780     0.8370 C.2   1 <1>   0.4230 
  3 C       -1.5290     2.4020     0.6340 C.ar  1 <1>   0.0860 
  4 C       -2.4620     0.0790     0.1880 C.3   1 <1>  -0.0990 
  5 C       -2.5650     2.9850    -0.0640 C.ar  1 <1>  -0.1440 
  6 C       -0.5330     3.2480     1.1650 C.ar  1 <1>   0.1600 
  7 C       -3.8400     0.7570     0.0850 C.3   1 <1>   0.0000 
  8 C       -2.5510     4.3860    -0.2520 C.ar  1 <1>   0.0000 
  9 C       -3.6950     2.1180    -0.6290 C.3   1 <1>  -0.0170 
 10 N       -0.4980     4.5380     1.0420 N.ar  1 <1>  -0.6200 
 11 C       -4.4400     0.9570     1.4900 C.3   1 <1>  -0.2400 
 12 C       -4.7920    -0.1460    -0.7170 C.3   1 <1>  -0.2400 
 13 C       -1.4950     5.1230     0.3360 C.ar  1 <1>   0.3100 
 14 C       -3.5170     5.1060    -0.9960 C.ar  1 <1>  -0.1500 
 15 C       -1.4640     6.5180     0.1840 C.ar  1 <1>  -0.1500 
 16 C       -3.4570     6.4670    -1.1290 C.ar  1 <1>  -0.1500 
 17 C       -2.4210     7.1850    -0.5300 C.ar  1 <1>  -0.1500 
 18 H       -2.5410    -0.8300     0.7580 H     1 <1>   0.0800 
 19 H       -2.1040    -0.1800    -0.7910 H     1 <1>   0.0800 
 20 H        0.2630     2.7780     1.7190 H     1 <1>   0.1500 
 21 H       -3.5000     1.9600    -1.6760 H     1 <1>   0.0800 
 22 H       -4.6340     2.6350    -0.5460 H     1 <1>   0.0800 
 23 H       -3.8290     1.6040     2.0940 H     1 <1>   0.0800 
 24 H       -4.5290     0.0130     2.0000 H     1 <1>   0.0800 
 25 H       -5.4200     1.3940     1.4250 H     1 <1>   0.0800 
 26 H       -4.4100    -0.3210    -1.7080 H     1 <1>   0.0800 
 27 H       -5.7630     0.3090    -0.8050 H     1 <1>   0.0800 
 28 H       -4.9090    -1.0980    -0.2290 H     1 <1>   0.0800 
 29 H       -4.3200     4.5800    -1.4760 H     1 <1>   0.1500 
 30 H       -0.6540     7.0480     0.6510 H     1 <1>   0.1500 
 31 H       -4.2020     7.0000    -1.6950 H     1 <1>   0.1500 
 32 H       -2.3850     8.2560    -0.6390 H     1 <1>   0.1500 
@<TRIPOS>BOND
  1   1   2  2   
  2   2   3  1   
  3   2   4  1   
  4   3   5  ar  
  5   3   6  ar  
  6   4   7  1   
  7   4  18  1   
  8   4  19  1   
  9   5   8  ar  
 10   5   9  1   
 11   6  10  ar  
 12   6  20  1   
 13   7   9  1   
 14   7  11  1   
 15   7  12  1   
 16   8  13  ar  
 17   8  14  ar  
 18   9  21  1   
 19   9  22  1   
 20  10  13  ar  
 21  11  23  1   
 22  11  24  1   
 23  11  25  1   
 24  12  26  1   
 25  12  27  1   
 26  12  28  1   
 27  13  15  ar  
 28  14  16  ar  
 29  14  29  1   
 30  15  17  ar  
 31  15  30  1   
 32  16  17  ar  
 33  16  31  1   
 34  17  32  1   
@<TRIPOS>SUBSTRUCTURE
  1 ****   5 GROUP 4 **** **** 0

# MOE 2024.06 (io_trps.svl 2023.06)
