@<TRIPOS>MOLECULE
NONAME
41 44 1 0 0 
SMALL
USER_CHARGES


@<TRIPOS>ATOM
  1 S        0.5980    -0.2510     0.8150 S.3   1 <1>  -0.0800 
  2 C        1.7270     0.9430     0.1730 C.2   1 <1>   0.1660 
  3 C       -0.7480     0.7760     0.3570 C.2   1 <1>  -0.1400 
  4 N        3.0650     0.7610     0.2010 N.2   1 <1>  -0.5760 
  5 C        1.0770     2.0240    -0.3410 C.2   1 <1>  -0.0860 
  6 C       -0.3460     1.8980    -0.2200 C.2   1 <1>  -0.1810 
  7 C       -2.2230     0.5940     0.5090 C.3   1 <1>   0.0200 
  8 C        3.7500     1.7340    -0.2980 C.2   1 <1>   0.6510 
  9 C        1.8770     3.0590    -0.8940 C.2   1 <1>   0.7160 
 10 C       -1.5220     2.7560    -0.5990 C.3   1 <1>   0.0210 
 11 C       -2.7420     1.9090    -0.1320 C.3   1 <1>  -0.1600 
 12 S        5.5230     1.5150    -0.3190 S.3   1 <1>  -0.3710 
 13 N        3.2470     2.9030    -0.8330 N.am  1 <1>  -0.4200 
 14 O        1.3800     4.0480    -1.4200 O.2   1 <1>  -0.5700 
 15 C        5.8040    -0.1120     0.5090 C.3   1 <1>   0.0700 
 16 C        4.1180     4.0260    -1.2800 C.3   1 <1>   0.2840 
 17 C        7.3100    -0.3570     0.5570 C.3   1 <1>  -0.2400 
 18 C        4.4590     4.9350    -0.1050 C.ar  1 <1>  -0.1440 
 19 C        5.7070     4.8770     0.4970 C.ar  1 <1>  -0.1500 
 20 C        3.5220     5.8420     0.3720 C.ar  1 <1>  -0.1500 
 21 C        6.0120     5.7050     1.5640 C.ar  1 <1>  -0.1500 
 22 C        3.8260     6.6710     1.4380 C.ar  1 <1>  -0.1500 
 23 C        5.0720     6.6020     2.0350 C.ar  1 <1>  -0.1500 
 24 H       -2.4930     0.5210     1.5480 H     1 <1>   0.0800 
 25 H       -2.5580    -0.2740    -0.0320 H     1 <1>   0.0800 
 26 H       -1.5400     2.9200    -1.6630 H     1 <1>   0.0800 
 27 H       -1.4780     3.7010    -0.0850 H     1 <1>   0.0800 
 28 H       -3.3180     2.4640     0.5870 H     1 <1>   0.0800 
 29 H       -3.3710     1.6810    -0.9740 H     1 <1>   0.0800 
 30 H        5.2930    -0.8630    -0.0690 H     1 <1>   0.0800 
 31 H        5.3770    -0.0510     1.4960 H     1 <1>   0.0800 
 32 H        3.6170     4.6040    -2.0360 H     1 <1>   0.0800 
 33 H        5.0160     3.6510    -1.7350 H     1 <1>   0.0800 
 34 H        7.7130    -0.3820    -0.4400 H     1 <1>   0.0800 
 35 H        7.5110    -1.2990     1.0350 H     1 <1>   0.0800 
 36 H        7.7950     0.4240     1.1140 H     1 <1>   0.0800 
 37 H        6.4530     4.1860     0.1440 H     1 <1>   0.1500 
 38 H        2.5490     5.9110    -0.0840 H     1 <1>   0.1500 
 39 H        6.9820     5.6500     2.0260 H     1 <1>   0.1500 
 40 H        3.0920     7.3680     1.8010 H     1 <1>   0.1500 
 41 H        5.3080     7.2460     2.8650 H     1 <1>   0.1500 
@<TRIPOS>BOND
  1   1   2  1   
  2   1   3  1   
  3   2   4  1   
  4   2   5  2   
  5   3   6  2   
  6   3   7  1   
  7   4   8  2   
  8   5   6  1   
  9   5   9  1   
 10   6  10  1   
 11   7  11  1   
 12   7  24  1   
 13   7  25  1   
 14   8  12  1   
 15   8  13  1   
 16   9  13  am  
 17   9  14  2   
 18  10  11  1   
 19  10  26  1   
 20  10  27  1   
 21  11  28  1   
 22  11  29  1   
 23  12  15  1   
 24  13  16  1   
 25  15  17  1   
 26  15  30  1   
 27  15  31  1   
 28  16  18  1   
 29  16  32  1   
 30  16  33  1   
 31  17  34  1   
 32  17  35  1   
 33  17  36  1   
 34  18  19  ar  
 35  18  20  ar  
 36  19  21  ar  
 37  19  37  1   
 38  20  22  ar  
 39  20  38  1   
 40  21  23  ar  
 41  21  39  1   
 42  22  23  ar  
 43  22  40  1   
 44  23  41  1   
@<TRIPOS>SUBSTRUCTURE
  1 ****  13 GROUP 4 **** **** 0

# MOE 2024.06 (io_trps.svl 2023.06)
