@<TRIPOS>MOLECULE
NONAME
43 44 1 0 0 
SMALL
USER_CHARGES


@<TRIPOS>ATOM
  1 O      -12.1530     0.3320    -1.1950 O.2   1 <1>  -0.5700 
  2 C      -11.3020    -0.4800    -0.9140 C.2   1 <1>   0.6900 
  3 N      -11.5080    -1.3730     0.0840 N.am  1 <1>  -0.5390 
  4 N      -10.1320    -0.5060    -1.5690 N.am  1 <1>  -0.7300 
  5 C      -10.5740    -2.2930     0.5150 C.2   1 <1>  -0.0290 
  6 C       -8.9810    -1.3270    -1.1500 C.3   1 <1>   0.5020 
  7 C       -9.3280    -2.3240    -0.0360 C.2   1 <1>  -0.1240 
  8 C      -11.1000    -3.2060     1.6130 C.3   1 <1>  -0.1020 
  9 C       -7.8760    -0.3670    -0.7180 C.ar  1 <1>  -0.1440 
 10 C       -8.2330    -3.1860     0.3000 C.2   1 <1>   0.7060 
 11 C       -8.0380     0.4440     0.3990 C.ar  1 <1>  -0.1500 
 12 C       -6.6890    -0.2910    -1.4350 C.ar  1 <1>  -0.1500 
 13 O       -8.1350    -3.7820     1.3550 O.2   1 <1>  -0.5700 
 14 O       -7.2580    -3.3510    -0.6030 O.3   1 <1>  -0.4300 
 15 C       -7.0310     1.3060     0.7890 C.ar  1 <1>  -0.1500 
 16 C       -5.6860     0.5750    -1.0410 C.ar  1 <1>  -0.1500 
 17 C       -6.1100    -4.1190    -0.3190 C.3   1 <1>   0.1200 
 18 C       -5.8420     1.3840     0.0780 C.ar  1 <1>   0.1000 
 19 C       -5.1740    -4.0280    -1.5200 C.3   1 <1>  -0.2400 
 20 N       -4.8490     2.2680     0.4930 N.pl3 1 <1>  -0.8380 
 21 C       -5.0250     3.6950     0.1240 C.3   1 <1>   0.1290 
 22 C       -3.4410     1.7960     0.5410 C.3   1 <1>   0.1290 
 23 H      -12.4290    -1.3000     0.5120 H     1 <1>   0.3700 
 24 H       -9.9170     0.3010    -2.1500 H     1 <1>   0.3700 
 25 H       -8.6550    -1.8790    -2.0150 H     1 <1>   0.0800 
 26 H      -11.1190    -2.6760     2.5480 H     1 <1>   0.0800 
 27 H      -10.5010    -4.0880     1.7320 H     1 <1>   0.0800 
 28 H      -12.0990    -3.5290     1.3780 H     1 <1>   0.0800 
 29 H       -8.9500     0.4040     0.9690 H     1 <1>   0.1500 
 30 H       -6.5370    -0.9090    -2.3030 H     1 <1>   0.1500 
 31 H       -7.1530     1.9300     1.6550 H     1 <1>   0.1500 
 32 H       -4.7740     0.6320    -1.6040 H     1 <1>   0.1500 
 33 H       -6.4140    -5.1360    -0.1390 H     1 <1>   0.0800 
 34 H       -5.6410    -3.7180     0.5650 H     1 <1>   0.0800 
 35 H       -5.6580    -4.4110    -2.4000 H     1 <1>   0.0800 
 36 H       -4.2900    -4.6110    -1.3340 H     1 <1>   0.0800 
 37 H       -4.8800    -3.0060    -1.6830 H     1 <1>   0.0800 
 38 H       -6.0710     3.9190     0.0090 H     1 <1>   0.0800 
 39 H       -4.5210     3.9000    -0.8040 H     1 <1>   0.0800 
 40 H       -4.6190     4.3220     0.8980 H     1 <1>   0.0800 
 41 H       -3.4170     0.7380     0.7350 H     1 <1>   0.0800 
 42 H       -2.9180     2.3030     1.3330 H     1 <1>   0.0800 
 43 H       -2.9510     1.9950    -0.3960 H     1 <1>   0.0800 
@<TRIPOS>BOND
  1   1   2  2   
  2   2   3  am  
  3   2   4  am  
  4   3   5  1   
  5   3  23  1   
  6   4   6  1   
  7   4  24  1   
  8   5   7  2   
  9   5   8  1   
 10   6   7  1   
 11   6   9  1   
 12   6  25  1   
 13   7  10  1   
 14   8  26  1   
 15   8  27  1   
 16   8  28  1   
 17   9  11  ar  
 18   9  12  ar  
 19  10  13  2   
 20  10  14  1   
 21  11  15  ar  
 22  11  29  1   
 23  12  16  ar  
 24  12  30  1   
 25  14  17  1   
 26  15  18  ar  
 27  15  31  1   
 28  16  18  ar  
 29  16  32  1   
 30  17  19  1   
 31  17  33  1   
 32  17  34  1   
 33  18  20  1   
 34  19  35  1   
 35  19  36  1   
 36  19  37  1   
 37  20  21  1   
 38  20  22  1   
 39  21  38  1   
 40  21  39  1   
 41  21  40  1   
 42  22  41  1   
 43  22  42  1   
 44  22  43  1   
@<TRIPOS>SUBSTRUCTURE
  1 ****   9 GROUP 4 **** **** 0

# MOE 2024.06 (io_trps.svl 2023.06)
