@<TRIPOS>MOLECULE
NONAME
35 36 1 0 0 
SMALL
USER_CHARGES


@<TRIPOS>ATOM
  1 S       -0.5630     0.5670    -1.1350 S.o2  1 <1>   1.4470 
  2 O       -1.1890     1.1950    -2.2790 O.2   1 <1>  -0.6500 
  3 O       -0.7900    -0.8390    -0.8840 O.2   1 <1>  -0.6500 
  4 N       -1.0670     1.4340     0.2360 N.am  1 <1>  -0.8490 
  5 C        1.2270     0.8680    -1.1630 C.ar  1 <1>  -0.0090 
  6 C       -2.3450     0.9470     0.7600 C.3   1 <1>   0.1960 
  7 C       -1.0790     2.8790     0.0010 C.3   1 <1>   0.1960 
  8 C        1.9940     0.6860    -0.0170 C.ar  1 <1>  -0.1500 
  9 C        1.8740     1.2810    -2.3330 C.ar  1 <1>  -0.1500 
 10 C       -2.0680     0.0610     1.9700 C.3   1 <1>  -0.2400 
 11 C       -0.9350     3.6210     1.3290 C.3   1 <1>  -0.2400 
 12 C        3.3530     0.9250    -0.0800 C.ar  1 <1>   0.0400 
 13 C        3.2410     1.5160    -2.3750 C.ar  1 <1>  -0.1500 
 14 S        4.5420     0.7800     1.1980 S.3   1 <1>  -0.0800 
 15 C        4.0020     1.3380    -1.2300 C.ar  1 <1>   0.2270 
 16 C        5.7750     1.2880     0.0490 C.2   1 <1>   0.4340 
 17 N        5.3750     1.5370    -1.1300 N.2   1 <1>  -0.5650 
 18 S        7.4580     1.4050     0.6430 S.3   1 <1>  -0.2860 
 19 C        7.4160     0.9150     2.4250 C.3   1 <1>  -0.0100 
 20 H       -2.8850     0.3930     0.0070 H     1 <1>   0.0800 
 21 H       -2.9740     1.7640     1.0710 H     1 <1>   0.0800 
 22 H       -1.9820     3.1700    -0.5110 H     1 <1>   0.0800 
 23 H       -0.2440     3.1540    -0.6230 H     1 <1>   0.0800 
 24 H        1.5360     0.3650     0.9030 H     1 <1>   0.1500 
 25 H        1.2910     1.4210    -3.2290 H     1 <1>   0.1500 
 26 H       -1.4820    -0.7940     1.6840 H     1 <1>   0.0800 
 27 H       -2.9960    -0.2870     2.3830 H     1 <1>   0.0800 
 28 H       -1.5420     0.6180     2.7240 H     1 <1>   0.0800 
 29 H       -1.7790     3.4440     1.9700 H     1 <1>   0.0800 
 30 H       -0.8700     4.6770     1.1440 H     1 <1>   0.0800 
 31 H       -0.0360     3.3070     1.8290 H     1 <1>   0.0800 
 32 H        3.7270     1.8340    -3.2790 H     1 <1>   0.1500 
 33 H        8.4220     0.9730     2.8000 H     1 <1>   0.0800 
 34 H        7.0440    -0.0920     2.4870 H     1 <1>   0.0800 
 35 H        6.7750     1.6040     2.9460 H     1 <1>   0.0800 
@<TRIPOS>BOND
  1   1   2  2   
  2   1   3  2   
  3   1   4  am  
  4   1   5  1   
  5   4   6  1   
  6   4   7  1   
  7   5   8  ar  
  8   5   9  ar  
  9   6  10  1   
 10   6  20  1   
 11   6  21  1   
 12   7  11  1   
 13   7  22  1   
 14   7  23  1   
 15   8  12  ar  
 16   8  24  1   
 17   9  13  ar  
 18   9  25  1   
 19  10  26  1   
 20  10  27  1   
 21  10  28  1   
 22  11  29  1   
 23  11  30  1   
 24  11  31  1   
 25  12  14  1   
 26  12  15  ar  
 27  13  15  ar  
 28  13  32  1   
 29  14  16  1   
 30  15  17  1   
 31  16  17  2   
 32  16  18  1   
 33  18  19  1   
 34  19  33  1   
 35  19  34  1   
 36  19  35  1   
@<TRIPOS>SUBSTRUCTURE
  1 ****   8 GROUP 4 **** **** 0

# MOE 2024.06 (io_trps.svl 2023.06)
