@<TRIPOS>MOLECULE
NONAME
32 32 1 0 0 
SMALL
USER_CHARGES


@<TRIPOS>ATOM
  1 S        0.8190    -0.3830    -0.1850 S.o2  1 <1>   1.3330 
  2 O       -0.2910     0.0730     0.6160 O.2   1 <1>  -0.6500 
  3 O        1.3410    -1.7190    -0.0380 O.2   1 <1>  -0.6500 
  4 N        2.1790     0.6490     0.1120 N.am  1 <1>  -0.5780 
  5 C        0.4960    -0.0810    -1.9080 C.3   1 <1>  -0.1350 
  6 N        2.2710     2.0220    -0.0820 N.2   1 <1>  -0.4300 
  7 C        3.2370     2.7180     0.3650 C.2   1 <1>   0.3280 
  8 C        4.3960     2.1810     1.2120 C.3   1 <1>   0.0440 
  9 C        3.2740     4.2200     0.0940 C.3   1 <1>  -0.0990 
 10 C        5.6620     1.8980     0.4100 C.ar  1 <1>  -0.1440 
 11 C        4.3550     4.6350    -0.9150 C.3   1 <1>  -0.2400 
 12 C        6.8990     2.2620     0.9230 C.ar  1 <1>  -0.1500 
 13 C        5.6030     1.2760    -0.8300 C.ar  1 <1>  -0.1500 
 14 C        8.0580     2.0130     0.2080 C.ar  1 <1>  -0.1500 
 15 C        6.7610     1.0270    -1.5460 C.ar  1 <1>  -0.1500 
 16 C        7.9890     1.3950    -1.0280 C.ar  1 <1>  -0.1500 
 17 H        2.9610     0.1100     0.4850 H     1 <1>   0.4200 
 18 H        0.2440     0.9510    -2.0570 H     1 <1>   0.0800 
 19 H       -0.3220    -0.6890    -2.2420 H     1 <1>   0.0800 
 20 H        1.3630    -0.3130    -2.4940 H     1 <1>   0.0800 
 21 H        4.6090     2.8970     1.9840 H     1 <1>   0.0800 
 22 H        4.1030     1.2780     1.7130 H     1 <1>   0.0800 
 23 H        2.3160     4.5180    -0.2970 H     1 <1>   0.0800 
 24 H        3.4170     4.7490     1.0180 H     1 <1>   0.0800 
 25 H        4.2430     4.0790    -1.8300 H     1 <1>   0.0800 
 26 H        5.3390     4.4560    -0.5220 H     1 <1>   0.0800 
 27 H        4.2660     5.6830    -1.1390 H     1 <1>   0.0800 
 28 H        6.9720     2.7420     1.8830 H     1 <1>   0.1500 
 29 H        4.6580     0.9840    -1.2530 H     1 <1>   0.1500 
 30 H        9.0130     2.2990     0.6120 H     1 <1>   0.1500 
 31 H        6.7060     0.5460    -2.5070 H     1 <1>   0.1500 
 32 H        8.8900     1.2020    -1.5840 H     1 <1>   0.1500 
@<TRIPOS>BOND
  1   1   2  2   
  2   1   3  2   
  3   1   4  am  
  4   1   5  1   
  5   4   6  1   
  6   4  17  1   
  7   5  18  1   
  8   5  19  1   
  9   5  20  1   
 10   6   7  2   
 11   7   8  1   
 12   7   9  1   
 13   8  10  1   
 14   8  21  1   
 15   8  22  1   
 16   9  11  1   
 17   9  23  1   
 18   9  24  1   
 19  10  12  ar  
 20  10  13  ar  
 21  11  25  1   
 22  11  26  1   
 23  11  27  1   
 24  12  14  ar  
 25  12  28  1   
 26  13  15  ar  
 27  13  29  1   
 28  14  16  ar  
 29  14  30  1   
 30  15  16  ar  
 31  15  31  1   
 32  16  32  1   
@<TRIPOS>SUBSTRUCTURE
  1 ****   7 GROUP 4 **** **** 0

# MOE 2024.06 (io_trps.svl 2023.06)
