@<TRIPOS>MOLECULE
NONAME
48 51 1 0 0 
SMALL
USER_CHARGES


@<TRIPOS>ATOM
  1 O       -0.1890     0.5660     0.9280 O.2   1 <1>  -0.5700 
  2 C        0.2460     1.5530     0.3700 C.2   1 <1>   0.5440 
  3 N       -0.6130     2.4850    -0.1470 N.am  1 <1>  -0.7300 
  4 C        1.6770     1.7470     0.2340 C.ar  1 <1>   0.0860 
  5 C       -2.0870     2.5050    -0.1190 C.3   1 <1>   0.3000 
  6 C        2.2550     3.0100     0.3620 C.ar  1 <1>  -0.1500 
  7 C        2.5220     0.6720    -0.0340 C.ar  1 <1>  -0.1500 
  8 C       -2.6150     2.5170     1.3280 C.3   1 <1>  -0.1600 
  9 C       -2.6690     1.2990    -0.8810 C.3   1 <1>  -0.1600 
 10 C       -2.5400     3.8000    -0.8220 C.3   1 <1>  -0.1600 
 11 C        3.6250     3.1940     0.2110 C.ar  1 <1>   0.0830 
 12 C        3.8860     0.8400    -0.1890 C.ar  1 <1>   0.0830 
 13 C       -4.1540     2.5950     1.3270 C.3   1 <1>  -0.0800 
 14 C       -4.2080     1.3730    -0.8880 C.3   1 <1>  -0.0800 
 15 C       -4.0780     3.8930    -0.8360 C.3   1 <1>  -0.0800 
 16 O        4.2390     4.3980     0.3240 O.3   1 <1>  -0.3630 
 17 C        4.4370     2.1090    -0.0680 C.ar  1 <1>  -0.1500 
 18 O        4.6130    -0.2740    -0.4550 O.3   1 <1>  -0.3620 
 19 C       -4.7200     1.3790     0.5670 C.3   1 <1>  -0.1600 
 20 C       -4.5970     3.8870     0.6150 C.3   1 <1>  -0.1600 
 21 C       -4.6500     2.6740    -1.5840 C.3   1 <1>  -0.1600 
 22 C        3.5330     5.5550     0.7160 C.3   1 <1>   0.0400 
 23 C        6.0150    -0.2160    -0.5930 C.3   1 <1>   0.0400 
 24 H       -0.2180     3.2110    -0.7380 H     1 <1>   0.3700 
 25 H        1.6140     3.8390     0.5890 H     1 <1>   0.1500 
 26 H        2.1040    -0.3150    -0.1230 H     1 <1>   0.1500 
 27 H       -2.3130     1.6200     1.8380 H     1 <1>   0.0800 
 28 H       -2.2080     3.3580     1.8600 H     1 <1>   0.0800 
 29 H       -2.3660     0.3840    -0.4040 H     1 <1>   0.0800 
 30 H       -2.3000     1.2890    -1.8900 H     1 <1>   0.0800 
 31 H       -2.1780     3.8120    -1.8340 H     1 <1>   0.0800 
 32 H       -2.1390     4.6540    -0.3060 H     1 <1>   0.0800 
 33 H       -4.5190     2.5920     2.3400 H     1 <1>   0.0800 
 34 H       -4.6110     0.5230    -1.4120 H     1 <1>   0.0800 
 35 H       -4.3860     4.8000    -1.3280 H     1 <1>   0.0800 
 36 H        5.4890     2.2840    -0.1810 H     1 <1>   0.1500 
 37 H       -5.7950     1.4130     0.5740 H     1 <1>   0.0800 
 38 H       -4.4200     0.4710     1.0600 H     1 <1>   0.0800 
 39 H       -4.2160     4.7430     1.1440 H     1 <1>   0.0800 
 40 H       -5.6710     3.9540     0.6180 H     1 <1>   0.0800 
 41 H       -4.3080     2.6760    -2.6040 H     1 <1>   0.0800 
 42 H       -5.7250     2.7290    -1.6010 H     1 <1>   0.0800 
 43 H        4.2340     6.3680     0.7790 H     1 <1>   0.0800 
 44 H        3.0860     5.3820     1.6790 H     1 <1>   0.0800 
 45 H        2.7850     5.7760    -0.0250 H     1 <1>   0.0800 
 46 H        6.3730    -1.2120    -0.7840 H     1 <1>   0.0800 
 47 H        6.4410     0.1550     0.3230 H     1 <1>   0.0800 
 48 H        6.2600     0.4250    -1.4210 H     1 <1>   0.0800 
@<TRIPOS>BOND
  1   1   2  2   
  2   2   3  am  
  3   2   4  1   
  4   3   5  1   
  5   3  24  1   
  6   4   6  ar  
  7   4   7  ar  
  8   5   8  1   
  9   5   9  1   
 10   5  10  1   
 11   6  11  ar  
 12   6  25  1   
 13   7  12  ar  
 14   7  26  1   
 15   8  13  1   
 16   8  27  1   
 17   8  28  1   
 18   9  14  1   
 19   9  29  1   
 20   9  30  1   
 21  10  15  1   
 22  10  31  1   
 23  10  32  1   
 24  11  16  1   
 25  11  17  ar  
 26  12  17  ar  
 27  12  18  1   
 28  13  19  1   
 29  13  20  1   
 30  13  33  1   
 31  14  19  1   
 32  14  21  1   
 33  14  34  1   
 34  15  20  1   
 35  15  21  1   
 36  15  35  1   
 37  16  22  1   
 38  17  36  1   
 39  18  23  1   
 40  19  37  1   
 41  19  38  1   
 42  20  39  1   
 43  20  40  1   
 44  21  41  1   
 45  21  42  1   
 46  22  43  1   
 47  22  44  1   
 48  22  45  1   
 49  23  46  1   
 50  23  47  1   
 51  23  48  1   
@<TRIPOS>SUBSTRUCTURE
  1 ****   3 GROUP 4 **** **** 0

# MOE 2024.06 (io_trps.svl 2023.06)
