@<TRIPOS>MOLECULE
NONAME
44 46 1 0 0 
SMALL
USER_CHARGES


@<TRIPOS>ATOM
  1 S       -0.4220     0.0500    -0.1240 S.3   1 <1>  -0.3710 
  2 C        0.6520    -1.3540     0.1600 C.2   1 <1>   0.6510 
  3 C       -2.1440    -0.6690    -0.0480 C.3   1 <1>   0.1310 
  4 N        0.0480    -2.4680     0.3380 N.2   1 <1>  -0.6290 
  5 N        2.0250    -1.1570     0.1620 N.am  1 <1>  -0.4200 
  6 C       -3.2220     0.3840    -0.2700 C.2   1 <1>   0.5690 
  7 C        0.7960    -3.6000     0.5450 C.ar  1 <1>   0.1790 
  8 C        2.8190    -2.2830     0.3160 C.2   1 <1>   0.5440 
  9 C        2.6360     0.2130     0.0100 C.3   1 <1>   0.2200 
 10 O       -4.3770     0.0370    -0.2210 O.2   1 <1>  -0.5700 
 11 N       -2.8700     1.6760    -0.5170 N.am  1 <1>  -0.7300 
 12 C        2.1930    -3.5570     0.5390 C.ar  1 <1>   0.0860 
 13 C        0.1450    -4.8100     0.7590 C.ar  1 <1>  -0.1500 
 14 O        4.0360    -2.2110     0.2610 O.2   1 <1>  -0.5700 
 15 C        3.4180     0.3550    -1.3070 C.3   1 <1>  -0.1600 
 16 C        3.4840     0.6200     1.2290 C.3   1 <1>  -0.1600 
 17 C       -3.8100     2.8010    -0.7520 C.3   1 <1>   0.0600 
 18 C        2.9010    -4.7450     0.7500 C.ar  1 <1>  -0.1500 
 19 C        0.8580    -5.9730     0.9660 C.ar  1 <1>  -0.1500 
 20 C        3.9630     1.7830    -1.4660 C.3   1 <1>  -0.1600 
 21 C        4.0230     2.0490     1.0610 C.3   1 <1>  -0.1600 
 22 C        2.2440    -5.9390     0.9610 C.ar  1 <1>  -0.1500 
 23 C        4.8080     2.1930    -0.2510 C.3   1 <1>  -0.1600 
 24 H       -2.2630    -1.1160     0.9210 H     1 <1>   0.0800 
 25 H       -2.2090    -1.4260    -0.8070 H     1 <1>   0.0800 
 26 H        1.8650     0.9530    -0.0390 H     1 <1>   0.0800 
 27 H       -1.8710     1.8990    -0.5430 H     1 <1>   0.3700 
 28 H       -0.9300    -4.8250     0.7600 H     1 <1>   0.1500 
 29 H        2.7730     0.1270    -2.1360 H     1 <1>   0.0800 
 30 H        4.2500    -0.3260    -1.3260 H     1 <1>   0.0800 
 31 H        4.3230    -0.0400     1.3470 H     1 <1>   0.0800 
 32 H        2.8830     0.5690     2.1190 H     1 <1>   0.0800 
 33 H       -4.8280     2.4540    -0.7060 H     1 <1>   0.0800 
 34 H       -3.6320     3.2270    -1.7240 H     1 <1>   0.0800 
 35 H       -3.6670     3.5580     0.0000 H     1 <1>   0.0800 
 36 H        3.9780    -4.7190     0.7460 H     1 <1>   0.1500 
 37 H        0.3440    -6.9040     1.1310 H     1 <1>   0.1500 
 38 H        3.1420     2.4710    -1.5770 H     1 <1>   0.0800 
 39 H        4.5640     1.8410    -2.3570 H     1 <1>   0.0800 
 40 H        4.6650     2.2900     1.8910 H     1 <1>   0.0800 
 41 H        3.2030     2.7470     1.0650 H     1 <1>   0.0800 
 42 H        2.8030    -6.8460     1.1220 H     1 <1>   0.1500 
 43 H        5.1340     3.2120    -0.3660 H     1 <1>   0.0800 
 44 H        5.6870     1.5710    -0.2070 H     1 <1>   0.0800 
@<TRIPOS>BOND
  1   1   2  1   
  2   1   3  1   
  3   2   4  2   
  4   2   5  1   
  5   3   6  1   
  6   3  24  1   
  7   3  25  1   
  8   4   7  1   
  9   5   8  am  
 10   5   9  1   
 11   6  10  2   
 12   6  11  am  
 13   7  12  ar  
 14   7  13  ar  
 15   8  12  1   
 16   8  14  2   
 17   9  15  1   
 18   9  16  1   
 19   9  26  1   
 20  11  17  1   
 21  11  27  1   
 22  12  18  ar  
 23  13  19  ar  
 24  13  28  1   
 25  15  20  1   
 26  15  29  1   
 27  15  30  1   
 28  16  21  1   
 29  16  31  1   
 30  16  32  1   
 31  17  33  1   
 32  17  34  1   
 33  17  35  1   
 34  18  22  ar  
 35  18  36  1   
 36  19  22  ar  
 37  19  37  1   
 38  20  23  1   
 39  20  38  1   
 40  20  39  1   
 41  21  23  1   
 42  21  40  1   
 43  21  41  1   
 44  22  42  1   
 45  23  43  1   
 46  23  44  1   
@<TRIPOS>SUBSTRUCTURE
  1 ****   2 GROUP 4 **** **** 0

# MOE 2024.06 (io_trps.svl 2023.06)
