@<TRIPOS>MOLECULE
NONAME
30 30 1 0 0 
SMALL
USER_CHARGES


@<TRIPOS>ATOM
  1 CL       1.0110    -1.2370    -2.4900 Cl    1 <1>  -0.1770 
  2 C       -0.2060    -2.0270    -1.5120 C.ar  1 <1>   0.1770 
  3 C        0.1570    -3.0270    -0.6110 C.ar  1 <1>   0.0820 
  4 C       -1.5210    -1.6320    -1.6640 C.ar  1 <1>  -0.1500 
  5 O        1.4730    -3.3570    -0.5210 O.3   1 <1>  -0.3630 
  6 C       -0.8380    -3.6380     0.1530 C.ar  1 <1>  -0.1500 
  7 C       -2.4880    -2.2530    -0.8960 C.ar  1 <1>   0.1770 
  8 C        1.9290    -4.3930     0.3170 C.3   1 <1>   0.1200 
  9 C       -2.1610    -3.2480     0.0080 C.ar  1 <1>  -0.1500 
 10 CL      -4.1560    -1.7710    -1.0700 Cl    1 <1>  -0.1770 
 11 C        3.4470    -4.4870     0.1550 C.3   1 <1>  -0.1600 
 12 C        4.0320    -5.6540     0.9670 C.3   1 <1>  -0.0990 
 13 C        5.5440    -5.7130     0.8820 C.2   1 <1>   0.5690 
 14 O        6.2030    -5.4770     1.8620 O.2   1 <1>  -0.5700 
 15 N        6.1260    -6.0320    -0.2970 N.am  1 <1>  -0.7300 
 16 C        7.5990    -6.1340    -0.4770 C.3   1 <1>   0.3400 
 17 C        7.9540    -7.0770    -1.5810 C.1   1 <1>   0.3570 
 18 N        8.2060    -7.7850    -2.4360 N.1   1 <1>  -0.5570 
 19 H       -1.7860    -0.8600    -2.3620 H     1 <1>   0.1500 
 20 H       -0.6050    -4.4120     0.8610 H     1 <1>   0.1500 
 21 H        1.4520    -5.3090     0.0120 H     1 <1>   0.0800 
 22 H        1.6680    -4.1530     1.3330 H     1 <1>   0.0800 
 23 H       -2.9390    -3.7100     0.5900 H     1 <1>   0.1500 
 24 H        3.8900    -3.5650     0.4910 H     1 <1>   0.0800 
 25 H        3.6800    -4.6190    -0.8870 H     1 <1>   0.0800 
 26 H        3.6300    -6.5880     0.6170 H     1 <1>   0.0800 
 27 H        3.7580    -5.5440     2.0020 H     1 <1>   0.0800 
 28 H        5.5570    -6.2100    -1.1270 H     1 <1>   0.3700 
 29 H        8.0530    -6.4780     0.4360 H     1 <1>   0.0800 
 30 H        7.9940    -5.1610    -0.7070 H     1 <1>   0.0800 
@<TRIPOS>BOND
  1   1   2  1   
  2   2   3  ar  
  3   2   4  ar  
  4   3   5  1   
  5   3   6  ar  
  6   4   7  ar  
  7   4  19  1   
  8   5   8  1   
  9   6   9  ar  
 10   6  20  1   
 11   7   9  ar  
 12   7  10  1   
 13   8  11  1   
 14   8  21  1   
 15   8  22  1   
 16   9  23  1   
 17  11  12  1   
 18  11  24  1   
 19  11  25  1   
 20  12  13  1   
 21  12  26  1   
 22  12  27  1   
 23  13  14  2   
 24  13  15  am  
 25  15  16  1   
 26  15  28  1   
 27  16  17  1   
 28  16  29  1   
 29  16  30  1   
 30  17  18  3   
@<TRIPOS>SUBSTRUCTURE
  1 ****   8 GROUP 4 **** **** 0

# MOE 2024.06 (io_trps.svl 2023.06)
