@<TRIPOS>MOLECULE
NONAME
41 41 1 0 0 
SMALL
USER_CHARGES


@<TRIPOS>ATOM
  1 O       -3.1590    -0.0080    -1.0670 O.2   1 <1>  -0.5700 
  2 C       -2.5400     0.3490    -0.0930 C.2   1 <1>   0.5690 
  3 N       -2.6090     1.6380     0.3240 N.am  1 <1>  -0.7300 
  4 C       -1.6610    -0.6480     0.7040 C.3   1 <1>   0.0610 
  5 C       -3.3510     2.7250    -0.3820 C.3   1 <1>   0.2810 
  6 C       -2.1730    -0.7700     2.1520 C.3   1 <1>  -0.2400 
  7 C       -1.6810    -2.0570     0.0740 C.3   1 <1>  -0.2400 
  8 C       -0.1980    -0.1660     0.7360 C.3   1 <1>  -0.2400 
  9 C       -2.6410     4.0790    -0.2500 C.2   1 <1>   0.6590 
 10 C       -4.7770     2.7870     0.1790 C.3   1 <1>  -0.0160 
 11 O       -2.2060     4.4630     0.8100 O.2   1 <1>  -0.5700 
 12 O       -2.5250     4.8010    -1.3600 O.3   1 <1>  -0.4300 
 13 C       -5.5920     3.8790    -0.4980 C.ar  1 <1>  -0.1440 
 14 C       -1.9270     6.0800    -1.3600 C.3   1 <1>   0.0400 
 15 C       -6.1730     3.6430    -1.7360 C.ar  1 <1>  -0.1500 
 16 C       -5.7510     5.1170     0.1100 C.ar  1 <1>  -0.1500 
 17 C       -6.9050     4.6370    -2.3620 C.ar  1 <1>  -0.1500 
 18 C       -6.4830     6.1130    -0.5130 C.ar  1 <1>  -0.1500 
 19 C       -7.0570     5.8680    -1.7490 C.ar  1 <1>   0.0820 
 20 O       -7.7670     6.8230    -2.3650 O.3   1 <1>  -0.5330 
 21 H       -2.0720     1.9480     1.1380 H     1 <1>   0.3700 
 22 H       -3.4050     2.4840    -1.4300 H     1 <1>   0.0800 
 23 H       -1.5850    -1.4800     2.7050 H     1 <1>   0.0800 
 24 H       -3.1970    -1.1010     2.1540 H     1 <1>   0.0800 
 25 H       -2.1230     0.1770     2.6590 H     1 <1>   0.0800 
 26 H       -2.6860    -2.4400     0.0500 H     1 <1>   0.0800 
 27 H       -1.0680    -2.7400     0.6340 H     1 <1>   0.0800 
 28 H       -1.3150    -2.0180    -0.9370 H     1 <1>   0.0800 
 29 H       -0.1170     0.7880     1.2250 H     1 <1>   0.0800 
 30 H        0.1780    -0.0640    -0.2670 H     1 <1>   0.0800 
 31 H        0.4230    -0.8680     1.2630 H     1 <1>   0.0800 
 32 H       -4.7380     2.9700     1.2380 H     1 <1>   0.0800 
 33 H       -5.2590     1.8380     0.0200 H     1 <1>   0.0800 
 34 H       -1.9480     6.4650    -2.3640 H     1 <1>   0.0800 
 35 H       -0.9110     5.9900    -1.0170 H     1 <1>   0.0800 
 36 H       -2.4870     6.7240    -0.7040 H     1 <1>   0.0800 
 37 H       -6.0580     2.6870    -2.2180 H     1 <1>   0.1500 
 38 H       -5.3030     5.3110     1.0690 H     1 <1>   0.1500 
 39 H       -7.3580     4.4640    -3.3210 H     1 <1>   0.1500 
 40 H       -6.6000     7.0680    -0.0350 H     1 <1>   0.1500 
 41 H       -7.8270     7.6460    -1.8490 H     1 <1>   0.4500 
@<TRIPOS>BOND
  1   1   2  2   
  2   2   3  am  
  3   2   4  1   
  4   3   5  1   
  5   3  21  1   
  6   4   6  1   
  7   4   7  1   
  8   4   8  1   
  9   5   9  1   
 10   5  10  1   
 11   5  22  1   
 12   6  23  1   
 13   6  24  1   
 14   6  25  1   
 15   7  26  1   
 16   7  27  1   
 17   7  28  1   
 18   8  29  1   
 19   8  30  1   
 20   8  31  1   
 21   9  11  2   
 22   9  12  1   
 23  10  13  1   
 24  10  32  1   
 25  10  33  1   
 26  12  14  1   
 27  13  15  ar  
 28  13  16  ar  
 29  14  34  1   
 30  14  35  1   
 31  14  36  1   
 32  15  17  ar  
 33  15  37  1   
 34  16  18  ar  
 35  16  38  1   
 36  17  19  ar  
 37  17  39  1   
 38  18  19  ar  
 39  18  40  1   
 40  19  20  1   
 41  20  41  1   
@<TRIPOS>SUBSTRUCTURE
  1 ****   5 GROUP 4 **** **** 0

# MOE 2024.06 (io_trps.svl 2023.06)
