@<TRIPOS>MOLECULE
NONAME
36 36 1 0 0 
SMALL
USER_CHARGES


@<TRIPOS>ATOM
  1 O       -0.5180    -0.3230     1.5220 O.2   1 <1>  -0.5700 
  2 C       -0.9370    -1.1360     0.7200 C.2   1 <1>   0.5440 
  3 N       -0.0630    -2.0380     0.1810 N.am  1 <1>  -0.7300 
  4 C       -2.3350    -1.1330     0.3260 C.ar  1 <1>   0.0860 
  5 C        1.3670    -2.1450     0.5030 C.3   1 <1>   0.2200 
  6 C       -3.0900     0.0380     0.3800 C.ar  1 <1>  -0.1500 
  7 C       -2.9780    -2.2870    -0.1190 C.ar  1 <1>  -0.1500 
  8 C        2.1670    -1.6060    -0.6910 C.3   1 <1>  -0.1600 
  9 C        1.6600    -3.6140     0.8050 C.3   1 <1>  -0.2400 
 10 C       -4.4280     0.0850     0.0000 C.ar  1 <1>   0.0830 
 11 C       -4.3040    -2.2610    -0.5070 C.ar  1 <1>  -0.1500 
 12 C        3.6810    -1.5570    -0.4380 C.3   1 <1>  -0.2400 
 13 O       -5.1330     1.2530     0.0720 O.3   1 <1>  -0.3630 
 14 C       -5.0460    -1.0930    -0.4610 C.ar  1 <1>   0.0830 
 15 C       -4.6080     2.4170     0.6750 C.3   1 <1>   0.0400 
 16 O       -6.3320    -1.2380    -0.8820 O.3   1 <1>  -0.3620 
 17 C       -7.2640    -0.1830    -0.9530 C.3   1 <1>   0.0400 
 18 H       -0.3750    -2.6390    -0.5790 H     1 <1>   0.3700 
 19 H        1.5860    -1.5520     1.3770 H     1 <1>   0.0800 
 20 H       -2.5840     0.9170     0.7310 H     1 <1>   0.1500 
 21 H       -2.4430    -3.2180    -0.1570 H     1 <1>   0.1500 
 22 H        1.8310    -0.6040    -0.8940 H     1 <1>   0.0800 
 23 H        1.9730    -2.2080    -1.5620 H     1 <1>   0.0800 
 24 H        1.5060    -4.2220    -0.0680 H     1 <1>   0.0800 
 25 H        1.0200    -3.9560     1.5990 H     1 <1>   0.0800 
 26 H        2.6770    -3.7300     1.1300 H     1 <1>   0.0800 
 27 H       -4.7820    -3.1610    -0.8500 H     1 <1>   0.1500 
 28 H        3.8940    -0.9870     0.4490 H     1 <1>   0.0800 
 29 H        4.1740    -1.0870    -1.2710 H     1 <1>   0.0800 
 30 H        4.0860    -2.5470    -0.3230 H     1 <1>   0.0800 
 31 H       -5.3770     3.1690     0.6740 H     1 <1>   0.0800 
 32 H       -3.7650     2.7580     0.1010 H     1 <1>   0.0800 
 33 H       -4.3210     2.1890     1.6860 H     1 <1>   0.0800 
 34 H       -8.1870    -0.5770    -1.3390 H     1 <1>   0.0800 
 35 H       -6.8840     0.5740    -1.6150 H     1 <1>   0.0800 
 36 H       -7.4200     0.2110     0.0350 H     1 <1>   0.0800 
@<TRIPOS>BOND
  1   1   2  2   
  2   2   3  am  
  3   2   4  1   
  4   3   5  1   
  5   3  18  1   
  6   4   6  ar  
  7   4   7  ar  
  8   5   8  1   
  9   5   9  1   
 10   5  19  1   
 11   6  10  ar  
 12   6  20  1   
 13   7  11  ar  
 14   7  21  1   
 15   8  12  1   
 16   8  22  1   
 17   8  23  1   
 18   9  24  1   
 19   9  25  1   
 20   9  26  1   
 21  10  13  1   
 22  10  14  ar  
 23  11  14  ar  
 24  11  27  1   
 25  12  28  1   
 26  12  29  1   
 27  12  30  1   
 28  13  15  1   
 29  14  16  1   
 30  15  31  1   
 31  15  32  1   
 32  15  33  1   
 33  16  17  1   
 34  17  34  1   
 35  17  35  1   
 36  17  36  1   
@<TRIPOS>SUBSTRUCTURE
  1 ****   4 GROUP 4 **** **** 0

# MOE 2024.06 (io_trps.svl 2023.06)
