@<TRIPOS>MOLECULE
NONAME
41 42 1 0 0 
SMALL
USER_CHARGES


@<TRIPOS>ATOM
  1 BR      -2.3470    -2.3840    -1.4020 Br    1 <1>  -0.1110 
  2 C       -0.7320    -2.9490    -0.5070 C.ar  1 <1>   0.1110 
  3 C       -0.7810    -3.9780     0.4240 C.ar  1 <1>   0.0820 
  4 C        0.4410    -2.2960    -0.8250 C.ar  1 <1>  -0.1500 
  5 O       -1.9630    -4.5750     0.7170 O.3   1 <1>  -0.3630 
  6 C        0.4020    -4.3870     1.0360 C.ar  1 <1>  -0.1440 
  7 C        1.6120    -2.6870    -0.1970 C.ar  1 <1>  -0.1430 
  8 C       -2.5640    -4.2300     1.9520 C.3   1 <1>   0.1200 
  9 C        1.5830    -3.7280     0.7210 C.ar  1 <1>  -0.1500 
 10 C        0.4450    -5.5430     2.0260 C.3   1 <1>  -0.0960 
 11 C        2.9250    -1.9940    -0.5170 C.3   1 <1>  -0.0970 
 12 C       -3.8180    -3.3930     1.6740 C.3   1 <1>   0.3430 
 13 N       -4.5610    -3.9610     0.5140 N.4   1 <1>  -0.9060 
 14 C       -5.5950    -3.0810    -0.0540 C.3   1 <1>   0.4230 
 15 C       -6.8290    -3.1030     0.8420 C.3   1 <1>  -0.1600 
 16 C       -6.0990    -3.7230    -1.3400 C.3   1 <1>  -0.1600 
 17 C       -7.5740    -4.3990     0.4980 C.3   1 <1>  -0.1600 
 18 C       -7.1040    -4.7990    -0.9070 C.3   1 <1>  -0.1600 
 19 H        0.4380    -1.5010    -1.5490 H     1 <1>   0.1500 
 20 H       -1.8650    -3.6820     2.5620 H     1 <1>   0.0800 
 21 H       -2.8230    -5.1440     2.4570 H     1 <1>   0.0800 
 22 H        2.5030    -4.0310     1.1930 H     1 <1>   0.1500 
 23 H        0.1810    -5.2000     3.0090 H     1 <1>   0.0800 
 24 H        1.4320    -5.9690     2.0670 H     1 <1>   0.0800 
 25 H       -0.2360    -6.3200     1.7280 H     1 <1>   0.0800 
 26 H        2.7510    -1.0330    -0.9660 H     1 <1>   0.0800 
 27 H        3.4970    -2.5960    -1.2010 H     1 <1>   0.0800 
 28 H        3.4980    -1.8500     0.3810 H     1 <1>   0.0800 
 29 H       -3.5080    -2.3860     1.4450 H     1 <1>   0.0800 
 30 H       -4.4440    -3.3590     2.5510 H     1 <1>   0.0800 
 31 H       -4.9900    -4.8630     0.7420 H     1 <1>   0.4500 
 32 H       -3.8520    -4.1580    -0.2110 H     1 <1>   0.4500 
 33 H       -5.2130    -2.0860    -0.2210 H     1 <1>   0.0800 
 34 H       -7.4540    -2.2690     0.5690 H     1 <1>   0.0800 
 35 H       -6.6060    -3.0190     1.8910 H     1 <1>   0.0800 
 36 H       -5.3090    -4.1140    -1.9570 H     1 <1>   0.0800 
 37 H       -6.6240    -2.9730    -1.9070 H     1 <1>   0.0800 
 38 H       -8.6410    -4.2430     0.5210 H     1 <1>   0.0800 
 39 H       -7.3310    -5.1760     1.2030 H     1 <1>   0.0800 
 40 H       -6.6320    -5.7670    -0.8770 H     1 <1>   0.0800 
 41 H       -7.9310    -4.8470    -1.5960 H     1 <1>   0.0800 
@<TRIPOS>BOND
  1   1   2  1   
  2   2   3  ar  
  3   2   4  ar  
  4   3   5  1   
  5   3   6  ar  
  6   4   7  ar  
  7   4  19  1   
  8   5   8  1   
  9   6   9  ar  
 10   6  10  1   
 11   7   9  ar  
 12   7  11  1   
 13   8  12  1   
 14   8  20  1   
 15   8  21  1   
 16   9  22  1   
 17  10  23  1   
 18  10  24  1   
 19  10  25  1   
 20  11  26  1   
 21  11  27  1   
 22  11  28  1   
 23  12  13  1   
 24  12  29  1   
 25  12  30  1   
 26  13  14  1   
 27  13  31  1   
 28  13  32  1   
 29  14  15  1   
 30  14  16  1   
 31  14  33  1   
 32  15  17  1   
 33  15  34  1   
 34  15  35  1   
 35  16  18  1   
 36  16  36  1   
 37  16  37  1   
 38  17  18  1   
 39  17  38  1   
 40  17  39  1   
 41  18  40  1   
 42  18  41  1   
@<TRIPOS>SUBSTRUCTURE
  1 ****   5 GROUP 4 **** **** 0

# MOE 2024.06 (io_trps.svl 2023.06)
