@<TRIPOS>MOLECULE
NONAME
37 37 1 0 0 
SMALL
USER_CHARGES


@<TRIPOS>ATOM
  1 O       -6.4080    -5.3140     0.1960 O.3   1 <1>  -0.3630 
  2 C       -6.4080    -3.9670     0.0270 C.ar  1 <1>   0.0830 
  3 C       -5.2440    -6.0740     0.0010 C.3   1 <1>   0.1200 
  4 C       -7.6090    -3.3130     0.2470 C.ar  1 <1>  -0.1500 
  5 C       -5.2860    -3.2330    -0.3480 C.ar  1 <1>  -0.1500 
  6 C       -5.6110    -7.5330     0.2780 C.3   1 <1>   0.3430 
  7 C       -7.7100    -1.9380     0.1000 C.ar  1 <1>  -0.1440 
  8 C       -5.3740    -1.8600    -0.5000 C.ar  1 <1>  -0.1440 
  9 N       -4.4400    -8.4480     0.1010 N.4   1 <1>  -0.9060 
 10 C       -6.5820    -1.2220    -0.2740 C.ar  1 <1>  -0.1500 
 11 C       -9.0290    -1.2080     0.3420 C.3   1 <1>   0.0630 
 12 C       -4.1580    -1.0460    -0.9070 C.3   1 <1>  -0.0970 
 13 C       -4.8020    -9.8720     0.3710 C.3   1 <1>   0.2630 
 14 C       -9.4940    -1.3820     1.7910 C.3   1 <1>  -0.2400 
 15 C      -10.1070    -1.6860    -0.6360 C.3   1 <1>  -0.2400 
 16 H       -4.4980    -5.7220     0.6920 H     1 <1>   0.0800 
 17 H       -4.9270    -5.9380    -1.0180 H     1 <1>   0.0800 
 18 H       -8.4670    -3.8900     0.5360 H     1 <1>   0.1500 
 19 H       -4.3400    -3.7050    -0.5260 H     1 <1>   0.1500 
 20 H       -6.4010    -7.8220    -0.3970 H     1 <1>   0.0800 
 21 H       -5.9800    -7.6080     1.2880 H     1 <1>   0.0800 
 22 H       -3.6790    -8.1630     0.7340 H     1 <1>   0.4500 
 23 H       -4.0780    -8.3650    -0.8600 H     1 <1>   0.4500 
 24 H       -6.6430    -0.1540    -0.3910 H     1 <1>   0.1500 
 25 H       -8.8780    -0.1550     0.1720 H     1 <1>   0.0800 
 26 H       -3.4280    -1.6640    -1.3960 H     1 <1>   0.0800 
 27 H       -3.7110    -0.6010    -0.0370 H     1 <1>   0.0800 
 28 H       -4.4470    -0.2630    -1.5870 H     1 <1>   0.0800 
 29 H       -5.1570    -9.9840     1.3840 H     1 <1>   0.0800 
 30 H       -3.9430   -10.5100     0.2370 H     1 <1>   0.0800 
 31 H       -5.5790   -10.1970    -0.3030 H     1 <1>   0.0800 
 32 H       -9.7120    -2.4130     2.0030 H     1 <1>   0.0800 
 33 H      -10.3790    -0.7980     1.9710 H     1 <1>   0.0800 
 34 H       -8.7230    -1.0500     2.4630 H     1 <1>   0.0800 
 35 H      -10.3380    -2.7230    -0.4750 H     1 <1>   0.0800 
 36 H       -9.7610    -1.5650    -1.6470 H     1 <1>   0.0800 
 37 H      -11.0060    -1.1090    -0.5110 H     1 <1>   0.0800 
@<TRIPOS>BOND
  1   1   2  1   
  2   1   3  1   
  3   2   4  ar  
  4   2   5  ar  
  5   3   6  1   
  6   3  16  1   
  7   3  17  1   
  8   4   7  ar  
  9   4  18  1   
 10   5   8  ar  
 11   5  19  1   
 12   6   9  1   
 13   6  20  1   
 14   6  21  1   
 15   7  10  ar  
 16   7  11  1   
 17   8  10  ar  
 18   8  12  1   
 19   9  13  1   
 20   9  22  1   
 21   9  23  1   
 22  10  24  1   
 23  11  14  1   
 24  11  15  1   
 25  11  25  1   
 26  12  26  1   
 27  12  27  1   
 28  12  28  1   
 29  13  29  1   
 30  13  30  1   
 31  13  31  1   
 32  14  32  1   
 33  14  33  1   
 34  14  34  1   
 35  15  35  1   
 36  15  36  1   
 37  15  37  1   
@<TRIPOS>SUBSTRUCTURE
  1 ****   2 GROUP 4 **** **** 0

# MOE 2024.06 (io_trps.svl 2023.06)
