@<TRIPOS>MOLECULE
NONAME
43 45 1 0 0 
SMALL
USER_CHARGES


@<TRIPOS>ATOM
  1 O       -1.8050    -0.6790     2.2210 O.2   1 <1>  -0.5700 
  2 C       -2.5150    -1.2130     1.3910 C.2   1 <1>   0.7060 
  3 O       -3.4510    -0.4660     0.8110 O.3   1 <1>  -0.2330 
  4 C       -2.3980    -2.5870     0.9920 C.2   1 <1>  -0.1240 
  5 C       -4.3530    -0.9600    -0.0600 C.ar  1 <1>   0.0820 
  6 C       -3.2550    -3.1260     0.0840 C.2   1 <1>  -0.1670 
  7 C       -1.2480    -3.3690     1.6300 C.3   1 <1>  -0.0220 
  8 C       -4.3420    -2.3170    -0.4270 C.ar  1 <1>   0.0280 
  9 C       -5.2920    -0.0670    -0.5540 C.ar  1 <1>  -0.1500 
 10 C       -3.0600    -4.5630    -0.4140 C.3   1 <1>  -0.0220 
 11 C       -1.3480    -4.8780     1.3930 C.3   1 <1>  -0.1600 
 12 C       -5.4120    -2.7350    -1.2470 C.ar  1 <1>   0.0820 
 13 C       -6.2820    -0.4930    -1.4150 C.ar  1 <1>  -0.1440 
 14 C       -1.6890    -5.1530    -0.0690 C.3   1 <1>  -0.1600 
 15 O       -5.5970    -4.0360    -1.5520 O.3   1 <1>  -0.3630 
 16 C       -6.3360    -1.8330    -1.7510 C.ar  1 <1>  -0.1500 
 17 C       -7.3060     0.4780    -1.9750 C.3   1 <1>  -0.0970 
 18 C       -6.7160    -4.7010    -0.9770 C.3   1 <1>   0.2610 
 19 C       -6.6080    -4.7450     0.5580 C.2   1 <1>   0.6590 
 20 C       -6.7930    -6.0850    -1.6340 C.3   1 <1>  -0.2400 
 21 O       -6.1630    -5.6950     1.1560 O.2   1 <1>  -0.5700 
 22 O       -7.0410    -3.6640     1.2010 O.3   1 <1>  -0.4300 
 23 C       -6.9230    -3.5320     2.6020 C.3   1 <1>   0.0400 
 24 H       -1.2280    -3.1900     2.6920 H     1 <1>   0.0800 
 25 H       -0.3210    -3.0040     1.2210 H     1 <1>   0.0800 
 26 H       -5.2360     0.9640    -0.2530 H     1 <1>   0.1500 
 27 H       -3.1680    -4.5940    -1.4830 H     1 <1>   0.0800 
 28 H       -3.8190    -5.1880     0.0210 H     1 <1>   0.0800 
 29 H       -2.1190    -5.2900     2.0220 H     1 <1>   0.0800 
 30 H       -0.4160    -5.3490     1.6530 H     1 <1>   0.0800 
 31 H       -0.9400    -4.7110    -0.7030 H     1 <1>   0.0800 
 32 H       -1.6990    -6.2130    -0.2530 H     1 <1>   0.0800 
 33 H       -7.1090    -2.1800    -2.4120 H     1 <1>   0.1500 
 34 H       -7.0220     1.4950    -1.7690 H     1 <1>   0.0800 
 35 H       -8.2670     0.2920    -1.5310 H     1 <1>   0.0800 
 36 H       -7.3840     0.3570    -3.0400 H     1 <1>   0.0800 
 37 H       -7.5990    -4.1470    -1.2350 H     1 <1>   0.0800 
 38 H       -5.9030    -6.6490    -1.4160 H     1 <1>   0.0800 
 39 H       -6.9020    -5.9850    -2.6990 H     1 <1>   0.0800 
 40 H       -7.6400    -6.6250    -1.2500 H     1 <1>   0.0800 
 41 H       -7.3290    -2.5780     2.8900 H     1 <1>   0.0800 
 42 H       -5.8820    -3.5860     2.8680 H     1 <1>   0.0800 
 43 H       -7.4700    -4.3290     3.0750 H     1 <1>   0.0800 
@<TRIPOS>BOND
  1   1   2  2   
  2   2   3  1   
  3   2   4  1   
  4   3   5  1   
  5   4   6  2   
  6   4   7  1   
  7   5   8  ar  
  8   5   9  ar  
  9   6   8  1   
 10   6  10  1   
 11   7  11  1   
 12   7  24  1   
 13   7  25  1   
 14   8  12  ar  
 15   9  13  ar  
 16   9  26  1   
 17  10  14  1   
 18  10  27  1   
 19  10  28  1   
 20  11  14  1   
 21  11  29  1   
 22  11  30  1   
 23  12  15  1   
 24  12  16  ar  
 25  13  16  ar  
 26  13  17  1   
 27  14  31  1   
 28  14  32  1   
 29  15  18  1   
 30  16  33  1   
 31  17  34  1   
 32  17  35  1   
 33  17  36  1   
 34  18  19  1   
 35  18  20  1   
 36  18  37  1   
 37  19  21  2   
 38  19  22  1   
 39  20  38  1   
 40  20  39  1   
 41  20  40  1   
 42  22  23  1   
 43  23  41  1   
 44  23  42  1   
 45  23  43  1   
@<TRIPOS>SUBSTRUCTURE
  1 ****   8 GROUP 4 **** **** 0

# MOE 2024.06 (io_trps.svl 2023.06)
