@<TRIPOS>MOLECULE
NONAME
43 44 1 0 0 
SMALL
USER_CHARGES


@<TRIPOS>ATOM
  1 CL      -2.9760     0.1870     3.7420 Cl    1 <1>  -0.1770 
  2 C       -3.0430     0.1240     1.9960 C.ar  1 <1>   0.1770 
  3 C       -2.3500     1.0430     1.2260 C.ar  1 <1>   0.1770 
  4 C       -3.8020    -0.8610     1.3920 C.ar  1 <1>  -0.1500 
  5 CL      -1.3860     2.2960     1.9730 Cl    1 <1>  -0.1770 
  6 C       -2.4100     0.9820    -0.1550 C.ar  1 <1>  -0.1500 
  7 C       -3.8680    -0.9320     0.0050 C.ar  1 <1>  -0.1440 
  8 C       -3.1690    -0.0070    -0.7620 C.ar  1 <1>  -0.1500 
  9 C       -4.7040    -2.0190    -0.6630 C.3   1 <1>   0.3390 
 10 N       -6.0970    -1.9940    -0.2030 N.am  1 <1>  -0.8490 
 11 S       -6.9670    -3.2950    -0.8470 S.o2  1 <1>   1.3330 
 12 C       -6.7330    -0.6620    -0.4520 C.3   1 <1>   0.2570 
 13 O       -6.0400    -4.3710    -1.1060 O.2   1 <1>  -0.6500 
 14 O       -7.7710    -2.7900    -1.9390 O.2   1 <1>  -0.6500 
 15 C       -8.0050    -3.8070     0.5070 C.3   1 <1>  -0.1350 
 16 C       -8.1480    -0.4500     0.1130 C.2   1 <1>   0.5690 
 17 O       -8.2640     0.0230     1.2180 O.2   1 <1>  -0.5700 
 18 N       -9.2230    -0.7870    -0.6560 N.am  1 <1>  -0.7300 
 19 C      -10.6630    -0.5600    -0.3950 C.3   1 <1>   0.2200 
 20 C      -10.9800     0.9130    -0.1070 C.3   1 <1>  -0.1600 
 21 C      -11.1590    -1.3610     0.8140 C.3   1 <1>  -0.1600 
 22 C      -11.5370     0.9590     1.3170 C.3   1 <1>  -0.1600 
 23 C      -12.1220    -0.4300     1.5470 C.3   1 <1>  -0.1600 
 24 H       -4.3410    -1.5650     2.0030 H     1 <1>   0.1500 
 25 H       -1.8660     1.7000    -0.7430 H     1 <1>   0.1500 
 26 H       -3.2090    -0.0500    -1.8380 H     1 <1>   0.1500 
 27 H       -4.2540    -2.9650    -0.4100 H     1 <1>   0.0800 
 28 H       -4.6730    -1.9150    -1.7350 H     1 <1>   0.0800 
 29 H       -6.7630    -0.4730    -1.5100 H     1 <1>   0.0800 
 30 H       -6.1310     0.1100    -0.0100 H     1 <1>   0.0800 
 31 H       -7.3980    -4.1010     1.3410 H     1 <1>   0.0800 
 32 H       -8.6090    -4.6410     0.2110 H     1 <1>   0.0800 
 33 H       -8.6480    -3.0110     0.8200 H     1 <1>   0.0800 
 34 H       -9.0320    -1.3330    -1.5090 H     1 <1>   0.3700 
 35 H      -11.2210    -0.8610    -1.2670 H     1 <1>   0.0800 
 36 H      -11.7410     1.2430    -0.7910 H     1 <1>   0.0800 
 37 H      -10.1200     1.5520    -0.2080 H     1 <1>   0.0800 
 38 H      -10.3430    -1.5870     1.4760 H     1 <1>   0.0800 
 39 H      -11.6430    -2.2730     0.5150 H     1 <1>   0.0800 
 40 H      -12.2690     1.7380     1.4440 H     1 <1>   0.0800 
 41 H      -10.7260     1.1200     2.0070 H     1 <1>   0.0800 
 42 H      -12.1950    -0.6670     2.5950 H     1 <1>   0.0800 
 43 H      -13.0990    -0.4890     1.0990 H     1 <1>   0.0800 
@<TRIPOS>BOND
  1   1   2  1   
  2   2   3  ar  
  3   2   4  ar  
  4   3   5  1   
  5   3   6  ar  
  6   4   7  ar  
  7   4  24  1   
  8   6   8  ar  
  9   6  25  1   
 10   7   8  ar  
 11   7   9  1   
 12   8  26  1   
 13   9  10  1   
 14   9  27  1   
 15   9  28  1   
 16  10  11  am  
 17  10  12  1   
 18  11  13  2   
 19  11  14  2   
 20  11  15  1   
 21  12  16  1   
 22  12  29  1   
 23  12  30  1   
 24  15  31  1   
 25  15  32  1   
 26  15  33  1   
 27  16  17  2   
 28  16  18  am  
 29  18  19  1   
 30  18  34  1   
 31  19  20  1   
 32  19  21  1   
 33  19  35  1   
 34  20  22  1   
 35  20  36  1   
 36  20  37  1   
 37  21  23  1   
 38  21  38  1   
 39  21  39  1   
 40  22  23  1   
 41  22  40  1   
 42  22  41  1   
 43  23  42  1   
 44  23  43  1   
@<TRIPOS>SUBSTRUCTURE
  1 ****  12 GROUP 4 **** **** 0

# MOE 2024.06 (io_trps.svl 2023.06)
