@<TRIPOS>MOLECULE
NONAME
34 35 1 0 0 
SMALL
USER_CHARGES


@<TRIPOS>ATOM
  1 CL       0.8940    -1.3690    -1.7810 Cl    1 <1>  -0.1770 
  2 C       -0.2930    -2.1000    -0.7250 C.ar  1 <1>   0.1770 
  3 C        0.1150    -2.8970     0.3460 C.ar  1 <1>   0.0530 
  4 C       -1.6260    -1.8540    -0.9920 C.ar  1 <1>  -0.1500 
  5 C        1.4990    -3.1790     0.6380 C.2   1 <1>   0.1330 
  6 C       -0.8860    -3.4270     1.1580 C.ar  1 <1>  -0.1500 
  7 C       -2.6000    -2.4030    -0.1760 C.ar  1 <1>  -0.1500 
  8 N        2.1010    -2.8580     1.7510 N.2   1 <1>  -0.3380 
  9 N        2.3460    -3.8350    -0.1820 N.pl3 1 <1>   0.0480 
 10 C       -2.2250    -3.1880     0.9020 C.ar  1 <1>  -0.1500 
 11 N        3.3600    -3.2860     1.6770 N.2   1 <1>  -0.3380 
 12 C        3.4660    -3.8530     0.5290 C.2   1 <1>   0.2430 
 13 C        2.1070    -4.4330    -1.5130 C.3   1 <1>   0.0160 
 14 S        4.9800    -4.6090    -0.0670 S.3   1 <1>  -0.2860 
 15 C        6.1580    -4.3090     1.3350 C.3   1 <1>   0.1310 
 16 C        7.5360    -4.8300     0.9850 C.2   1 <1>   0.6590 
 17 O        8.0070    -5.7940     1.5340 O.2   1 <1>  -0.5700 
 18 O        8.2000    -4.1560     0.0540 O.3   1 <1>  -0.4300 
 19 C        9.4870    -4.5470    -0.3610 C.3   1 <1>   0.1200 
 20 C        9.9540    -3.5730    -1.4380 C.3   1 <1>  -0.2400 
 21 H       -1.8990    -1.2360    -1.8280 H     1 <1>   0.1500 
 22 H       -0.6030    -4.0310     2.0040 H     1 <1>   0.1500 
 23 H       -3.6420    -2.2180    -0.3740 H     1 <1>   0.1500 
 24 H       -2.9790    -3.6110     1.5440 H     1 <1>   0.1500 
 25 H        1.0510    -4.5290    -1.6890 H     1 <1>   0.0800 
 26 H        2.5620    -5.4060    -1.5560 H     1 <1>   0.0800 
 27 H        2.5410    -3.8020    -2.2670 H     1 <1>   0.0800 
 28 H        5.7660    -4.8170     2.1950 H     1 <1>   0.0800 
 29 H        6.1860    -3.2500     1.5100 H     1 <1>   0.0800 
 30 H        9.4300    -5.5520    -0.7470 H     1 <1>   0.0800 
 31 H       10.1430    -4.5250     0.4930 H     1 <1>   0.0800 
 32 H        9.2820    -3.5990    -2.2770 H     1 <1>   0.0800 
 33 H       10.9360    -3.8490    -1.7760 H     1 <1>   0.0800 
 34 H        9.9960    -2.5740    -1.0410 H     1 <1>   0.0800 
@<TRIPOS>BOND
  1   1   2  1   
  2   2   3  ar  
  3   2   4  ar  
  4   3   5  1   
  5   3   6  ar  
  6   4   7  ar  
  7   4  21  1   
  8   5   8  2   
  9   5   9  1   
 10   6  10  ar  
 11   6  22  1   
 12   7  10  ar  
 13   7  23  1   
 14   8  11  1   
 15   9  12  1   
 16   9  13  1   
 17  10  24  1   
 18  11  12  2   
 19  12  14  1   
 20  13  25  1   
 21  13  26  1   
 22  13  27  1   
 23  14  15  1   
 24  15  16  1   
 25  15  28  1   
 26  15  29  1   
 27  16  17  2   
 28  16  18  1   
 29  18  19  1   
 30  19  20  1   
 31  19  30  1   
 32  19  31  1   
 33  20  32  1   
 34  20  33  1   
 35  20  34  1   
@<TRIPOS>SUBSTRUCTURE
  1 ****  12 GROUP 4 **** **** 0

# MOE 2024.06 (io_trps.svl 2023.06)
