@<TRIPOS>MOLECULE
NONAME
39 40 1 0 0 
SMALL
USER_CHARGES


@<TRIPOS>ATOM
  1 CL      -0.1450     0.1040     1.4260 Cl    1 <1>  -0.1770 
  2 C        0.1750     1.6700     0.7250 C.ar  1 <1>   0.1770 
  3 C        1.4850     2.0830     0.5710 C.ar  1 <1>  -0.1500 
  4 C       -0.8880     2.4650     0.3380 C.ar  1 <1>  -0.1500 
  5 C        1.7370     3.3320     0.0120 C.ar  1 <1>   0.0830 
  6 C       -0.6340     3.7080    -0.2190 C.ar  1 <1>  -0.1500 
  7 O        2.9820     3.8330    -0.1840 O.3   1 <1>  -0.3630 
  8 C        0.6740     4.1340    -0.3790 C.ar  1 <1>  -0.1500 
  9 C        4.1320     3.1030     0.1690 C.3   1 <1>   0.1200 
 10 C        5.3470     3.9610    -0.1890 C.3   1 <1>  -0.1600 
 11 C        6.6690     3.2550     0.1430 C.3   1 <1>  -0.1600 
 12 C        7.8570     4.1500    -0.2180 C.3   1 <1>   0.3430 
 13 N        9.1380     3.5150     0.1920 N.4   1 <1>  -0.9590 
 14 C       10.2850     4.4850     0.1880 C.3   1 <1>   0.3430 
 15 C        9.5020     2.2840    -0.5940 C.3   1 <1>   0.3430 
 16 C       11.5980     3.8100     0.6510 C.3   1 <1>   0.1200 
 17 C       10.8810     1.7240    -0.1720 C.3   1 <1>   0.1200 
 18 O       11.4080     2.4450     0.9090 O.3   1 <1>  -0.5600 
 19 H        2.2690     1.4260     0.8900 H     1 <1>   0.1500 
 20 H       -1.8950     2.1150     0.4710 H     1 <1>   0.1500 
 21 H       -1.4490     4.3400    -0.5260 H     1 <1>   0.1500 
 22 H        0.8790     5.0980    -0.8100 H     1 <1>   0.1500 
 23 H        4.1310     2.1810    -0.3870 H     1 <1>   0.0800 
 24 H        4.0960     2.9040     1.2260 H     1 <1>   0.0800 
 25 H        5.2820     4.8870     0.3590 H     1 <1>   0.0800 
 26 H        5.3090     4.1840    -1.2420 H     1 <1>   0.0800 
 27 H        6.7150     2.3330    -0.4100 H     1 <1>   0.0800 
 28 H        6.6910     3.0330     1.1970 H     1 <1>   0.0800 
 29 H        7.7440     5.0940     0.2930 H     1 <1>   0.0800 
 30 H        7.8610     4.3440    -1.2790 H     1 <1>   0.0800 
 31 H        9.0680     3.1980     1.1710 H     1 <1>   0.4500 
 32 H       10.0710     5.3160     0.8400 H     1 <1>   0.0800 
 33 H       10.4280     4.8810    -0.8040 H     1 <1>   0.0800 
 34 H        9.5250     2.5100    -1.6470 H     1 <1>   0.0800 
 35 H        8.7580     1.5190    -0.4440 H     1 <1>   0.0800 
 36 H       11.9490     4.2680     1.5600 H     1 <1>   0.0800 
 37 H       12.3660     3.9170    -0.0960 H     1 <1>   0.0800 
 38 H       11.5790     1.7700    -0.9900 H     1 <1>   0.0800 
 39 H       10.7870     0.6960     0.1320 H     1 <1>   0.0800 
@<TRIPOS>BOND
  1   1   2  1   
  2   2   3  ar  
  3   2   4  ar  
  4   3   5  ar  
  5   3  19  1   
  6   4   6  ar  
  7   4  20  1   
  8   5   7  1   
  9   5   8  ar  
 10   6   8  ar  
 11   6  21  1   
 12   7   9  1   
 13   8  22  1   
 14   9  10  1   
 15   9  23  1   
 16   9  24  1   
 17  10  11  1   
 18  10  25  1   
 19  10  26  1   
 20  11  12  1   
 21  11  27  1   
 22  11  28  1   
 23  12  13  1   
 24  12  29  1   
 25  12  30  1   
 26  13  14  1   
 27  13  15  1   
 28  13  31  1   
 29  14  16  1   
 30  14  32  1   
 31  14  33  1   
 32  15  17  1   
 33  15  34  1   
 34  15  35  1   
 35  16  18  1   
 36  16  36  1   
 37  16  37  1   
 38  17  18  1   
 39  17  38  1   
 40  17  39  1   
@<TRIPOS>SUBSTRUCTURE
  1 ****   9 GROUP 4 **** **** 0

# MOE 2024.06 (io_trps.svl 2023.06)
