@<TRIPOS>MOLECULE
NONAME
43 45 1 0 0 
SMALL
USER_CHARGES


@<TRIPOS>ATOM
  1 BR       0.5980    -0.1240     1.1120 Br    1 <1>  -0.1110 
  2 C        0.4250    -1.8310     0.2250 C.ar  1 <1>   0.1110 
  3 C        1.5480    -2.3930    -0.3800 C.ar  1 <1>   0.1170 
  4 C       -0.8190    -2.4320     0.2270 C.ar  1 <1>  -0.1500 
  5 N        2.7760    -1.7040    -0.3330 N.am  1 <1>  -0.5470 
  6 C        1.3670    -3.6240    -1.0080 C.ar  1 <1>  -0.1500 
  7 C       -0.9650    -3.6560    -0.4030 C.ar  1 <1>  -0.1500 
  8 C        4.0450    -2.0460    -0.7140 C.2   1 <1>   0.5690 
  9 C        0.1280    -4.2460    -1.0180 C.ar  1 <1>  -0.1500 
 10 O        4.3270    -3.1030    -1.2200 O.2   1 <1>  -0.5700 
 11 C        5.1470    -1.0150    -0.5040 C.3   1 <1>  -0.0190 
 12 C        6.5650    -1.6040    -0.5860 C.3   1 <1>   0.1400 
 13 C        5.0980    -0.2850     0.8530 C.3   1 <1>  -0.0990 
 14 N        7.3440    -0.7690     0.3520 N.am  1 <1>  -0.6600 
 15 C        6.5470    -0.0330     1.1570 C.2   1 <1>   0.5690 
 16 C        8.8240    -0.7980     0.4290 C.3   1 <1>   0.2200 
 17 O        6.9070     0.7330     2.0150 O.2   1 <1>  -0.5700 
 18 C        9.4350    -0.2000    -0.8450 C.3   1 <1>  -0.1600 
 19 C        9.3280    -2.2260     0.6730 C.3   1 <1>  -0.1600 
 20 C       10.9700    -0.2360    -0.7870 C.3   1 <1>  -0.1600 
 21 C       10.8620    -2.2640     0.7340 C.3   1 <1>  -0.1600 
 22 C       11.4830    -1.6610    -0.5340 C.3   1 <1>  -0.1600 
 23 H       -1.6540    -1.9560     0.7090 H     1 <1>   0.1500 
 24 H        2.6940    -0.7810     0.0940 H     1 <1>   0.3700 
 25 H        2.1890    -4.1120    -1.4980 H     1 <1>   0.1500 
 26 H       -1.9230    -4.1470    -0.4170 H     1 <1>   0.1500 
 27 H        0.0150    -5.1980    -1.5090 H     1 <1>   0.1500 
 28 H        5.0630    -0.2850    -1.2880 H     1 <1>   0.0800 
 29 H        6.9540    -1.5470    -1.5870 H     1 <1>   0.0800 
 30 H        6.5850    -2.6270    -0.2450 H     1 <1>   0.0800 
 31 H        4.6980    -0.9120     1.6290 H     1 <1>   0.0800 
 32 H        4.5550     0.6400     0.8000 H     1 <1>   0.0800 
 33 H        9.1320    -0.1880     1.2640 H     1 <1>   0.0800 
 34 H        9.1060     0.8190    -0.9500 H     1 <1>   0.0800 
 35 H        9.1090    -0.7580    -1.7040 H     1 <1>   0.0800 
 36 H        9.0010    -2.8720    -0.1230 H     1 <1>   0.0800 
 37 H        8.9250    -2.5910     1.6010 H     1 <1>   0.0800 
 38 H       11.3100     0.4100     0.0040 H     1 <1>   0.0800 
 39 H       11.3750     0.1350    -1.7120 H     1 <1>   0.0800 
 40 H       11.1940    -3.2810     0.8510 H     1 <1>   0.0800 
 41 H       11.1970    -1.7070     1.5940 H     1 <1>   0.0800 
 42 H       12.5550    -1.6450    -0.4380 H     1 <1>   0.0800 
 43 H       11.2380    -2.2820    -1.3790 H     1 <1>   0.0800 
@<TRIPOS>BOND
  1   1   2  1   
  2   2   3  ar  
  3   2   4  ar  
  4   3   5  1   
  5   3   6  ar  
  6   4   7  ar  
  7   4  23  1   
  8   5   8  am  
  9   5  24  1   
 10   6   9  ar  
 11   6  25  1   
 12   7   9  ar  
 13   7  26  1   
 14   8  10  2   
 15   8  11  1   
 16   9  27  1   
 17  11  12  1   
 18  11  13  1   
 19  11  28  1   
 20  12  14  1   
 21  12  29  1   
 22  12  30  1   
 23  13  15  1   
 24  13  31  1   
 25  13  32  1   
 26  14  15  am  
 27  14  16  1   
 28  15  17  2   
 29  16  18  1   
 30  16  19  1   
 31  16  33  1   
 32  18  20  1   
 33  18  34  1   
 34  18  35  1   
 35  19  21  1   
 36  19  36  1   
 37  19  37  1   
 38  20  22  1   
 39  20  38  1   
 40  20  39  1   
 41  21  22  1   
 42  21  40  1   
 43  21  41  1   
 44  22  42  1   
 45  22  43  1   
@<TRIPOS>SUBSTRUCTURE
  1 ****  11 GROUP 4 **** **** 0

# MOE 2024.06 (io_trps.svl 2023.06)
