@<TRIPOS>MOLECULE
NONAME
57 59 1 0 0 
SMALL
USER_CHARGES


@<TRIPOS>ATOM
  1 O        0.3580    -0.4200    -1.9120 O.3   1 <1>  -0.3630 
  2 C       -0.0540    -1.2020    -0.8770 C.ar  1 <1>   0.0830 
  3 C       -0.5360     0.4410    -2.5850 C.3   1 <1>   0.0400 
  4 C        0.7910    -2.2300    -0.4650 C.ar  1 <1>  -0.1440 
  5 C       -1.2690    -1.0010    -0.2250 C.ar  1 <1>  -0.1500 
  6 C        0.4180    -3.0380     0.5970 C.ar  1 <1>  -0.1500 
  7 C        2.1220    -2.4930    -1.1590 C.3   1 <1>   0.2540 
  8 C       -1.6380    -1.8210     0.8360 C.ar  1 <1>   0.0830 
  9 C       -0.7880    -2.8350     1.2420 C.ar  1 <1>  -0.1500 
 10 N        3.2590    -2.0360    -0.3290 N.3   1 <1>  -0.8100 
 11 O       -2.8010    -1.6940     1.5230 O.3   1 <1>  -0.3630 
 12 C        3.1680    -0.5880    -0.0410 C.3   1 <1>   0.1100 
 13 C        4.5430    -2.3850    -0.9600 C.3   1 <1>   0.1100 
 14 C       -3.7580    -0.7160     1.1820 C.3   1 <1>   0.0400 
 15 C        4.3490    -0.1090     0.8220 C.3   1 <1>   0.3430 
 16 C        5.7350    -1.9250    -0.0960 C.3   1 <1>   0.3430 
 17 N        5.6760    -0.4500     0.1940 N.4   1 <1>  -0.9590 
 18 C        6.8320    -0.0260     1.0330 C.3   1 <1>   0.3430 
 19 C        6.9290     1.4980     1.1350 C.3   1 <1>  -0.1600 
 20 C        7.1090     2.2010    -0.2190 C.3   1 <1>  -0.0170 
 21 C        7.2290     3.6980    -0.0030 C.ar  1 <1>  -0.1430 
 22 C        6.1030     4.5060    -0.0410 C.ar  1 <1>  -0.1500 
 23 C        8.4690     4.2700     0.2410 C.ar  1 <1>  -0.1500 
 24 C        6.2140     5.8700     0.1640 C.ar  1 <1>  -0.1500 
 25 C        8.5800     5.6340     0.4460 C.ar  1 <1>  -0.1500 
 26 C        7.4530     6.4350     0.4080 C.ar  1 <1>  -0.1500 
 27 H       -1.3900    -0.1280    -2.9110 H     1 <1>   0.0800 
 28 H       -0.0270     0.8540    -3.4370 H     1 <1>   0.0800 
 29 H       -0.8310     1.2310    -1.9190 H     1 <1>   0.0800 
 30 H       -1.9200    -0.2120    -0.5350 H     1 <1>   0.1500 
 31 H        1.0690    -3.8290     0.9260 H     1 <1>   0.1500 
 32 H        2.1510    -2.0120    -2.1220 H     1 <1>   0.0800 
 33 H        2.2100    -3.5530    -1.3260 H     1 <1>   0.0800 
 34 H       -1.0790    -3.4630     2.0650 H     1 <1>   0.1500 
 35 H        2.2600    -0.3850     0.5020 H     1 <1>   0.0800 
 36 H        3.1310    -0.0280    -0.9600 H     1 <1>   0.0800 
 37 H        4.6100    -1.9380    -1.9380 H     1 <1>   0.0800 
 38 H        4.5970    -3.4550    -1.0800 H     1 <1>   0.0800 
 39 H       -4.5910    -0.8170     1.8540 H     1 <1>   0.0800 
 40 H       -4.0830    -0.8830     0.1700 H     1 <1>   0.0800 
 41 H       -3.3160     0.2580     1.2930 H     1 <1>   0.0800 
 42 H        4.2720    -0.5780     1.7890 H     1 <1>   0.0800 
 43 H        4.2670     0.9560     0.9620 H     1 <1>   0.0800 
 44 H        6.6530    -2.1630    -0.6060 H     1 <1>   0.0800 
 45 H        5.7130    -2.4770     0.8290 H     1 <1>   0.0800 
 46 H        5.7200     0.0400    -0.7070 H     1 <1>   0.4500 
 47 H        7.7460    -0.4020     0.6020 H     1 <1>   0.0800 
 48 H        6.7350    -0.4460     2.0220 H     1 <1>   0.0800 
 49 H        7.7820     1.7320     1.7490 H     1 <1>   0.0800 
 50 H        6.0710     1.8970     1.6450 H     1 <1>   0.0800 
 51 H        6.2720     2.0130    -0.8670 H     1 <1>   0.0800 
 52 H        7.9970     1.8410    -0.7110 H     1 <1>   0.0800 
 53 H        5.1320     4.0860    -0.2310 H     1 <1>   0.1500 
 54 H        9.3550     3.6620     0.2730 H     1 <1>   0.1500 
 55 H        5.3380     6.4950     0.1330 H     1 <1>   0.1500 
 56 H        9.5440     6.0740     0.6340 H     1 <1>   0.1500 
 57 H        7.5400     7.4960     0.5670 H     1 <1>   0.1500 
@<TRIPOS>BOND
  1   1   2  1   
  2   1   3  1   
  3   2   4  ar  
  4   2   5  ar  
  5   3  27  1   
  6   3  28  1   
  7   3  29  1   
  8   4   6  ar  
  9   4   7  1   
 10   5   8  ar  
 11   5  30  1   
 12   6   9  ar  
 13   6  31  1   
 14   7  10  1   
 15   7  32  1   
 16   7  33  1   
 17   8   9  ar  
 18   8  11  1   
 19   9  34  1   
 20  10  12  1   
 21  10  13  1   
 22  11  14  1   
 23  12  15  1   
 24  12  35  1   
 25  12  36  1   
 26  13  16  1   
 27  13  37  1   
 28  13  38  1   
 29  14  39  1   
 30  14  40  1   
 31  14  41  1   
 32  15  17  1   
 33  15  42  1   
 34  15  43  1   
 35  16  17  1   
 36  16  44  1   
 37  16  45  1   
 38  17  18  1   
 39  17  46  1   
 40  18  19  1   
 41  18  47  1   
 42  18  48  1   
 43  19  20  1   
 44  19  49  1   
 45  19  50  1   
 46  20  21  1   
 47  20  51  1   
 48  20  52  1   
 49  21  22  ar  
 50  21  23  ar  
 51  22  24  ar  
 52  22  53  1   
 53  23  25  ar  
 54  23  54  1   
 55  24  26  ar  
 56  24  55  1   
 57  25  26  ar  
 58  25  56  1   
 59  26  57  1   
@<TRIPOS>SUBSTRUCTURE
  1 ****  12 GROUP 4 **** **** 0

# MOE 2024.06 (io_trps.svl 2023.06)
