@<TRIPOS>MOLECULE
NONAME
48 50 1 0 0 
SMALL
USER_CHARGES


@<TRIPOS>ATOM
  1 F        1.5790     0.0650     1.3510 F     1 <1>  -0.1900 
  2 C        2.5020     0.1250     0.4310 C.ar  1 <1>   0.1900 
  3 C        3.2930     1.2560     0.3630 C.ar  1 <1>  -0.1500 
  4 C        2.6550    -0.9390    -0.4350 C.ar  1 <1>  -0.1500 
  5 C        4.2850     1.3230    -0.6060 C.ar  1 <1>  -0.1440 
  6 C        3.6390    -0.8640    -1.4060 C.ar  1 <1>  -0.1500 
  7 C        4.4470     0.2610    -1.4900 C.ar  1 <1>  -0.1500 
  8 C        5.1890     2.5380    -0.6970 C.3   1 <1>   0.4870 
  9 N        6.1510     2.5030     0.4380 N.4   1 <1>  -0.9590 
 10 C        6.9590     3.7750     0.4880 C.3   1 <1>   0.3430 
 11 C        7.0360     1.2800     0.3560 C.3   1 <1>   0.3430 
 12 C        8.0540     3.7350     1.5750 C.3   1 <1>   0.1400 
 13 C        8.1110     1.2580     1.4630 C.3   1 <1>   0.1400 
 14 N        8.9020     2.5170     1.4200 N.am  1 <1>  -0.6600 
 15 C        9.8970     2.5660     0.4900 C.2   1 <1>   0.6900 
 16 O        9.6560     3.0690    -0.5910 O.2   1 <1>  -0.5700 
 17 N       11.0830     1.9790     0.8010 N.am  1 <1>  -0.5470 
 18 C       12.2310     1.7090     0.0410 C.ar  1 <1>   0.1170 
 19 C       13.1340     0.7720     0.5270 C.ar  1 <1>  -0.1500 
 20 C       12.5180     2.3330    -1.1690 C.ar  1 <1>  -0.1500 
 21 C       14.2850     0.4510    -0.1690 C.ar  1 <1>   0.0830 
 22 C       13.6670     2.0210    -1.8750 C.ar  1 <1>  -0.1500 
 23 O       15.0950    -0.4820     0.3930 O.3   1 <1>  -0.3630 
 24 C       14.5530     1.0810    -1.3810 C.ar  1 <1>  -0.1500 
 25 C       16.2890    -0.8870    -0.2380 C.3   1 <1>   0.0400 
 26 H        3.1140     2.0540     1.0620 H     1 <1>   0.1500 
 27 H        2.0170    -1.8010    -0.3500 H     1 <1>   0.1500 
 28 H        3.7710    -1.6810    -2.0960 H     1 <1>   0.1500 
 29 H        5.2000     0.2940    -2.2610 H     1 <1>   0.1500 
 30 H        4.5880     3.4320    -0.6490 H     1 <1>   0.0800 
 31 H        5.7200     2.5340    -1.6350 H     1 <1>   0.0800 
 32 H        5.5990     2.4250     1.3000 H     1 <1>   0.4500 
 33 H        6.3120     4.6180     0.6680 H     1 <1>   0.0800 
 34 H        7.4440     3.9310    -0.4640 H     1 <1>   0.0800 
 35 H        7.5380     1.2640    -0.5980 H     1 <1>   0.0800 
 36 H        6.4360     0.3870     0.4290 H     1 <1>   0.0800 
 37 H        7.6090     3.7450     2.5550 H     1 <1>   0.0800 
 38 H        8.6730     4.6130     1.4850 H     1 <1>   0.0800 
 39 H        8.7620     0.4140     1.3060 H     1 <1>   0.0800 
 40 H        7.6520     1.1470     2.4300 H     1 <1>   0.0800 
 41 H       11.1310     1.6750     1.7690 H     1 <1>   0.3700 
 42 H       12.9490     0.2730     1.4590 H     1 <1>   0.1500 
 43 H       11.8520     3.0730    -1.5710 H     1 <1>   0.1500 
 44 H       13.8700     2.5130    -2.8100 H     1 <1>   0.1500 
 45 H       15.4370     0.8560    -1.9470 H     1 <1>   0.1500 
 46 H       16.7590    -1.6290     0.3820 H     1 <1>   0.0800 
 47 H       16.9360    -0.0340    -0.3420 H     1 <1>   0.0800 
 48 H       16.0500    -1.3110    -1.1970 H     1 <1>   0.0800 
@<TRIPOS>BOND
  1   1   2  1   
  2   2   3  ar  
  3   2   4  ar  
  4   3   5  ar  
  5   3  26  1   
  6   4   6  ar  
  7   4  27  1   
  8   5   7  ar  
  9   5   8  1   
 10   6   7  ar  
 11   6  28  1   
 12   7  29  1   
 13   8   9  1   
 14   8  30  1   
 15   8  31  1   
 16   9  10  1   
 17   9  11  1   
 18   9  32  1   
 19  10  12  1   
 20  10  33  1   
 21  10  34  1   
 22  11  13  1   
 23  11  35  1   
 24  11  36  1   
 25  12  14  1   
 26  12  37  1   
 27  12  38  1   
 28  13  14  1   
 29  13  39  1   
 30  13  40  1   
 31  14  15  am  
 32  15  16  2   
 33  15  17  am  
 34  17  18  1   
 35  17  41  1   
 36  18  19  ar  
 37  18  20  ar  
 38  19  21  ar  
 39  19  42  1   
 40  20  22  ar  
 41  20  43  1   
 42  21  23  1   
 43  21  24  ar  
 44  22  24  ar  
 45  22  44  1   
 46  23  25  1   
 47  24  45  1   
 48  25  46  1   
 49  25  47  1   
 50  25  48  1   
@<TRIPOS>SUBSTRUCTURE
  1 ****  13 GROUP 4 **** **** 0

# MOE 2024.06 (io_trps.svl 2023.06)
