@<TRIPOS>MOLECULE
NONAME
48 51 1 0 0 
SMALL
USER_CHARGES


@<TRIPOS>ATOM
  1 O        0.1980     1.3460     1.7740 O.2   1 <1>  -0.5700 
  2 C        0.4990     2.1070     0.8910 C.2   1 <1>   0.5690 
  3 N        1.5350     2.0050    -0.0270 N.am  1 <1>  -0.2370 
  4 C       -0.1990     3.4050     0.6180 C.3   1 <1>  -0.0190 
  5 C        2.6110     1.0900     0.0390 C.ar  1 <1>   0.1170 
  6 C        1.3340     2.9480    -1.0250 C.2   1 <1>   0.5690 
  7 C       -1.5200     4.1430     0.8770 C.3   1 <1>   0.1960 
  8 C       -0.0850     3.4240    -0.9080 C.3   1 <1>  -0.0190 
  9 C        3.9180     1.5080    -0.1910 C.ar  1 <1>  -0.1500 
 10 C        2.3890    -0.2520     0.3340 C.ar  1 <1>  -0.1500 
 11 O        2.1080     3.3280    -1.8660 O.2   1 <1>  -0.5700 
 12 C       -1.1060     5.3600     0.0550 C.2   1 <1>  -0.2760 
 13 C       -2.6580     3.7100    -0.0380 C.2   1 <1>  -0.2880 
 14 C       -0.9480     4.6510    -1.2820 C.3   1 <1>   0.1960 
 15 C        4.9750     0.6170    -0.1320 C.ar  1 <1>  -0.1500 
 16 C        3.4420    -1.1470     0.3950 C.ar  1 <1>  -0.1500 
 17 C       -0.9280     6.6450     0.3960 C.2   1 <1>  -0.2760 
 18 C       -2.3500     4.0590    -1.2890 C.2   1 <1>  -0.2880 
 19 C        4.7400    -0.7230     0.1630 C.ar  1 <1>   0.0830 
 20 C       -0.5000     7.7350    -0.5780 C.3   1 <1>  -0.1020 
 21 C       -1.1290     7.1990     1.8000 C.3   1 <1>  -0.1020 
 22 O        5.7140    -1.6660     0.2400 O.3   1 <1>  -0.3630 
 23 C        7.0640    -1.3380     0.0050 C.3   1 <1>   0.1200 
 24 C        7.8980    -2.6100     0.1590 C.3   1 <1>  -0.1600 
 25 C        9.3870    -2.3350    -0.0810 C.3   1 <1>  -0.2400 
 26 H        0.5280     4.0890     1.0350 H     1 <1>   0.0800 
 27 H       -1.7750     4.3380     1.9020 H     1 <1>   0.0800 
 28 H       -0.6090     2.5750    -1.3190 H     1 <1>   0.0800 
 29 H        4.1150     2.5400    -0.4230 H     1 <1>   0.1500 
 30 H        1.3900    -0.6030     0.5210 H     1 <1>   0.1500 
 31 H       -3.5280     3.2250     0.3700 H     1 <1>   0.1500 
 32 H       -0.6690     5.2210    -2.1510 H     1 <1>   0.0800 
 33 H        5.9670     0.9820    -0.3190 H     1 <1>   0.1500 
 34 H        3.2640    -2.1820     0.6250 H     1 <1>   0.1500 
 35 H       -2.8950     3.9510    -2.2120 H     1 <1>   0.1500 
 36 H       -1.2530     8.5020    -0.6240 H     1 <1>   0.0800 
 37 H       -0.3550     7.3530    -1.5700 H     1 <1>   0.0800 
 38 H        0.4240     8.1780    -0.2540 H     1 <1>   0.0800 
 39 H       -0.2140     7.6370     2.1580 H     1 <1>   0.0800 
 40 H       -1.4280     6.4380     2.4940 H     1 <1>   0.0800 
 41 H       -1.8920     7.9570     1.7880 H     1 <1>   0.0800 
 42 H        7.1500    -0.9460    -0.9930 H     1 <1>   0.0800 
 43 H        7.3640    -0.5980     0.7270 H     1 <1>   0.0800 
 44 H        7.7650    -3.0010     1.1530 H     1 <1>   0.0800 
 45 H        7.5540    -3.3450    -0.5480 H     1 <1>   0.0800 
 46 H        9.7560    -1.6150     0.6270 H     1 <1>   0.0800 
 47 H        9.5440    -1.9580    -1.0770 H     1 <1>   0.0800 
 48 H        9.9500    -3.2450     0.0320 H     1 <1>   0.0800 
@<TRIPOS>BOND
  1   1   2  2   
  2   2   3  am  
  3   2   4  1   
  4   3   5  1   
  5   3   6  am  
  6   4   7  1   
  7   4   8  1   
  8   4  26  1   
  9   5   9  ar  
 10   5  10  ar  
 11   6   8  1   
 12   6  11  2   
 13   7  12  1   
 14   7  13  1   
 15   7  27  1   
 16   8  14  1   
 17   8  28  1   
 18   9  15  ar  
 19   9  29  1   
 20  10  16  ar  
 21  10  30  1   
 22  12  14  1   
 23  12  17  2   
 24  13  18  2   
 25  13  31  1   
 26  14  18  1   
 27  14  32  1   
 28  15  19  ar  
 29  15  33  1   
 30  16  19  ar  
 31  16  34  1   
 32  17  20  1   
 33  17  21  1   
 34  18  35  1   
 35  19  22  1   
 36  20  36  1   
 37  20  37  1   
 38  20  38  1   
 39  21  39  1   
 40  21  40  1   
 41  21  41  1   
 42  22  23  1   
 43  23  24  1   
 44  23  42  1   
 45  23  43  1   
 46  24  25  1   
 47  24  44  1   
 48  24  45  1   
 49  25  46  1   
 50  25  47  1   
 51  25  48  1   
@<TRIPOS>SUBSTRUCTURE
  1 ****   3 GROUP 4 **** **** 0

# MOE 2024.06 (io_trps.svl 2023.06)
