@<TRIPOS>MOLECULE
NONAME
49 50 1 0 0 
SMALL
USER_CHARGES


@<TRIPOS>ATOM
  1 O       -0.0560    -0.3940     1.1630 O.2   1 <1>  -0.5700 
  2 C       -0.0310    -0.9740     0.0960 C.2   1 <1>   0.6900 
  3 N        1.1290    -1.3180    -0.5300 N.am  1 <1>  -0.5470 
  4 N       -1.2000    -1.3000    -0.5120 N.am  1 <1>  -0.7300 
  5 C        2.4640    -1.0160    -0.2240 C.ar  1 <1>   0.1170 
  6 C       -2.5130    -1.0240     0.0860 C.3   1 <1>   0.2200 
  7 C        3.4660    -1.8440    -0.7170 C.ar  1 <1>  -0.1500 
  8 C        2.8390     0.0870     0.5350 C.ar  1 <1>  -0.1500 
  9 C       -3.5300    -2.0560    -0.3880 C.3   1 <1>  -0.1600 
 10 C       -2.9620     0.3810    -0.3000 C.3   1 <1>  -0.1600 
 11 C        4.7990    -1.5820    -0.4570 C.ar  1 <1>  -0.1500 
 12 C        4.1710     0.3500     0.7970 C.ar  1 <1>  -0.1500 
 13 C       -4.9090    -1.7330     0.1840 C.3   1 <1>   0.3430 
 14 C       -4.3440     0.6690     0.2750 C.3   1 <1>   0.3430 
 15 C        5.1620    -0.4830     0.3040 C.ar  1 <1>  -0.1430 
 16 N       -5.3360    -0.3490    -0.2080 N.4   1 <1>  -0.9590 
 17 C        6.6260    -0.1940     0.5940 C.3   1 <1>  -0.0170 
 18 C       -6.7280    -0.0360     0.2370 C.3   1 <1>   0.4230 
 19 C        7.2250     0.6960    -0.4970 C.3   1 <1>  -0.2400 
 20 C       -7.7070    -1.0650    -0.3340 C.3   1 <1>  -0.2400 
 21 C       -7.1380     1.3540    -0.2550 C.3   1 <1>  -0.2400 
 22 H        1.0130    -1.9930    -1.2770 H     1 <1>   0.3700 
 23 H       -1.1800    -1.5920    -1.4860 H     1 <1>   0.3700 
 24 H       -2.4260    -1.0840     1.1600 H     1 <1>   0.0800 
 25 H        3.2070    -2.7030    -1.3070 H     1 <1>   0.1500 
 26 H        2.0900     0.7510     0.9260 H     1 <1>   0.1500 
 27 H       -3.2310    -3.0300    -0.0430 H     1 <1>   0.0800 
 28 H       -3.5820    -2.0760    -1.4610 H     1 <1>   0.0800 
 29 H       -2.9800     0.4970    -1.3690 H     1 <1>   0.0800 
 30 H       -2.2660     1.0960     0.1040 H     1 <1>   0.0800 
 31 H        5.5570    -2.2370    -0.8500 H     1 <1>   0.1500 
 32 H        4.4340     1.2100     1.3880 H     1 <1>   0.1500 
 33 H       -4.8800    -1.8130     1.2590 H     1 <1>   0.0800 
 34 H       -5.6110    -2.4610    -0.1880 H     1 <1>   0.0800 
 35 H       -4.6410     1.6580    -0.0310 H     1 <1>   0.0800 
 36 H       -4.2960     0.6500     1.3520 H     1 <1>   0.0800 
 37 H       -5.3470    -0.3050    -1.2340 H     1 <1>   0.4500 
 38 H        7.1740    -1.1190     0.6480 H     1 <1>   0.0800 
 39 H        6.7160     0.2940     1.5480 H     1 <1>   0.0800 
 40 H       -6.7830    -0.0580     1.3150 H     1 <1>   0.0800 
 41 H        7.1540     0.2080    -1.4530 H     1 <1>   0.0800 
 42 H        8.2600     0.8970    -0.2860 H     1 <1>   0.0800 
 43 H        6.6920     1.6290    -0.5470 H     1 <1>   0.0800 
 44 H       -7.6110    -1.1440    -1.4020 H     1 <1>   0.0800 
 45 H       -8.7170    -0.7640    -0.1150 H     1 <1>   0.0800 
 46 H       -7.5750    -2.0310     0.1170 H     1 <1>   0.0800 
 47 H       -7.0000     1.4480    -1.3180 H     1 <1>   0.0800 
 48 H       -6.5960     2.1300     0.2530 H     1 <1>   0.0800 
 49 H       -8.1790     1.5220    -0.0410 H     1 <1>   0.0800 
@<TRIPOS>BOND
  1   1   2  2   
  2   2   3  am  
  3   2   4  am  
  4   3   5  1   
  5   3  22  1   
  6   4   6  1   
  7   4  23  1   
  8   5   7  ar  
  9   5   8  ar  
 10   6   9  1   
 11   6  10  1   
 12   6  24  1   
 13   7  11  ar  
 14   7  25  1   
 15   8  12  ar  
 16   8  26  1   
 17   9  13  1   
 18   9  27  1   
 19   9  28  1   
 20  10  14  1   
 21  10  29  1   
 22  10  30  1   
 23  11  15  ar  
 24  11  31  1   
 25  12  15  ar  
 26  12  32  1   
 27  13  16  1   
 28  13  33  1   
 29  13  34  1   
 30  14  16  1   
 31  14  35  1   
 32  14  36  1   
 33  15  17  1   
 34  16  18  1   
 35  16  37  1   
 36  17  19  1   
 37  17  38  1   
 38  17  39  1   
 39  18  20  1   
 40  18  21  1   
 41  18  40  1   
 42  19  41  1   
 43  19  42  1   
 44  19  43  1   
 45  20  44  1   
 46  20  45  1   
 47  20  46  1   
 48  21  47  1   
 49  21  48  1   
 50  21  49  1   
@<TRIPOS>SUBSTRUCTURE
  1 ****   2 GROUP 4 **** **** 0

# MOE 2024.06 (io_trps.svl 2023.06)
