@<TRIPOS>MOLECULE
NONAME
30 31 1 0 0 
SMALL
USER_CHARGES


@<TRIPOS>ATOM
  1 O       -0.3420    -0.1370    -0.2790 O.2   1 <1>  -0.5700 
  2 C       -0.5220    -1.3410    -0.3890 C.2   1 <1>   0.6390 
  3 N        0.5810    -2.1640    -0.7620 N.pl3 1 <1>   0.5610 
  4 N       -1.7880    -1.8510    -0.1070 N.am  1 <1>  -0.6600 
  5 N        0.5720    -3.1570    -1.7040 N.2   1 <1>  -0.4180 
  6 C        1.8360    -2.1200    -0.2210 C.ar  1 <1>  -0.1520 
  7 C       -2.1210    -3.3030    -0.0840 C.3   1 <1>   0.1400 
  8 C       -2.9150    -0.9500     0.2600 C.3   1 <1>   0.1400 
  9 N        1.7160    -3.7170    -1.7600 N.2   1 <1>  -0.2270 
 10 C        2.5300    -3.1100    -0.8630 C.ar  1 <1>   0.2270 
 11 C        2.4440    -1.3290     0.7590 C.ar  1 <1>  -0.1500 
 12 C       -1.6140    -3.9230     1.2160 C.3   1 <1>  -0.2400 
 13 C       -3.7410    -0.6430    -0.9860 C.3   1 <1>  -0.2400 
 14 C        3.8650    -3.3550    -0.5440 C.ar  1 <1>  -0.1500 
 15 C        3.7630    -1.5710     1.0740 C.ar  1 <1>  -0.1500 
 16 C        4.4760    -2.5860     0.4230 C.ar  1 <1>  -0.1500 
 17 H       -1.6940    -3.8060    -0.9330 H     1 <1>   0.0800 
 18 H       -3.1880    -3.4310    -0.1470 H     1 <1>   0.0800 
 19 H       -2.5390    -0.0310     0.6790 H     1 <1>   0.0800 
 20 H       -3.5300    -1.4210     1.0070 H     1 <1>   0.0800 
 21 H        1.8880    -0.5460     1.2500 H     1 <1>   0.1500 
 22 H       -0.5420    -3.8670     1.2740 H     1 <1>   0.0800 
 23 H       -1.8960    -4.9590     1.2530 H     1 <1>   0.0800 
 24 H       -2.0450    -3.4220     2.0640 H     1 <1>   0.0800 
 25 H       -3.1280    -0.1510    -1.7210 H     1 <1>   0.0800 
 26 H       -4.5530     0.0130    -0.7290 H     1 <1>   0.0800 
 27 H       -4.1490    -1.5440    -1.4060 H     1 <1>   0.0800 
 28 H        4.3890    -4.1380    -1.0600 H     1 <1>   0.1500 
 29 H        4.2590    -0.9790     1.8240 H     1 <1>   0.1500 
 30 H        5.5060    -2.7570     0.6850 H     1 <1>   0.1500 
@<TRIPOS>BOND
  1   1   2  2   
  2   2   3  1   
  3   2   4  am  
  4   3   5  1   
  5   3   6  1   
  6   4   7  1   
  7   4   8  1   
  8   5   9  2   
  9   6  10  ar  
 10   6  11  ar  
 11   7  12  1   
 12   7  17  1   
 13   7  18  1   
 14   8  13  1   
 15   8  19  1   
 16   8  20  1   
 17   9  10  1   
 18  10  14  ar  
 19  11  15  ar  
 20  11  21  1   
 21  12  22  1   
 22  12  23  1   
 23  12  24  1   
 24  13  25  1   
 25  13  26  1   
 26  13  27  1   
 27  14  16  ar  
 28  14  28  1   
 29  15  16  ar  
 30  15  29  1   
 31  16  30  1   
@<TRIPOS>SUBSTRUCTURE
  1 ****   3 GROUP 4 **** **** 0

# MOE 2024.06 (io_trps.svl 2023.06)
