@<TRIPOS>MOLECULE
NONAME
41 42 1 0 0 
SMALL
USER_CHARGES


@<TRIPOS>ATOM
  1 S       -0.1510     0.4510     0.8660 S.o2  1 <1>   1.5760 
  2 O       -0.2120     0.9340     2.2210 O.2   1 <1>  -0.6500 
  3 O       -0.4790    -0.9050     0.4970 O.2   1 <1>  -0.6500 
  4 N        1.3510     0.8510     0.2230 N.am  1 <1>  -0.8490 
  5 N       -1.0730     1.5450    -0.0620 N.am  1 <1>  -0.7570 
  6 C        1.5810     0.3520    -1.1220 C.3   1 <1>   0.1960 
  7 C        2.4520     0.3420     1.0180 C.3   1 <1>   0.1960 
  8 C       -2.4480     1.4490    -0.2300 C.ar  1 <1>   0.1990 
  9 C        3.0860     0.4810    -1.3150 C.3   1 <1>  -0.1600 
 10 C        3.6650     0.4420     0.1000 C.3   1 <1>  -0.1600 
 11 C       -3.0270     0.3130    -0.7770 C.ar  1 <1>  -0.1500 
 12 C       -3.2570     2.5120     0.1450 C.ar  1 <1>  -0.1500 
 13 C       -4.4040     0.2210    -0.9400 C.ar  1 <1>   0.0830 
 14 C       -4.6370     2.4470    -0.0160 C.ar  1 <1>   0.0830 
 15 O       -5.0100    -0.8900    -1.4540 O.3   1 <1>  -0.3630 
 16 C       -5.2070     1.2980    -0.5620 C.ar  1 <1>   0.0830 
 17 O       -5.4680     3.4670     0.3500 O.3   1 <1>  -0.3630 
 18 C       -4.2750    -2.0600    -1.7420 C.3   1 <1>   0.0400 
 19 O       -6.5580     1.2340    -0.7410 O.3   1 <1>  -0.3630 
 20 C       -4.9700     4.6920     0.8390 C.3   1 <1>   0.0400 
 21 C       -7.2640     0.6610     0.3320 C.3   1 <1>   0.0400 
 22 H       -0.7230     2.4630     0.1770 H     1 <1>   0.4200 
 23 H        1.0280     0.9230    -1.8500 H     1 <1>   0.0800 
 24 H        1.2990    -0.6870    -1.1930 H     1 <1>   0.0800 
 25 H        2.2730    -0.6900     1.2770 H     1 <1>   0.0800 
 26 H        2.5770     0.9210     1.9190 H     1 <1>   0.0800 
 27 H        3.3090     1.4240    -1.7830 H     1 <1>   0.0800 
 28 H        3.4640    -0.3160    -1.9310 H     1 <1>   0.0800 
 29 H        4.3210    -0.3970     0.2460 H     1 <1>   0.0800 
 30 H        4.2040     1.3500     0.3080 H     1 <1>   0.0800 
 31 H       -2.3810    -0.4890    -1.0740 H     1 <1>   0.1500 
 32 H       -2.7900     3.3780     0.5660 H     1 <1>   0.1500 
 33 H       -4.9660    -2.8130    -2.0750 H     1 <1>   0.0800 
 34 H       -3.7760    -2.3890    -0.8470 H     1 <1>   0.0800 
 35 H       -3.5670    -1.8440    -2.5220 H     1 <1>   0.0800 
 36 H       -5.8070     5.3400     1.0240 H     1 <1>   0.0800 
 37 H       -4.3280     5.1300     0.0950 H     1 <1>   0.0800 
 38 H       -4.4370     4.5120     1.7560 H     1 <1>   0.0800 
 39 H       -8.3100     0.6680     0.0860 H     1 <1>   0.0800 
 40 H       -7.0860     1.2480     1.2150 H     1 <1>   0.0800 
 41 H       -6.9220    -0.3490     0.4730 H     1 <1>   0.0800 
@<TRIPOS>BOND
  1   1   2  2   
  2   1   3  2   
  3   1   4  am  
  4   1   5  am  
  5   4   6  1   
  6   4   7  1   
  7   5   8  1   
  8   5  22  1   
  9   6   9  1   
 10   6  23  1   
 11   6  24  1   
 12   7  10  1   
 13   7  25  1   
 14   7  26  1   
 15   8  11  ar  
 16   8  12  ar  
 17   9  10  1   
 18   9  27  1   
 19   9  28  1   
 20  10  29  1   
 21  10  30  1   
 22  11  13  ar  
 23  11  31  1   
 24  12  14  ar  
 25  12  32  1   
 26  13  15  1   
 27  13  16  ar  
 28  14  16  ar  
 29  14  17  1   
 30  15  18  1   
 31  16  19  1   
 32  17  20  1   
 33  18  33  1   
 34  18  34  1   
 35  18  35  1   
 36  19  21  1   
 37  20  36  1   
 38  20  37  1   
 39  20  38  1   
 40  21  39  1   
 41  21  40  1   
 42  21  41  1   
@<TRIPOS>SUBSTRUCTURE
  1 ****   8 GROUP 4 **** **** 0

# MOE 2024.06 (io_trps.svl 2023.06)
