@<TRIPOS>MOLECULE
NONAME
50 52 1 0 0 
SMALL
USER_CHARGES


@<TRIPOS>ATOM
  1 S       -0.7050     0.9410    -1.5710 S.o2  1 <1>   1.4470 
  2 O       -0.2380    -0.3570    -2.0100 O.2   1 <1>  -0.6500 
  3 O       -1.0430     1.9270    -2.5770 O.2   1 <1>  -0.6500 
  4 N        0.5130     1.6390    -0.6170 N.am  1 <1>  -0.8490 
  5 C       -2.0980     0.7260    -0.4120 C.ar  1 <1>  -0.0090 
  6 C        0.1310     2.9850    -0.1730 C.3   1 <1>   0.1960 
  7 C        1.8090     1.6150    -1.3070 C.3   1 <1>   0.1960 
  8 C       -2.0680    -0.1610     0.6690 C.ar  1 <1>  -0.1440 
  9 C       -3.2440     1.4920    -0.5870 C.ar  1 <1>  -0.1500 
 10 C        1.0670     3.5630     0.8960 C.3   1 <1>  -0.1600 
 11 C        2.9520     1.5890    -0.2890 C.3   1 <1>  -0.1600 
 12 C       -3.1570    -0.2550     1.5220 C.ar  1 <1>  -0.1500 
 13 C       -0.8560    -1.0410     0.9520 C.3   1 <1>  -0.0970 
 14 C       -4.3490     1.4120     0.2530 C.ar  1 <1>   0.0860 
 15 C        2.4020     4.0600     0.3230 C.3   1 <1>  -0.1600 
 16 C        3.4660     2.9650     0.1630 C.3   1 <1>  -0.1600 
 17 C       -4.2790     0.5210     1.3190 C.ar  1 <1>  -0.1500 
 18 C       -5.5180     2.2380     0.0220 C.2   1 <1>   0.5440 
 19 O       -5.3880     3.4430    -0.0830 O.2   1 <1>  -0.5700 
 20 N       -6.7740     1.6910    -0.0940 N.am  1 <1>  -0.6600 
 21 C       -7.0590     0.2580    -0.3260 C.3   1 <1>   0.1400 
 22 C       -7.9700     2.5190    -0.3620 C.3   1 <1>   0.1400 
 23 C       -8.4030     0.2430    -1.0440 C.3   1 <1>  -0.1600 
 24 C       -9.1000     1.5190    -0.5790 C.3   1 <1>  -0.1600 
 25 H       -0.8540     2.9420     0.2610 H     1 <1>   0.0800 
 26 H        0.0800     3.6530    -1.0180 H     1 <1>   0.0800 
 27 H        1.9010     2.4440    -1.9900 H     1 <1>   0.0800 
 28 H        1.8910     0.7110    -1.8870 H     1 <1>   0.0800 
 29 H       -3.2930     2.1890    -1.4080 H     1 <1>   0.1500 
 30 H        1.2200     2.8490     1.6860 H     1 <1>   0.0800 
 31 H        0.5650     4.4110     1.3260 H     1 <1>   0.0800 
 32 H        3.7810     1.0610    -0.7280 H     1 <1>   0.0800 
 33 H        2.6390     1.0150     0.5660 H     1 <1>   0.0800 
 34 H       -3.1360    -0.9360     2.3560 H     1 <1>   0.1500 
 35 H       -0.7160    -1.7490     0.1550 H     1 <1>   0.0800 
 36 H       -0.9800    -1.5920     1.8670 H     1 <1>   0.0800 
 37 H        0.0330    -0.4430     1.0460 H     1 <1>   0.0800 
 38 H        2.8020     4.8160     0.9780 H     1 <1>   0.0800 
 39 H        2.2270     4.5330    -0.6280 H     1 <1>   0.0800 
 40 H        4.1990     3.3150    -0.5440 H     1 <1>   0.0800 
 41 H        3.9750     2.8350     1.1030 H     1 <1>   0.0800 
 42 H       -5.1140     0.4470     1.9940 H     1 <1>   0.1500 
 43 H       -7.1390    -0.2430     0.6240 H     1 <1>   0.0800 
 44 H       -6.2900    -0.2050    -0.9210 H     1 <1>   0.0800 
 45 H       -7.8010     3.1030    -1.2510 H     1 <1>   0.0800 
 46 H       -8.1690     3.1770     0.4670 H     1 <1>   0.0800 
 47 H       -8.9710    -0.6420    -0.8160 H     1 <1>   0.0800 
 48 H       -8.2320     0.2870    -2.1050 H     1 <1>   0.0800 
 49 H       -9.8180     1.8800    -1.2940 H     1 <1>   0.0800 
 50 H       -9.5970     1.3460     0.3590 H     1 <1>   0.0800 
@<TRIPOS>BOND
  1   1   2  2   
  2   1   3  2   
  3   1   4  am  
  4   1   5  1   
  5   4   6  1   
  6   4   7  1   
  7   5   8  ar  
  8   5   9  ar  
  9   6  10  1   
 10   6  25  1   
 11   6  26  1   
 12   7  11  1   
 13   7  27  1   
 14   7  28  1   
 15   8  12  ar  
 16   8  13  1   
 17   9  14  ar  
 18   9  29  1   
 19  10  15  1   
 20  10  30  1   
 21  10  31  1   
 22  11  16  1   
 23  11  32  1   
 24  11  33  1   
 25  12  17  ar  
 26  12  34  1   
 27  13  35  1   
 28  13  36  1   
 29  13  37  1   
 30  14  17  ar  
 31  14  18  1   
 32  15  16  1   
 33  15  38  1   
 34  15  39  1   
 35  16  40  1   
 36  16  41  1   
 37  17  42  1   
 38  18  19  2   
 39  18  20  am  
 40  20  21  1   
 41  20  22  1   
 42  21  23  1   
 43  21  43  1   
 44  21  44  1   
 45  22  24  1   
 46  22  45  1   
 47  22  46  1   
 48  23  24  1   
 49  23  47  1   
 50  23  48  1   
 51  24  49  1   
 52  24  50  1   
@<TRIPOS>SUBSTRUCTURE
  1 ****   9 GROUP 4 **** **** 0

# MOE 2024.06 (io_trps.svl 2023.06)
