@<TRIPOS>MOLECULE
NONAME
34 34 1 0 0 
SMALL
USER_CHARGES


@<TRIPOS>ATOM
  1 O        0.4020    -1.2020    -1.9560 O.co2 1 <1>  -0.9000 
  2 C        0.2790    -1.5660    -0.7710 C.2   1 <1>   0.9790 
  3 O       -0.7100    -1.1710    -0.1270 O.co2 1 <1>  -0.9000 
  4 C        1.3500    -2.3210    -0.1470 C.ar  1 <1>  -0.1790 
  5 C        1.1700    -3.5160     0.5510 C.ar  1 <1>   0.0820 
  6 C        2.6520    -1.8340    -0.2430 C.ar  1 <1>  -0.1500 
  7 O       -0.0450    -4.0800     0.6520 O.3   1 <1>  -0.5320 
  8 C        2.2400    -4.1640     1.1490 C.ar  1 <1>  -0.1500 
  9 C        3.7400    -2.4670     0.3390 C.ar  1 <1>   0.1170 
 10 C        3.5160    -3.6440     1.0450 C.ar  1 <1>  -0.1500 
 11 N        5.0050    -1.8810     0.1690 N.am  1 <1>  -0.5470 
 12 C        6.2330    -2.1480     0.7100 C.2   1 <1>   0.5690 
 13 O        6.4390    -3.0300     1.5100 O.2   1 <1>  -0.5700 
 14 C        7.4010    -1.2600     0.2700 C.3   1 <1>  -0.0190 
 15 C        8.4820    -2.1320    -0.4120 C.3   1 <1>  -0.1600 
 16 C        7.9360    -0.4460     1.4740 C.3   1 <1>  -0.1600 
 17 C        9.6460    -1.3460    -1.0300 C.3   1 <1>  -0.2400 
 18 C        8.3520     0.9870     1.1100 C.3   1 <1>  -0.2400 
 19 H        2.7940    -0.9230    -0.7980 H     1 <1>   0.1500 
 20 H       -0.0740    -4.8310     1.2610 H     1 <1>   0.4500 
 21 H        2.0850    -5.0770     1.6900 H     1 <1>   0.1500 
 22 H        4.3320    -4.1630     1.5100 H     1 <1>   0.1500 
 23 H        4.9830    -1.0890    -0.4700 H     1 <1>   0.3700 
 24 H        7.0230    -0.5720    -0.4630 H     1 <1>   0.0800 
 25 H        8.0110    -2.7040    -1.1930 H     1 <1>   0.0800 
 26 H        8.8750    -2.8370     0.3020 H     1 <1>   0.0800 
 27 H        8.7600    -0.9670     1.9320 H     1 <1>   0.0800 
 28 H        7.1620    -0.3750     2.2200 H     1 <1>   0.0800 
 29 H        9.2800    -0.5790    -1.6900 H     1 <1>   0.0800 
 30 H       10.2730    -2.0120    -1.5950 H     1 <1>   0.0800 
 31 H       10.2490    -0.8960    -0.2620 H     1 <1>   0.0800 
 32 H        9.1410     0.9980     0.3820 H     1 <1>   0.0800 
 33 H        8.7030     1.4960     1.9910 H     1 <1>   0.0800 
 34 H        7.5130     1.5340     0.7180 H     1 <1>   0.0800 
@<TRIPOS>BOND
  1   1   2  ar  
  2   2   3  ar  
  3   2   4  1   
  4   4   5  ar  
  5   4   6  ar  
  6   5   7  1   
  7   5   8  ar  
  8   6   9  ar  
  9   6  19  1   
 10   7  20  1   
 11   8  10  ar  
 12   8  21  1   
 13   9  10  ar  
 14   9  11  1   
 15  10  22  1   
 16  11  12  am  
 17  11  23  1   
 18  12  13  2   
 19  12  14  1   
 20  14  15  1   
 21  14  16  1   
 22  14  24  1   
 23  15  17  1   
 24  15  25  1   
 25  15  26  1   
 26  16  18  1   
 27  16  27  1   
 28  16  28  1   
 29  17  29  1   
 30  17  30  1   
 31  17  31  1   
 32  18  32  1   
 33  18  33  1   
 34  18  34  1   
@<TRIPOS>SUBSTRUCTURE
  1 ****   9 GROUP 4 **** **** 0

# MOE 2024.06 (io_trps.svl 2023.06)
