@<TRIPOS>MOLECULE
NONAME
50 52 1 0 0 
SMALL
USER_CHARGES


@<TRIPOS>ATOM
  1 O       -1.6270    -0.5980     0.1250 O.2   1 <1>  -0.5700 
  2 C       -1.3410    -1.4030    -0.7400 C.2   1 <1>   0.6900 
  3 N       -2.2430    -1.6370    -1.7360 N.am  1 <1>  -0.6600 
  4 N       -0.1870    -2.1230    -0.7480 N.am  1 <1>  -0.5470 
  5 C       -3.0990    -2.8450    -1.5840 C.3   1 <1>   0.1400 
  6 C       -2.9880    -0.4600    -2.2710 C.3   1 <1>   0.1400 
  7 C        0.8680    -2.2180     0.1710 C.ar  1 <1>   0.1170 
  8 C       -4.3120    -2.5220    -0.6830 C.3   1 <1>   0.3430 
  9 C       -4.2040    -0.1380    -1.3780 C.3   1 <1>   0.3430 
 10 C        2.0750    -2.7560    -0.2600 C.ar  1 <1>  -0.1500 
 11 C        0.7620    -1.8170     1.5000 C.ar  1 <1>  -0.1500 
 12 N       -5.1040    -1.3370    -1.1800 N.4   1 <1>  -0.9590 
 13 C        3.1530    -2.8920     0.6000 C.ar  1 <1>  -0.1440 
 14 C        1.8320    -1.9490     2.3660 C.ar  1 <1>  -0.1500 
 15 C       -6.2150    -1.0420    -0.2210 C.3   1 <1>   0.3430 
 16 C        3.0260    -2.4860     1.9180 C.ar  1 <1>  -0.1500 
 17 C        4.4660    -3.4800     0.1160 C.3   1 <1>  -0.0970 
 18 C       -7.2120    -0.0230    -0.7770 C.3   1 <1>  -0.0170 
 19 C       -8.3520     0.1210     0.2120 C.ar  1 <1>  -0.1440 
 20 C       -9.5180    -0.6130     0.0520 C.ar  1 <1>  -0.1500 
 21 C       -8.2320     0.9820     1.2930 C.ar  1 <1>  -0.1500 
 22 C      -10.5490    -0.4910     0.9660 C.ar  1 <1>  -0.1500 
 23 C       -9.2630     1.1030     2.2070 C.ar  1 <1>  -0.1500 
 24 C      -10.4220     0.3650     2.0440 C.ar  1 <1>  -0.1500 
 25 H       -0.0240    -2.5900    -1.6350 H     1 <1>   0.3700 
 26 H       -2.5280    -3.6410    -1.1360 H     1 <1>   0.0800 
 27 H       -3.4310    -3.1800    -2.5520 H     1 <1>   0.0800 
 28 H       -3.3050    -0.6590    -3.2800 H     1 <1>   0.0800 
 29 H       -2.3320     0.3950    -2.2950 H     1 <1>   0.0800 
 30 H       -3.9430    -2.3150     0.3090 H     1 <1>   0.0800 
 31 H       -4.9470    -3.3900    -0.6230 H     1 <1>   0.0800 
 32 H       -4.7570     0.6730    -1.8210 H     1 <1>   0.0800 
 33 H       -3.8350     0.1980    -0.4220 H     1 <1>   0.0800 
 34 H        2.1750    -3.0710    -1.2820 H     1 <1>   0.1500 
 35 H       -0.1550    -1.4010     1.8710 H     1 <1>   0.1500 
 36 H       -5.5120    -1.5890    -2.0900 H     1 <1>   0.4500 
 37 H        1.7360    -1.6330     3.3900 H     1 <1>   0.1500 
 38 H       -5.8100    -0.6720     0.7080 H     1 <1>   0.0800 
 39 H       -6.7530    -1.9510    -0.0030 H     1 <1>   0.0800 
 40 H        3.8530    -2.5850     2.5980 H     1 <1>   0.1500 
 41 H        4.5000    -3.5140    -0.9580 H     1 <1>   0.0800 
 42 H        4.5800    -4.4780     0.4980 H     1 <1>   0.0800 
 43 H        5.2880    -2.8790     0.4620 H     1 <1>   0.0800 
 44 H       -7.6000    -0.3560    -1.7230 H     1 <1>   0.0800 
 45 H       -6.7460     0.9370    -0.9110 H     1 <1>   0.0800 
 46 H       -9.6410    -1.2820    -0.7820 H     1 <1>   0.1500 
 47 H       -7.3410     1.5690     1.4360 H     1 <1>   0.1500 
 48 H      -11.4540    -1.0610     0.8390 H     1 <1>   0.1500 
 49 H       -9.1680     1.7720     3.0450 H     1 <1>   0.1500 
 50 H      -11.2260     0.4600     2.7550 H     1 <1>   0.1500 
@<TRIPOS>BOND
  1   1   2  2   
  2   2   3  am  
  3   2   4  am  
  4   3   5  1   
  5   3   6  1   
  6   4   7  1   
  7   4  25  1   
  8   5   8  1   
  9   5  26  1   
 10   5  27  1   
 11   6   9  1   
 12   6  28  1   
 13   6  29  1   
 14   7  10  ar  
 15   7  11  ar  
 16   8  12  1   
 17   8  30  1   
 18   8  31  1   
 19   9  12  1   
 20   9  32  1   
 21   9  33  1   
 22  10  13  ar  
 23  10  34  1   
 24  11  14  ar  
 25  11  35  1   
 26  12  15  1   
 27  12  36  1   
 28  13  16  ar  
 29  13  17  1   
 30  14  16  ar  
 31  14  37  1   
 32  15  18  1   
 33  15  38  1   
 34  15  39  1   
 35  16  40  1   
 36  17  41  1   
 37  17  42  1   
 38  17  43  1   
 39  18  19  1   
 40  18  44  1   
 41  18  45  1   
 42  19  20  ar  
 43  19  21  ar  
 44  20  22  ar  
 45  20  46  1   
 46  21  23  ar  
 47  21  47  1   
 48  22  24  ar  
 49  22  48  1   
 50  23  24  ar  
 51  23  49  1   
 52  24  50  1   
@<TRIPOS>SUBSTRUCTURE
  1 ****   1 GROUP 4 **** **** 0

# MOE 2024.06 (io_trps.svl 2023.06)
