@<TRIPOS>MOLECULE
NONAME
52 53 1 0 0 
SMALL
USER_CHARGES


@<TRIPOS>ATOM
  1 O        1.1700    -0.4880     0.8930 O.2   1 <1>  -0.5700 
  2 C        1.7430    -1.4060     0.3420 C.2   1 <1>   0.7800 
  3 O        2.9010    -1.2330    -0.2880 O.3   1 <1>  -0.4300 
  4 N        1.2700    -2.6710     0.3130 N.am  1 <1>  -0.7300 
  5 C        3.6190    -0.0280    -0.4400 C.3   1 <1>   0.2800 
  6 C       -0.0430    -3.2060     0.7480 C.3   1 <1>   0.3000 
  7 C        4.8610    -0.4040    -1.2500 C.3   1 <1>  -0.2400 
  8 C        4.0530     0.5080     0.9300 C.3   1 <1>  -0.2400 
  9 C        2.7880     0.9880    -1.2310 C.3   1 <1>  -0.2400 
 10 C       -0.1390    -4.7270     0.3810 C.3   1 <1>  -0.0190 
 11 C       -1.1710    -2.3950     0.0360 C.3   1 <1>   0.0000 
 12 C       -0.1020    -3.0270     2.2740 C.3   1 <1>  -0.2400 
 13 C        1.2150    -5.4340     0.3190 C.2   1 <1>   0.5690 
 14 C       -1.0200    -5.0290    -0.8710 C.3   1 <1>  -0.1600 
 15 C       -2.6000    -3.0490    -0.1060 C.3   1 <1>   0.0000 
 16 C       -1.0540    -2.5970    -1.5140 C.3   1 <1>   0.0000 
 17 O        1.9400    -5.2480    -0.6310 O.2   1 <1>  -0.5700 
 18 N        1.5780    -6.2560     1.3410 N.am  1 <1>  -0.7300 
 19 C       -1.9390    -3.8550    -1.2780 C.3   1 <1>   0.0000 
 20 C       -3.6980    -2.0470    -0.5460 C.3   1 <1>  -0.2400 
 21 C       -3.2050    -3.8650     1.0560 C.3   1 <1>  -0.2400 
 22 C        2.8650    -6.9930     1.4260 C.3   1 <1>   0.0600 
 23 H        1.8270    -3.3320    -0.2410 H     1 <1>   0.3700 
 24 H        5.4420    -1.1370    -0.7210 H     1 <1>   0.0800 
 25 H        5.4750     0.4610    -1.4180 H     1 <1>   0.0800 
 26 H        4.5730    -0.8080    -2.2040 H     1 <1>   0.0800 
 27 H        4.7150     1.3440     0.8030 H     1 <1>   0.0800 
 28 H        4.5680    -0.2560     1.4830 H     1 <1>   0.0800 
 29 H        3.2070     0.8470     1.4980 H     1 <1>   0.0800 
 30 H        3.3860     1.8490    -1.4660 H     1 <1>   0.0800 
 31 H        1.9430     1.3260    -0.6600 H     1 <1>   0.0800 
 32 H        2.4410     0.5510    -2.1500 H     1 <1>   0.0800 
 33 H       -0.6410    -5.2050     1.1950 H     1 <1>   0.0800 
 34 H       -1.2190    -1.3610     0.3260 H     1 <1>   0.0000 
 35 H       -1.0010    -3.4470     2.6810 H     1 <1>   0.0800 
 36 H       -0.0900    -1.9840     2.5320 H     1 <1>   0.0800 
 37 H        0.7400    -3.5070     2.7400 H     1 <1>   0.0800 
 38 H       -0.3890    -5.2550    -1.7140 H     1 <1>   0.0800 
 39 H       -1.6180    -5.9040    -0.6860 H     1 <1>   0.0800 
 40 H       -1.5140    -1.8300    -2.1090 H     1 <1>   0.0000 
 41 H       -0.0720    -2.8260    -1.8880 H     1 <1>   0.0000 
 42 H        0.9500    -6.3760     2.1380 H     1 <1>   0.3700 
 43 H       -2.5960    -4.0760    -2.1010 H     1 <1>   0.0000 
 44 H       -4.5570    -2.5810    -0.9100 H     1 <1>   0.0800 
 45 H       -3.3910    -1.3650    -1.3140 H     1 <1>   0.0800 
 46 H       -4.0040    -1.4530     0.2970 H     1 <1>   0.0800 
 47 H       -2.6290    -4.7070     1.3630 H     1 <1>   0.0800 
 48 H       -4.1670    -4.2470     0.7640 H     1 <1>   0.0800 
 49 H       -3.3480    -3.2260     1.9100 H     1 <1>   0.0800 
 50 H        3.4600    -6.8140     0.5470 H     1 <1>   0.0800 
 51 H        2.6760    -8.0490     1.5070 H     1 <1>   0.0800 
 52 H        3.4160    -6.6630     2.2890 H     1 <1>   0.0800 
@<TRIPOS>BOND
  1   1   2  2   
  2   2   3  1   
  3   2   4  am  
  4   3   5  1   
  5   4   6  1   
  6   4  23  1   
  7   5   7  1   
  8   5   8  1   
  9   5   9  1   
 10   6  10  1   
 11   6  11  1   
 12   6  12  1   
 13   7  24  1   
 14   7  25  1   
 15   7  26  1   
 16   8  27  1   
 17   8  28  1   
 18   8  29  1   
 19   9  30  1   
 20   9  31  1   
 21   9  32  1   
 22  10  13  1   
 23  10  14  1   
 24  10  33  1   
 25  11  15  1   
 26  11  16  1   
 27  11  34  1   
 28  12  35  1   
 29  12  36  1   
 30  12  37  1   
 31  13  17  2   
 32  13  18  am  
 33  14  19  1   
 34  14  38  1   
 35  14  39  1   
 36  15  19  1   
 37  15  20  1   
 38  15  21  1   
 39  16  19  1   
 40  16  40  1   
 41  16  41  1   
 42  18  22  1   
 43  18  42  1   
 44  19  43  1   
 45  20  44  1   
 46  20  45  1   
 47  20  46  1   
 48  21  47  1   
 49  21  48  1   
 50  21  49  1   
 51  22  50  1   
 52  22  51  1   
 53  22  52  1   
@<TRIPOS>SUBSTRUCTURE
  1 ****   4 GROUP 4 **** **** 0

# MOE 2024.06 (io_trps.svl 2023.06)
