@<TRIPOS>MOLECULE
NONAME
55 58 1 0 0 
SMALL
USER_CHARGES


@<TRIPOS>ATOM
  1 S        0.2080     0.3710    -0.5110 S.o2  1 <1>   1.4470 
  2 O       -0.2720     1.0090     0.6970 O.2   1 <1>  -0.6500 
  3 O        0.4510     1.1750    -1.6890 O.2   1 <1>  -0.6500 
  4 N        1.6640    -0.4000    -0.1130 N.am  1 <1>  -0.8490 
  5 C       -0.8770    -1.0140    -0.9590 C.ar  1 <1>  -0.0090 
  6 C        1.5660    -1.1430     1.1480 C.3   1 <1>   0.1960 
  7 C        2.7750     0.5550    -0.0740 C.3   1 <1>   0.1960 
  8 C       -2.0630    -1.2510    -0.2800 C.ar  1 <1>  -0.1500 
  9 C       -0.5420    -1.8760    -1.9920 C.ar  1 <1>  -0.1500 
 10 C        2.8470    -1.9460     1.3900 C.3   1 <1>  -0.1600 
 11 C        4.1020    -0.1810     0.1370 C.3   1 <1>  -0.1600 
 12 C       -2.9230    -2.3020    -0.6000 C.ar  1 <1>   0.0860 
 13 C       -1.3650    -2.9320    -2.3330 C.ar  1 <1>  -0.1500 
 14 C        4.0780    -1.0310     1.4140 C.3   1 <1>  -0.0800 
 15 C       -2.5490    -3.1510    -1.6500 C.ar  1 <1>  -0.1440 
 16 C       -4.1580    -2.4640     0.1520 C.2   1 <1>   0.5440 
 17 C        5.3660    -1.8500     1.5510 C.3   1 <1>  -0.2400 
 18 C       -3.4280    -4.3240    -2.0670 C.3   1 <1>  -0.0970 
 19 O       -4.4080    -3.5310     0.6800 O.2   1 <1>  -0.5700 
 20 N       -5.0500    -1.4170     0.3160 N.am  1 <1>  -0.4770 
 21 C       -5.0740    -0.2190    -0.4520 C.ar  1 <1>   0.1170 
 22 C       -5.9570    -1.4490     1.5220 C.3   1 <1>   0.2010 
 23 C       -5.3820     1.0050     0.1660 C.ar  1 <1>   0.1170 
 24 C       -4.7960    -0.2190    -1.8160 C.ar  1 <1>  -0.1500 
 25 C       -6.0580    -0.0950     2.2220 C.2   1 <1>   0.5690 
 26 N       -5.7560     1.0240     1.5160 N.am  1 <1>  -0.5470 
 27 C       -5.3380     2.1840    -0.5620 C.ar  1 <1>  -0.1500 
 28 C       -4.7630     0.9620    -2.5370 C.ar  1 <1>  -0.1500 
 29 O       -6.4140    -0.0220     3.3720 O.2   1 <1>  -0.5700 
 30 C       -5.0250     2.1650    -1.9090 C.ar  1 <1>  -0.1500 
 31 H        0.7330    -1.8240     1.1080 H     1 <1>   0.0800 
 32 H        1.4050    -0.4600     1.9680 H     1 <1>   0.0800 
 33 H        2.6160     1.2690     0.7180 H     1 <1>   0.0800 
 34 H        2.8270     1.0930    -1.0060 H     1 <1>   0.0800 
 35 H       -2.3360    -0.5920     0.5280 H     1 <1>   0.1500 
 36 H        0.3770    -1.7150    -2.5330 H     1 <1>   0.1500 
 37 H        2.9460    -2.6800     0.6080 H     1 <1>   0.0800 
 38 H        2.7650    -2.4690     2.3260 H     1 <1>   0.0800 
 39 H        4.8980     0.5390     0.1940 H     1 <1>   0.0800 
 40 H        4.2850    -0.8060    -0.7200 H     1 <1>   0.0800 
 41 H       -1.0730    -3.5840    -3.1390 H     1 <1>   0.1500 
 42 H        4.0000    -0.3720     2.2630 H     1 <1>   0.0800 
 43 H        5.4790    -2.5220     0.7190 H     1 <1>   0.0800 
 44 H        5.3470    -2.4270     2.4580 H     1 <1>   0.0800 
 45 H        6.2210    -1.1970     1.5840 H     1 <1>   0.0800 
 46 H       -4.4450    -4.0020    -2.2050 H     1 <1>   0.0800 
 47 H       -3.4090    -5.0840    -1.3050 H     1 <1>   0.0800 
 48 H       -3.0860    -4.7600    -2.9890 H     1 <1>   0.0800 
 49 H       -5.6000    -2.1630     2.2420 H     1 <1>   0.0800 
 50 H       -6.9390    -1.7510     1.2090 H     1 <1>   0.0800 
 51 H       -4.6010    -1.1440    -2.3270 H     1 <1>   0.1500 
 52 H       -5.8530     1.9090     2.0130 H     1 <1>   0.3700 
 53 H       -5.5550     3.1200    -0.0810 H     1 <1>   0.1500 
 54 H       -4.5310     0.9440    -3.5890 H     1 <1>   0.1500 
 55 H       -4.9920     3.0840    -2.4700 H     1 <1>   0.1500 
@<TRIPOS>BOND
  1   1   2  2   
  2   1   3  2   
  3   1   4  am  
  4   1   5  1   
  5   4   6  1   
  6   4   7  1   
  7   5   8  ar  
  8   5   9  ar  
  9   6  10  1   
 10   6  31  1   
 11   6  32  1   
 12   7  11  1   
 13   7  33  1   
 14   7  34  1   
 15   8  12  ar  
 16   8  35  1   
 17   9  13  ar  
 18   9  36  1   
 19  10  14  1   
 20  10  37  1   
 21  10  38  1   
 22  11  14  1   
 23  11  39  1   
 24  11  40  1   
 25  12  15  ar  
 26  12  16  1   
 27  13  15  ar  
 28  13  41  1   
 29  14  17  1   
 30  14  42  1   
 31  15  18  1   
 32  16  19  2   
 33  16  20  am  
 34  17  43  1   
 35  17  44  1   
 36  17  45  1   
 37  18  46  1   
 38  18  47  1   
 39  18  48  1   
 40  20  21  1   
 41  20  22  1   
 42  21  23  ar  
 43  21  24  ar  
 44  22  25  1   
 45  22  49  1   
 46  22  50  1   
 47  23  26  1   
 48  23  27  ar  
 49  24  28  ar  
 50  24  51  1   
 51  25  26  am  
 52  25  29  2   
 53  26  52  1   
 54  27  30  ar  
 55  27  53  1   
 56  28  30  ar  
 57  28  54  1   
 58  30  55  1   
@<TRIPOS>SUBSTRUCTURE
  1 ****   8 GROUP 4 **** **** 0

# MOE 2024.06 (io_trps.svl 2023.06)
