@<TRIPOS>MOLECULE
NONAME
58 61 1 0 0 
SMALL
USER_CHARGES


@<TRIPOS>ATOM
  1 S       -1.1860     3.8870    -0.2210 S.3   1 <1>  -0.3710 
  2 C        0.2100     2.9240    -0.7760 C.2   1 <1>   0.6410 
  3 C       -1.7350     3.1570     1.3920 C.3   1 <1>   0.1310 
  4 N        0.4170     1.7120    -0.1820 N.pl3 1 <1>  -0.5500 
  5 N        0.9330     3.4290    -1.7030 N.2   1 <1>  -0.6610 
  6 C       -2.4330     1.8260     1.1490 C.2   1 <1>   0.5690 
  7 C        1.4780     0.9350    -0.5480 C.2   1 <1>  -0.0380 
  8 C        2.0070     2.6880    -2.1040 C.2   1 <1>   0.7670 
  9 O       -1.7940     0.8350     1.4140 O.2   1 <1>  -0.5700 
 10 N       -3.7030     1.7370     0.6270 N.am  1 <1>  -0.6600 
 11 C        2.2840     1.4230    -1.5160 C.2   1 <1>  -0.1360 
 12 C        1.6530    -0.3970     0.1510 C.3   1 <1>  -0.1020 
 13 O        2.7310     3.1310    -2.9810 O.2   1 <1>  -0.5700 
 14 C       -4.3100     0.3970     0.3340 C.3   1 <1>   0.1400 
 15 C       -4.5050     2.9040     0.1320 C.3   1 <1>   0.1400 
 16 C       -5.7790     0.3300     0.7870 C.3   1 <1>   0.3430 
 17 C       -5.9800     2.8070     0.5720 C.3   1 <1>   0.3430 
 18 N       -6.5920     1.4720     0.2370 N.4   1 <1>  -0.9590 
 19 C       -8.0150     1.3820     0.6660 C.3   1 <1>   0.7100 
 20 C       -8.6170     0.0440     0.2390 C.ar  1 <1>  -0.1440 
 21 C       -8.7900     2.5860     0.1410 C.ar  1 <1>  -0.1440 
 22 C       -8.4100    -0.5160    -1.0200 C.ar  1 <1>  -0.1500 
 23 C       -9.3930    -0.6500     1.1590 C.ar  1 <1>  -0.1500 
 24 C       -9.2650     3.5220     1.0520 C.ar  1 <1>  -0.1500 
 25 C       -9.0200     2.7920    -1.2150 C.ar  1 <1>  -0.1500 
 26 C       -8.9610    -1.7430    -1.3420 C.ar  1 <1>  -0.1500 
 27 C       -9.9430    -1.8770     0.8350 C.ar  1 <1>  -0.1500 
 28 C       -9.9440     4.6460     0.6180 C.ar  1 <1>  -0.1500 
 29 C       -9.7000     3.9170    -1.6480 C.ar  1 <1>  -0.1500 
 30 C       -9.7260    -2.4250    -0.4150 C.ar  1 <1>  -0.1500 
 31 C      -10.1590     4.8450    -0.7330 C.ar  1 <1>  -0.1500 
 32 H       -2.3880     3.8650     1.8640 H     1 <1>   0.0800 
 33 H       -0.8560     3.0260     1.9970 H     1 <1>   0.0800 
 34 H       -0.2640     1.3520     0.5000 H     1 <1>   0.4000 
 35 H        3.1460     0.9030    -1.8840 H     1 <1>   0.1500 
 36 H        1.7800    -0.2450     1.2080 H     1 <1>   0.0800 
 37 H        2.5180    -0.9120    -0.2270 H     1 <1>   0.0800 
 38 H        0.7880    -1.0150    -0.0100 H     1 <1>   0.0800 
 39 H       -3.7630    -0.3830     0.8360 H     1 <1>   0.0800 
 40 H       -4.2470     0.2040    -0.7230 H     1 <1>   0.0800 
 41 H       -4.4530     2.9330    -0.9440 H     1 <1>   0.0800 
 42 H       -4.0990     3.8320     0.4940 H     1 <1>   0.0800 
 43 H       -5.8040     0.3510     1.8640 H     1 <1>   0.0800 
 44 H       -6.1980    -0.6120     0.4690 H     1 <1>   0.0800 
 45 H       -6.5360     3.5990     0.0950 H     1 <1>   0.0800 
 46 H       -6.0300     2.9700     1.6360 H     1 <1>   0.0800 
 47 H       -6.6220     1.3880    -0.7820 H     1 <1>   0.4500 
 48 H       -8.0460     1.4210     1.7430 H     1 <1>   0.0800 
 49 H       -7.8270    -0.0190    -1.7730 H     1 <1>   0.1500 
 50 H       -9.5880    -0.2480     2.1390 H     1 <1>   0.1500 
 51 H       -9.1200     3.3930     2.1120 H     1 <1>   0.1500 
 52 H       -8.6900     2.0900    -1.9580 H     1 <1>   0.1500 
 53 H       -8.8010    -2.1730    -2.3170 H     1 <1>   0.1500 
 54 H      -10.5460    -2.4080     1.5530 H     1 <1>   0.1500 
 55 H      -10.3140     5.3680     1.3280 H     1 <1>   0.1500 
 56 H       -9.8800     4.0720    -2.6990 H     1 <1>   0.1500 
 57 H      -10.1560    -3.3800    -0.6670 H     1 <1>   0.1500 
 58 H      -10.6910     5.7190    -1.0720 H     1 <1>   0.1500 
@<TRIPOS>BOND
  1   1   2  1   
  2   1   3  1   
  3   2   4  1   
  4   2   5  2   
  5   3   6  1   
  6   3  32  1   
  7   3  33  1   
  8   4   7  1   
  9   4  34  1   
 10   5   8  1   
 11   6   9  2   
 12   6  10  am  
 13   7  11  2   
 14   7  12  1   
 15   8  11  1   
 16   8  13  2   
 17  10  14  1   
 18  10  15  1   
 19  11  35  1   
 20  12  36  1   
 21  12  37  1   
 22  12  38  1   
 23  14  16  1   
 24  14  39  1   
 25  14  40  1   
 26  15  17  1   
 27  15  41  1   
 28  15  42  1   
 29  16  18  1   
 30  16  43  1   
 31  16  44  1   
 32  17  18  1   
 33  17  45  1   
 34  17  46  1   
 35  18  19  1   
 36  18  47  1   
 37  19  20  1   
 38  19  21  1   
 39  19  48  1   
 40  20  22  ar  
 41  20  23  ar  
 42  21  24  ar  
 43  21  25  ar  
 44  22  26  ar  
 45  22  49  1   
 46  23  27  ar  
 47  23  50  1   
 48  24  28  ar  
 49  24  51  1   
 50  25  29  ar  
 51  25  52  1   
 52  26  30  ar  
 53  26  53  1   
 54  27  30  ar  
 55  27  54  1   
 56  28  31  ar  
 57  28  55  1   
 58  29  31  ar  
 59  29  56  1   
 60  30  57  1   
 61  31  58  1   
@<TRIPOS>SUBSTRUCTURE
  1 ****  10 GROUP 4 **** **** 0

# MOE 2024.06 (io_trps.svl 2023.06)
