@<TRIPOS>MOLECULE
NONAME
39 40 1 0 0 
SMALL
USER_CHARGES


@<TRIPOS>ATOM
  1 S       -0.1270     0.8980     1.0550 S.o2  1 <1>   1.4470 
  2 O       -0.5740     1.7650     2.1250 O.2   1 <1>  -0.6500 
  3 O        0.1500    -0.4840     1.3860 O.2   1 <1>  -0.6500 
  4 N       -1.3610     0.8550    -0.1080 N.am  1 <1>  -0.8490 
  5 C        1.3220     1.5560     0.1820 C.ar  1 <1>  -0.0090 
  6 C       -2.4870     0.0280     0.3580 C.3   1 <1>   0.1960 
  7 C       -1.8630     2.1950    -0.4620 C.3   1 <1>   0.1960 
  8 C        1.5470     2.9220     0.0290 C.ar  1 <1>   0.0830 
  9 C        2.2540     0.6870    -0.3760 C.ar  1 <1>  -0.1500 
 10 C       -3.6330     0.0020    -0.6700 C.3   1 <1>   0.1200 
 11 C       -3.0270     2.1150    -1.4660 C.3   1 <1>   0.1200 
 12 O        0.6720     3.8260     0.5170 O.3   1 <1>  -0.3630 
 13 C        2.6570     3.3940    -0.6570 C.ar  1 <1>  -0.1500 
 14 C        3.3780     1.1400    -1.0530 C.ar  1 <1>   0.1170 
 15 O       -4.0530     1.3010    -0.9730 O.3   1 <1>  -0.5600 
 16 C        1.0430     4.4770     1.7120 C.3   1 <1>   0.0400 
 17 C        3.5670     2.5080    -1.1950 C.ar  1 <1>  -0.1500 
 18 N        4.2830     0.2180    -1.5900 N.am  1 <1>  -0.5470 
 19 C        5.6320     0.1230    -1.4660 C.2   1 <1>   0.5690 
 20 O        6.2300    -0.7360    -2.0590 O.2   1 <1>  -0.5700 
 21 C        6.4040     1.0680    -0.5760 C.3   1 <1>  -0.1790 
 22 H       -2.8630     0.4100     1.2930 H     1 <1>   0.0800 
 23 H       -2.1500    -0.9810     0.5240 H     1 <1>   0.0800 
 24 H       -1.0730     2.7690    -0.9110 H     1 <1>   0.0800 
 25 H       -2.1980     2.7160     0.4200 H     1 <1>   0.0800 
 26 H        2.1050    -0.3750    -0.2760 H     1 <1>   0.1500 
 27 H       -4.4770    -0.5320    -0.2720 H     1 <1>   0.0800 
 28 H       -3.3130    -0.4790    -1.5780 H     1 <1>   0.0800 
 29 H       -2.6890     1.7110    -2.4040 H     1 <1>   0.0800 
 30 H       -3.4380     3.0940    -1.6370 H     1 <1>   0.0800 
 31 H        2.7970     4.4550    -0.7740 H     1 <1>   0.1500 
 32 H        0.2360     5.1230     2.0080 H     1 <1>   0.0800 
 33 H        1.9340     5.0540     1.5400 H     1 <1>   0.0800 
 34 H        1.2130     3.7380     2.4760 H     1 <1>   0.0800 
 35 H        4.4200     2.8770    -1.7360 H     1 <1>   0.1500 
 36 H        3.8880    -0.5520    -2.1320 H     1 <1>   0.3700 
 37 H        6.6100     1.9780    -1.1070 H     1 <1>   0.0800 
 38 H        7.3360     0.6130    -0.2960 H     1 <1>   0.0800 
 39 H        5.8460     1.2850     0.3140 H     1 <1>   0.0800 
@<TRIPOS>BOND
  1   1   2  2   
  2   1   3  2   
  3   1   4  am  
  4   1   5  1   
  5   4   6  1   
  6   4   7  1   
  7   5   8  ar  
  8   5   9  ar  
  9   6  10  1   
 10   6  22  1   
 11   6  23  1   
 12   7  11  1   
 13   7  24  1   
 14   7  25  1   
 15   8  12  1   
 16   8  13  ar  
 17   9  14  ar  
 18   9  26  1   
 19  10  15  1   
 20  10  27  1   
 21  10  28  1   
 22  11  15  1   
 23  11  29  1   
 24  11  30  1   
 25  12  16  1   
 26  13  17  ar  
 27  13  31  1   
 28  14  17  ar  
 29  14  18  1   
 30  16  32  1   
 31  16  33  1   
 32  16  34  1   
 33  17  35  1   
 34  18  19  am  
 35  18  36  1   
 36  19  20  2   
 37  19  21  1   
 38  21  37  1   
 39  21  38  1   
 40  21  39  1   
@<TRIPOS>SUBSTRUCTURE
  1 ****   5 GROUP 4 **** **** 0

# MOE 2024.06 (io_trps.svl 2023.06)
