@<TRIPOS>MOLECULE
NONAME
39 40 1 0 0 
SMALL
USER_CHARGES


@<TRIPOS>ATOM
  1 O       -0.6760    -0.5770     0.7770 O.3   1 <1>  -0.3630 
  2 C       -1.6780    -0.9020    -0.0920 C.ar  1 <1>   0.0830 
  3 C        0.5390    -1.2870     0.8450 C.3   1 <1>   0.0400 
  4 C       -1.6250    -1.8430    -1.1360 C.ar  1 <1>   0.0830 
  5 C       -2.8580    -0.2030     0.1130 C.ar  1 <1>  -0.1500 
  6 O       -0.5280    -2.5720    -1.4340 O.3   1 <1>  -0.5330 
  7 C       -2.7420    -2.0560    -1.9270 C.ar  1 <1>  -0.1500 
  8 C       -3.9780    -0.4100    -0.6810 C.ar  1 <1>  -0.1440 
  9 C       -3.9080    -1.3470    -1.7020 C.ar  1 <1>  -0.1500 
 10 C       -5.2590     0.3970    -0.4320 C.3   1 <1>   0.5330 
 11 N       -6.4820    -0.4920    -0.3230 N.pl3 1 <1>  -0.4870 
 12 C       -5.3830     1.4450    -1.4990 C.1   1 <1>   0.3570 
 13 N       -6.3600    -1.7040     0.3080 N.2   1 <1>  -0.5030 
 14 C       -7.8750     0.0360    -0.1770 C.3   1 <1>   0.2700 
 15 N       -5.4890     2.2720    -2.2780 N.1   1 <1>  -0.5570 
 16 C       -7.4710    -2.0910     0.7480 C.2   1 <1>   0.3280 
 17 C       -8.6030    -1.1350     0.5050 C.3   1 <1>  -0.0990 
 18 C       -8.4900     0.3110    -1.5530 C.3   1 <1>  -0.2400 
 19 C       -7.9210     1.2860     0.7120 C.3   1 <1>  -0.2400 
 20 C       -7.7280    -3.3880     1.4800 C.3   1 <1>  -0.1790 
 21 H        1.1100    -0.8960     1.6670 H     1 <1>   0.0800 
 22 H        1.0770    -1.1440    -0.0740 H     1 <1>   0.0800 
 23 H        0.3260    -2.3280     1.0080 H     1 <1>   0.0800 
 24 H       -2.8820     0.5130     0.9140 H     1 <1>   0.1500 
 25 H       -0.6760    -3.1720    -2.1840 H     1 <1>   0.4500 
 26 H       -2.7190    -2.7750    -2.7250 H     1 <1>   0.1500 
 27 H       -4.7730    -1.5290    -2.3190 H     1 <1>   0.1500 
 28 H       -5.1540     0.9080     0.5060 H     1 <1>   0.0800 
 29 H       -9.3350    -1.5890    -0.1370 H     1 <1>   0.0800 
 30 H       -9.0640    -0.8480     1.4310 H     1 <1>   0.0800 
 31 H       -8.3700    -0.5460    -2.1920 H     1 <1>   0.0800 
 32 H       -8.0350     1.1620    -2.0240 H     1 <1>   0.0800 
 33 H       -9.5400     0.5190    -1.4540 H     1 <1>   0.0800 
 34 H       -7.4370     1.0960     1.6540 H     1 <1>   0.0800 
 35 H       -8.9430     1.5560     0.9080 H     1 <1>   0.0800 
 36 H       -7.4540     2.1260     0.2320 H     1 <1>   0.0800 
 37 H       -8.4420    -3.9790     0.9380 H     1 <1>   0.0800 
 38 H       -8.1040    -3.1850     2.4650 H     1 <1>   0.0800 
 39 H       -6.8110    -3.9420     1.5650 H     1 <1>   0.0800 
@<TRIPOS>BOND
  1   1   2  1   
  2   1   3  1   
  3   2   4  ar  
  4   2   5  ar  
  5   3  21  1   
  6   3  22  1   
  7   3  23  1   
  8   4   6  1   
  9   4   7  ar  
 10   5   8  ar  
 11   5  24  1   
 12   6  25  1   
 13   7   9  ar  
 14   7  26  1   
 15   8   9  ar  
 16   8  10  1   
 17   9  27  1   
 18  10  11  1   
 19  10  12  1   
 20  10  28  1   
 21  11  13  1   
 22  11  14  1   
 23  12  15  3   
 24  13  16  2   
 25  14  17  1   
 26  14  18  1   
 27  14  19  1   
 28  16  17  1   
 29  16  20  1   
 30  17  29  1   
 31  17  30  1   
 32  18  31  1   
 33  18  32  1   
 34  18  33  1   
 35  19  34  1   
 36  19  35  1   
 37  19  36  1   
 38  20  37  1   
 39  20  38  1   
 40  20  39  1   
@<TRIPOS>SUBSTRUCTURE
  1 ****   8 GROUP 4 **** **** 0

# MOE 2024.06 (io_trps.svl 2023.06)
