@<TRIPOS>MOLECULE
NONAME
43 44 1 0 0 
SMALL
USER_CHARGES


@<TRIPOS>ATOM
  1 BR       0.1150     0.2110    -1.4710 Br    1 <1>  -0.1110 
  2 C        2.0150     0.0430    -1.2040 C.ar  1 <1>   0.1110 
  3 C        2.4770    -0.7480    -0.1710 C.ar  1 <1>  -0.1500 
  4 C        2.8700     0.7180    -2.0530 C.ar  1 <1>  -0.1500 
  5 C        3.8440    -0.8650     0.0130 C.ar  1 <1>  -0.1500 
  6 C        4.2340     0.5920    -1.8540 C.ar  1 <1>  -0.1500 
  7 C        4.7400    -0.1950    -0.8210 C.ar  1 <1>   0.1170 
  8 N        6.1330    -0.2940    -0.6790 N.am  1 <1>  -0.5470 
  9 C        6.9000    -0.6400     0.4000 C.2   1 <1>   0.5690 
 10 O        6.4560    -0.9070     1.4880 O.2   1 <1>  -0.5700 
 11 C        8.4000    -0.6910     0.2230 C.3   1 <1>  -0.0990 
 12 C        8.8950    -2.1210     0.4460 C.3   1 <1>   0.1100 
 13 N       10.3470    -2.2230     0.2110 N.3   1 <1>  -0.8100 
 14 C       11.1340    -1.6490     1.3370 C.3   1 <1>   0.1100 
 15 C       10.7390    -3.6380    -0.0050 C.3   1 <1>   0.1100 
 16 C       12.6600    -1.8650     1.1770 C.3   1 <1>   0.3430 
 17 C       12.2540    -3.7980    -0.2870 C.3   1 <1>   0.3430 
 18 N       12.9790    -2.4900    -0.1470 N.4   1 <1>  -0.9590 
 19 C       14.4340    -2.5530    -0.4230 C.3   1 <1>   0.3430 
 20 C       14.6640    -2.8320    -1.9040 C.3   1 <1>  -0.2400 
 21 H        1.7850    -1.2610     0.4720 H     1 <1>   0.1500 
 22 H        2.4740     1.3260    -2.8470 H     1 <1>   0.1500 
 23 H        4.2080    -1.4840     0.8120 H     1 <1>   0.1500 
 24 H        4.9090     1.1160    -2.5070 H     1 <1>   0.1500 
 25 H        6.6550    -0.0200    -1.5080 H     1 <1>   0.3700 
 26 H        8.8330    -0.0250     0.9440 H     1 <1>   0.0800 
 27 H        8.6700    -0.3650    -0.7640 H     1 <1>   0.0800 
 28 H        8.3740    -2.7640    -0.2450 H     1 <1>   0.0800 
 29 H        8.6500    -2.4480     1.4450 H     1 <1>   0.0800 
 30 H       10.8160    -2.0870     2.2690 H     1 <1>   0.0800 
 31 H       10.9490    -0.5910     1.4020 H     1 <1>   0.0800 
 32 H       10.1910    -4.0380    -0.8420 H     1 <1>   0.0800 
 33 H       10.4780    -4.2240     0.8600 H     1 <1>   0.0800 
 34 H       13.0130    -2.4960     1.9750 H     1 <1>   0.0800 
 35 H       13.1570    -0.9130     1.2670 H     1 <1>   0.0800 
 36 H       12.3780    -4.1790    -1.2870 H     1 <1>   0.0800 
 37 H       12.6650    -4.5260     0.3930 H     1 <1>   0.0800 
 38 H       12.5150    -1.8730    -0.8310 H     1 <1>   0.4500 
 39 H       14.8960    -3.3210     0.1760 H     1 <1>   0.0800 
 40 H       14.8900    -1.6080    -0.1730 H     1 <1>   0.0800 
 41 H       14.3200    -3.8130    -2.1780 H     1 <1>   0.0800 
 42 H       15.7190    -2.7880    -2.1100 H     1 <1>   0.0800 
 43 H       14.1770    -2.0910    -2.5130 H     1 <1>   0.0800 
@<TRIPOS>BOND
  1   1   2  1   
  2   2   3  ar  
  3   2   4  ar  
  4   3   5  ar  
  5   3  21  1   
  6   4   6  ar  
  7   4  22  1   
  8   5   7  ar  
  9   5  23  1   
 10   6   7  ar  
 11   6  24  1   
 12   7   8  1   
 13   8   9  am  
 14   8  25  1   
 15   9  10  2   
 16   9  11  1   
 17  11  12  1   
 18  11  26  1   
 19  11  27  1   
 20  12  13  1   
 21  12  28  1   
 22  12  29  1   
 23  13  14  1   
 24  13  15  1   
 25  14  16  1   
 26  14  30  1   
 27  14  31  1   
 28  15  17  1   
 29  15  32  1   
 30  15  33  1   
 31  16  18  1   
 32  16  34  1   
 33  16  35  1   
 34  17  18  1   
 35  17  36  1   
 36  17  37  1   
 37  18  19  1   
 38  18  38  1   
 39  19  20  1   
 40  19  39  1   
 41  19  40  1   
 42  20  41  1   
 43  20  42  1   
 44  20  43  1   
@<TRIPOS>SUBSTRUCTURE
  1 ****  11 GROUP 4 **** **** 0

# MOE 2024.06 (io_trps.svl 2023.06)
