@<TRIPOS>MOLECULE
NONAME
51 53 1 0 0 
SMALL
USER_CHARGES


@<TRIPOS>ATOM
  1 O       -0.1730     0.5020    -0.0260 O.2   1 <1>  -0.5700 
  2 C        0.3770    -0.5410     0.2620 C.2   1 <1>   0.6900 
  3 N        1.7370    -0.6230     0.3750 N.am  1 <1>  -0.5470 
  4 N       -0.3430    -1.6890     0.4620 N.am  1 <1>  -0.5470 
  5 C        2.7230     0.3710     0.2510 C.ar  1 <1>   0.1170 
  6 C       -1.7250    -1.8940     0.5190 C.ar  1 <1>   0.1170 
  7 C        3.9920     0.0060    -0.1810 C.ar  1 <1>  -0.1500 
  8 C        2.4880     1.7040     0.5680 C.ar  1 <1>  -0.1500 
  9 C       -2.2350    -3.1490     0.2030 C.ar  1 <1>  -0.1500 
 10 C       -2.6250    -0.9040     0.9020 C.ar  1 <1>  -0.1500 
 11 C        5.0100     0.9460    -0.3020 C.ar  1 <1>   0.0830 
 12 C        3.4880     2.6510     0.4530 C.ar  1 <1>  -0.1500 
 13 C       -3.5930    -3.3990     0.2540 C.ar  1 <1>  -0.1500 
 14 C       -3.9820    -1.1570     0.9520 C.ar  1 <1>  -0.1500 
 15 O        6.2640     0.6150    -0.7280 O.3   1 <1>  -0.3620 
 16 C        4.7580     2.2830     0.0180 C.ar  1 <1>   0.0830 
 17 C       -4.5030    -2.4080     0.6180 C.ar  1 <1>   0.0860 
 18 C        6.5620    -0.6580    -1.2520 C.3   1 <1>   0.0400 
 19 O        5.7810     3.1810    -0.1130 O.3   1 <1>  -0.3630 
 20 C       -5.9250    -2.6800     0.6570 C.2   1 <1>   0.5440 
 21 C        5.5810     4.5580     0.1150 C.3   1 <1>   0.0400 
 22 O       -6.3310    -3.6170     1.3200 O.2   1 <1>  -0.5700 
 23 N       -6.8400    -1.9190    -0.0420 N.am  1 <1>  -0.6600 
 24 C       -8.3110    -2.0720     0.1600 C.3   1 <1>   0.1400 
 25 C       -6.5000    -0.9950    -1.1660 C.3   1 <1>   0.1400 
 26 C       -8.9960    -0.6960     0.2090 C.3   1 <1>   0.1200 
 27 C       -7.2820     0.3220    -1.0350 C.3   1 <1>   0.1200 
 28 O       -8.6550     0.0730    -0.9120 O.3   1 <1>  -0.5600 
 29 H        2.1000    -1.5530     0.5450 H     1 <1>   0.3700 
 30 H        0.2130    -2.5350     0.5150 H     1 <1>   0.3700 
 31 H        4.1680    -1.0220    -0.4210 H     1 <1>   0.1500 
 32 H        1.5160     2.0100     0.9110 H     1 <1>   0.1500 
 33 H       -1.5660    -3.9390    -0.0870 H     1 <1>   0.1500 
 34 H       -2.2620     0.0720     1.1690 H     1 <1>   0.1500 
 35 H        3.2560     3.6670     0.7080 H     1 <1>   0.1500 
 36 H       -3.9710    -4.3780     0.0120 H     1 <1>   0.1500 
 37 H       -4.6580    -0.3780     1.2590 H     1 <1>   0.1500 
 38 H        7.5820    -0.6460    -1.5910 H     1 <1>   0.0800 
 39 H        5.9050    -0.8580    -2.0800 H     1 <1>   0.0800 
 40 H        6.4450    -1.3920    -0.4750 H     1 <1>   0.0800 
 41 H        6.5100     5.0640    -0.0790 H     1 <1>   0.0800 
 42 H        5.2940     4.7030     1.1410 H     1 <1>   0.0800 
 43 H        4.8220     4.9170    -0.5570 H     1 <1>   0.0800 
 44 H       -8.5120    -2.5980     1.0770 H     1 <1>   0.0800 
 45 H       -8.7210    -2.6490    -0.6500 H     1 <1>   0.0800 
 46 H       -6.7660    -1.4660    -2.0960 H     1 <1>   0.0800 
 47 H       -5.4470    -0.7860    -1.1950 H     1 <1>   0.0800 
 48 H       -8.7030    -0.1620     1.0960 H     1 <1>   0.0800 
 49 H      -10.0650    -0.8150     0.2130 H     1 <1>   0.0800 
 50 H       -7.1370     0.9290    -1.9100 H     1 <1>   0.0800 
 51 H       -6.9540     0.8750    -0.1720 H     1 <1>   0.0800 
@<TRIPOS>BOND
  1   1   2  2   
  2   2   3  am  
  3   2   4  am  
  4   3   5  1   
  5   3  29  1   
  6   4   6  1   
  7   4  30  1   
  8   5   7  ar  
  9   5   8  ar  
 10   6   9  ar  
 11   6  10  ar  
 12   7  11  ar  
 13   7  31  1   
 14   8  12  ar  
 15   8  32  1   
 16   9  13  ar  
 17   9  33  1   
 18  10  14  ar  
 19  10  34  1   
 20  11  15  1   
 21  11  16  ar  
 22  12  16  ar  
 23  12  35  1   
 24  13  17  ar  
 25  13  36  1   
 26  14  17  ar  
 27  14  37  1   
 28  15  18  1   
 29  16  19  1   
 30  17  20  1   
 31  18  38  1   
 32  18  39  1   
 33  18  40  1   
 34  19  21  1   
 35  20  22  2   
 36  20  23  am  
 37  21  41  1   
 38  21  42  1   
 39  21  43  1   
 40  23  24  1   
 41  23  25  1   
 42  24  26  1   
 43  24  44  1   
 44  24  45  1   
 45  25  27  1   
 46  25  46  1   
 47  25  47  1   
 48  26  28  1   
 49  26  48  1   
 50  26  49  1   
 51  27  28  1   
 52  27  50  1   
 53  27  51  1   
@<TRIPOS>SUBSTRUCTURE
  1 ****   1 GROUP 4 **** **** 0

# MOE 2024.06 (io_trps.svl 2023.06)
