@<TRIPOS>MOLECULE
NONAME
35 36 1 0 0 
SMALL
USER_CHARGES


@<TRIPOS>ATOM
  1 O       -0.4790    -0.4300     0.1390 O.2   1 <1>  -0.5700 
  2 C       -1.4970    -1.0870     0.0280 C.2   1 <1>   0.7060 
  3 O       -2.6460    -0.4390     0.2180 O.3   1 <1>  -0.2330 
  4 C       -1.5460    -2.4870    -0.2990 C.2   1 <1>  -0.1240 
  5 C       -3.8640    -1.0090     0.0960 C.ar  1 <1>   0.0820 
  6 C       -2.7440    -3.1230    -0.4200 C.2   1 <1>  -0.1670 
  7 C       -0.2040    -3.2000    -0.4960 C.3   1 <1>  -0.0220 
  8 C       -3.9580    -2.3680    -0.2380 C.ar  1 <1>   0.0280 
  9 C       -4.9940    -0.2180     0.2980 C.ar  1 <1>  -0.1440 
 10 C       -2.8800    -4.6190    -0.7310 C.3   1 <1>  -0.1020 
 11 C        0.2030    -3.9770     0.7640 C.3   1 <1>  -0.2660 
 12 C       -5.2440    -2.9020    -0.3750 C.ar  1 <1>  -0.1500 
 13 C       -6.2560    -0.7810     0.1480 C.ar  1 <1>   0.0820 
 14 C       -4.8540     1.2590     0.6700 C.3   1 <1>  -0.0970 
 15 C        1.1830    -5.0690     0.4260 C.2   1 <1>   0.9060 
 16 C       -6.3690    -2.1290    -0.1880 C.ar  1 <1>  -0.1500 
 17 O       -7.3410     0.0140     0.3300 O.3   1 <1>  -0.3630 
 18 O        2.3690    -4.9240     0.7270 O.co2 1 <1>  -0.9000 
 19 O        0.7500    -6.0700    -0.1540 O.co2 1 <1>  -0.9000 
 20 C       -8.6610    -0.4620     0.1880 C.3   1 <1>   0.0400 
 21 H        0.5810    -2.5080    -0.7490 H     1 <1>   0.0800 
 22 H       -0.2750    -3.8760    -1.3310 H     1 <1>   0.0800 
 23 H       -3.3590    -4.7540    -1.6830 H     1 <1>   0.0800 
 24 H       -3.4680    -5.0970     0.0310 H     1 <1>   0.0800 
 25 H       -1.9400    -5.1380    -0.7610 H     1 <1>   0.0800 
 26 H       -0.6490    -4.4470     1.2140 H     1 <1>   0.0800 
 27 H        0.6480    -3.3150     1.4830 H     1 <1>   0.0800 
 28 H       -5.3750    -3.9350    -0.6340 H     1 <1>   0.1500 
 29 H       -3.9220     1.4570     1.1660 H     1 <1>   0.0800 
 30 H       -5.6420     1.5610     1.3360 H     1 <1>   0.0800 
 31 H       -4.9070     1.8610    -0.2190 H     1 <1>   0.0800 
 32 H       -7.3300    -2.5900    -0.3090 H     1 <1>   0.1500 
 33 H       -9.3320     0.3560     0.3790 H     1 <1>   0.0800 
 34 H       -8.8280    -1.2460     0.9040 H     1 <1>   0.0800 
 35 H       -8.7970    -0.8180    -0.8170 H     1 <1>   0.0800 
@<TRIPOS>BOND
  1   1   2  2   
  2   2   3  1   
  3   2   4  1   
  4   3   5  1   
  5   4   6  2   
  6   4   7  1   
  7   5   8  ar  
  8   5   9  ar  
  9   6   8  1   
 10   6  10  1   
 11   7  11  1   
 12   7  21  1   
 13   7  22  1   
 14   8  12  ar  
 15   9  13  ar  
 16   9  14  1   
 17  10  23  1   
 18  10  24  1   
 19  10  25  1   
 20  11  15  1   
 21  11  26  1   
 22  11  27  1   
 23  12  16  ar  
 24  12  28  1   
 25  13  16  ar  
 26  13  17  1   
 27  14  29  1   
 28  14  30  1   
 29  14  31  1   
 30  15  18  ar  
 31  15  19  ar  
 32  16  32  1   
 33  17  20  1   
 34  20  33  1   
 35  20  34  1   
 36  20  35  1   
@<TRIPOS>SUBSTRUCTURE
  1 ****   6 GROUP 4 **** **** 0

# MOE 2024.06 (io_trps.svl 2023.06)
