@<TRIPOS>MOLECULE
NONAME
55 56 1 0 0 
SMALL
USER_CHARGES


@<TRIPOS>ATOM
  1 O        3.2870    -8.4560    -0.0710 O.3   1 <1>  -0.3630 
  2 C        4.5260    -7.9200    -0.2490 C.ar  1 <1>   0.0830 
  3 C        2.1170    -7.6770    -0.1470 C.3   1 <1>   0.1200 
  4 C        5.6240    -8.7770    -0.1670 C.ar  1 <1>  -0.1440 
  5 C        4.7190    -6.5660    -0.5100 C.ar  1 <1>  -0.1500 
  6 C        0.9200    -8.6000     0.0890 C.3   1 <1>  -0.1600 
  7 C        6.9060    -8.2690    -0.3630 C.ar  1 <1>  -0.1440 
  8 C        5.3770   -10.2570     0.1290 C.3   1 <1>  -0.0960 
  9 C        5.9920    -6.0620    -0.6970 C.ar  1 <1>  -0.1430 
 10 C       -0.4060    -7.8260     0.0440 C.3   1 <1>  -0.1600 
 11 C        7.0760    -6.9170    -0.6210 C.ar  1 <1>  -0.1500 
 12 C        8.1480    -9.1480    -0.3070 C.3   1 <1>  -0.0970 
 13 C        6.2080    -4.5860    -0.9790 C.3   1 <1>  -0.0970 
 14 C       -1.5920    -8.7690     0.2650 C.3   1 <1>   0.1100 
 15 N       -2.8680    -8.0560     0.0850 N.3   1 <1>  -0.8100 
 16 C       -3.9760    -9.0120    -0.1530 C.3   1 <1>   0.1100 
 17 C       -3.1950    -7.1730     1.2360 C.3   1 <1>   0.1100 
 18 C       -5.3330    -8.3020    -0.3840 C.3   1 <1>   0.3430 
 19 C       -4.5750    -6.4850     1.0890 C.3   1 <1>   0.3430 
 20 N       -5.2070    -6.8150    -0.2320 N.4   1 <1>  -0.9590 
 21 C       -6.4700    -6.0950    -0.5230 C.3   1 <1>   0.3430 
 22 C       -6.1810    -4.6140    -0.7340 C.3   1 <1>  -0.2400 
 23 H        2.0690    -7.2320    -1.1260 H     1 <1>   0.0800 
 24 H        2.1690    -6.9150     0.6110 H     1 <1>   0.0800 
 25 H        3.8890    -5.8900    -0.5720 H     1 <1>   0.1500 
 26 H        1.0300    -9.0700     1.0510 H     1 <1>   0.0800 
 27 H        0.9200    -9.3630    -0.6700 H     1 <1>   0.0800 
 28 H        4.6490   -10.3590     0.9140 H     1 <1>   0.0800 
 29 H        6.2630   -10.7690     0.4480 H     1 <1>   0.0800 
 30 H        4.9970   -10.7380    -0.7540 H     1 <1>   0.0800 
 31 H       -0.5080    -7.3550    -0.9190 H     1 <1>   0.0800 
 32 H       -0.3880    -7.0660     0.8030 H     1 <1>   0.0800 
 33 H        8.0650    -6.5210    -0.7670 H     1 <1>   0.1500 
 34 H        8.0420    -9.9790    -0.9800 H     1 <1>   0.0800 
 35 H        8.2910    -9.5160     0.6930 H     1 <1>   0.0800 
 36 H        9.0260    -8.5980    -0.5930 H     1 <1>   0.0800 
 37 H        5.3140    -4.1390    -1.3750 H     1 <1>   0.0800 
 38 H        6.9980    -4.4570    -1.6980 H     1 <1>   0.0800 
 39 H        6.4780    -4.0780    -0.0710 H     1 <1>   0.0800 
 40 H       -1.5420    -9.2120     1.2460 H     1 <1>   0.0800 
 41 H       -1.5250    -9.5620    -0.4620 H     1 <1>   0.0800 
 42 H       -4.0660    -9.6820     0.6860 H     1 <1>   0.0800 
 43 H       -3.7510    -9.6110    -1.0190 H     1 <1>   0.0800 
 44 H       -2.4460    -6.4060     1.3250 H     1 <1>   0.0800 
 45 H       -3.1830    -7.7420     2.1510 H     1 <1>   0.0800 
 46 H       -6.0560    -8.6860     0.3160 H     1 <1>   0.0800 
 47 H       -5.6810    -8.5380    -1.3760 H     1 <1>   0.0800 
 48 H       -4.4400    -5.4200     1.1800 H     1 <1>   0.0800 
 49 H       -5.2170    -6.8030     1.8930 H     1 <1>   0.0800 
 50 H       -4.4840    -6.5600    -0.9230 H     1 <1>   0.4500 
 51 H       -7.1690    -6.2260     0.2880 H     1 <1>   0.0800 
 52 H       -6.9140    -6.4940    -1.4210 H     1 <1>   0.0800 
 53 H       -5.8330    -4.1470     0.1690 H     1 <1>   0.0800 
 54 H       -7.0900    -4.1180    -1.0270 H     1 <1>   0.0800 
 55 H       -5.4600    -4.4730    -1.5190 H     1 <1>   0.0800 
@<TRIPOS>BOND
  1   1   2  1   
  2   1   3  1   
  3   2   4  ar  
  4   2   5  ar  
  5   3   6  1   
  6   3  23  1   
  7   3  24  1   
  8   4   7  ar  
  9   4   8  1   
 10   5   9  ar  
 11   5  25  1   
 12   6  10  1   
 13   6  26  1   
 14   6  27  1   
 15   7  11  ar  
 16   7  12  1   
 17   8  28  1   
 18   8  29  1   
 19   8  30  1   
 20   9  11  ar  
 21   9  13  1   
 22  10  14  1   
 23  10  31  1   
 24  10  32  1   
 25  11  33  1   
 26  12  34  1   
 27  12  35  1   
 28  12  36  1   
 29  13  37  1   
 30  13  38  1   
 31  13  39  1   
 32  14  15  1   
 33  14  40  1   
 34  14  41  1   
 35  15  16  1   
 36  15  17  1   
 37  16  18  1   
 38  16  42  1   
 39  16  43  1   
 40  17  19  1   
 41  17  44  1   
 42  17  45  1   
 43  18  20  1   
 44  18  46  1   
 45  18  47  1   
 46  19  20  1   
 47  19  48  1   
 48  19  49  1   
 49  20  21  1   
 50  20  50  1   
 51  21  22  1   
 52  21  51  1   
 53  21  52  1   
 54  22  53  1   
 55  22  54  1   
 56  22  55  1   
@<TRIPOS>SUBSTRUCTURE
  1 ****   6 GROUP 4 **** **** 0

# MOE 2024.06 (io_trps.svl 2023.06)
