@<TRIPOS>MOLECULE
NONAME
36 38 1 0 0 
SMALL
USER_CHARGES


@<TRIPOS>ATOM
  1 S       -0.0560     0.1200     0.9070 S.3   1 <1>  -0.0800 
  2 C        0.2840    -1.3240    -0.0140 C.2   1 <1>   0.1980 
  3 C        1.6490     0.4340     0.9780 C.2   1 <1>  -0.1100 
  4 N        1.5180    -1.5290    -0.2310 N.2   1 <1>  -0.5650 
  5 C       -0.8950    -2.1620    -0.4500 C.3   1 <1>  -0.0600 
  6 C        2.3280    -0.5370     0.3280 C.2   1 <1>   0.1730 
  7 C        3.7680    -0.6280     0.1740 C.ar  1 <1>   0.0540 
  8 C        4.6370     0.0000     1.0650 C.ar  1 <1>  -0.1500 
  9 C        4.3460    -1.3430    -0.8740 C.ar  1 <1>  -0.1500 
 10 C        6.0080    -0.0900     0.9200 C.ar  1 <1>  -0.1500 
 11 C        5.7170    -1.4330    -1.0190 C.ar  1 <1>  -0.1500 
 12 C        6.5850    -0.8190    -0.1170 C.ar  1 <1>   0.0860 
 13 C        8.0260    -0.9250    -0.2460 C.2   1 <1>   0.5440 
 14 O        8.7060     0.0810    -0.1670 O.2   1 <1>  -0.5700 
 15 N        8.6530    -2.1380    -0.4410 N.am  1 <1>  -0.6600 
 16 C       10.1020    -2.2360    -0.7980 C.3   1 <1>   0.1400 
 17 C        8.0480    -3.4570    -0.0860 C.3   1 <1>   0.1400 
 18 C       10.8650    -3.0540     0.2550 C.3   1 <1>   0.1200 
 19 C        8.9360    -4.2090     0.9200 C.3   1 <1>   0.1200 
 20 O       10.2520    -4.2980     0.4540 O.3   1 <1>  -0.5600 
 21 H        1.9750     1.3160     1.4960 H     1 <1>   0.1500 
 22 H       -1.5450    -1.5790    -1.0750 H     1 <1>   0.0800 
 23 H       -1.4390    -2.5010     0.4110 H     1 <1>   0.0800 
 24 H       -0.5480    -3.0150    -1.0040 H     1 <1>   0.0800 
 25 H        4.2360     0.5660     1.8870 H     1 <1>   0.1500 
 26 H        3.7050    -1.8340    -1.5860 H     1 <1>   0.1500 
 27 H        6.6570     0.4100     1.6200 H     1 <1>   0.1500 
 28 H        6.1300    -1.9850    -1.8450 H     1 <1>   0.1500 
 29 H       10.5440    -1.2580    -0.8780 H     1 <1>   0.0800 
 30 H       10.1970    -2.7180    -1.7550 H     1 <1>   0.0800 
 31 H        7.9440    -4.0510    -0.9780 H     1 <1>   0.0800 
 32 H        7.0720    -3.3270     0.3460 H     1 <1>   0.0800 
 33 H       10.8940    -2.5260     1.1930 H     1 <1>   0.0800 
 34 H       11.8730    -3.2330    -0.0730 H     1 <1>   0.0800 
 35 H        8.5700    -5.2100     1.0630 H     1 <1>   0.0800 
 36 H        8.9410    -3.7030     1.8710 H     1 <1>   0.0800 
@<TRIPOS>BOND
  1   1   2  1   
  2   1   3  1   
  3   2   4  2   
  4   2   5  1   
  5   3   6  2   
  6   3  21  1   
  7   4   6  1   
  8   5  22  1   
  9   5  23  1   
 10   5  24  1   
 11   6   7  1   
 12   7   8  ar  
 13   7   9  ar  
 14   8  10  ar  
 15   8  25  1   
 16   9  11  ar  
 17   9  26  1   
 18  10  12  ar  
 19  10  27  1   
 20  11  12  ar  
 21  11  28  1   
 22  12  13  1   
 23  13  14  2   
 24  13  15  am  
 25  15  16  1   
 26  15  17  1   
 27  16  18  1   
 28  16  29  1   
 29  16  30  1   
 30  17  19  1   
 31  17  31  1   
 32  17  32  1   
 33  18  20  1   
 34  18  33  1   
 35  18  34  1   
 36  19  20  1   
 37  19  35  1   
 38  19  36  1   
@<TRIPOS>SUBSTRUCTURE
  1 ****  11 GROUP 4 **** **** 0

# MOE 2024.06 (io_trps.svl 2023.06)
