@<TRIPOS>MOLECULE
NONAME
48 50 1 0 0 
SMALL
USER_CHARGES


@<TRIPOS>ATOM
  1 S        0.3400    -0.5910     1.2810 S.o2  1 <1>   1.4470 
  2 O        0.9290    -1.1750     2.4670 O.2   1 <1>  -0.6500 
  3 O        0.2210     0.8470     1.1830 O.2   1 <1>  -0.6500 
  4 N        1.2920    -1.0900    -0.0290 N.am  1 <1>  -0.8490 
  5 C       -1.2660    -1.3580     0.9300 C.ar  1 <1>  -0.0090 
  6 C        2.5560    -0.3310    -0.0850 C.3   1 <1>   0.1960 
  7 C        1.5690    -2.5400     0.0010 C.3   1 <1>   0.1960 
  8 C       -1.9740    -1.0320    -0.2190 C.ar  1 <1>  -0.1500 
  9 C       -1.8220    -2.3000     1.7850 C.ar  1 <1>  -0.1500 
 10 C        3.4190    -0.7330    -1.2950 C.3   1 <1>   0.1400 
 11 C        2.3770    -2.9780    -1.2300 C.3   1 <1>   0.1400 
 12 C       -3.1930    -1.6180    -0.5210 C.ar  1 <1>  -0.1440 
 13 C       -3.0370    -2.8950     1.4990 C.ar  1 <1>  -0.1500 
 14 N        3.6550    -2.2080    -1.3000 N.am  1 <1>  -0.6600 
 15 C       -3.7300    -2.5610     0.3470 C.ar  1 <1>  -0.1430 
 16 C       -3.9140    -1.2100    -1.7980 C.3   1 <1>  -0.0970 
 17 C        4.9160    -2.7370    -1.1270 C.2   1 <1>   0.5690 
 18 C       -5.0660    -3.2350     0.0650 C.3   1 <1>  -0.0970 
 19 O        5.8900    -2.0180    -1.1830 O.2   1 <1>  -0.5700 
 20 C        5.1300    -4.2520    -0.8850 C.3   1 <1>   0.2610 
 21 O        4.3850    -4.7450     0.2100 O.3   1 <1>  -0.5600 
 22 C        6.5720    -4.6890    -0.6130 C.3   1 <1>  -0.1600 
 23 C        5.1200    -5.6410     0.9870 C.3   1 <1>   0.1200 
 24 C        6.3900    -5.9470     0.2080 C.3   1 <1>  -0.1600 
 25 H        3.1210    -0.4940     0.8190 H     1 <1>   0.0800 
 26 H        2.3430     0.7220    -0.1540 H     1 <1>   0.0800 
 27 H        0.6420    -3.0870     0.0160 H     1 <1>   0.0800 
 28 H        2.1230    -2.7990     0.8900 H     1 <1>   0.0800 
 29 H       -1.5500    -0.3000    -0.8860 H     1 <1>   0.1500 
 30 H       -1.2980    -2.5730     2.6870 H     1 <1>   0.1500 
 31 H        4.3500    -0.1960    -1.2580 H     1 <1>   0.0800 
 32 H        2.9130    -0.4510    -2.2020 H     1 <1>   0.0800 
 33 H        1.7990    -2.7820    -2.1160 H     1 <1>   0.0800 
 34 H        2.5540    -4.0360    -1.1880 H     1 <1>   0.0800 
 35 H       -3.4400    -3.6210     2.1830 H     1 <1>   0.1500 
 36 H       -3.3530    -0.4700    -2.3400 H     1 <1>   0.0800 
 37 H       -4.8760    -0.7950    -1.5610 H     1 <1>   0.0800 
 38 H       -4.0480    -2.0650    -2.4360 H     1 <1>   0.0800 
 39 H       -5.8460    -2.4970     0.0090 H     1 <1>   0.0800 
 40 H       -5.3180    -3.9330     0.8420 H     1 <1>   0.0800 
 41 H       -5.0200    -3.7690    -0.8670 H     1 <1>   0.0800 
 42 H        4.7750    -4.7770    -1.7520 H     1 <1>   0.0800 
 43 H        7.0790    -3.9410    -0.0280 H     1 <1>   0.0800 
 44 H        7.1210    -4.8540    -1.5240 H     1 <1>   0.0800 
 45 H        4.5270    -6.5210     1.1710 H     1 <1>   0.0800 
 46 H        5.3490    -5.1500     1.9170 H     1 <1>   0.0800 
 47 H        7.2240    -6.1450     0.8570 H     1 <1>   0.0800 
 48 H        6.2240    -6.7970    -0.4300 H     1 <1>   0.0800 
@<TRIPOS>BOND
  1   1   2  2   
  2   1   3  2   
  3   1   4  am  
  4   1   5  1   
  5   4   6  1   
  6   4   7  1   
  7   5   8  ar  
  8   5   9  ar  
  9   6  10  1   
 10   6  25  1   
 11   6  26  1   
 12   7  11  1   
 13   7  27  1   
 14   7  28  1   
 15   8  12  ar  
 16   8  29  1   
 17   9  13  ar  
 18   9  30  1   
 19  10  14  1   
 20  10  31  1   
 21  10  32  1   
 22  11  14  1   
 23  11  33  1   
 24  11  34  1   
 25  12  15  ar  
 26  12  16  1   
 27  13  15  ar  
 28  13  35  1   
 29  14  17  am  
 30  15  18  1   
 31  16  36  1   
 32  16  37  1   
 33  16  38  1   
 34  17  19  2   
 35  17  20  1   
 36  18  39  1   
 37  18  40  1   
 38  18  41  1   
 39  20  21  1   
 40  20  22  1   
 41  20  42  1   
 42  21  23  1   
 43  22  24  1   
 44  22  43  1   
 45  22  44  1   
 46  23  24  1   
 47  23  45  1   
 48  23  46  1   
 49  24  47  1   
 50  24  48  1   
@<TRIPOS>SUBSTRUCTURE
  1 ****   7 GROUP 4 **** **** 0

# MOE 2024.06 (io_trps.svl 2023.06)
