@<TRIPOS>MOLECULE
NONAME
39 40 1 0 0 
SMALL
USER_CHARGES


@<TRIPOS>ATOM
  1 O       -0.1670    -0.4610     0.7680 O.3   1 <1>  -0.5600 
  2 C       -1.3430    -0.4930     0.0060 C.3   1 <1>   0.2000 
  3 C        0.9830    -1.0580     0.2230 C.3   1 <1>   0.2000 
  4 C       -1.7590    -1.9590    -0.2940 C.3   1 <1>   0.3430 
  5 C       -1.1640     0.3630    -1.2550 C.3   1 <1>  -0.2400 
  6 C        0.6470    -2.3900    -0.5000 C.3   1 <1>   0.3430 
  7 C        1.9390    -1.2760     1.3940 C.3   1 <1>  -0.2400 
  8 N       -0.6560    -2.9490    -0.0120 N.4   1 <1>  -0.9590 
  9 C       -0.9170    -4.3230    -0.5490 C.3   1 <1>   0.3430 
 10 C       -2.1010    -5.0120     0.1360 C.3   1 <1>   0.1200 
 11 O       -2.2550    -6.2690    -0.4730 O.3   1 <1>  -0.3630 
 12 C       -3.2400    -7.1210    -0.0940 C.ar  1 <1>   0.0820 
 13 C       -3.3380    -8.3110    -0.7980 C.ar  1 <1>  -0.1500 
 14 C       -4.1340    -6.8630     0.9430 C.ar  1 <1>  -0.1500 
 15 C       -4.3150    -9.2370    -0.4790 C.ar  1 <1>  -0.1500 
 16 C       -5.1110    -7.7910     1.2600 C.ar  1 <1>  -0.1500 
 17 C       -5.2030    -8.9760     0.5510 C.ar  1 <1>  -0.1500 
 18 H       -2.1110    -0.0360     0.6080 H     1 <1>   0.0800 
 19 H        1.4290    -0.3650    -0.4700 H     1 <1>   0.0800 
 20 H       -2.0590    -2.0240    -1.3260 H     1 <1>   0.0800 
 21 H       -2.6220    -2.1980     0.3050 H     1 <1>   0.0800 
 22 H       -0.4650    -0.0720    -1.9450 H     1 <1>   0.0800 
 23 H       -0.8270     1.3480    -0.9800 H     1 <1>   0.0800 
 24 H       -2.1080     0.4690    -1.7600 H     1 <1>   0.0800 
 25 H        1.4480    -3.0920    -0.3360 H     1 <1>   0.0800 
 26 H        0.5880    -2.2050    -1.5600 H     1 <1>   0.0800 
 27 H        1.5100    -1.9380     2.1240 H     1 <1>   0.0800 
 28 H        2.1570    -0.3320     1.8640 H     1 <1>   0.0800 
 29 H        2.8670    -1.6960     1.0480 H     1 <1>   0.0800 
 30 H       -0.5570    -2.9800     1.0150 H     1 <1>   0.4500 
 31 H       -0.0440    -4.9370    -0.4020 H     1 <1>   0.0800 
 32 H       -1.1150    -4.2650    -1.6070 H     1 <1>   0.0800 
 33 H       -3.0140    -4.4630    -0.0080 H     1 <1>   0.0800 
 34 H       -1.9020    -5.1690     1.1820 H     1 <1>   0.0800 
 35 H       -2.6470    -8.5120    -1.5970 H     1 <1>   0.1500 
 36 H       -4.0930    -5.9580     1.5160 H     1 <1>   0.1500 
 37 H       -4.3850   -10.1590    -1.0300 H     1 <1>   0.1500 
 38 H       -5.8040    -7.5960     2.0610 H     1 <1>   0.1500 
 39 H       -5.9630    -9.6960     0.8000 H     1 <1>   0.1500 
@<TRIPOS>BOND
  1   1   2  1   
  2   1   3  1   
  3   2   4  1   
  4   2   5  1   
  5   2  18  1   
  6   3   6  1   
  7   3   7  1   
  8   3  19  1   
  9   4   8  1   
 10   4  20  1   
 11   4  21  1   
 12   5  22  1   
 13   5  23  1   
 14   5  24  1   
 15   6   8  1   
 16   6  25  1   
 17   6  26  1   
 18   7  27  1   
 19   7  28  1   
 20   7  29  1   
 21   8   9  1   
 22   8  30  1   
 23   9  10  1   
 24   9  31  1   
 25   9  32  1   
 26  10  11  1   
 27  10  33  1   
 28  10  34  1   
 29  11  12  1   
 30  12  13  ar  
 31  12  14  ar  
 32  13  15  ar  
 33  13  35  1   
 34  14  16  ar  
 35  14  36  1   
 36  15  17  ar  
 37  15  37  1   
 38  16  17  ar  
 39  16  38  1   
 40  17  39  1   
@<TRIPOS>SUBSTRUCTURE
  1 ****  10 GROUP 4 **** **** 0

# MOE 2024.06 (io_trps.svl 2023.06)
