@<TRIPOS>MOLECULE
NONAME
51 52 1 0 0 
SMALL
USER_CHARGES


@<TRIPOS>ATOM
  1 S        0.3470     0.5620     1.3000 S.o2  1 <1>   1.3330 
  2 O       -0.3200    -0.4360     0.5030 O.2   1 <1>  -0.6500 
  3 O        1.6820     0.3210     1.7960 O.2   1 <1>  -0.6500 
  4 N        0.4540     2.0050     0.3610 N.am  1 <1>  -0.6930 
  5 C       -0.7010     1.0500     2.6520 C.3   1 <1>  -0.1350 
  6 C       -0.6450     2.4740    -0.3660 C.ar  1 <1>   0.1990 
  7 C        1.6040     2.9300     0.6080 C.3   1 <1>   0.2570 
  8 C       -1.4970     3.4720     0.1290 C.ar  1 <1>   0.0830 
  9 C       -0.8960     1.9320    -1.6170 C.ar  1 <1>  -0.1500 
 10 C        2.8320     2.6420    -0.2600 C.2   1 <1>   0.5690 
 11 O       -1.2300     3.9740     1.3760 O.3   1 <1>  -0.3630 
 12 C       -2.5710     3.9120    -0.6390 C.ar  1 <1>  -0.1500 
 13 C       -1.9640     2.3710    -2.3760 C.ar  1 <1>  -0.1500 
 14 O        3.3150     3.5660    -0.8710 O.2   1 <1>  -0.5700 
 15 N        3.3450     1.3700    -0.2780 N.am  1 <1>  -0.5470 
 16 C       -1.9230     5.0970     1.8790 C.3   1 <1>   0.0400 
 17 C       -2.8040     3.3610    -1.8970 C.ar  1 <1>   0.0830 
 18 C        4.4060     0.7810    -0.9910 C.ar  1 <1>   0.1170 
 19 O       -3.8270     3.7330    -2.7120 O.3   1 <1>  -0.3630 
 20 C        4.9620    -0.4250    -0.5430 C.ar  1 <1>  -0.1430 
 21 C        4.9020     1.3600    -2.1540 C.ar  1 <1>  -0.1500 
 22 C       -4.7410     4.7370    -2.3310 C.3   1 <1>   0.0400 
 23 C        5.9950    -1.0250    -1.2640 C.ar  1 <1>  -0.1440 
 24 C        4.4130    -1.0620     0.7370 C.3   1 <1>  -0.0970 
 25 C        5.9290     0.7700    -2.8600 C.ar  1 <1>  -0.1500 
 26 C        6.4720    -0.4180    -2.4150 C.ar  1 <1>  -0.1500 
 27 C        6.6350    -2.3410    -0.8430 C.3   1 <1>  -0.0970 
 28 H       -0.8180     0.2360     3.3400 H     1 <1>   0.0800 
 29 H       -1.6690     1.3310     2.2850 H     1 <1>   0.0800 
 30 H       -0.2750     1.8850     3.1720 H     1 <1>   0.0800 
 31 H        1.8940     2.8840     1.6410 H     1 <1>   0.0800 
 32 H        1.2910     3.9390     0.4070 H     1 <1>   0.0800 
 33 H       -0.2480     1.1590    -1.9920 H     1 <1>   0.1500 
 34 H       -3.2260     4.6710    -0.2680 H     1 <1>   0.1500 
 35 H       -2.1510     1.9460    -3.3460 H     1 <1>   0.1500 
 36 H        2.8890     0.7290     0.3820 H     1 <1>   0.3700 
 37 H       -1.4960     5.3540     2.8320 H     1 <1>   0.0800 
 38 H       -2.9600     4.8430     2.0030 H     1 <1>   0.0800 
 39 H       -1.8050     5.9180     1.1940 H     1 <1>   0.0800 
 40 H        4.4840     2.2780    -2.5220 H     1 <1>   0.1500 
 41 H       -5.4510     4.8610    -3.1290 H     1 <1>   0.0800 
 42 H       -4.2050     5.6560    -2.1740 H     1 <1>   0.0800 
 43 H       -5.2500     4.4250    -1.4360 H     1 <1>   0.0800 
 44 H        5.0200    -1.8680     1.0980 H     1 <1>   0.0800 
 45 H        4.3640    -0.3300     1.5230 H     1 <1>   0.0800 
 46 H        3.4240    -1.4440     0.5560 H     1 <1>   0.0800 
 47 H        6.3030     1.2350    -3.7550 H     1 <1>   0.1500 
 48 H        7.2710    -0.8670    -2.9780 H     1 <1>   0.1500 
 49 H        5.8830    -3.1030    -0.7440 H     1 <1>   0.0800 
 50 H        7.1430    -2.2180     0.0970 H     1 <1>   0.0800 
 51 H        7.3520    -2.6750    -1.5700 H     1 <1>   0.0800 
@<TRIPOS>BOND
  1   1   2  2   
  2   1   3  2   
  3   1   4  am  
  4   1   5  1   
  5   4   6  1   
  6   4   7  1   
  7   5  28  1   
  8   5  29  1   
  9   5  30  1   
 10   6   8  ar  
 11   6   9  ar  
 12   7  10  1   
 13   7  31  1   
 14   7  32  1   
 15   8  11  1   
 16   8  12  ar  
 17   9  13  ar  
 18   9  33  1   
 19  10  14  2   
 20  10  15  am  
 21  11  16  1   
 22  12  17  ar  
 23  12  34  1   
 24  13  17  ar  
 25  13  35  1   
 26  15  18  1   
 27  15  36  1   
 28  16  37  1   
 29  16  38  1   
 30  16  39  1   
 31  17  19  1   
 32  18  20  ar  
 33  18  21  ar  
 34  19  22  1   
 35  20  23  ar  
 36  20  24  1   
 37  21  25  ar  
 38  21  40  1   
 39  22  41  1   
 40  22  42  1   
 41  22  43  1   
 42  23  26  ar  
 43  23  27  1   
 44  24  44  1   
 45  24  45  1   
 46  24  46  1   
 47  25  26  ar  
 48  25  47  1   
 49  26  48  1   
 50  27  49  1   
 51  27  50  1   
 52  27  51  1   
@<TRIPOS>SUBSTRUCTURE
  1 ****   4 GROUP 4 **** **** 0

# MOE 2024.06 (io_trps.svl 2023.06)
