@<TRIPOS>MOLECULE
NONAME
38 39 1 0 0 
SMALL
USER_CHARGES


@<TRIPOS>ATOM
  1 CL       0.9380     1.1160     1.2450 Cl    1 <1>  -0.1770 
  2 C        2.0110    -0.1690     0.7350 C.ar  1 <1>   0.1770 
  3 C        3.3570     0.0710     0.4780 C.ar  1 <1>  -0.1440 
  4 C        1.4560    -1.4290     0.6070 C.ar  1 <1>  -0.1500 
  5 C        4.1650    -1.0030     0.0930 C.ar  1 <1>   0.1170 
  6 C        3.9520     1.4750     0.6110 C.3   1 <1>  -0.0960 
  7 C        2.2560    -2.4860     0.2190 C.ar  1 <1>  -0.1500 
  8 N        5.5350    -0.7940    -0.1380 N.am  1 <1>  -0.5470 
  9 C        3.5980    -2.2700    -0.0310 C.ar  1 <1>  -0.1500 
 10 C        6.4410    -1.4560    -0.9240 C.2   1 <1>   0.5690 
 11 O        6.1610    -2.4110    -1.6060 O.2   1 <1>  -0.5700 
 12 C        7.8790    -0.9630    -0.9370 C.3   1 <1>   0.1310 
 13 S        7.9760     0.8520    -0.5320 S.3   1 <1>  -0.2860 
 14 C        9.7470     1.1310    -0.4200 C.2   1 <1>   0.2430 
 15 N       10.6180     0.1960    -0.5530 N.2   1 <1>  -0.3380 
 16 N       10.2800     2.3300    -0.1870 N.pl3 1 <1>   0.0480 
 17 N       11.8070     0.7860    -0.4010 N.2   1 <1>  -0.3380 
 18 C       11.5910     2.0420    -0.1860 C.2   1 <1>   0.0060 
 19 C        9.5960     3.6270     0.0110 C.3   1 <1>   0.0960 
 20 C       12.6930     3.0590     0.0400 C.3   1 <1>  -0.0600 
 21 C        9.2440     3.8330     1.4870 C.3   1 <1>  -0.2400 
 22 H        0.4110    -1.5760     0.8100 H     1 <1>   0.1500 
 23 H        3.1940     2.2350     0.6530 H     1 <1>   0.0800 
 24 H        4.5730     1.7000    -0.2380 H     1 <1>   0.0800 
 25 H        4.5420     1.5390     1.5070 H     1 <1>   0.0800 
 26 H        1.8390    -3.4730     0.1140 H     1 <1>   0.1500 
 27 H        5.9070     0.0530     0.2900 H     1 <1>   0.3700 
 28 H        4.2100    -3.1030    -0.3240 H     1 <1>   0.1500 
 29 H        8.3150    -1.0960    -1.9100 H     1 <1>   0.0800 
 30 H        8.4600    -1.4890    -0.2030 H     1 <1>   0.0800 
 31 H        8.7020     3.6430    -0.5880 H     1 <1>   0.0800 
 32 H       10.2410     4.4170    -0.3290 H     1 <1>   0.0800 
 33 H       12.6780     3.8000    -0.7370 H     1 <1>   0.0800 
 34 H       13.6490     2.5670     0.0260 H     1 <1>   0.0800 
 35 H       12.5680     3.5360     0.9940 H     1 <1>   0.0800 
 36 H        8.5800     3.0570     1.8260 H     1 <1>   0.0800 
 37 H        8.7510     4.7810     1.6140 H     1 <1>   0.0800 
 38 H       10.1330     3.8290     2.0910 H     1 <1>   0.0800 
@<TRIPOS>BOND
  1   1   2  1   
  2   2   3  ar  
  3   2   4  ar  
  4   3   5  ar  
  5   3   6  1   
  6   4   7  ar  
  7   4  22  1   
  8   5   8  1   
  9   5   9  ar  
 10   6  23  1   
 11   6  24  1   
 12   6  25  1   
 13   7   9  ar  
 14   7  26  1   
 15   8  10  am  
 16   8  27  1   
 17   9  28  1   
 18  10  11  2   
 19  10  12  1   
 20  12  13  1   
 21  12  29  1   
 22  12  30  1   
 23  13  14  1   
 24  14  15  2   
 25  14  16  1   
 26  15  17  1   
 27  16  18  1   
 28  16  19  1   
 29  17  18  2   
 30  18  20  1   
 31  19  21  1   
 32  19  31  1   
 33  19  32  1   
 34  20  33  1   
 35  20  34  1   
 36  20  35  1   
 37  21  36  1   
 38  21  37  1   
 39  21  38  1   
@<TRIPOS>SUBSTRUCTURE
  1 ****  13 GROUP 4 **** **** 0

# MOE 2024.06 (io_trps.svl 2023.06)
