@<TRIPOS>MOLECULE
NONAME
40 40 1 0 0 
SMALL
USER_CHARGES


@<TRIPOS>ATOM
  1 O       -0.1760     1.9880    -2.4110 O.2   1 <1>  -0.5700 
  2 C        0.0440     2.3460    -1.2690 C.2   1 <1>   0.5440 
  3 N       -0.9030     2.0970    -0.2940 N.am  1 <1>  -0.6600 
  4 C        1.3080     2.9920    -0.9810 C.ar  1 <1>   0.0860 
  5 C       -1.3370     3.1190     0.7090 C.3   1 <1>   0.2200 
  6 C       -1.7660     0.8890    -0.4490 C.3   1 <1>   0.2200 
  7 C        2.1850     2.4680    -0.0340 C.ar  1 <1>  -0.1500 
  8 C        1.7040     4.1430    -1.6640 C.ar  1 <1>  -0.1500 
  9 C       -1.5540     4.4810     0.0480 C.3   1 <1>  -0.2400 
 10 C       -0.3630     3.2110     1.8820 C.3   1 <1>  -0.2400 
 11 C       -3.1530     1.2710    -0.9690 C.3   1 <1>  -0.2400 
 12 C       -1.8410     0.1020     0.8610 C.3   1 <1>  -0.2400 
 13 C        3.3980     3.0770     0.2280 C.ar  1 <1>   0.0830 
 14 C        2.9110     4.7640    -1.3970 C.ar  1 <1>  -0.1500 
 15 O        4.2150     2.5310     1.1580 O.3   1 <1>  -0.2320 
 16 C        3.7610     4.2360    -0.4420 C.ar  1 <1>  -0.1500 
 17 C        5.4670     2.1480     0.9220 C.2   1 <1>   0.6590 
 18 O        6.2680     2.0880     1.8150 O.2   1 <1>  -0.5700 
 19 C        5.8570     1.7420    -0.4850 C.3   1 <1>  -0.1790 
 20 H       -2.2870     2.8180     1.1150 H     1 <1>   0.0800 
 21 H       -1.3130     0.2390    -1.1810 H     1 <1>   0.0800 
 22 H        1.9090     1.5760     0.4980 H     1 <1>   0.1500 
 23 H        1.0460     4.5460    -2.4160 H     1 <1>   0.1500 
 24 H       -0.6260     4.9150    -0.2710 H     1 <1>   0.0800 
 25 H       -2.0120     5.1540     0.7500 H     1 <1>   0.0800 
 26 H       -2.2100     4.3780    -0.7980 H     1 <1>   0.0800 
 27 H        0.5360     3.7260     1.6040 H     1 <1>   0.0800 
 28 H       -0.1230     2.2300     2.2480 H     1 <1>   0.0800 
 29 H       -0.8190     3.7670     2.6810 H     1 <1>   0.0800 
 30 H       -3.7060     1.8440    -0.2500 H     1 <1>   0.0800 
 31 H       -3.7120     0.3800    -1.1900 H     1 <1>   0.0800 
 32 H       -3.0530     1.8370    -1.8780 H     1 <1>   0.0800 
 33 H       -2.3640     0.6500     1.6230 H     1 <1>   0.0800 
 34 H       -0.8500    -0.1310     1.2030 H     1 <1>   0.0800 
 35 H       -2.3650    -0.8210     0.6950 H     1 <1>   0.0800 
 36 H        3.1870     5.6580    -1.9310 H     1 <1>   0.1500 
 37 H        4.6950     4.7230    -0.2200 H     1 <1>   0.1500 
 38 H        5.1080     1.0950    -0.9010 H     1 <1>   0.0800 
 39 H        6.7940     1.2170    -0.4590 H     1 <1>   0.0800 
 40 H        5.9660     2.6110    -1.1040 H     1 <1>   0.0800 
@<TRIPOS>BOND
  1   1   2  2   
  2   2   3  am  
  3   2   4  1   
  4   3   5  1   
  5   3   6  1   
  6   4   7  ar  
  7   4   8  ar  
  8   5   9  1   
  9   5  10  1   
 10   5  20  1   
 11   6  11  1   
 12   6  12  1   
 13   6  21  1   
 14   7  13  ar  
 15   7  22  1   
 16   8  14  ar  
 17   8  23  1   
 18   9  24  1   
 19   9  25  1   
 20   9  26  1   
 21  10  27  1   
 22  10  28  1   
 23  10  29  1   
 24  11  30  1   
 25  11  31  1   
 26  11  32  1   
 27  12  33  1   
 28  12  34  1   
 29  12  35  1   
 30  13  15  1   
 31  13  16  ar  
 32  14  16  ar  
 33  14  36  1   
 34  15  17  1   
 35  16  37  1   
 36  17  18  2   
 37  17  19  1   
 38  19  38  1   
 39  19  39  1   
 40  19  40  1   
@<TRIPOS>SUBSTRUCTURE
  1 ****   7 GROUP 4 **** **** 0

# MOE 2024.06 (io_trps.svl 2023.06)
