@<TRIPOS>MOLECULE
NONAME
49 50 1 0 0 
SMALL
USER_CHARGES


@<TRIPOS>ATOM
  1 O      -12.8190     1.7760    -0.7090 O.3   1 <1>  -0.5600 
  2 C      -13.5490     2.9280    -0.3840 C.3   1 <1>   0.2000 
  3 C      -11.9560     1.2520     0.2670 C.3   1 <1>   0.2000 
  4 C      -12.5940     4.1000    -0.0310 C.3   1 <1>   0.3430 
  5 C      -14.5570     2.6030     0.7260 C.3   1 <1>  -0.2400 
  6 C      -11.1970     2.3720     1.0270 C.3   1 <1>   0.3430 
  7 C      -11.0040     0.3160    -0.4750 C.3   1 <1>  -0.2400 
  8 N      -11.1820     3.6480     0.2430 N.4   1 <1>  -0.9590 
  9 C      -10.3220     4.6920     0.8860 C.3   1 <1>   0.3430 
 10 C      -10.1100     5.9150    -0.0110 C.3   1 <1>   0.1200 
 11 O       -9.1520     6.7390     0.6100 O.3   1 <1>  -0.3630 
 12 C       -7.9080     6.8710     0.0700 C.ar  1 <1>   0.0830 
 13 C       -7.1340     5.8060    -0.4190 C.ar  1 <1>   0.0830 
 14 C       -7.4070     8.1610     0.0330 C.ar  1 <1>  -0.1500 
 15 O       -7.6160     4.5290    -0.3390 O.3   1 <1>  -0.3630 
 16 C       -5.8800     6.0820    -0.9610 C.ar  1 <1>  -0.1500 
 17 C       -6.1590     8.4190    -0.5010 C.ar  1 <1>  -0.1500 
 18 C       -6.7940     3.4160    -0.6200 C.3   1 <1>   0.1200 
 19 C       -5.3980     7.3790    -1.0020 C.ar  1 <1>  -0.1500 
 20 C       -7.6010     2.1500    -0.3330 C.3   1 <1>  -0.1600 
 21 C       -6.7850     0.8890    -0.6310 C.3   1 <1>  -0.2400 
 22 H      -14.1060     3.1960    -1.2670 H     1 <1>   0.0800 
 23 H      -12.5420     0.6730     0.9620 H     1 <1>   0.0800 
 24 H      -12.9900     4.6130     0.8300 H     1 <1>   0.0800 
 25 H      -12.5960     4.8010    -0.8490 H     1 <1>   0.0800 
 26 H      -14.0750     2.4030     1.6650 H     1 <1>   0.0800 
 27 H      -15.1500     1.7520     0.4400 H     1 <1>   0.0800 
 28 H      -15.2240     3.4350     0.8660 H     1 <1>   0.0800 
 29 H      -10.1920     2.0420     1.2320 H     1 <1>   0.0800 
 30 H      -11.6830     2.5370     1.9740 H     1 <1>   0.0800 
 31 H      -10.4630     0.8450    -1.2370 H     1 <1>   0.0800 
 32 H      -11.5650    -0.4770    -0.9370 H     1 <1>   0.0800 
 33 H      -10.3020    -0.1280     0.2080 H     1 <1>   0.0800 
 34 H      -10.7770     3.3950    -0.6720 H     1 <1>   0.4500 
 35 H       -9.3570     4.2670     1.1080 H     1 <1>   0.0800 
 36 H      -10.7680     5.0120     1.8130 H     1 <1>   0.0800 
 37 H      -11.0130     6.4910    -0.0970 H     1 <1>   0.0800 
 38 H       -9.7600     5.6430    -0.9920 H     1 <1>   0.0800 
 39 H       -8.0000     8.9690     0.4240 H     1 <1>   0.1500 
 40 H       -5.2520     5.3080    -1.3590 H     1 <1>   0.1500 
 41 H       -5.7810     9.4270    -0.5280 H     1 <1>   0.1500 
 42 H       -5.9230     3.4650     0.0100 H     1 <1>   0.0800 
 43 H       -6.5080     3.4550    -1.6570 H     1 <1>   0.0800 
 44 H       -4.4270     7.5810    -1.4210 H     1 <1>   0.1500 
 45 H       -8.4800     2.1500    -0.9510 H     1 <1>   0.0800 
 46 H       -7.8900     2.1430     0.7030 H     1 <1>   0.0800 
 47 H       -6.4900     0.8640    -1.6660 H     1 <1>   0.0800 
 48 H       -7.3700     0.0090    -0.4250 H     1 <1>   0.0800 
 49 H       -5.9000     0.8580    -0.0190 H     1 <1>   0.0800 
@<TRIPOS>BOND
  1   1   2  1   
  2   1   3  1   
  3   2   4  1   
  4   2   5  1   
  5   2  22  1   
  6   3   6  1   
  7   3   7  1   
  8   3  23  1   
  9   4   8  1   
 10   4  24  1   
 11   4  25  1   
 12   5  26  1   
 13   5  27  1   
 14   5  28  1   
 15   6   8  1   
 16   6  29  1   
 17   6  30  1   
 18   7  31  1   
 19   7  32  1   
 20   7  33  1   
 21   8   9  1   
 22   8  34  1   
 23   9  10  1   
 24   9  35  1   
 25   9  36  1   
 26  10  11  1   
 27  10  37  1   
 28  10  38  1   
 29  11  12  1   
 30  12  13  ar  
 31  12  14  ar  
 32  13  15  1   
 33  13  16  ar  
 34  14  17  ar  
 35  14  39  1   
 36  15  18  1   
 37  16  19  ar  
 38  16  40  1   
 39  17  19  ar  
 40  17  41  1   
 41  18  20  1   
 42  18  42  1   
 43  18  43  1   
 44  19  44  1   
 45  20  21  1   
 46  20  45  1   
 47  20  46  1   
 48  21  47  1   
 49  21  48  1   
 50  21  49  1   
@<TRIPOS>SUBSTRUCTURE
  1 ****   9 GROUP 4 **** **** 0

# MOE 2024.06 (io_trps.svl 2023.06)
