@<TRIPOS>MOLECULE
NONAME
34 35 1 0 0 
SMALL
USER_CHARGES


@<TRIPOS>ATOM
  1 N       -0.4740    -0.2170     0.8760 N.4   1 <1>  -0.9060 
  2 C       -1.3760     0.7240     0.1520 C.3   1 <1>   0.3430 
  3 C       -0.2740    -1.5010     0.1510 C.3   1 <1>   0.3430 
  4 C       -2.7540     0.0800    -0.0730 C.3   1 <1>  -0.0800 
  5 C       -1.6260    -2.1860    -0.0590 C.3   1 <1>  -0.1600 
  6 C       -2.6240    -1.2760    -0.7900 C.3   1 <1>  -0.1600 
  7 C       -3.6770     1.0300    -0.8550 C.3   1 <1>  -0.0170 
  8 C       -3.6620     2.4150    -0.2280 C.ar  1 <1>  -0.1430 
  9 C       -2.9820     3.4570    -0.8410 C.ar  1 <1>  -0.1500 
 10 C       -4.3130     2.6410     0.9750 C.ar  1 <1>  -0.1500 
 11 C       -2.9340     4.7100    -0.2530 C.ar  1 <1>  -0.1430 
 12 C       -4.2700     3.8910     1.5650 C.ar  1 <1>  -0.1500 
 13 C       -3.5790     4.9220     0.9540 C.ar  1 <1>  -0.1500 
 14 C       -2.1940     5.8540    -0.9250 C.3   1 <1>  -0.0970 
 15 H       -0.8850    -0.4140     1.7960 H     1 <1>   0.4500 
 16 H        0.4310     0.2390     1.0430 H     1 <1>   0.4500 
 17 H       -0.9450     0.9830    -0.8020 H     1 <1>   0.0800 
 18 H       -1.4940     1.6330     0.7230 H     1 <1>   0.0800 
 19 H        0.3780    -2.1490     0.7150 H     1 <1>   0.0800 
 20 H        0.1830    -1.3100    -0.8070 H     1 <1>   0.0800 
 21 H       -3.2040    -0.0820     0.8920 H     1 <1>   0.0800 
 22 H       -2.0300    -2.4840     0.8940 H     1 <1>   0.0800 
 23 H       -1.4780    -3.0830    -0.6360 H     1 <1>   0.0800 
 24 H       -2.2880    -1.1220    -1.8020 H     1 <1>   0.0800 
 25 H       -3.5860    -1.7600    -0.8360 H     1 <1>   0.0800 
 26 H       -4.6850     0.6500    -0.8530 H     1 <1>   0.0800 
 27 H       -3.3620     1.0970    -1.8820 H     1 <1>   0.0800 
 28 H       -2.4910     3.3030    -1.7850 H     1 <1>   0.1500 
 29 H       -4.8610     1.8500     1.4590 H     1 <1>   0.1500 
 30 H       -4.7770     4.0650     2.4980 H     1 <1>   0.1500 
 31 H       -3.5540     5.8920     1.4190 H     1 <1>   0.1500 
 32 H       -1.4590     5.4820    -1.6150 H     1 <1>   0.0800 
 33 H       -1.6950     6.4590    -0.1900 H     1 <1>   0.0800 
 34 H       -2.8930     6.4700    -1.4620 H     1 <1>   0.0800 
@<TRIPOS>BOND
  1   1   2  1   
  2   1   3  1   
  3   1  15  1   
  4   1  16  1   
  5   2   4  1   
  6   2  17  1   
  7   2  18  1   
  8   3   5  1   
  9   3  19  1   
 10   3  20  1   
 11   4   6  1   
 12   4   7  1   
 13   4  21  1   
 14   5   6  1   
 15   5  22  1   
 16   5  23  1   
 17   6  24  1   
 18   6  25  1   
 19   7   8  1   
 20   7  26  1   
 21   7  27  1   
 22   8   9  ar  
 23   8  10  ar  
 24   9  11  ar  
 25   9  28  1   
 26  10  12  ar  
 27  10  29  1   
 28  11  13  ar  
 29  11  14  1   
 30  12  13  ar  
 31  12  30  1   
 32  13  31  1   
 33  14  32  1   
 34  14  33  1   
 35  14  34  1   
@<TRIPOS>SUBSTRUCTURE
  1 ****   8 GROUP 4 **** **** 0

# MOE 2024.06 (io_trps.svl 2023.06)
