@<TRIPOS>MOLECULE
NONAME
41 43 1 0 0 
SMALL
USER_CHARGES


@<TRIPOS>ATOM
  1 O       -0.8400     0.2330    -0.8720 O.3   1 <1>  -0.3630 
  2 C       -1.9270    -0.4880    -0.4990 C.ar  1 <1>   0.0830 
  3 C        0.0800    -0.2210    -1.8400 C.3   1 <1>   0.0400 
  4 C       -2.7280     0.0450     0.5430 C.ar  1 <1>   0.0000 
  5 C       -2.2570    -1.6850    -1.0880 C.ar  1 <1>  -0.1500 
  6 C       -3.8620    -0.6810     0.9840 C.ar  1 <1>   0.0000 
  7 C       -2.4340     1.2770     1.1670 C.ar  1 <1>  -0.1500 
  8 C       -3.3960    -2.3810    -0.6810 C.ar  1 <1>  -0.1500 
  9 C       -4.1930    -1.8870     0.3180 C.ar  1 <1>  -0.1440 
 10 C       -4.6050    -0.1570     2.0720 C.ar  1 <1>  -0.1500 
 11 C       -3.1910     1.7660     2.1930 C.ar  1 <1>  -0.1500 
 12 C       -5.4580    -2.6380     0.6850 C.3   1 <1>   0.4860 
 13 C       -4.2850     1.0350     2.6570 C.ar  1 <1>  -0.1500 
 14 N       -6.6230    -1.8480     0.2030 N.4   1 <1>  -0.9590 
 15 C       -7.9070    -2.3460     0.7700 C.3   1 <1>   0.3430 
 16 C       -6.6570    -1.7600    -1.2880 C.3   1 <1>   0.3430 
 17 C       -9.0430    -1.4010     0.3750 C.3   1 <1>  -0.1600 
 18 C       -7.7720    -0.8070    -1.7190 C.3   1 <1>  -0.1600 
 19 C       -9.1330    -1.2230    -1.1460 C.3   1 <1>  -0.1600 
 20 H        0.8590     0.5140    -1.9290 H     1 <1>   0.0800 
 21 H       -0.4270    -0.3300    -2.7820 H     1 <1>   0.0800 
 22 H        0.4980    -1.1570    -1.5140 H     1 <1>   0.0800 
 23 H       -1.6610    -2.1140    -1.8730 H     1 <1>   0.1500 
 24 H       -1.5850     1.8410     0.8200 H     1 <1>   0.1500 
 25 H       -3.6210    -3.3070    -1.1830 H     1 <1>   0.1500 
 26 H       -5.4380    -0.7010     2.4730 H     1 <1>   0.1500 
 27 H       -2.9490     2.7080     2.6570 H     1 <1>   0.1500 
 28 H       -5.5010    -2.7610     1.7550 H     1 <1>   0.0800 
 29 H       -5.4560    -3.6150     0.2290 H     1 <1>   0.0800 
 30 H       -4.8570     1.4280     3.4810 H     1 <1>   0.1500 
 31 H       -6.4720    -0.8860     0.5350 H     1 <1>   0.4500 
 32 H       -7.8440    -2.3990     1.8450 H     1 <1>   0.0800 
 33 H       -8.1150    -3.3340     0.3910 H     1 <1>   0.0800 
 34 H       -6.8330    -2.7370    -1.7090 H     1 <1>   0.0800 
 35 H       -5.7130    -1.3930    -1.6600 H     1 <1>   0.0800 
 36 H       -8.8940    -0.4450     0.8480 H     1 <1>   0.0800 
 37 H       -9.9750    -1.7970     0.7420 H     1 <1>   0.0800 
 38 H       -7.8270    -0.7950    -2.7950 H     1 <1>   0.0800 
 39 H       -7.5280     0.1920    -1.4010 H     1 <1>   0.0800 
 40 H       -9.8740    -0.4770    -1.3850 H     1 <1>   0.0800 
 41 H       -9.4460    -2.1490    -1.5990 H     1 <1>   0.0800 
@<TRIPOS>BOND
  1   1   2  1   
  2   1   3  1   
  3   2   4  ar  
  4   2   5  ar  
  5   3  20  1   
  6   3  21  1   
  7   3  22  1   
  8   4   6  ar  
  9   4   7  ar  
 10   5   8  ar  
 11   5  23  1   
 12   6   9  ar  
 13   6  10  ar  
 14   7  11  ar  
 15   7  24  1   
 16   8   9  ar  
 17   8  25  1   
 18   9  12  1   
 19  10  13  ar  
 20  10  26  1   
 21  11  13  ar  
 22  11  27  1   
 23  12  14  1   
 24  12  28  1   
 25  12  29  1   
 26  13  30  1   
 27  14  15  1   
 28  14  16  1   
 29  14  31  1   
 30  15  17  1   
 31  15  32  1   
 32  15  33  1   
 33  16  18  1   
 34  16  34  1   
 35  16  35  1   
 36  17  19  1   
 37  17  36  1   
 38  17  37  1   
 39  18  19  1   
 40  18  38  1   
 41  18  39  1   
 42  19  40  1   
 43  19  41  1   
@<TRIPOS>SUBSTRUCTURE
  1 ****   6 GROUP 4 **** **** 0

# MOE 2024.06 (io_trps.svl 2023.06)
