@<TRIPOS>MOLECULE
NONAME
59 62 1 0 0 
SMALL
USER_CHARGES


@<TRIPOS>ATOM
  1 S       -0.0540    -0.2320     1.9040 S.o2  1 <1>   1.4470 
  2 O       -0.3050     0.9670     2.6780 O.2   1 <1>  -0.6500 
  3 O        0.1400    -1.4690     2.6320 O.2   1 <1>  -0.6500 
  4 N        1.4050     0.1000     1.1020 N.am  1 <1>  -0.8490 
  5 C       -1.2750    -0.4970     0.5540 C.ar  1 <1>  -0.0090 
  6 C        2.5420     0.0370     2.0220 C.3   1 <1>   0.1960 
  7 C        1.3530     1.3740     0.3810 C.3   1 <1>   0.1960 
  8 C       -1.0000    -1.3810    -0.5010 C.ar  1 <1>  -0.1440 
  9 C       -2.5160     0.1610     0.5310 C.ar  1 <1>  -0.1430 
 10 C        3.8560     0.1900     1.2500 C.3   1 <1>  -0.1600 
 11 C        2.6240     1.5590    -0.4510 C.3   1 <1>  -0.1600 
 12 C       -1.8980    -1.5510    -1.5420 C.ar  1 <1>  -0.1500 
 13 C        0.2810    -2.2090    -0.5800 C.3   1 <1>  -0.0970 
 14 C       -3.4000    -0.0250    -0.5200 C.ar  1 <1>  -0.1500 
 15 C       -2.9800     1.1000     1.6390 C.3   1 <1>  -0.0970 
 16 C        3.8810     1.4920     0.4320 C.3   1 <1>  -0.0190 
 17 C       -3.0980    -0.8720    -1.5650 C.ar  1 <1>  -0.1430 
 18 C        5.1630     1.6120    -0.3900 C.2   1 <1>   0.5690 
 19 C       -4.0740    -1.0660    -2.7110 C.3   1 <1>  -0.0970 
 20 O        5.3560     0.8280    -1.2870 O.2   1 <1>  -0.5700 
 21 N        6.0410     2.6060    -0.0530 N.am  1 <1>  -0.5470 
 22 C        7.2790     2.9790    -0.6060 C.ar  1 <1>   0.1170 
 23 C        8.1450     3.7390     0.1720 C.ar  1 <1>  -0.1500 
 24 C        7.6720     2.6390    -1.9000 C.ar  1 <1>  -0.1500 
 25 C        9.3710     4.1440    -0.3220 C.ar  1 <1>   0.0820 
 26 C        8.8970     3.0440    -2.4040 C.ar  1 <1>  -0.1500 
 27 O       10.1910     4.8710     0.4800 O.3   1 <1>  -0.3630 
 28 C        9.7480     3.8030    -1.6210 C.ar  1 <1>   0.0820 
 29 C       11.5410     4.9920     0.0700 C.3   1 <1>   0.1200 
 30 O       10.9390     4.2060    -2.1400 O.3   1 <1>  -0.3630 
 31 C       11.6170     5.2350    -1.4440 C.3   1 <1>   0.1200 
 32 H        2.5490    -0.9160     2.5260 H     1 <1>   0.0800 
 33 H        2.4510     0.8100     2.7680 H     1 <1>   0.0800 
 34 H        1.2470     2.1900     1.0780 H     1 <1>   0.0800 
 35 H        0.5020     1.3830    -0.2800 H     1 <1>   0.0800 
 36 H        3.9690    -0.6560     0.5920 H     1 <1>   0.0800 
 37 H        4.6790     0.1760     1.9420 H     1 <1>   0.0800 
 38 H        2.5850     2.5070    -0.9580 H     1 <1>   0.0800 
 39 H        2.6610     0.7880    -1.2020 H     1 <1>   0.0800 
 40 H       -1.6660    -2.2230    -2.3490 H     1 <1>   0.1500 
 41 H        1.0990    -1.6000    -0.9210 H     1 <1>   0.0800 
 42 H        0.1690    -3.0280    -1.2660 H     1 <1>   0.0800 
 43 H        0.5330    -2.6300     0.3760 H     1 <1>   0.0800 
 44 H       -4.3430     0.4920    -0.5300 H     1 <1>   0.1500 
 45 H       -2.4050     2.0080     1.6230 H     1 <1>   0.0800 
 46 H       -2.8750     0.6290     2.6010 H     1 <1>   0.0800 
 47 H       -4.0160     1.3630     1.5220 H     1 <1>   0.0800 
 48 H        3.8400     2.3160     1.1220 H     1 <1>   0.0800 
 49 H       -3.5450    -1.2850    -3.6220 H     1 <1>   0.0800 
 50 H       -4.6570    -0.1760    -2.8640 H     1 <1>   0.0800 
 51 H       -4.7370    -1.8830    -2.4890 H     1 <1>   0.0800 
 52 H        5.7800     3.1490     0.7660 H     1 <1>   0.3700 
 53 H        7.8780     4.0170     1.1730 H     1 <1>   0.1500 
 54 H        7.0230     2.0560    -2.5270 H     1 <1>   0.1500 
 55 H        9.1930     2.7780    -3.4020 H     1 <1>   0.1500 
 56 H       12.0530     4.0820     0.3280 H     1 <1>   0.0800 
 57 H       11.9790     5.8110     0.6110 H     1 <1>   0.0800 
 58 H       12.6380     5.2430    -1.7800 H     1 <1>   0.0800 
 59 H       11.1530     6.1720    -1.6970 H     1 <1>   0.0800 
@<TRIPOS>BOND
  1   1   2  2   
  2   1   3  2   
  3   1   4  am  
  4   1   5  1   
  5   4   6  1   
  6   4   7  1   
  7   5   8  ar  
  8   5   9  ar  
  9   6  10  1   
 10   6  32  1   
 11   6  33  1   
 12   7  11  1   
 13   7  34  1   
 14   7  35  1   
 15   8  12  ar  
 16   8  13  1   
 17   9  14  ar  
 18   9  15  1   
 19  10  16  1   
 20  10  36  1   
 21  10  37  1   
 22  11  16  1   
 23  11  38  1   
 24  11  39  1   
 25  12  17  ar  
 26  12  40  1   
 27  13  41  1   
 28  13  42  1   
 29  13  43  1   
 30  14  17  ar  
 31  14  44  1   
 32  15  45  1   
 33  15  46  1   
 34  15  47  1   
 35  16  18  1   
 36  16  48  1   
 37  17  19  1   
 38  18  20  2   
 39  18  21  am  
 40  19  49  1   
 41  19  50  1   
 42  19  51  1   
 43  21  22  1   
 44  21  52  1   
 45  22  23  ar  
 46  22  24  ar  
 47  23  25  ar  
 48  23  53  1   
 49  24  26  ar  
 50  24  54  1   
 51  25  27  1   
 52  25  28  ar  
 53  26  28  ar  
 54  26  55  1   
 55  27  29  1   
 56  28  30  1   
 57  29  31  1   
 58  29  56  1   
 59  29  57  1   
 60  30  31  1   
 61  31  58  1   
 62  31  59  1   
@<TRIPOS>SUBSTRUCTURE
  1 ****  16 GROUP 4 **** **** 0

# MOE 2024.06 (io_trps.svl 2023.06)
