@<TRIPOS>MOLECULE
NONAME
51 53 1 0 0 
SMALL
USER_CHARGES


@<TRIPOS>ATOM
  1 S       -0.6840     1.4450    -0.2630 S.o2  1 <1>   1.4470 
  2 O       -1.1440     2.4400    -1.2070 O.2   1 <1>  -0.6500 
  3 O       -1.4580     0.2360    -0.0760 O.2   1 <1>  -0.6500 
  4 N       -0.5750     2.1940     1.2530 N.am  1 <1>  -0.8490 
  5 C        1.0320     0.9870    -0.6300 C.ar  1 <1>  -0.0090 
  6 C       -1.9130     2.3130     1.9070 C.3   1 <1>   0.2570 
  7 C        0.1430     3.4730     1.1810 C.3   1 <1>   0.1960 
  8 C        1.7890     0.2650     0.2870 C.ar  1 <1>  -0.1500 
  9 C        1.6360     1.3460    -1.8300 C.ar  1 <1>  -0.1500 
 10 C       -2.9140     3.3080     1.2790 C.2   1 <1>   0.5690 
 11 C        0.5510     3.9490     2.5740 C.3   1 <1>  -0.2400 
 12 C        3.1010    -0.0790     0.0190 C.ar  1 <1>  -0.1500 
 13 C        2.9490     1.0060    -2.1090 C.ar  1 <1>  -0.1500 
 14 O       -2.7750     4.4710     1.5890 O.2   1 <1>  -0.5700 
 15 N       -3.9220     2.9300     0.4230 N.am  1 <1>  -0.6600 
 16 C        3.6920     0.2880    -1.1770 C.ar  1 <1>   0.0830 
 17 C       -4.6450     3.9860    -0.3500 C.3   1 <1>   0.2840 
 18 C       -4.2570     1.5370     0.0100 C.3   1 <1>   0.1400 
 19 O        4.9810    -0.0840    -1.3640 O.3   1 <1>  -0.3630 
 20 C       -6.0600     3.5900    -0.7730 C.ar  1 <1>  -0.1430 
 21 C       -5.7520     1.2820     0.1940 C.3   1 <1>  -0.0170 
 22 C        5.6690     0.2180    -2.5570 C.3   1 <1>   0.0400 
 23 C       -6.5840     2.3260    -0.5290 C.ar  1 <1>  -0.1430 
 24 C       -6.8400     4.5300    -1.4300 C.ar  1 <1>  -0.1500 
 25 C       -7.8720     2.0180    -0.9380 C.ar  1 <1>  -0.1500 
 26 C       -8.1250     4.2200    -1.8400 C.ar  1 <1>  -0.1500 
 27 C       -8.6420     2.9610    -1.5940 C.ar  1 <1>  -0.1500 
 28 H       -1.7650     2.6250     2.9240 H     1 <1>   0.0800 
 29 H       -2.3580     1.3400     1.9780 H     1 <1>   0.0800 
 30 H       -0.4500     4.2230     0.6820 H     1 <1>   0.0800 
 31 H        1.0450     3.3430     0.6060 H     1 <1>   0.0800 
 32 H        1.3430    -0.0280     1.2230 H     1 <1>   0.1500 
 33 H        1.0690     1.9020    -2.5590 H     1 <1>   0.1500 
 34 H       -0.3040     4.2760     3.1360 H     1 <1>   0.0800 
 35 H        1.2180     4.7870     2.4800 H     1 <1>   0.0800 
 36 H        1.0610     3.1650     3.1040 H     1 <1>   0.0800 
 37 H        3.6770    -0.6360     0.7370 H     1 <1>   0.1500 
 38 H        3.3720     1.3060    -3.0480 H     1 <1>   0.1500 
 39 H       -4.0690     4.2100    -1.2310 H     1 <1>   0.0800 
 40 H       -4.7110     4.8850     0.2370 H     1 <1>   0.0800 
 41 H       -3.7230     0.8100     0.5880 H     1 <1>   0.0800 
 42 H       -3.9910     1.4060    -1.0260 H     1 <1>   0.0800 
 43 H       -5.9900     1.3020     1.2420 H     1 <1>   0.0800 
 44 H       -5.9850     0.3030    -0.1840 H     1 <1>   0.0800 
 45 H        6.6640    -0.1830    -2.4790 H     1 <1>   0.0800 
 46 H        5.7140     1.2860    -2.6740 H     1 <1>   0.0800 
 47 H        5.1540    -0.2400    -3.3820 H     1 <1>   0.0800 
 48 H       -6.4490     5.5130    -1.6270 H     1 <1>   0.1500 
 49 H       -8.2810     1.0420    -0.7480 H     1 <1>   0.1500 
 50 H       -8.7210     4.9570    -2.3490 H     1 <1>   0.1500 
 51 H       -9.6400     2.7170    -1.9100 H     1 <1>   0.1500 
@<TRIPOS>BOND
  1   1   2  2   
  2   1   3  2   
  3   1   4  am  
  4   1   5  1   
  5   4   6  1   
  6   4   7  1   
  7   5   8  ar  
  8   5   9  ar  
  9   6  10  1   
 10   6  28  1   
 11   6  29  1   
 12   7  11  1   
 13   7  30  1   
 14   7  31  1   
 15   8  12  ar  
 16   8  32  1   
 17   9  13  ar  
 18   9  33  1   
 19  10  14  2   
 20  10  15  am  
 21  11  34  1   
 22  11  35  1   
 23  11  36  1   
 24  12  16  ar  
 25  12  37  1   
 26  13  16  ar  
 27  13  38  1   
 28  15  17  1   
 29  15  18  1   
 30  16  19  1   
 31  17  20  1   
 32  17  39  1   
 33  17  40  1   
 34  18  21  1   
 35  18  41  1   
 36  18  42  1   
 37  19  22  1   
 38  20  23  ar  
 39  20  24  ar  
 40  21  23  1   
 41  21  43  1   
 42  21  44  1   
 43  22  45  1   
 44  22  46  1   
 45  22  47  1   
 46  23  25  ar  
 47  24  26  ar  
 48  24  48  1   
 49  25  27  ar  
 50  25  49  1   
 51  26  27  ar  
 52  26  50  1   
 53  27  51  1   
@<TRIPOS>SUBSTRUCTURE
  1 ****   2 GROUP 4 **** **** 0

# MOE 2024.06 (io_trps.svl 2023.06)
