@<TRIPOS>MOLECULE
NONAME
29 30 1 0 0 
SMALL
USER_CHARGES


@<TRIPOS>ATOM
  1 O       -0.5210     0.1920    -0.1010 O.2   1 <1>  -0.5700 
  2 C       -1.6800     0.0140    -0.4170 C.2   1 <1>   0.6900 
  3 N       -2.4460    -0.9880     0.1400 N.am  1 <1>  -0.4770 
  4 N       -2.1880     0.8030    -1.3760 N.am  1 <1>  -0.8000 
  5 C       -3.8580    -1.0630     0.0980 C.ar  1 <1>   0.1170 
  6 C       -1.7520    -2.2020     0.6360 C.3   1 <1>   0.1400 
  7 C       -4.4980    -2.2950    -0.0590 C.ar  1 <1>  -0.1430 
  8 C       -4.6430     0.0810     0.2240 C.ar  1 <1>  -0.1500 
  9 C       -2.1990    -3.3890    -0.2190 C.3   1 <1>  -0.1600 
 10 C       -5.8800    -2.3530    -0.1370 C.ar  1 <1>  -0.1500 
 11 C       -3.7140    -3.6030    -0.1110 C.3   1 <1>  -0.0170 
 12 C       -6.0220     0.0200     0.1490 C.ar  1 <1>  -0.1500 
 13 C       -6.6500    -1.2060    -0.0420 C.ar  1 <1>   0.0820 
 14 O       -7.9970    -1.3640    -0.1340 O.3   1 <1>  -0.3630 
 15 C       -8.8660    -0.2610    -0.0100 C.3   1 <1>   0.0400 
 16 H       -1.5660     1.4450    -1.8630 H     1 <1>   0.3700 
 17 H       -3.0850     0.5820    -1.8030 H     1 <1>   0.3700 
 18 H       -2.0160    -2.3600     1.6680 H     1 <1>   0.0800 
 19 H       -0.6830    -2.0900     0.5730 H     1 <1>   0.0800 
 20 H       -4.1680     1.0310     0.3900 H     1 <1>   0.1500 
 21 H       -1.6820    -4.2790     0.0920 H     1 <1>   0.0800 
 22 H       -1.9320    -3.1920    -1.2430 H     1 <1>   0.0800 
 23 H       -6.3810    -3.2950    -0.2650 H     1 <1>   0.1500 
 24 H       -4.0510    -4.2000    -0.9400 H     1 <1>   0.0800 
 25 H       -3.9220    -4.1480     0.7930 H     1 <1>   0.0800 
 26 H       -6.5850     0.9280     0.2450 H     1 <1>   0.1500 
 27 H       -9.8760    -0.6190    -0.1040 H     1 <1>   0.0800 
 28 H       -8.6540     0.4420    -0.7960 H     1 <1>   0.0800 
 29 H       -8.7270     0.1870     0.9580 H     1 <1>   0.0800 
@<TRIPOS>BOND
  1   1   2  2   
  2   2   3  am  
  3   2   4  am  
  4   3   5  1   
  5   3   6  1   
  6   4  16  1   
  7   4  17  1   
  8   5   7  ar  
  9   5   8  ar  
 10   6   9  1   
 11   6  18  1   
 12   6  19  1   
 13   7  10  ar  
 14   7  11  1   
 15   8  12  ar  
 16   8  20  1   
 17   9  11  1   
 18   9  21  1   
 19   9  22  1   
 20  10  13  ar  
 21  10  23  1   
 22  11  24  1   
 23  11  25  1   
 24  12  13  ar  
 25  12  26  1   
 26  13  14  1   
 27  14  15  1   
 28  15  27  1   
 29  15  28  1   
 30  15  29  1   
@<TRIPOS>SUBSTRUCTURE
  1 ****   5 GROUP 4 **** **** 0

# MOE 2024.06 (io_trps.svl 2023.06)
