@<TRIPOS>MOLECULE
NONAME
37 38 1 0 0 
SMALL
USER_CHARGES


@<TRIPOS>ATOM
  1 S        0.4210    -0.6040     1.4510 S.3   1 <1>  -0.4600 
  2 C        0.9330    -2.2590     0.9200 C.3   1 <1>   0.0700 
  3 C        1.9220     0.3750     1.1890 C.3   1 <1>   0.0700 
  4 C        1.5260    -2.1690    -0.4930 C.3   1 <1>   0.3430 
  5 C        2.4050     0.1730    -0.2530 C.3   1 <1>   0.3430 
  6 N        2.7260    -1.2670    -0.5590 N.4   1 <1>  -0.9590 
  7 C        3.4150    -1.4040    -1.8610 C.3   1 <1>   0.4810 
  8 C        4.8080    -0.8710    -1.6530 C.2   1 <1>  -0.2880 
  9 C        5.8530    -1.6250    -1.2720 C.2   1 <1>  -0.1780 
 10 C        7.2060    -1.1820    -1.0200 C.ar  1 <1>   0.0280 
 11 C        8.0060    -1.8080    -0.0540 C.ar  1 <1>   0.0830 
 12 C        7.7510    -0.1190    -1.7370 C.ar  1 <1>  -0.1500 
 13 O        7.4580    -2.8390     0.6470 O.3   1 <1>  -0.3630 
 14 C        9.3070    -1.3650     0.1710 C.ar  1 <1>  -0.1500 
 15 C        9.0410     0.3180    -1.5080 C.ar  1 <1>  -0.1500 
 16 C        8.2070    -3.5890     1.5800 C.3   1 <1>   0.0400 
 17 C        9.8210    -0.3060    -0.5520 C.ar  1 <1>  -0.1500 
 18 H        1.6470    -2.6300     1.6340 H     1 <1>   0.0800 
 19 H        0.0530    -2.8790     0.9350 H     1 <1>   0.0800 
 20 H        1.6630     1.4030     1.3720 H     1 <1>   0.0800 
 21 H        2.6570     0.0560     1.9080 H     1 <1>   0.0800 
 22 H        0.7630    -1.8090    -1.1650 H     1 <1>   0.0800 
 23 H        1.8030    -3.1620    -0.8070 H     1 <1>   0.0800 
 24 H        3.2840     0.7790    -0.4000 H     1 <1>   0.0800 
 25 H        1.6420     0.5270    -0.9270 H     1 <1>   0.0800 
 26 H        3.4150    -1.5820     0.1390 H     1 <1>   0.4500 
 27 H        3.4760    -2.4460    -2.1320 H     1 <1>   0.0800 
 28 H        2.9010    -0.8680    -2.6430 H     1 <1>   0.0800 
 29 H        4.8920     0.1880    -1.8260 H     1 <1>   0.1500 
 30 H        5.7240    -2.6820    -1.1050 H     1 <1>   0.1500 
 31 H        7.1650     0.3720    -2.4920 H     1 <1>   0.1500 
 32 H        9.9380    -1.8280     0.9060 H     1 <1>   0.1500 
 33 H        9.4440     1.1410    -2.0740 H     1 <1>   0.1500 
 34 H        7.5750    -4.3670     1.9690 H     1 <1>   0.0800 
 35 H        8.5210    -2.9410     2.3790 H     1 <1>   0.0800 
 36 H        9.0540    -4.0240     1.0800 H     1 <1>   0.0800 
 37 H       10.8270     0.0330    -0.3740 H     1 <1>   0.1500 
@<TRIPOS>BOND
  1   1   2  1   
  2   1   3  1   
  3   2   4  1   
  4   2  18  1   
  5   2  19  1   
  6   3   5  1   
  7   3  20  1   
  8   3  21  1   
  9   4   6  1   
 10   4  22  1   
 11   4  23  1   
 12   5   6  1   
 13   5  24  1   
 14   5  25  1   
 15   6   7  1   
 16   6  26  1   
 17   7   8  1   
 18   7  27  1   
 19   7  28  1   
 20   8   9  2   
 21   8  29  1   
 22   9  10  1   
 23   9  30  1   
 24  10  11  ar  
 25  10  12  ar  
 26  11  13  1   
 27  11  14  ar  
 28  12  15  ar  
 29  12  31  1   
 30  13  16  1   
 31  14  17  ar  
 32  14  32  1   
 33  15  17  ar  
 34  15  33  1   
 35  16  34  1   
 36  16  35  1   
 37  16  36  1   
 38  17  37  1   
@<TRIPOS>SUBSTRUCTURE
  1 ****   9 GROUP 4 **** **** 0

# MOE 2024.06 (io_trps.svl 2023.06)
