@<TRIPOS>MOLECULE
NONAME
48 50 1 0 0 
SMALL
USER_CHARGES


@<TRIPOS>ATOM
  1 S        2.2760     5.2080     0.9850 S.o2  1 <1>   1.4470 
  2 O        2.3540     4.8290     2.3790 O.2   1 <1>  -0.6500 
  3 O        3.0770     6.3020     0.4900 O.2   1 <1>  -0.6500 
  4 N        2.8130     3.8370     0.1350 N.am  1 <1>  -0.8490 
  5 C        0.5540     5.4120     0.4570 C.ar  1 <1>  -0.0090 
  6 C        4.2940     3.7700     0.1660 C.3   1 <1>   0.1960 
  7 C        2.2370     2.5800     0.6610 C.3   1 <1>   0.1960 
  8 C        0.2450     5.8010    -0.8420 C.ar  1 <1>  -0.1500 
  9 C       -0.5040     5.1830     1.3290 C.ar  1 <1>  -0.1500 
 10 C        4.8700     2.4720    -0.4530 C.3   1 <1>   0.3430 
 11 C        2.6920     1.3340    -0.1440 C.3   1 <1>   0.3430 
 12 C       -1.0670     5.9570    -1.2510 C.ar  1 <1>  -0.1500 
 13 C       -1.8170     5.3390     0.9230 C.ar  1 <1>  -0.1500 
 14 N        3.8020     1.6460    -1.1140 N.4   1 <1>  -0.9590 
 15 C       -2.1220     5.7320    -0.3760 C.ar  1 <1>   0.1990 
 16 C        4.3410     0.4290    -1.7920 C.3   1 <1>   0.2630 
 17 N       -3.4200     5.9030    -0.8320 N.am  1 <1>  -0.7570 
 18 S       -4.8850     5.9870     0.0600 S.o2  1 <1>   1.4470 
 19 O       -4.6090     6.7530     1.2520 O.2   1 <1>  -0.6500 
 20 O       -5.8250     6.4600    -0.9260 O.2   1 <1>  -0.6500 
 21 C       -5.2110     4.2470     0.4530 C.ar  1 <1>  -0.0090 
 22 C       -5.2230     3.7960     1.7690 C.ar  1 <1>  -0.1500 
 23 C       -5.4470     3.3170    -0.5540 C.ar  1 <1>  -0.1500 
 24 C       -5.4560     2.4650     2.0700 C.ar  1 <1>  -0.1500 
 25 C       -5.6810     1.9850    -0.2620 C.ar  1 <1>  -0.1500 
 26 C       -5.6850     1.5570     1.0530 C.ar  1 <1>  -0.1500 
 27 H        4.6450     3.8560     1.1820 H     1 <1>   0.0800 
 28 H        4.6960     4.6110    -0.3760 H     1 <1>   0.0800 
 29 H        1.1610     2.6320     0.6390 H     1 <1>   0.0800 
 30 H        2.5270     2.4450     1.6910 H     1 <1>   0.0800 
 31 H        1.0450     5.9920    -1.5380 H     1 <1>   0.1500 
 32 H       -0.3010     4.8890     2.3460 H     1 <1>   0.1500 
 33 H        5.3430     1.8970     0.3260 H     1 <1>   0.0800 
 34 H        5.6320     2.7360    -1.1690 H     1 <1>   0.0800 
 35 H        1.8450     0.9420    -0.6830 H     1 <1>   0.0800 
 36 H        3.0110     0.5740     0.5500 H     1 <1>   0.0800 
 37 H       -1.2750     6.2640    -2.2600 H     1 <1>   0.1500 
 38 H       -2.6030     5.1600     1.6330 H     1 <1>   0.1500 
 39 H        3.3760     2.2770    -1.8130 H     1 <1>   0.4500 
 40 H        4.7890    -0.2360    -1.0700 H     1 <1>   0.0800 
 41 H        5.0890     0.7050    -2.5180 H     1 <1>   0.0800 
 42 H        3.5500    -0.0980    -2.3010 H     1 <1>   0.0800 
 43 H       -3.5700     6.3100    -1.7490 H     1 <1>   0.4200 
 44 H       -5.0490     4.4950     2.5710 H     1 <1>   0.1500 
 45 H       -5.4520     3.6410    -1.5810 H     1 <1>   0.1500 
 46 H       -5.4640     2.1360     3.0960 H     1 <1>   0.1500 
 47 H       -5.8640     1.2810    -1.0560 H     1 <1>   0.1500 
 48 H       -5.8690     0.5220     1.2840 H     1 <1>   0.1500 
@<TRIPOS>BOND
  1   1   2  2   
  2   1   3  2   
  3   1   4  am  
  4   1   5  1   
  5   4   6  1   
  6   4   7  1   
  7   5   8  ar  
  8   5   9  ar  
  9   6  10  1   
 10   6  27  1   
 11   6  28  1   
 12   7  11  1   
 13   7  29  1   
 14   7  30  1   
 15   8  12  ar  
 16   8  31  1   
 17   9  13  ar  
 18   9  32  1   
 19  10  14  1   
 20  10  33  1   
 21  10  34  1   
 22  11  14  1   
 23  11  35  1   
 24  11  36  1   
 25  12  15  ar  
 26  12  37  1   
 27  13  15  ar  
 28  13  38  1   
 29  14  16  1   
 30  14  39  1   
 31  15  17  1   
 32  16  40  1   
 33  16  41  1   
 34  16  42  1   
 35  17  18  am  
 36  17  43  1   
 37  18  19  2   
 38  18  20  2   
 39  18  21  1   
 40  21  22  ar  
 41  21  23  ar  
 42  22  24  ar  
 43  22  44  1   
 44  23  25  ar  
 45  23  45  1   
 46  24  26  ar  
 47  24  46  1   
 48  25  26  ar  
 49  25  47  1   
 50  26  48  1   
@<TRIPOS>SUBSTRUCTURE
  1 ****   9 GROUP 4 **** **** 0

# MOE 2024.06 (io_trps.svl 2023.06)
