@<TRIPOS>MOLECULE
NONAME
45 48 1 0 0 
SMALL
USER_CHARGES


@<TRIPOS>ATOM
  1 O        0.1310     0.0380     0.1690 O.2   1 <1>  -0.5700 
  2 C        0.0550     1.2330    -0.0460 C.2   1 <1>   0.5440 
  3 N       -1.1590     1.8690     0.0000 N.am  1 <1>  -0.5470 
  4 C        1.2480     2.0070    -0.3340 C.ar  1 <1>   0.0860 
  5 C       -2.4880     1.4640     0.1970 C.ar  1 <1>   0.1170 
  6 C        2.4930     1.6130     0.1610 C.ar  1 <1>  -0.1500 
  7 C        1.2030     3.1710    -1.1110 C.ar  1 <1>  -0.1500 
  8 C       -3.4410     2.4900     0.2710 C.ar  1 <1>   0.1000 
  9 C       -2.8930     0.1410     0.3110 C.ar  1 <1>  -0.1500 
 10 C        3.6340     2.3500    -0.0910 C.ar  1 <1>   0.0830 
 11 C        2.3390     3.9200    -1.3640 C.ar  1 <1>  -0.1500 
 12 N       -3.0360     3.8350     0.1520 N.pl3 1 <1>  -0.8380 
 13 C       -4.7760     2.1580     0.4660 C.ar  1 <1>  -0.1500 
 14 C       -4.2270    -0.1730     0.5020 C.ar  1 <1>  -0.1500 
 15 O        4.8210     1.9160     0.4060 O.3   1 <1>  -0.3630 
 16 C        3.5580     3.5200    -0.8480 C.ar  1 <1>   0.0830 
 17 C       -3.5300     4.6120    -1.0290 C.3   1 <1>   0.2090 
 18 C       -2.9710     4.6350     1.4150 C.3   1 <1>   0.2090 
 19 C       -5.1690     0.8360     0.5810 C.ar  1 <1>  -0.1500 
 20 C        5.9920     2.4890    -0.1440 C.3   1 <1>   0.1200 
 21 O        4.6550     4.2750    -1.0880 O.3   1 <1>  -0.3630 
 22 C       -4.7130     5.5370    -0.6830 C.3   1 <1>   0.1200 
 23 C       -4.2050     5.5370     1.6010 C.3   1 <1>   0.1200 
 24 C        5.8120     4.0030    -0.3200 C.3   1 <1>   0.1200 
 25 O       -4.4440     6.3050     0.4550 O.3   1 <1>  -0.5600 
 26 H       -1.1390     2.8890    -0.0670 H     1 <1>   0.3700 
 27 H        2.5690     0.7160     0.7500 H     1 <1>   0.1500 
 28 H        0.2680     3.4960    -1.5320 H     1 <1>   0.1500 
 29 H       -2.1710    -0.6520     0.2510 H     1 <1>   0.1500 
 30 H        2.2900     4.8140    -1.9590 H     1 <1>   0.1500 
 31 H       -5.5120     2.9340     0.5320 H     1 <1>   0.1500 
 32 H       -4.5270    -1.2030     0.5900 H     1 <1>   0.1500 
 33 H       -3.8260     3.9310    -1.8090 H     1 <1>   0.0800 
 34 H       -2.7230     5.2120    -1.4100 H     1 <1>   0.0800 
 35 H       -2.0900     5.2520     1.3930 H     1 <1>   0.0800 
 36 H       -2.8840     3.9710     2.2580 H     1 <1>   0.0800 
 37 H       -6.2070     0.5920     0.7320 H     1 <1>   0.1500 
 38 H        6.1780     2.0210    -1.0950 H     1 <1>   0.0800 
 39 H        6.8090     2.2740     0.5200 H     1 <1>   0.0800 
 40 H       -5.6050     4.9630    -0.5080 H     1 <1>   0.0800 
 41 H       -4.9000     6.2130    -1.4970 H     1 <1>   0.0800 
 42 H       -4.0470     6.2130     2.4220 H     1 <1>   0.0800 
 43 H       -5.0780     4.9430     1.8090 H     1 <1>   0.0800 
 44 H        6.6560     4.4330    -0.8280 H     1 <1>   0.0800 
 45 H        5.6970     4.4780     0.6380 H     1 <1>   0.0800 
@<TRIPOS>BOND
  1   1   2  2   
  2   2   3  am  
  3   2   4  1   
  4   3   5  1   
  5   3  26  1   
  6   4   6  ar  
  7   4   7  ar  
  8   5   8  ar  
  9   5   9  ar  
 10   6  10  ar  
 11   6  27  1   
 12   7  11  ar  
 13   7  28  1   
 14   8  12  1   
 15   8  13  ar  
 16   9  14  ar  
 17   9  29  1   
 18  10  15  1   
 19  10  16  ar  
 20  11  16  ar  
 21  11  30  1   
 22  12  17  1   
 23  12  18  1   
 24  13  19  ar  
 25  13  31  1   
 26  14  19  ar  
 27  14  32  1   
 28  15  20  1   
 29  16  21  1   
 30  17  22  1   
 31  17  33  1   
 32  17  34  1   
 33  18  23  1   
 34  18  35  1   
 35  18  36  1   
 36  19  37  1   
 37  20  24  1   
 38  20  38  1   
 39  20  39  1   
 40  21  24  1   
 41  22  25  1   
 42  22  40  1   
 43  22  41  1   
 44  23  25  1   
 45  23  42  1   
 46  23  43  1   
 47  24  44  1   
 48  24  45  1   
@<TRIPOS>SUBSTRUCTURE
  1 ****   3 GROUP 4 **** **** 0

# MOE 2024.06 (io_trps.svl 2023.06)
