@<TRIPOS>MOLECULE
NONAME
36 35 1 0 0 
SMALL
USER_CHARGES


@<TRIPOS>ATOM
  1 O        2.3110     3.5690    -0.0670 O.3   1 <1>  -0.6800 
  2 C        2.3170     2.5370     0.8860 C.3   1 <1>   0.2000 
  3 C        3.5700     1.6470     0.6690 C.3   1 <1>   0.3430 
  4 C        1.0040     1.7170     0.7630 C.3   1 <1>   0.3430 
  5 N        4.7540     2.4430     0.2070 N.4   1 <1>  -0.9060 
  6 N       -0.1690     2.5750     0.3990 N.4   1 <1>  -0.9060 
  7 C        5.9090     1.7040    -0.3110 C.3   1 <1>   0.5030 
  8 C       -1.3640     1.8060    -0.0170 C.3   1 <1>   0.3430 
  9 C        5.5020     0.9170    -1.5560 C.3   1 <1>  -0.2400 
 10 C        6.9560     2.7500    -0.6790 C.3   1 <1>  -0.2400 
 11 C        6.4540     0.7770     0.7730 C.3   1 <1>  -0.2400 
 12 C       -2.4550     2.7980    -0.3870 C.3   1 <1>  -0.2400 
 13 H        2.3260     4.4620     0.3520 H     1 <1>   0.4000 
 14 H        2.3660     2.9900     1.8620 H     1 <1>   0.0800 
 15 H        3.3320     0.9090    -0.0790 H     1 <1>   0.0800 
 16 H        3.8080     1.1180     1.5790 H     1 <1>   0.0800 
 17 H        0.8100     1.1930     1.6860 H     1 <1>   0.0800 
 18 H        1.1390     0.9750    -0.0080 H     1 <1>   0.0800 
 19 H        5.1020     3.0540     0.9520 H     1 <1>   0.4500 
 20 H        4.4280     3.0690    -0.5440 H     1 <1>   0.4500 
 21 H        0.1230     3.1880    -0.3800 H     1 <1>   0.4500 
 22 H       -0.4330     3.2020     1.1700 H     1 <1>   0.4500 
 23 H       -1.7050     1.1740     0.7900 H     1 <1>   0.0800 
 24 H       -1.1340     1.1840    -0.8680 H     1 <1>   0.0800 
 25 H        5.0630     1.5610    -2.2980 H     1 <1>   0.0800 
 26 H        4.8210     0.1200    -1.3230 H     1 <1>   0.0800 
 27 H        6.3750     0.4650    -1.9960 H     1 <1>   0.0800 
 28 H        6.5910     3.4190    -1.4380 H     1 <1>   0.0800 
 29 H        7.8340     2.2650    -1.0700 H     1 <1>   0.0800 
 30 H        7.2590     3.3200     0.1820 H     1 <1>   0.0800 
 31 H        5.7590    -0.0050     1.0180 H     1 <1>   0.0800 
 32 H        6.7060     1.3250     1.6640 H     1 <1>   0.0800 
 33 H        7.3540     0.3020     0.4210 H     1 <1>   0.0800 
 34 H       -2.7260     3.4100     0.4550 H     1 <1>   0.0800 
 35 H       -3.3340     2.2570    -0.6960 H     1 <1>   0.0800 
 36 H       -2.1500     3.4220    -1.2080 H     1 <1>   0.0800 
@<TRIPOS>BOND
  1   1   2  1   
  2   1  13  1   
  3   2   3  1   
  4   2   4  1   
  5   2  14  1   
  6   3   5  1   
  7   3  15  1   
  8   3  16  1   
  9   4   6  1   
 10   4  17  1   
 11   4  18  1   
 12   5   7  1   
 13   5  19  1   
 14   5  20  1   
 15   6   8  1   
 16   6  21  1   
 17   6  22  1   
 18   7   9  1   
 19   7  10  1   
 20   7  11  1   
 21   8  12  1   
 22   8  23  1   
 23   8  24  1   
 24   9  25  1   
 25   9  26  1   
 26   9  27  1   
 27  10  28  1   
 28  10  29  1   
 29  10  30  1   
 30  11  31  1   
 31  11  32  1   
 32  11  33  1   
 33  12  34  1   
 34  12  35  1   
 35  12  36  1   
@<TRIPOS>SUBSTRUCTURE
  1 ****   3 GROUP 4 **** **** 0

# MOE 2024.06 (io_trps.svl 2023.06)
