@<TRIPOS>MOLECULE
NONAME
51 52 1 0 0 
SMALL
USER_CHARGES


@<TRIPOS>ATOM
  1 O        0.7150     2.3390     2.9110 O.2   1 <1>  -0.5700 
  2 C       -0.0880     1.8710     2.1420 C.2   1 <1>   0.5690 
  3 N        0.3110     1.2080     1.0250 N.am  1 <1>  -0.7300 
  4 C       -1.5730     2.0350     2.4240 C.3   1 <1>   0.0440 
  5 C        1.7070     0.9720     0.6520 C.3   1 <1>   0.2200 
  6 C       -2.4420     1.5120     1.2830 C.ar  1 <1>  -0.1440 
  7 C        2.1440     2.0540    -0.3280 C.3   1 <1>  -0.1600 
  8 C        1.8290    -0.3980    -0.0050 C.3   1 <1>  -0.1600 
  9 C       -2.8420     0.1850     1.2610 C.ar  1 <1>  -0.1500 
 10 C       -2.8160     2.3530     0.2450 C.ar  1 <1>  -0.1500 
 11 C        3.5870     1.8490    -0.8030 C.3   1 <1>   0.5030 
 12 C        3.2630    -0.6800    -0.4750 C.3   1 <1>   0.5030 
 13 C       -3.5990    -0.2960     0.2080 C.ar  1 <1>  -0.1500 
 14 C       -3.5750     1.8740    -0.8080 C.ar  1 <1>  -0.1500 
 15 N        3.8160     0.4580    -1.2300 N.4   1 <1>  -0.9060 
 16 C        4.6080     2.2460     0.2670 C.3   1 <1>  -0.2400 
 17 C        3.8420     2.7050    -2.0420 C.3   1 <1>  -0.2400 
 18 C        4.1910    -1.0370     0.6900 C.3   1 <1>  -0.2400 
 19 C        3.2560    -1.8550    -1.4510 C.3   1 <1>  -0.2400 
 20 C       -3.9690     0.5390    -0.8320 C.ar  1 <1>   0.0830 
 21 O       -4.7070    -0.0130    -1.8270 O.3   1 <1>  -0.3620 
 22 C       -5.2290     0.7720    -2.8760 C.3   1 <1>   0.0400 
 23 H       -0.4240     0.8690     0.3930 H     1 <1>   0.3700 
 24 H       -1.7750     3.0770     2.5910 H     1 <1>   0.0800 
 25 H       -1.8060     1.5110     3.3330 H     1 <1>   0.0800 
 26 H        2.3120     1.0120     1.5440 H     1 <1>   0.0800 
 27 H        2.0600     3.0150     0.1500 H     1 <1>   0.0800 
 28 H        1.4780     2.0540    -1.1730 H     1 <1>   0.0800 
 29 H        1.1580    -0.4470    -0.8440 H     1 <1>   0.0800 
 30 H        1.5280    -1.1560     0.6970 H     1 <1>   0.0800 
 31 H       -2.5680    -0.4820     2.0610 H     1 <1>   0.1500 
 32 H       -2.5170     3.3880     0.2520 H     1 <1>   0.1500 
 33 H       -3.9140    -1.3250     0.1870 H     1 <1>   0.1500 
 34 H       -3.8490     2.5490    -1.5960 H     1 <1>   0.1500 
 35 H        4.8240     0.3180    -1.3180 H     1 <1>   0.4500 
 36 H        3.4340     0.3850    -2.1750 H     1 <1>   0.4500 
 37 H        4.4070     1.7930     1.2170 H     1 <1>   0.0800 
 38 H        4.5640     3.3100     0.4280 H     1 <1>   0.0800 
 39 H        5.6100     2.0050    -0.0380 H     1 <1>   0.0800 
 40 H        3.1670     2.4520    -2.8410 H     1 <1>   0.0800 
 41 H        4.8550     2.5990    -2.3880 H     1 <1>   0.0800 
 42 H        3.6870     3.7440    -1.8060 H     1 <1>   0.0800 
 43 H        4.1440    -0.3230     1.4870 H     1 <1>   0.0800 
 44 H        5.2100    -1.1380     0.3620 H     1 <1>   0.0800 
 45 H        3.8920    -1.9810     1.1130 H     1 <1>   0.0800 
 46 H        2.6380    -1.6510    -2.3080 H     1 <1>   0.0800 
 47 H        2.8580    -2.7310    -0.9680 H     1 <1>   0.0800 
 48 H        4.2520    -2.0920    -1.7840 H     1 <1>   0.0800 
 49 H       -5.8110     0.1320    -3.5140 H     1 <1>   0.0800 
 50 H       -4.4130     1.1980    -3.4330 H     1 <1>   0.0800 
 51 H       -5.8550     1.5400    -2.4590 H     1 <1>   0.0800 
@<TRIPOS>BOND
  1   1   2  2   
  2   2   3  am  
  3   2   4  1   
  4   3   5  1   
  5   3  23  1   
  6   4   6  1   
  7   4  24  1   
  8   4  25  1   
  9   5   7  1   
 10   5   8  1   
 11   5  26  1   
 12   6   9  ar  
 13   6  10  ar  
 14   7  11  1   
 15   7  27  1   
 16   7  28  1   
 17   8  12  1   
 18   8  29  1   
 19   8  30  1   
 20   9  13  ar  
 21   9  31  1   
 22  10  14  ar  
 23  10  32  1   
 24  11  15  1   
 25  11  16  1   
 26  11  17  1   
 27  12  15  1   
 28  12  18  1   
 29  12  19  1   
 30  13  20  ar  
 31  13  33  1   
 32  14  20  ar  
 33  14  34  1   
 34  15  35  1   
 35  15  36  1   
 36  16  37  1   
 37  16  38  1   
 38  16  39  1   
 39  17  40  1   
 40  17  41  1   
 41  17  42  1   
 42  18  43  1   
 43  18  44  1   
 44  18  45  1   
 45  19  46  1   
 46  19  47  1   
 47  19  48  1   
 48  20  21  1   
 49  21  22  1   
 50  22  49  1   
 51  22  50  1   
 52  22  51  1   
@<TRIPOS>SUBSTRUCTURE
  1 ****   3 GROUP 4 **** **** 0

# MOE 2024.06 (io_trps.svl 2023.06)
