@<TRIPOS>MOLECULE
NONAME
47 50 1 0 0 
SMALL
USER_CHARGES


@<TRIPOS>ATOM
  1 S       -0.2120     0.4700    -1.6380 S.3   1 <1>  -0.0800 
  2 C       -0.9400     1.9730    -1.1050 C.2   1 <1>   0.1660 
  3 C       -1.4760    -0.4530    -0.8410 C.2   1 <1>  -0.1400 
  4 N       -0.4020     3.1740    -1.4050 N.2   1 <1>  -0.5760 
  5 C       -2.0640     1.7540    -0.3750 C.2   1 <1>  -0.0860 
  6 C       -2.3540     0.3510    -0.2210 C.2   1 <1>  -0.1810 
  7 C       -1.4810    -1.9630    -0.9080 C.3   1 <1>   0.0200 
  8 C       -1.0560     4.1900    -0.9610 C.2   1 <1>   0.6510 
  9 C       -2.7520     2.9110     0.0950 C.2   1 <1>   0.7160 
 10 C       -3.5360    -0.2170     0.5530 C.3   1 <1>   0.0210 
 11 C       -2.8480    -2.4830    -0.4250 C.3   1 <1>  -0.1600 
 12 S       -0.2760     5.7660    -1.3100 S.3   1 <1>  -0.3710 
 13 N       -2.2640     4.1590    -0.2730 N.am  1 <1>  -0.2370 
 14 O       -3.7470     2.8190     0.8020 O.2   1 <1>  -0.5700 
 15 C       -3.3500    -1.7280     0.8260 C.3   1 <1>  -0.0800 
 16 C       -0.5420     6.8690     0.1650 C.3   1 <1>   0.1310 
 17 C       -3.1000     5.2920    -0.1440 C.ar  1 <1>   0.1170 
 18 C       -4.6550    -2.3470     1.3420 C.3   1 <1>  -0.2400 
 19 C        0.6400     7.7990     0.3590 C.2   1 <1>   0.6590 
 20 C       -3.5790     5.9510    -1.2730 C.ar  1 <1>  -0.1500 
 21 C       -3.4540     5.7770     1.1110 C.ar  1 <1>  -0.1500 
 22 O        1.3720     7.6910     1.3100 O.2   1 <1>  -0.5700 
 23 O        0.8040     8.7460    -0.5580 O.3   1 <1>  -0.4300 
 24 C       -4.3700     7.0790    -1.1490 C.ar  1 <1>  -0.1500 
 25 C       -4.2460     6.9040     1.2370 C.ar  1 <1>  -0.1500 
 26 C        1.8730     9.6670    -0.4900 C.3   1 <1>   0.0400 
 27 C       -4.7020     7.5580     0.1060 C.ar  1 <1>  -0.1500 
 28 H       -0.6960    -2.3410    -0.2770 H     1 <1>   0.0800 
 29 H       -1.2990    -2.2910    -1.9160 H     1 <1>   0.0800 
 30 H       -4.4300    -0.0490    -0.0210 H     1 <1>   0.0800 
 31 H       -3.6390     0.2970     1.4920 H     1 <1>   0.0800 
 32 H       -2.7700    -3.5360    -0.2180 H     1 <1>   0.0800 
 33 H       -3.5650    -2.3550    -1.2180 H     1 <1>   0.0800 
 34 H       -2.6030    -1.8330     1.5950 H     1 <1>   0.0800 
 35 H       -0.6550     6.2400     1.0270 H     1 <1>   0.0800 
 36 H       -1.4340     7.4410    -0.0100 H     1 <1>   0.0800 
 37 H       -5.4290    -2.2790     0.5980 H     1 <1>   0.0800 
 38 H       -4.9850    -1.8360     2.2290 H     1 <1>   0.0800 
 39 H       -4.5050    -3.3840     1.5870 H     1 <1>   0.0800 
 40 H       -3.3290     5.5860    -2.2540 H     1 <1>   0.1500 
 41 H       -3.1150     5.2660     1.9960 H     1 <1>   0.1500 
 42 H       -4.7310     7.5830    -2.0300 H     1 <1>   0.1500 
 43 H       -4.5140     7.2700     2.2130 H     1 <1>   0.1500 
 44 H        1.8060    10.3310    -1.3340 H     1 <1>   0.0800 
 45 H        2.8020     9.1240    -0.5200 H     1 <1>   0.0800 
 46 H        1.7980    10.2240     0.4280 H     1 <1>   0.0800 
 47 H       -5.3190     8.4360     0.2020 H     1 <1>   0.1500 
@<TRIPOS>BOND
  1   1   2  1   
  2   1   3  1   
  3   2   4  1   
  4   2   5  2   
  5   3   6  2   
  6   3   7  1   
  7   4   8  2   
  8   5   6  1   
  9   5   9  1   
 10   6  10  1   
 11   7  11  1   
 12   7  28  1   
 13   7  29  1   
 14   8  12  1   
 15   8  13  1   
 16   9  13  am  
 17   9  14  2   
 18  10  15  1   
 19  10  30  1   
 20  10  31  1   
 21  11  15  1   
 22  11  32  1   
 23  11  33  1   
 24  12  16  1   
 25  13  17  1   
 26  15  18  1   
 27  15  34  1   
 28  16  19  1   
 29  16  35  1   
 30  16  36  1   
 31  17  20  ar  
 32  17  21  ar  
 33  18  37  1   
 34  18  38  1   
 35  18  39  1   
 36  19  22  2   
 37  19  23  1   
 38  20  24  ar  
 39  20  40  1   
 40  21  25  ar  
 41  21  41  1   
 42  23  26  1   
 43  24  27  ar  
 44  24  42  1   
 45  25  27  ar  
 46  25  43  1   
 47  26  44  1   
 48  26  45  1   
 49  26  46  1   
 50  27  47  1   
@<TRIPOS>SUBSTRUCTURE
  1 ****  13 GROUP 4 **** **** 0

# MOE 2024.06 (io_trps.svl 2023.06)
