@<TRIPOS>MOLECULE
NONAME
43 45 1 0 0 
SMALL
USER_CHARGES


@<TRIPOS>ATOM
  1 O        0.9450    -0.3420     0.5160 O.2   1 <1>  -0.5700 
  2 C        1.1870    -1.5240     0.3430 C.2   1 <1>   0.7150 
  3 N        2.4390    -1.9930     0.6920 N.am  1 <1>  -0.6600 
  4 C        0.1820    -2.4060    -0.2120 C.2   1 <1>   0.0550 
  5 C        3.3850    -1.1660     1.5050 C.3   1 <1>   0.1400 
  6 C        3.1040    -3.1280    -0.0170 C.3   1 <1>   0.1400 
  7 O       -0.5900    -2.0200    -1.2250 O.3   1 <1>  -0.2800 
  8 C       -0.1640    -3.6820     0.1240 C.2   1 <1>  -0.1500 
  9 C        4.5350    -0.6500     0.6310 C.3   1 <1>   0.1400 
 10 C        4.2790    -2.6290    -0.8770 C.3   1 <1>   0.1400 
 11 C       -1.4070    -3.0000    -1.5370 C.2   1 <1>  -0.0100 
 12 C       -1.1930    -4.0650    -0.7360 C.2   1 <1>  -0.1500 
 13 N        5.2190    -1.7820    -0.0750 N.am  1 <1>  -0.6600 
 14 C        6.5630    -2.0150     0.1080 C.2   1 <1>   0.5690 
 15 O        7.1710    -1.4490     0.9860 O.2   1 <1>  -0.5700 
 16 C        7.3070    -3.0180    -0.7740 C.3   1 <1>   0.0440 
 17 C        8.7940    -2.7150    -0.9820 C.ar  1 <1>  -0.1440 
 18 C        9.7850    -3.2030    -0.1340 C.ar  1 <1>  -0.1440 
 19 C        9.1550    -1.9300    -2.0690 C.ar  1 <1>  -0.1500 
 20 C       11.1150    -2.9070    -0.3960 C.ar  1 <1>  -0.1500 
 21 C        9.4570    -4.0480     1.0890 C.3   1 <1>  -0.0970 
 22 C       10.4830    -1.6390    -2.3220 C.ar  1 <1>  -0.1500 
 23 C       11.4650    -2.1310    -1.4850 C.ar  1 <1>  -0.1500 
 24 H        3.7880    -1.7660     2.3020 H     1 <1>   0.0800 
 25 H        2.8730    -0.3310     1.9520 H     1 <1>   0.0800 
 26 H        2.4070    -3.6430    -0.6530 H     1 <1>   0.0800 
 27 H        3.4690    -3.8300     0.7120 H     1 <1>   0.0800 
 28 H        0.2550    -4.2910     0.9050 H     1 <1>   0.1500 
 29 H        5.2290    -0.1060     1.2480 H     1 <1>   0.0800 
 30 H        4.1420     0.0370    -0.0980 H     1 <1>   0.0800 
 31 H        3.8940    -2.0440    -1.6950 H     1 <1>   0.0800 
 32 H        4.7820    -3.4840    -1.2890 H     1 <1>   0.0800 
 33 H       -2.1100    -2.8570    -2.3400 H     1 <1>   0.1500 
 34 H       -1.6970    -5.0160    -0.7370 H     1 <1>   0.1500 
 35 H        6.8490    -3.0350    -1.7430 H     1 <1>   0.0800 
 36 H        7.1850    -3.9950    -0.3500 H     1 <1>   0.0800 
 37 H        8.4020    -1.5360    -2.7280 H     1 <1>   0.1500 
 38 H       11.8900    -3.2780     0.2500 H     1 <1>   0.1500 
 39 H        9.0850    -5.0090     0.7860 H     1 <1>   0.0800 
 40 H        8.7170    -3.5530     1.6930 H     1 <1>   0.0800 
 41 H       10.3300    -4.1980     1.6980 H     1 <1>   0.0800 
 42 H       10.7500    -1.0290    -3.1670 H     1 <1>   0.1500 
 43 H       12.5000    -1.9070    -1.6770 H     1 <1>   0.1500 
@<TRIPOS>BOND
  1   1   2  2   
  2   2   3  am  
  3   2   4  1   
  4   3   5  1   
  5   3   6  1   
  6   4   7  1   
  7   4   8  2   
  8   5   9  1   
  9   5  24  1   
 10   5  25  1   
 11   6  10  1   
 12   6  26  1   
 13   6  27  1   
 14   7  11  1   
 15   8  12  1   
 16   8  28  1   
 17   9  13  1   
 18   9  29  1   
 19   9  30  1   
 20  10  13  1   
 21  10  31  1   
 22  10  32  1   
 23  11  12  2   
 24  11  33  1   
 25  12  34  1   
 26  13  14  am  
 27  14  15  2   
 28  14  16  1   
 29  16  17  1   
 30  16  35  1   
 31  16  36  1   
 32  17  18  ar  
 33  17  19  ar  
 34  18  20  ar  
 35  18  21  1   
 36  19  22  ar  
 37  19  37  1   
 38  20  23  ar  
 39  20  38  1   
 40  21  39  1   
 41  21  40  1   
 42  21  41  1   
 43  22  23  ar  
 44  22  42  1   
 45  23  43  1   
@<TRIPOS>SUBSTRUCTURE
  1 ****  13 GROUP 4 **** **** 0

# MOE 2024.06 (io_trps.svl 2023.06)
