@<TRIPOS>MOLECULE
NONAME
26 26 1 0 0 
SMALL
USER_CHARGES


@<TRIPOS>ATOM
  1 S        0.0070    -0.1090     1.0460 S.o2  1 <1>   1.4470 
  2 O        0.2550     0.8380     2.1040 O.2   1 <1>  -0.6500 
  3 O        0.5780    -1.4330     1.0980 O.2   1 <1>  -0.6500 
  4 N        0.8030     0.5710    -0.2340 N.am  1 <1>  -0.9780 
  5 C       -1.7350    -0.1340     0.5420 C.ar  1 <1>  -0.0090 
  6 C       -2.5760     0.9400     0.8090 C.ar  1 <1>  -0.1500 
  7 C       -2.2690    -1.2180    -0.1450 C.ar  1 <1>  -0.1500 
  8 C       -3.9020     0.9310     0.4120 C.ar  1 <1>  -0.1500 
  9 C       -3.5950    -1.2340    -0.5450 C.ar  1 <1>  -0.1500 
 10 C       -4.4200    -0.1570    -0.2690 C.ar  1 <1>  -0.1430 
 11 C       -5.8760    -0.1700    -0.7070 C.3   1 <1>  -0.0170 
 12 C       -6.7630    -0.7790     0.3850 C.3   1 <1>  -0.1600 
 13 C       -8.2370    -0.8030    -0.0330 C.3   1 <1>  -0.2400 
 14 H        1.5080    -0.1260    -0.4630 H     1 <1>   0.4200 
 15 H        1.2990     1.3500     0.1920 H     1 <1>   0.4200 
 16 H       -2.1890     1.7960     1.3370 H     1 <1>   0.1500 
 17 H       -1.6410    -2.0640    -0.3680 H     1 <1>   0.1500 
 18 H       -4.5300     1.7760     0.6360 H     1 <1>   0.1500 
 19 H       -3.9810    -2.0890    -1.0710 H     1 <1>   0.1500 
 20 H       -5.9740    -0.7400    -1.6150 H     1 <1>   0.0800 
 21 H       -6.1980     0.8350    -0.9180 H     1 <1>   0.0800 
 22 H       -6.6580    -0.2040     1.2900 H     1 <1>   0.0800 
 23 H       -6.4340    -1.7830     0.5920 H     1 <1>   0.0800 
 24 H       -8.5930     0.1940    -0.2220 H     1 <1>   0.0800 
 25 H       -8.8340    -1.2350     0.7510 H     1 <1>   0.0800 
 26 H       -8.3680    -1.3930    -0.9240 H     1 <1>   0.0800 
@<TRIPOS>BOND
  1   1   2  2   
  2   1   3  2   
  3   1   4  am  
  4   1   5  1   
  5   4  14  1   
  6   4  15  1   
  7   5   6  ar  
  8   5   7  ar  
  9   6   8  ar  
 10   6  16  1   
 11   7   9  ar  
 12   7  17  1   
 13   8  10  ar  
 14   8  18  1   
 15   9  10  ar  
 16   9  19  1   
 17  10  11  1   
 18  11  12  1   
 19  11  20  1   
 20  11  21  1   
 21  12  13  1   
 22  12  22  1   
 23  12  23  1   
 24  13  24  1   
 25  13  25  1   
 26  13  26  1   
@<TRIPOS>SUBSTRUCTURE
  1 ****   5 GROUP 4 **** **** 0

# MOE 2024.06 (io_trps.svl 2023.06)
