@<TRIPOS>MOLECULE
NONAME
37 37 1 0 0 
SMALL
USER_CHARGES


@<TRIPOS>ATOM
  1 O       -0.1830    -0.7180     0.8530 O.2   1 <1>  -0.5200 
  2 N       -0.5160    -1.1660    -0.2620 N.pl3 1 <1>   0.8360 
  3 O        0.1410    -0.8390    -1.2710 O.2   1 <1>  -0.5200 
  4 C       -1.5120    -2.1440    -0.3580 C.2   1 <1>   0.2190 
  5 C       -1.2410    -3.4900    -0.2290 C.2   1 <1>  -0.0380 
  6 C       -2.8110    -1.6240    -0.6000 C.2   1 <1>   0.4950 
  7 N       -0.0320    -4.1060    -0.0280 N.pl3 1 <1>  -0.8690 
  8 C       -2.3880    -4.4940    -0.3250 C.3   1 <1>  -0.0220 
  9 O       -3.0780    -0.4490    -0.7120 O.2   1 <1>  -0.5700 
 10 C       -3.9730    -2.5910    -0.7540 C.3   1 <1>  -0.0990 
 11 C        1.3560    -3.5250     0.1310 C.3   1 <1>   0.2700 
 12 C       -3.7620    -3.8930     0.0390 C.3   1 <1>   0.0000 
 13 C        2.4440    -4.5830     0.3550 C.2   1 <1>   0.6590 
 14 C       -3.8360    -3.6120     1.5520 C.3   1 <1>  -0.2400 
 15 C       -4.8730    -4.8920    -0.3180 C.3   1 <1>  -0.2400 
 16 O        2.1900    -5.7640     0.3910 O.2   1 <1>  -0.5700 
 17 O        3.6800    -4.1240     0.5050 O.3   1 <1>  -0.4300 
 18 C        4.7680    -4.9940     0.7170 C.3   1 <1>   0.1200 
 19 C        6.0310    -4.1490     0.8470 C.3   1 <1>  -0.2400 
 20 H        0.0220    -5.1380     0.0440 H     1 <1>   0.4000 
 21 H       -2.1940    -5.3280     0.3270 H     1 <1>   0.0800 
 22 H       -2.4110    -4.8760    -1.3310 H     1 <1>   0.0800 
 23 H       -4.0800    -2.8090    -1.8010 H     1 <1>   0.0800 
 24 H       -4.8770    -2.1070    -0.4290 H     1 <1>   0.0800 
 25 H        1.3680    -2.8560     0.9730 H     1 <1>   0.0800 
 26 H        1.6130    -2.9680    -0.7520 H     1 <1>   0.0800 
 27 H       -3.0670    -2.9310     1.8730 H     1 <1>   0.0800 
 28 H       -3.7190    -4.5250     2.1100 H     1 <1>   0.0800 
 29 H       -4.7890    -3.1840     1.8120 H     1 <1>   0.0800 
 30 H       -4.8640    -5.1180    -1.3700 H     1 <1>   0.0800 
 31 H       -5.8400    -4.4890    -0.0690 H     1 <1>   0.0800 
 32 H       -4.7440    -5.8120     0.2240 H     1 <1>   0.0800 
 33 H        4.8380    -5.6660    -0.1230 H     1 <1>   0.0800 
 34 H        4.5850    -5.5580     1.6160 H     1 <1>   0.0800 
 35 H        6.1950    -3.5850    -0.0530 H     1 <1>   0.0800 
 36 H        6.8800    -4.7880     1.0100 H     1 <1>   0.0800 
 37 H        5.9440    -3.4770     1.6830 H     1 <1>   0.0800 
@<TRIPOS>BOND
  1   1   2  2   
  2   2   3  2   
  3   2   4  1   
  4   4   5  2   
  5   4   6  1   
  6   5   7  1   
  7   5   8  1   
  8   6   9  2   
  9   6  10  1   
 10   7  11  1   
 11   7  20  1   
 12   8  12  1   
 13   8  21  1   
 14   8  22  1   
 15  10  12  1   
 16  10  23  1   
 17  10  24  1   
 18  11  13  1   
 19  11  25  1   
 20  11  26  1   
 21  12  14  1   
 22  12  15  1   
 23  13  16  2   
 24  13  17  1   
 25  14  27  1   
 26  14  28  1   
 27  14  29  1   
 28  15  30  1   
 29  15  31  1   
 30  15  32  1   
 31  17  18  1   
 32  18  19  1   
 33  18  33  1   
 34  18  34  1   
 35  19  35  1   
 36  19  36  1   
 37  19  37  1   
@<TRIPOS>SUBSTRUCTURE
  1 ****   5 GROUP 4 **** **** 0

# MOE 2024.06 (io_trps.svl 2023.06)
