@<TRIPOS>MOLECULE
NONAME
33 35 1 0 0 
SMALL
USER_CHARGES


@<TRIPOS>ATOM
  1 BR      -0.4260     0.6470    -1.4040 Br    1 <1>  -0.1110 
  2 C       -0.3690     1.9350     0.0340 C.ar  1 <1>   0.1110 
  3 C       -1.5560     2.4770     0.5380 C.ar  1 <1>   0.0280 
  4 C        0.8850     2.2790     0.5000 C.ar  1 <1>  -0.1500 
  5 C       -1.4040     3.4130     1.5620 C.ar  1 <1>  -0.1500 
  6 C       -2.8540     2.0840     0.0430 C.2   1 <1>  -0.1780 
  7 C        0.9920     3.2100     1.5170 C.ar  1 <1>  -0.1500 
  8 C       -0.1570     3.7750     2.0440 C.ar  1 <1>  -0.1500 
  9 C       -4.0130     2.7820    -0.0330 C.2   1 <1>  -0.0380 
 10 N       -4.1940     4.1070     0.3670 N.pl3 1 <1>  -0.8380 
 11 C       -5.2910     2.1560    -0.6270 C.3   1 <1>   0.3380 
 12 C       -4.5370     4.9820    -0.7950 C.3   1 <1>   0.2090 
 13 C       -5.2720     4.2330     1.3950 C.3   1 <1>   0.2090 
 14 O       -5.0140     1.7430    -1.9160 O.3   1 <1>  -0.6800 
 15 C       -6.3930     3.2460    -0.6590 C.3   1 <1>  -0.0800 
 16 C       -5.8620     4.4860    -1.4250 C.3   1 <1>  -0.1600 
 17 C       -6.6020     3.7030     0.8040 C.3   1 <1>  -0.1600 
 18 H        1.7620     1.8290     0.0730 H     1 <1>   0.1500 
 19 H       -2.2800     3.8630     1.9890 H     1 <1>   0.1500 
 20 H       -2.8780     1.0740    -0.3230 H     1 <1>   0.1500 
 21 H        1.9580     3.4940     1.8960 H     1 <1>   0.1500 
 22 H       -0.0830     4.5020     2.8350 H     1 <1>   0.1500 
 23 H       -5.6070     1.2990    -0.0580 H     1 <1>   0.0800 
 24 H       -4.6310     6.0030    -0.4660 H     1 <1>   0.0800 
 25 H       -3.7390     4.9340    -1.5170 H     1 <1>   0.0800 
 26 H       -4.9970     3.6590     2.2640 H     1 <1>   0.0800 
 27 H       -5.3730     5.2640     1.6910 H     1 <1>   0.0800 
 28 H       -4.3160     2.3340    -2.2560 H     1 <1>   0.4000 
 29 H       -7.3040     2.8630    -1.0830 H     1 <1>   0.0800 
 30 H       -6.5880     5.2780    -1.3960 H     1 <1>   0.0800 
 31 H       -5.6970     4.2450    -2.4600 H     1 <1>   0.0800 
 32 H       -6.9510     2.8800     1.4020 H     1 <1>   0.0800 
 33 H       -7.3480     4.4760     0.8520 H     1 <1>   0.0800 
@<TRIPOS>BOND
  1   1   2  1   
  2   2   3  ar  
  3   2   4  ar  
  4   3   5  ar  
  5   3   6  1   
  6   4   7  ar  
  7   4  18  1   
  8   5   8  ar  
  9   5  19  1   
 10   6   9  2   
 11   6  20  1   
 12   7   8  ar  
 13   7  21  1   
 14   8  22  1   
 15   9  10  1   
 16   9  11  1   
 17  10  12  1   
 18  10  13  1   
 19  11  14  1   
 20  11  15  1   
 21  11  23  1   
 22  12  16  1   
 23  12  24  1   
 24  12  25  1   
 25  13  17  1   
 26  13  26  1   
 27  13  27  1   
 28  14  28  1   
 29  15  16  1   
 30  15  17  1   
 31  15  29  1   
 32  16  30  1   
 33  16  31  1   
 34  17  32  1   
 35  17  33  1   
@<TRIPOS>SUBSTRUCTURE
  1 ****   6 GROUP 4 **** **** 0

# MOE 2024.06 (io_trps.svl 2023.06)
