@<TRIPOS>MOLECULE
NONAME
50 52 1 0 0 
SMALL
USER_CHARGES


@<TRIPOS>ATOM
  1 F        6.1960    -2.8520    -3.9880 F     1 <1>  -0.1900 
  2 C        5.4970    -2.4470    -2.9640 C.ar  1 <1>   0.1900 
  3 C        6.0580    -1.5220    -2.1050 C.ar  1 <1>  -0.1500 
  4 C        4.2280    -2.9580    -2.7760 C.ar  1 <1>  -0.1500 
  5 C        5.3230    -1.0930    -1.0070 C.ar  1 <1>  -0.1440 
  6 C        3.4960    -2.5220    -1.6850 C.ar  1 <1>  -0.1500 
  7 C        4.0410    -1.5950    -0.8080 C.ar  1 <1>  -0.1500 
  8 C        5.9160    -0.0940    -0.0310 C.3   1 <1>   0.4870 
  9 N        6.9930    -0.7620     0.7410 N.4   1 <1>  -0.9590 
 10 C        6.5440    -1.9780     1.5010 C.3   1 <1>   0.3430 
 11 C        7.7840     0.1570     1.6190 C.3   1 <1>   0.3430 
 12 C        7.7350    -2.6680     2.2120 C.3   1 <1>   0.1100 
 13 C        8.9980    -0.5800     2.2350 C.3   1 <1>   0.1100 
 14 N        9.0320    -2.0280     1.8880 N.3   1 <1>  -0.8100 
 15 C       10.1630    -2.7140     2.5830 C.3   1 <1>   0.1710 
 16 C       11.5510    -2.1540     2.2480 C.2   1 <1>   0.5690 
 17 O       12.0310    -1.3130     2.9720 O.2   1 <1>  -0.5700 
 18 N       12.2020    -2.5950     1.1450 N.am  1 <1>  -0.7300 
 19 C       13.5390    -2.1470     0.7320 C.3   1 <1>   0.2840 
 20 C       13.8720    -2.8370    -0.5770 C.ar  1 <1>  -0.1430 
 21 C       13.5860    -2.2220    -1.7870 C.ar  1 <1>  -0.1500 
 22 C       14.4550    -4.0960    -0.5740 C.ar  1 <1>  -0.1500 
 23 C       13.8810    -2.8580    -2.9810 C.ar  1 <1>  -0.1500 
 24 C       14.7500    -4.7320    -1.7670 C.ar  1 <1>  -0.1500 
 25 C       14.4640    -4.1130    -2.9710 C.ar  1 <1>  -0.1500 
 26 H        7.0490    -1.1580    -2.3110 H     1 <1>   0.1500 
 27 H        3.8260    -3.6760    -3.4700 H     1 <1>   0.1500 
 28 H        2.5010    -2.9030    -1.5230 H     1 <1>   0.1500 
 29 H        3.4450    -1.2700     0.0290 H     1 <1>   0.1500 
 30 H        5.1500     0.2680     0.6350 H     1 <1>   0.0800 
 31 H        6.3170     0.7430    -0.5790 H     1 <1>   0.0800 
 32 H        7.6880    -1.1440     0.0820 H     1 <1>   0.4500 
 33 H        6.0910    -2.6840     0.8240 H     1 <1>   0.0800 
 34 H        5.8030    -1.7060     2.2340 H     1 <1>   0.0800 
 35 H        7.1620     0.5360     2.4130 H     1 <1>   0.0800 
 36 H        8.1420     0.9990     1.0500 H     1 <1>   0.0800 
 37 H        7.7620    -3.7030     1.9140 H     1 <1>   0.0800 
 38 H        7.5710    -2.6430     3.2760 H     1 <1>   0.0800 
 39 H        8.9790    -0.4570     3.3060 H     1 <1>   0.0800 
 40 H        9.8970    -0.1050     1.8790 H     1 <1>   0.0800 
 41 H       10.1580    -3.7570     2.3200 H     1 <1>   0.0800 
 42 H       10.0290    -2.6460     3.6480 H     1 <1>   0.0800 
 43 H       11.7680    -3.2570     0.4990 H     1 <1>   0.3700 
 44 H       14.2580    -2.4070     1.4910 H     1 <1>   0.0800 
 45 H       13.5430    -1.0770     0.6110 H     1 <1>   0.0800 
 46 H       13.1330    -1.2460    -1.8060 H     1 <1>   0.1500 
 47 H       14.6800    -4.5850     0.3570 H     1 <1>   0.1500 
 48 H       13.6590    -2.3770    -3.9170 H     1 <1>   0.1500 
 49 H       15.2040    -5.7080    -1.7590 H     1 <1>   0.1500 
 50 H       14.6940    -4.6070    -3.8990 H     1 <1>   0.1500 
@<TRIPOS>BOND
  1   1   2  1   
  2   2   3  ar  
  3   2   4  ar  
  4   3   5  ar  
  5   3  26  1   
  6   4   6  ar  
  7   4  27  1   
  8   5   7  ar  
  9   5   8  1   
 10   6   7  ar  
 11   6  28  1   
 12   7  29  1   
 13   8   9  1   
 14   8  30  1   
 15   8  31  1   
 16   9  10  1   
 17   9  11  1   
 18   9  32  1   
 19  10  12  1   
 20  10  33  1   
 21  10  34  1   
 22  11  13  1   
 23  11  35  1   
 24  11  36  1   
 25  12  14  1   
 26  12  37  1   
 27  12  38  1   
 28  13  14  1   
 29  13  39  1   
 30  13  40  1   
 31  14  15  1   
 32  15  16  1   
 33  15  41  1   
 34  15  42  1   
 35  16  17  2   
 36  16  18  am  
 37  18  19  1   
 38  18  43  1   
 39  19  20  1   
 40  19  44  1   
 41  19  45  1   
 42  20  21  ar  
 43  20  22  ar  
 44  21  23  ar  
 45  21  46  1   
 46  22  24  ar  
 47  22  47  1   
 48  23  25  ar  
 49  23  48  1   
 50  24  25  ar  
 51  24  49  1   
 52  25  50  1   
@<TRIPOS>SUBSTRUCTURE
  1 ****  14 GROUP 4 **** **** 0

# MOE 2024.06 (io_trps.svl 2023.06)
