@<TRIPOS>MOLECULE
NONAME
30 29 1 0 0 
SMALL
USER_CHARGES


@<TRIPOS>ATOM
  1 S       -0.2310    -0.0670     0.7250 S.3   1 <1>   1.1120 
  2 C        1.4510    -0.1710     0.2620 C.2   1 <1>   0.0770 
  3 C       -1.1050    -1.1290    -0.4290 C.3   1 <1>  -0.1520 
  4 C       -0.7310     1.6240     0.3720 C.3   1 <1>  -0.1520 
  5 N        1.7390     0.5110    -0.8610 N.pl3 1 <1>   0.8360 
  6 C        2.2510    -0.9330     1.0720 C.2   1 <1>  -0.0500 
  7 C       -2.3980    -1.7370     0.1330 C.3   1 <1>  -0.1600 
  8 C       -2.1860     1.9480     0.7370 C.3   1 <1>  -0.1600 
  9 O        1.0630     0.2750    -1.9000 O.2   1 <1>  -0.5200 
 10 O        2.2590     1.6540    -0.7970 O.2   1 <1>  -0.5200 
 11 O        3.4230    -1.1630     0.8560 O.3   1 <1>  -0.8500 
 12 N        1.8460    -1.5500     2.1970 N.pl3 1 <1>  -0.9000 
 13 C       -3.0630    -2.6170    -0.9250 C.3   1 <1>  -0.2400 
 14 C       -2.4670     3.4300     0.4850 C.3   1 <1>  -0.2400 
 15 H       -0.4570    -1.9390    -0.7140 H     1 <1>   0.0800 
 16 H       -1.3320    -0.5820    -1.3260 H     1 <1>   0.0800 
 17 H       -0.5890     1.8320    -0.6740 H     1 <1>   0.0800 
 18 H       -0.0910     2.2980     0.9130 H     1 <1>   0.0800 
 19 H       -3.0870    -0.9650     0.4280 H     1 <1>   0.0800 
 20 H       -2.1750    -2.3390     0.9990 H     1 <1>   0.0800 
 21 H       -2.3710     1.7290     1.7760 H     1 <1>   0.0800 
 22 H       -2.8620     1.3630     0.1370 H     1 <1>   0.0800 
 23 H        2.1740    -2.5200     2.1090 H     1 <1>   0.4000 
 24 H        2.4710    -1.2220     2.9440 H     1 <1>   0.4000 
 25 H       -3.3160    -2.0390    -1.7980 H     1 <1>   0.0800 
 26 H       -3.9670    -3.0500    -0.5320 H     1 <1>   0.0800 
 27 H       -2.4070    -3.4180    -1.2210 H     1 <1>   0.0800 
 28 H       -1.8230     4.0480     1.0860 H     1 <1>   0.0800 
 29 H       -3.4880     3.6620     0.7350 H     1 <1>   0.0800 
 30 H       -2.3100     3.6760    -0.5520 H     1 <1>   0.0800 
@<TRIPOS>BOND
  1   1   2  1   
  2   1   3  1   
  3   1   4  1   
  4   2   5  1   
  5   2   6  2   
  6   3   7  1   
  7   3  15  1   
  8   3  16  1   
  9   4   8  1   
 10   4  17  1   
 11   4  18  1   
 12   5   9  2   
 13   5  10  2   
 14   6  11  1   
 15   6  12  1   
 16   7  13  1   
 17   7  19  1   
 18   7  20  1   
 19   8  14  1   
 20   8  21  1   
 21   8  22  1   
 22  12  23  1   
 23  12  24  1   
 24  13  25  1   
 25  13  26  1   
 26  13  27  1   
 27  14  28  1   
 28  14  29  1   
 29  14  30  1   
@<TRIPOS>SUBSTRUCTURE
  1 ****   1 GROUP 4 **** **** 0

# MOE 2024.06 (io_trps.svl 2023.06)
