@<TRIPOS>MOLECULE
NONAME
38 39 1 0 0 
SMALL
USER_CHARGES


@<TRIPOS>ATOM
  1 S       -0.2630    -0.9660     0.0900 S.3   1 <1>  -0.2860 
  2 C        1.3720    -0.3160    -0.2700 C.2   1 <1>   0.2420 
  3 C       -0.7850    -1.6680    -1.5540 C.3   1 <1>   0.1310 
  4 N        1.9010    -0.3420    -1.4400 N.2   1 <1>  -0.3380 
  5 N        2.1480     0.2450     0.6570 N.pl3 1 <1>   0.0480 
  6 C       -2.2070    -2.2020    -1.5100 C.2   1 <1>   0.5690 
  7 N        3.0990     0.2340    -1.3050 N.2   1 <1>  -0.3380 
  8 C        3.2320     0.5770    -0.0630 C.2   1 <1>   0.0060 
  9 C        1.8630     0.4420     2.0920 C.3   1 <1>   0.0160 
 10 O       -2.5150    -3.0470    -2.3140 O.2   1 <1>  -0.5700 
 11 N       -3.0670    -1.6990    -0.5690 N.am  1 <1>  -0.5470 
 12 C        4.4530     1.2720     0.5330 C.3   1 <1>   0.0200 
 13 C       -4.4210    -1.9520    -0.3030 C.ar  1 <1>   0.1170 
 14 C        5.5030     1.6580    -0.5160 C.3   1 <1>  -0.2400 
 15 C       -5.2810    -2.5560    -1.2160 C.ar  1 <1>  -0.1500 
 16 C       -4.9380    -1.5690     0.9290 C.ar  1 <1>  -0.1500 
 17 C       -6.6110    -2.7730    -0.9030 C.ar  1 <1>  -0.1500 
 18 C       -6.2680    -1.7840     1.2440 C.ar  1 <1>  -0.1500 
 19 C       -7.1130    -2.3890     0.3290 C.ar  1 <1>  -0.1430 
 20 C       -8.5730    -2.6270     0.6700 C.3   1 <1>  -0.0970 
 21 H       -0.0950    -2.4540    -1.7970 H     1 <1>   0.0800 
 22 H       -0.7050    -0.8800    -2.2800 H     1 <1>   0.0800 
 23 H        1.3170    -0.4030     2.4700 H     1 <1>   0.0800 
 24 H        1.2750     1.3330     2.2170 H     1 <1>   0.0800 
 25 H        2.7830     0.5380     2.6390 H     1 <1>   0.0800 
 26 H       -2.6200    -1.0620     0.0910 H     1 <1>   0.3700 
 27 H        4.9070     0.6160     1.2540 H     1 <1>   0.0800 
 28 H        4.1330     2.1630     1.0430 H     1 <1>   0.0800 
 29 H        5.8610     0.7790    -1.0230 H     1 <1>   0.0800 
 30 H        6.3360     2.1500    -0.0470 H     1 <1>   0.0800 
 31 H        5.0730     2.3220    -1.2440 H     1 <1>   0.0800 
 32 H       -4.9180    -2.8580    -2.1800 H     1 <1>   0.1500 
 33 H       -4.2980    -1.1000     1.6530 H     1 <1>   0.1500 
 34 H       -7.2530    -3.2420    -1.6280 H     1 <1>   0.1500 
 35 H       -6.6450    -1.4780     2.2040 H     1 <1>   0.1500 
 36 H       -9.1610    -1.7830     0.3580 H     1 <1>   0.0800 
 37 H       -8.6950    -2.7640     1.7290 H     1 <1>   0.0800 
 38 H       -8.9360    -3.5070     0.1700 H     1 <1>   0.0800 
@<TRIPOS>BOND
  1   1   2  1   
  2   1   3  1   
  3   2   4  2   
  4   2   5  1   
  5   3   6  1   
  6   3  21  1   
  7   3  22  1   
  8   4   7  1   
  9   5   8  1   
 10   5   9  1   
 11   6  10  2   
 12   6  11  am  
 13   7   8  2   
 14   8  12  1   
 15   9  23  1   
 16   9  24  1   
 17   9  25  1   
 18  11  13  1   
 19  11  26  1   
 20  12  14  1   
 21  12  27  1   
 22  12  28  1   
 23  13  15  ar  
 24  13  16  ar  
 25  14  29  1   
 26  14  30  1   
 27  14  31  1   
 28  15  17  ar  
 29  15  32  1   
 30  16  18  ar  
 31  16  33  1   
 32  17  19  ar  
 33  17  34  1   
 34  18  19  ar  
 35  18  35  1   
 36  19  20  1   
 37  20  36  1   
 38  20  37  1   
 39  20  38  1   
@<TRIPOS>SUBSTRUCTURE
  1 ****   1 GROUP 4 **** **** 0

# MOE 2024.06 (io_trps.svl 2023.06)
