@<TRIPOS>MOLECULE
NONAME
34 34 1 0 0 
SMALL
USER_CHARGES


@<TRIPOS>ATOM
  1 I       -0.1100     0.8380     2.7110 I     1 <1>  -0.0810 
  2 C       -1.0680     2.2910     1.4680 C.ar  1 <1>   0.0810 
  3 C       -0.3130     3.2400     0.7910 C.ar  1 <1>   0.0830 
  4 C       -2.4440     2.2260     1.3720 C.ar  1 <1>  -0.1500 
  5 O        1.0390     3.2370     0.8910 O.3   1 <1>  -0.3630 
  6 C       -1.0060     4.1780     0.0190 C.ar  1 <1>   0.0830 
  7 C       -3.1380     3.1340     0.5710 C.ar  1 <1>   0.0860 
  8 C        1.7640     2.9050    -0.2730 C.3   1 <1>   0.0400 
  9 O       -0.3840     5.1820    -0.6470 O.3   1 <1>  -0.3630 
 10 C       -2.3850     4.1090    -0.0910 C.ar  1 <1>  -0.1500 
 11 C       -4.5820     3.0600     0.4460 C.2   1 <1>   0.5440 
 12 C        0.2690     6.1560     0.1390 C.3   1 <1>   0.0400 
 13 O       -5.2530     2.5430     1.3170 O.2   1 <1>  -0.5700 
 14 N       -5.2210     3.5590    -0.6560 N.am  1 <1>  -0.7300 
 15 C       -6.6840     3.4590    -0.9080 C.3   1 <1>   0.1400 
 16 C       -7.4550     4.4280    -0.0110 C.3   1 <1>   0.1200 
 17 O       -8.7820     4.4640    -0.4390 O.3   1 <1>  -0.5600 
 18 C       -9.6070     5.2450     0.3630 C.3   1 <1>   0.0400 
 19 H       -2.9900     1.4720     1.9130 H     1 <1>   0.1500 
 20 H        2.8080     2.8690    -0.0190 H     1 <1>   0.0800 
 21 H        1.5950     3.6530    -1.0260 H     1 <1>   0.0800 
 22 H        1.4370     1.9410    -0.6210 H     1 <1>   0.0800 
 23 H       -2.8770     4.8460    -0.6980 H     1 <1>   0.1500 
 24 H        0.6010     6.9460    -0.5100 H     1 <1>   0.0800 
 25 H        1.1150     5.7110     0.6320 H     1 <1>   0.0800 
 26 H       -0.4250     6.5420     0.8650 H     1 <1>   0.0800 
 27 H       -4.6660     3.9040    -1.4390 H     1 <1>   0.3700 
 28 H       -7.0120     2.4540    -0.7070 H     1 <1>   0.0800 
 29 H       -6.8800     3.6930    -1.9400 H     1 <1>   0.0800 
 30 H       -7.0460     5.4190    -0.0890 H     1 <1>   0.0800 
 31 H       -7.4250     4.0870     1.0100 H     1 <1>   0.0800 
 32 H      -10.6000     5.2150    -0.0500 H     1 <1>   0.0800 
 33 H       -9.2440     6.2580     0.3670 H     1 <1>   0.0800 
 34 H       -9.6170     4.8410     1.3610 H     1 <1>   0.0800 
@<TRIPOS>BOND
  1   1   2  1   
  2   2   3  ar  
  3   2   4  ar  
  4   3   5  1   
  5   3   6  ar  
  6   4   7  ar  
  7   4  19  1   
  8   5   8  1   
  9   6   9  1   
 10   6  10  ar  
 11   7  10  ar  
 12   7  11  1   
 13   8  20  1   
 14   8  21  1   
 15   8  22  1   
 16   9  12  1   
 17  10  23  1   
 18  11  13  2   
 19  11  14  am  
 20  12  24  1   
 21  12  25  1   
 22  12  26  1   
 23  14  15  1   
 24  14  27  1   
 25  15  16  1   
 26  15  28  1   
 27  15  29  1   
 28  16  17  1   
 29  16  30  1   
 30  16  31  1   
 31  17  18  1   
 32  18  32  1   
 33  18  33  1   
 34  18  34  1   
@<TRIPOS>SUBSTRUCTURE
  1 ****   7 GROUP 4 **** **** 0

# MOE 2024.06 (io_trps.svl 2023.06)
