@<TRIPOS>MOLECULE
NONAME
48 50 1 0 0 
SMALL
USER_CHARGES


@<TRIPOS>ATOM
  1 S       -0.3750     0.1580     1.3520 S.o2  1 <1>   1.4470 
  2 O        0.9010    -0.4550     1.6580 O.2   1 <1>  -0.6500 
  3 O       -1.1240     0.7410     2.4460 O.2   1 <1>  -0.6500 
  4 N       -0.1140     1.4110     0.2410 N.am  1 <1>  -0.8490 
  5 C       -1.4300    -1.0260     0.4740 C.ar  1 <1>  -0.0090 
  6 C        1.0040     2.2630     0.6490 C.3   1 <1>   0.1960 
  7 C       -1.3260     2.2010     0.0020 C.3   1 <1>   0.1960 
  8 C       -0.9800    -1.6940    -0.6600 C.ar  1 <1>   0.0820 
  9 C       -2.7200    -1.2970     0.9130 C.ar  1 <1>  -0.1500 
 10 C        1.3240     3.2830    -0.4500 C.3   1 <1>  -0.1600 
 11 C       -1.0860     3.2060    -1.1300 C.3   1 <1>  -0.1600 
 12 O        0.2460    -1.4550    -1.1510 O.3   1 <1>  -0.3620 
 13 C       -1.7980    -2.5930    -1.3270 C.ar  1 <1>  -0.1500 
 14 C       -3.5670    -2.2020     0.2720 C.ar  1 <1>   0.0860 
 15 C        0.0960     4.1270    -0.8120 C.3   1 <1>  -0.1600 
 16 C        1.2420    -2.4250    -0.9210 C.3   1 <1>   0.0400 
 17 C       -3.0750    -2.8420    -0.8660 C.ar  1 <1>  -0.1500 
 18 C       -4.9030    -2.4500     0.7750 C.2   1 <1>   0.5440 
 19 O       -5.5330    -1.5540     1.2970 O.2   1 <1>  -0.5700 
 20 N       -5.4410    -3.7130     0.6830 N.am  1 <1>  -0.5470 
 21 C       -6.7280    -4.1840     0.9810 C.ar  1 <1>   0.1170 
 22 C       -7.8550    -3.3680     0.9530 C.ar  1 <1>  -0.1500 
 23 C       -6.8920    -5.5310     1.3000 C.ar  1 <1>  -0.1500 
 24 C       -9.0900    -3.9120     1.2430 C.ar  1 <1>   0.1900 
 25 C       -8.1400    -6.0620     1.5890 C.ar  1 <1>  -0.1500 
 26 F      -10.1430    -3.1400     1.2120 F     1 <1>  -0.1900 
 27 C       -9.2580    -5.2460     1.5620 C.ar  1 <1>  -0.1500 
 28 H        1.8790     1.6580     0.8200 H     1 <1>   0.0800 
 29 H        0.7600     2.7700     1.5690 H     1 <1>   0.0800 
 30 H       -1.6080     2.7250     0.9010 H     1 <1>   0.0800 
 31 H       -2.1360     1.5500    -0.2780 H     1 <1>   0.0800 
 32 H       -3.0920    -0.7880     1.7890 H     1 <1>   0.1500 
 33 H        1.6680     2.7510    -1.3190 H     1 <1>   0.0800 
 34 H        2.1210     3.9240    -0.1190 H     1 <1>   0.0800 
 35 H       -1.9740     3.7930    -1.2790 H     1 <1>   0.0800 
 36 H       -0.8920     2.6630    -2.0380 H     1 <1>   0.0800 
 37 H       -1.4300    -3.0820    -2.2120 H     1 <1>   0.1500 
 38 H        0.3160     4.7520    -1.6600 H     1 <1>   0.0800 
 39 H       -0.1580     4.7640     0.0190 H     1 <1>   0.0800 
 40 H        2.1680    -2.0550    -1.3230 H     1 <1>   0.0800 
 41 H        0.9650    -3.3400    -1.4130 H     1 <1>   0.0800 
 42 H        1.3420    -2.5800     0.1390 H     1 <1>   0.0800 
 43 H       -3.7020    -3.5300    -1.4070 H     1 <1>   0.1500 
 44 H       -4.7710    -4.4390     0.4390 H     1 <1>   0.3700 
 45 H       -7.7820    -2.3250     0.7080 H     1 <1>   0.1500 
 46 H       -6.0340    -6.1770     1.3280 H     1 <1>   0.1500 
 47 H       -8.2420    -7.1050     1.8350 H     1 <1>   0.1500 
 48 H      -10.2380    -5.6290     1.7820 H     1 <1>   0.1500 
@<TRIPOS>BOND
  1   1   2  2   
  2   1   3  2   
  3   1   4  am  
  4   1   5  1   
  5   4   6  1   
  6   4   7  1   
  7   5   8  ar  
  8   5   9  ar  
  9   6  10  1   
 10   6  28  1   
 11   6  29  1   
 12   7  11  1   
 13   7  30  1   
 14   7  31  1   
 15   8  12  1   
 16   8  13  ar  
 17   9  14  ar  
 18   9  32  1   
 19  10  15  1   
 20  10  33  1   
 21  10  34  1   
 22  11  15  1   
 23  11  35  1   
 24  11  36  1   
 25  12  16  1   
 26  13  17  ar  
 27  13  37  1   
 28  14  17  ar  
 29  14  18  1   
 30  15  38  1   
 31  15  39  1   
 32  16  40  1   
 33  16  41  1   
 34  16  42  1   
 35  17  43  1   
 36  18  19  2   
 37  18  20  am  
 38  20  21  1   
 39  20  44  1   
 40  21  22  ar  
 41  21  23  ar  
 42  22  24  ar  
 43  22  45  1   
 44  23  25  ar  
 45  23  46  1   
 46  24  26  1   
 47  24  27  ar  
 48  25  27  ar  
 49  25  47  1   
 50  27  48  1   
@<TRIPOS>SUBSTRUCTURE
  1 ****   9 GROUP 4 **** **** 0

# MOE 2024.06 (io_trps.svl 2023.06)
