@<TRIPOS>MOLECULE
NONAME
34 35 1 0 0 
SMALL
USER_CHARGES


@<TRIPOS>ATOM
  1 S        0.2510    -0.0020    -0.5350 S.3   1 <1>  -0.4600 
  2 C        1.9060     0.7130    -0.7150 C.3   1 <1>   0.0700 
  3 C        0.5620    -1.7750    -0.7390 C.3   1 <1>   0.0700 
  4 C        2.8630     0.0080     0.2540 C.3   1 <1>   0.3430 
  5 C        1.6680    -2.2030     0.2360 C.3   1 <1>   0.3430 
  6 N        2.9610    -1.4740    -0.0030 N.4   1 <1>  -0.9590 
  7 C        4.0660    -2.0800     0.7900 C.3   1 <1>   0.4860 
  8 C        5.3760    -1.4890     0.3080 C.ar  1 <1>  -0.1430 
  9 C        5.8250    -1.7590    -0.9770 C.ar  1 <1>  -0.1500 
 10 C        6.1330    -0.6680     1.1350 C.ar  1 <1>  -0.1500 
 11 C        7.0020    -1.1950    -1.4270 C.ar  1 <1>   0.0820 
 12 C        7.3200    -0.1110     0.6830 C.ar  1 <1>  -0.1500 
 13 O        7.4110    -1.4520    -2.6790 O.3   1 <1>  -0.5330 
 14 C        7.7660    -0.3680    -0.6090 C.ar  1 <1>   0.0820 
 15 O        8.9160     0.1420    -1.1340 O.3   1 <1>  -0.3620 
 16 C        9.7960     0.9160    -0.3470 C.3   1 <1>   0.0400 
 17 H        1.8220     1.7610    -0.4850 H     1 <1>   0.0800 
 18 H        2.2110     0.5940    -1.7400 H     1 <1>   0.0800 
 19 H        0.8370    -1.9480    -1.7640 H     1 <1>   0.0800 
 20 H       -0.3630    -2.2820    -0.5240 H     1 <1>   0.0800 
 21 H        2.5250     0.1810     1.2630 H     1 <1>   0.0800 
 22 H        3.8370     0.4590     0.1500 H     1 <1>   0.0800 
 23 H        1.8250    -3.2640     0.1250 H     1 <1>   0.0800 
 24 H        1.3290    -2.0220     1.2430 H     1 <1>   0.0800 
 25 H        3.2270    -1.5870    -0.9900 H     1 <1>   0.4500 
 26 H        4.0880    -3.1480     0.6440 H     1 <1>   0.0800 
 27 H        3.9310    -1.8790     1.8400 H     1 <1>   0.0800 
 28 H        5.2870    -2.4040    -1.6490 H     1 <1>   0.1500 
 29 H        5.8130    -0.4530     2.1410 H     1 <1>   0.1500 
 30 H        7.8820     0.5180     1.3480 H     1 <1>   0.1500 
 31 H        8.2660    -1.0040    -2.8430 H     1 <1>   0.4500 
 32 H       10.6440     1.1780    -0.9540 H     1 <1>   0.0800 
 33 H       10.1200     0.3310     0.4960 H     1 <1>   0.0800 
 34 H        9.2890     1.8080    -0.0270 H     1 <1>   0.0800 
@<TRIPOS>BOND
  1   1   2  1   
  2   1   3  1   
  3   2   4  1   
  4   2  17  1   
  5   2  18  1   
  6   3   5  1   
  7   3  19  1   
  8   3  20  1   
  9   4   6  1   
 10   4  21  1   
 11   4  22  1   
 12   5   6  1   
 13   5  23  1   
 14   5  24  1   
 15   6   7  1   
 16   6  25  1   
 17   7   8  1   
 18   7  26  1   
 19   7  27  1   
 20   8   9  ar  
 21   8  10  ar  
 22   9  11  ar  
 23   9  28  1   
 24  10  12  ar  
 25  10  29  1   
 26  11  13  1   
 27  11  14  ar  
 28  12  14  ar  
 29  12  30  1   
 30  13  31  1   
 31  14  15  1   
 32  15  16  1   
 33  16  32  1   
 34  16  33  1   
 35  16  34  1   
@<TRIPOS>SUBSTRUCTURE
  1 ****   8 GROUP 4 **** **** 0

# MOE 2024.06 (io_trps.svl 2023.06)
