@<TRIPOS>MOLECULE
NONAME
42 42 1 0 0 
SMALL
USER_CHARGES


@<TRIPOS>ATOM
  1 CL       1.4240    -0.4750     1.0640 Cl    1 <1>  -0.1770 
  2 C        2.3510     0.7160     0.1710 C.ar  1 <1>   0.1770 
  3 C        2.9750     0.3400    -1.0110 C.ar  1 <1>  -0.1440 
  4 C        2.4420     2.0120     0.6640 C.ar  1 <1>  -0.1440 
  5 C        3.7100     1.2880    -1.7030 C.ar  1 <1>  -0.1500 
  6 C        2.8610    -1.0800    -1.5480 C.3   1 <1>  -0.0960 
  7 C        3.1820     2.9460    -0.0430 C.ar  1 <1>  -0.1500 
  8 C        1.7460     2.4110     1.9580 C.3   1 <1>  -0.0960 
  9 C        3.8290     2.5820    -1.2210 C.ar  1 <1>   0.0830 
 10 O        4.6020     3.4280    -1.9440 O.3   1 <1>  -0.3630 
 11 C        5.1040     4.6330    -1.3760 C.3   1 <1>   0.1810 
 12 C        6.4210     5.0320    -2.0300 C.2   1 <1>   0.5690 
 13 O        6.5040     6.1020    -2.5930 O.2   1 <1>  -0.5700 
 14 N        7.4980     4.2090    -1.9500 N.am  1 <1>  -0.4300 
 15 N        7.5350     2.8880    -1.2980 N.am  1 <1>  -0.4300 
 16 C        7.5420     2.6640     0.0460 C.2   1 <1>   0.5690 
 17 O        7.5890     3.5890     0.8320 O.2   1 <1>  -0.5700 
 18 C        7.4660     1.2150     0.5910 C.3   1 <1>   0.0610 
 19 C        7.3100     0.1580    -0.5240 C.3   1 <1>  -0.2400 
 20 C        6.2620     1.0710     1.5410 C.3   1 <1>  -0.2400 
 21 C        8.7500     0.8890     1.3770 C.3   1 <1>  -0.2400 
 22 H        4.2020     1.0350    -2.6240 H     1 <1>   0.1500 
 23 H        1.8280    -1.3240    -1.7210 H     1 <1>   0.0800 
 24 H        3.2660    -1.7760    -0.8350 H     1 <1>   0.0800 
 25 H        3.3960    -1.1880    -2.4740 H     1 <1>   0.0800 
 26 H        3.2450     3.9510     0.3300 H     1 <1>   0.1500 
 27 H        0.6850     2.2590     1.8660 H     1 <1>   0.0800 
 28 H        1.9230     3.4450     2.1930 H     1 <1>   0.0800 
 29 H        2.1130     1.8100     2.7720 H     1 <1>   0.0800 
 30 H        5.2860     4.4820    -0.3290 H     1 <1>   0.0800 
 31 H        4.3680     5.4030    -1.5150 H     1 <1>   0.0800 
 32 H        8.3890     4.6050    -2.2680 H     1 <1>   0.3700 
 33 H        7.3720     2.0830    -1.9110 H     1 <1>   0.3700 
 34 H        6.4070     0.3270    -1.0840 H     1 <1>   0.0800 
 35 H        7.2540    -0.8290    -0.0990 H     1 <1>   0.0800 
 36 H        8.1500     0.1810    -1.1960 H     1 <1>   0.0800 
 37 H        6.2040     0.0760     1.9450 H     1 <1>   0.0800 
 38 H        5.3460     1.2790     1.0180 H     1 <1>   0.0800 
 39 H        6.3440     1.7650     2.3590 H     1 <1>   0.0800 
 40 H        8.7130    -0.1080     1.7790 H     1 <1>   0.0800 
 41 H        8.8700     1.5800     2.1940 H     1 <1>   0.0800 
 42 H        9.6120     0.9720     0.7390 H     1 <1>   0.0800 
@<TRIPOS>BOND
  1   1   2  1   
  2   2   3  ar  
  3   2   4  ar  
  4   3   5  ar  
  5   3   6  1   
  6   4   7  ar  
  7   4   8  1   
  8   5   9  ar  
  9   5  22  1   
 10   6  23  1   
 11   6  24  1   
 12   6  25  1   
 13   7   9  ar  
 14   7  26  1   
 15   8  27  1   
 16   8  28  1   
 17   8  29  1   
 18   9  10  1   
 19  10  11  1   
 20  11  12  1   
 21  11  30  1   
 22  11  31  1   
 23  12  13  2   
 24  12  14  am  
 25  14  15  1   
 26  14  32  1   
 27  15  16  am  
 28  15  33  1   
 29  16  17  2   
 30  16  18  1   
 31  18  19  1   
 32  18  20  1   
 33  18  21  1   
 34  19  34  1   
 35  19  35  1   
 36  19  36  1   
 37  20  37  1   
 38  20  38  1   
 39  20  39  1   
 40  21  40  1   
 41  21  41  1   
 42  21  42  1   
@<TRIPOS>SUBSTRUCTURE
  1 ****   9 GROUP 4 **** **** 0

# MOE 2024.06 (io_trps.svl 2023.06)
