@<TRIPOS>MOLECULE
NONAME
43 44 1 0 0 
SMALL
USER_CHARGES


@<TRIPOS>ATOM
  1 O        0.2830    -0.2490     0.4690 O.3   1 <1>  -0.3630 
  2 C        1.3350     0.5710     0.2280 C.ar  1 <1>   0.0820 
  3 C       -0.5830    -0.5220    -0.6100 C.3   1 <1>   0.1200 
  4 C        1.1990     1.8890    -0.2120 C.ar  1 <1>   0.0820 
  5 C        2.5970     0.0460     0.4390 C.ar  1 <1>  -0.1500 
  6 C       -1.4960    -1.6740    -0.2010 C.3   1 <1>  -0.2400 
  7 O        0.0000     2.4910    -0.3960 O.3   1 <1>  -0.3620 
  8 C        2.3330     2.6340    -0.4720 C.ar  1 <1>  -0.1500 
  9 C        3.7460     0.7870     0.1780 C.ar  1 <1>  -0.1440 
 10 C       -0.7730     2.7240     0.7590 C.3   1 <1>   0.1200 
 11 C        3.5980     2.1000    -0.2770 C.ar  1 <1>  -0.1430 
 12 C        5.1450     0.1940     0.4180 C.3   1 <1>   0.5660 
 13 C       -2.0510     3.4390     0.3360 C.3   1 <1>  -0.2400 
 14 C        4.7970     2.9940    -0.5730 C.3   1 <1>  -0.0160 
 15 N        6.1130     0.9470    -0.3900 N.4   1 <1>  -0.9060 
 16 C        5.3080    -1.2920     0.0520 C.3   1 <1>  -0.1600 
 17 C        6.1110     2.3910    -0.0770 C.3   1 <1>   0.3430 
 18 C        6.6240    -1.9310     0.5280 C.3   1 <1>   0.1200 
 19 O        7.7120    -1.2020     0.0730 O.3   1 <1>  -0.6800 
 20 H        0.0100    -0.7890    -1.4680 H     1 <1>   0.0800 
 21 H       -1.1610     0.3580    -0.8290 H     1 <1>   0.0800 
 22 H        2.6330    -0.9590     0.8150 H     1 <1>   0.1500 
 23 H       -0.9120    -2.5480     0.0220 H     1 <1>   0.0800 
 24 H       -2.1690    -1.9060    -1.0060 H     1 <1>   0.0800 
 25 H       -2.0750    -1.3970     0.6620 H     1 <1>   0.0800 
 26 H        2.2060     3.6430    -0.8250 H     1 <1>   0.1500 
 27 H       -0.1970     3.3320     1.4350 H     1 <1>   0.0800 
 28 H       -1.0010     1.7820     1.2270 H     1 <1>   0.0800 
 29 H        5.3830     0.3150     1.4630 H     1 <1>   0.0800 
 30 H       -1.8130     4.3750    -0.1360 H     1 <1>   0.0800 
 31 H       -2.6610     3.6350     1.1990 H     1 <1>   0.0800 
 32 H       -2.6100     2.8240    -0.3460 H     1 <1>   0.0800 
 33 H        4.6590     3.9560    -0.1100 H     1 <1>   0.0800 
 34 H        4.8600     3.1550    -1.6350 H     1 <1>   0.0800 
 35 H        5.8650     0.7960    -1.3710 H     1 <1>   0.4500 
 36 H        7.0280     0.4810    -0.2400 H     1 <1>   0.4500 
 37 H        5.1920    -1.4300    -1.0090 H     1 <1>   0.0800 
 38 H        4.5290    -1.8610     0.5190 H     1 <1>   0.0800 
 39 H        6.1950     2.5320     0.9890 H     1 <1>   0.0800 
 40 H        6.9420     2.8840    -0.5560 H     1 <1>   0.0800 
 41 H        6.7070    -2.9370     0.1460 H     1 <1>   0.0800 
 42 H        6.6700    -1.9640     1.6050 H     1 <1>   0.0800 
 43 H        8.5420    -1.7110     0.2220 H     1 <1>   0.4000 
@<TRIPOS>BOND
  1   1   2  1   
  2   1   3  1   
  3   2   4  ar  
  4   2   5  ar  
  5   3   6  1   
  6   3  20  1   
  7   3  21  1   
  8   4   7  1   
  9   4   8  ar  
 10   5   9  ar  
 11   5  22  1   
 12   6  23  1   
 13   6  24  1   
 14   6  25  1   
 15   7  10  1   
 16   8  11  ar  
 17   8  26  1   
 18   9  11  ar  
 19   9  12  1   
 20  10  13  1   
 21  10  27  1   
 22  10  28  1   
 23  11  14  1   
 24  12  15  1   
 25  12  16  1   
 26  12  29  1   
 27  13  30  1   
 28  13  31  1   
 29  13  32  1   
 30  14  17  1   
 31  14  33  1   
 32  14  34  1   
 33  15  17  1   
 34  15  35  1   
 35  15  36  1   
 36  16  18  1   
 37  16  37  1   
 38  16  38  1   
 39  17  39  1   
 40  17  40  1   
 41  18  19  1   
 42  18  41  1   
 43  18  42  1   
 44  19  43  1   
@<TRIPOS>SUBSTRUCTURE
  1 ****   5 GROUP 4 **** **** 0

# MOE 2024.06 (io_trps.svl 2023.06)
