@<TRIPOS>MOLECULE
NONAME
37 37 1 0 0 
SMALL
USER_CHARGES


@<TRIPOS>ATOM
  1 BR      -1.3820    -0.4830    -2.4590 Br    1 <1>  -0.1110 
  2 C       -2.4910     0.5550    -1.2790 C.ar  1 <1>   0.1110 
  3 C       -3.8150     0.1980    -1.1240 C.ar  1 <1>  -0.1500 
  4 C       -1.9310     1.6300    -0.6180 C.ar  1 <1>  -0.1500 
  5 C       -4.6400     0.9300    -0.2710 C.ar  1 <1>   0.0860 
  6 C       -2.7380     2.3710     0.2260 C.ar  1 <1>  -0.1500 
  7 C       -6.0340     0.5600    -0.0890 C.2   1 <1>   0.5440 
  8 C       -4.0710     2.0250     0.3910 C.ar  1 <1>  -0.1500 
  9 O       -6.6470    -0.0230    -0.9620 O.2   1 <1>  -0.5700 
 10 N       -6.6990     0.8450     1.0740 N.am  1 <1>  -0.7300 
 11 C       -8.0860     0.4190     1.4130 C.3   1 <1>   0.1400 
 12 C       -9.1080     0.8770     0.3470 C.3   1 <1>   0.3430 
 13 N      -10.0400    -0.2150    -0.1090 N.4   1 <1>  -0.9590 
 14 C       -9.2810    -1.2450    -0.8800 C.3   1 <1>   0.3430 
 15 C      -11.1440     0.3490    -0.9320 C.3   1 <1>   0.3430 
 16 C      -10.0990    -2.5280    -0.9820 C.3   1 <1>  -0.2400 
 17 C      -12.1570     1.0420    -0.0280 C.3   1 <1>  -0.2400 
 18 H       -4.2050    -0.6470    -1.6640 H     1 <1>   0.1500 
 19 H       -0.8940     1.8780    -0.7630 H     1 <1>   0.1500 
 20 H       -2.3290     3.2190     0.7500 H     1 <1>   0.1500 
 21 H       -4.6770     2.6280     1.0430 H     1 <1>   0.1500 
 22 H       -6.1390     1.1820     1.8630 H     1 <1>   0.3700 
 23 H       -8.3570     0.8500     2.3620 H     1 <1>   0.0800 
 24 H       -8.0970    -0.6520     1.5180 H     1 <1>   0.0800 
 25 H       -8.5710     1.2570    -0.5060 H     1 <1>   0.0800 
 26 H       -9.6790     1.6900     0.7620 H     1 <1>   0.0800 
 27 H      -10.4540    -0.6760     0.7100 H     1 <1>   0.4500 
 28 H       -8.3540    -1.4720    -0.3760 H     1 <1>   0.0800 
 29 H       -9.0320    -0.8720    -1.8610 H     1 <1>   0.0800 
 30 H      -11.6470    -0.4420    -1.4650 H     1 <1>   0.0800 
 31 H      -10.7510     1.0430    -1.6580 H     1 <1>   0.0800 
 32 H      -10.3570    -2.8960    -0.0050 H     1 <1>   0.0800 
 33 H       -9.5040    -3.2790    -1.4710 H     1 <1>   0.0800 
 34 H      -10.9880    -2.3880    -1.5670 H     1 <1>   0.0800 
 35 H      -12.5450     0.3580     0.7060 H     1 <1>   0.0800 
 36 H      -12.9820     1.3850    -0.6270 H     1 <1>   0.0800 
 37 H      -11.7330     1.9000     0.4600 H     1 <1>   0.0800 
@<TRIPOS>BOND
  1   1   2  1   
  2   2   3  ar  
  3   2   4  ar  
  4   3   5  ar  
  5   3  18  1   
  6   4   6  ar  
  7   4  19  1   
  8   5   7  1   
  9   5   8  ar  
 10   6   8  ar  
 11   6  20  1   
 12   7   9  2   
 13   7  10  am  
 14   8  21  1   
 15  10  11  1   
 16  10  22  1   
 17  11  12  1   
 18  11  23  1   
 19  11  24  1   
 20  12  13  1   
 21  12  25  1   
 22  12  26  1   
 23  13  14  1   
 24  13  15  1   
 25  13  27  1   
 26  14  16  1   
 27  14  28  1   
 28  14  29  1   
 29  15  17  1   
 30  15  30  1   
 31  15  31  1   
 32  16  32  1   
 33  16  33  1   
 34  16  34  1   
 35  17  35  1   
 36  17  36  1   
 37  17  37  1   
@<TRIPOS>SUBSTRUCTURE
  1 ****   7 GROUP 4 **** **** 0

# MOE 2024.06 (io_trps.svl 2023.06)
