@<TRIPOS>MOLECULE
NONAME
30 30 1 0 0 
SMALL
USER_CHARGES


@<TRIPOS>ATOM
  1 F       -0.7450     0.2080     0.2640 F     1 <1>  -0.1900 
  2 C       -0.4560     1.4840     0.1620 C.ar  1 <1>   0.1900 
  3 C       -1.4930     2.4140     0.2120 C.ar  1 <1>   0.1170 
  4 C        0.8710     1.8360     0.0130 C.ar  1 <1>  -0.1500 
  5 N       -2.8220     1.9730     0.3720 N.am  1 <1>  -0.5470 
  6 C       -1.1320     3.7560     0.1130 C.ar  1 <1>  -0.1500 
  7 C        1.1940     3.1780    -0.0890 C.ar  1 <1>  -0.1500 
  8 C       -4.0210     2.5870     0.1680 C.2   1 <1>   0.6900 
  9 C        0.1940     4.1380    -0.0400 C.ar  1 <1>  -0.1440 
 10 O       -4.1080     3.7060    -0.2960 O.2   1 <1>  -0.5700 
 11 N       -5.1370     1.8930     0.5000 N.am  1 <1>  -0.7300 
 12 C        0.5510     5.6100    -0.1500 C.3   1 <1>  -0.0970 
 13 C       -6.5190     2.3840     0.3210 C.3   1 <1>   0.1400 
 14 C       -7.3940     1.2370    -0.1860 C.3   1 <1>  -0.1600 
 15 C       -8.8430     1.6920    -0.3900 C.3   1 <1>  -0.2400 
 16 H        1.6320     1.0780    -0.0220 H     1 <1>   0.1500 
 17 H       -2.8990     0.9770     0.5540 H     1 <1>   0.3700 
 18 H       -1.8920     4.5130     0.1580 H     1 <1>   0.1500 
 19 H        2.2230     3.4720    -0.2060 H     1 <1>   0.1500 
 20 H       -5.0450     1.0240     1.0200 H     1 <1>   0.3700 
 21 H       -0.2870     6.1760    -0.5150 H     1 <1>   0.0800 
 22 H        1.3730     5.7470    -0.8290 H     1 <1>   0.0800 
 23 H        0.8300     5.9900     0.8170 H     1 <1>   0.0800 
 24 H       -6.5310     3.1960    -0.3890 H     1 <1>   0.0800 
 25 H       -6.8900     2.7500     1.2630 H     1 <1>   0.0800 
 26 H       -7.3760     0.4290     0.5240 H     1 <1>   0.0800 
 27 H       -7.0020     0.8830    -1.1240 H     1 <1>   0.0800 
 28 H       -9.2640     2.0390     0.5370 H     1 <1>   0.0800 
 29 H       -9.4390     0.8720    -0.7510 H     1 <1>   0.0800 
 30 H       -8.8890     2.4890    -1.1110 H     1 <1>   0.0800 
@<TRIPOS>BOND
  1   1   2  1   
  2   2   3  ar  
  3   2   4  ar  
  4   3   5  1   
  5   3   6  ar  
  6   4   7  ar  
  7   4  16  1   
  8   5   8  am  
  9   5  17  1   
 10   6   9  ar  
 11   6  18  1   
 12   7   9  ar  
 13   7  19  1   
 14   8  10  2   
 15   8  11  am  
 16   9  12  1   
 17  11  13  1   
 18  11  20  1   
 19  12  21  1   
 20  12  22  1   
 21  12  23  1   
 22  13  14  1   
 23  13  24  1   
 24  13  25  1   
 25  14  15  1   
 26  14  26  1   
 27  14  27  1   
 28  15  28  1   
 29  15  29  1   
 30  15  30  1   
@<TRIPOS>SUBSTRUCTURE
  1 ****   5 GROUP 4 **** **** 0

# MOE 2024.06 (io_trps.svl 2023.06)
