@<TRIPOS>MOLECULE
NONAME
46 47 1 0 0 
SMALL
USER_CHARGES


@<TRIPOS>ATOM
  1 O        1.1330    -0.6670     0.2620 O.2   1 <1>  -0.5700 
  2 C        0.6130    -1.4510     1.0310 C.2   1 <1>   0.6900 
  3 N       -0.7110    -1.7480     0.9720 N.am  1 <1>  -0.5470 
  4 N        1.3830    -2.0900     1.9460 N.am  1 <1>  -0.7300 
  5 C       -1.6540    -1.2660     0.0570 C.ar  1 <1>   0.1170 
  6 C        2.8000    -1.7410     2.2740 C.3   1 <1>   0.1400 
  7 C       -2.0330     0.0770    -0.0080 C.ar  1 <1>  -0.1430 
  8 C       -2.2480    -2.1740    -0.8110 C.ar  1 <1>  -0.1500 
  9 C        3.8070    -2.3250     1.2590 C.3   1 <1>   0.3430 
 10 C       -2.9740     0.4780    -0.9420 C.ar  1 <1>  -0.1500 
 11 C       -1.4470     1.1270     0.9290 C.3   1 <1>  -0.0970 
 12 C       -3.1890    -1.7640    -1.7360 C.ar  1 <1>  -0.1500 
 13 N        3.6320    -1.7370    -0.1010 N.4   1 <1>  -0.9590 
 14 C       -3.5570    -0.4320    -1.8070 C.ar  1 <1>  -0.1430 
 15 C        3.8970    -2.7120    -1.1920 C.3   1 <1>   0.3430 
 16 C        4.3670    -0.4530    -0.2790 C.3   1 <1>   0.3430 
 17 C       -4.5850     0.0310    -2.8240 C.3   1 <1>  -0.0970 
 18 C        3.4800    -2.1040    -2.5320 C.3   1 <1>  -0.1600 
 19 C        3.9670     0.1870    -1.6100 C.3   1 <1>  -0.1600 
 20 C        4.1840    -0.7660    -2.7930 C.3   1 <1>  -0.1600 
 21 H       -1.0220    -2.5350     1.5310 H     1 <1>   0.3700 
 22 H        0.8920    -2.6210     2.6680 H     1 <1>   0.3700 
 23 H        3.0300    -2.1290     3.2520 H     1 <1>   0.0800 
 24 H        2.9050    -0.6700     2.3170 H     1 <1>   0.0800 
 25 H       -1.9690    -3.2100    -0.7700 H     1 <1>   0.1500 
 26 H        3.6570    -3.3910     1.2170 H     1 <1>   0.0800 
 27 H        4.8130    -2.1470     1.6030 H     1 <1>   0.0800 
 28 H       -3.2610     1.5130    -1.0000 H     1 <1>   0.1500 
 29 H       -1.3470     0.7330     1.9230 H     1 <1>   0.0800 
 30 H       -2.0820     1.9930     0.9760 H     1 <1>   0.0800 
 31 H       -0.4800     1.4320     0.5730 H     1 <1>   0.0800 
 32 H       -3.6320    -2.4840    -2.4020 H     1 <1>   0.1500 
 33 H        2.6250    -1.4720    -0.1720 H     1 <1>   0.4500 
 34 H        3.3360    -3.6160    -1.0220 H     1 <1>   0.0800 
 35 H        4.9460    -2.9570    -1.2160 H     1 <1>   0.0800 
 36 H        5.4290    -0.6350    -0.2700 H     1 <1>   0.0800 
 37 H        4.1250     0.2240     0.5240 H     1 <1>   0.0800 
 38 H       -4.0850     0.4160    -3.6940 H     1 <1>   0.0800 
 39 H       -5.2010     0.8050    -2.4040 H     1 <1>   0.0800 
 40 H       -5.2200    -0.7850    -3.1200 H     1 <1>   0.0800 
 41 H        2.4130    -1.9610    -2.5380 H     1 <1>   0.0800 
 42 H        3.7180    -2.7930    -3.3230 H     1 <1>   0.0800 
 43 H        4.5450     1.0820    -1.7590 H     1 <1>   0.0800 
 44 H        2.9310     0.4790    -1.5620 H     1 <1>   0.0800 
 45 H        3.7980    -0.3200    -3.6950 H     1 <1>   0.0800 
 46 H        5.2390    -0.9330    -2.9340 H     1 <1>   0.0800 
@<TRIPOS>BOND
  1   1   2  2   
  2   2   3  am  
  3   2   4  am  
  4   3   5  1   
  5   3  21  1   
  6   4   6  1   
  7   4  22  1   
  8   5   7  ar  
  9   5   8  ar  
 10   6   9  1   
 11   6  23  1   
 12   6  24  1   
 13   7  10  ar  
 14   7  11  1   
 15   8  12  ar  
 16   8  25  1   
 17   9  13  1   
 18   9  26  1   
 19   9  27  1   
 20  10  14  ar  
 21  10  28  1   
 22  11  29  1   
 23  11  30  1   
 24  11  31  1   
 25  12  14  ar  
 26  12  32  1   
 27  13  15  1   
 28  13  16  1   
 29  13  33  1   
 30  14  17  1   
 31  15  18  1   
 32  15  34  1   
 33  15  35  1   
 34  16  19  1   
 35  16  36  1   
 36  16  37  1   
 37  17  38  1   
 38  17  39  1   
 39  17  40  1   
 40  18  20  1   
 41  18  41  1   
 42  18  42  1   
 43  19  20  1   
 44  19  43  1   
 45  19  44  1   
 46  20  45  1   
 47  20  46  1   
@<TRIPOS>SUBSTRUCTURE
  1 ****   1 GROUP 4 **** **** 0

# MOE 2024.06 (io_trps.svl 2023.06)
