@<TRIPOS>MOLECULE
NONAME
37 40 1 0 0 
SMALL
USER_CHARGES


@<TRIPOS>ATOM
  1 S        4.8760     1.0510    -1.4530 S.3   1 <1>  -0.0800 
  2 C        3.7420     0.1130    -0.4990 C.2   1 <1>   0.4620 
  3 C        4.2120     2.5030    -0.7570 C.2   1 <1>  -0.1100 
  4 N        2.9700     0.8110     0.2430 N.2   1 <1>  -0.5650 
  5 N        3.7550    -1.2370    -0.6050 N.pl3 1 <1>  -0.8840 
  6 C        3.2290     2.1630     0.0930 C.2   1 <1>   0.0460 
  7 C        2.4010     3.1430     0.9130 C.3   1 <1>   0.0210 
  8 C        1.0380     3.5380     0.2930 C.3   1 <1>   0.0000 
  9 C        0.3540     4.5780     1.2140 C.3   1 <1>  -0.1600 
 10 C        0.0940     2.3210     0.1530 C.3   1 <1>  -0.1600 
 11 C        1.2220     4.1750    -1.1060 C.3   1 <1>  -0.1600 
 12 C       -1.0060     5.0160     0.6400 C.3   1 <1>  -0.0800 
 13 C       -1.2690     2.7460    -0.4250 C.3   1 <1>  -0.0800 
 14 C       -0.1350     4.6100    -1.6920 C.3   1 <1>  -0.0800 
 15 C       -1.9180     3.7820     0.5100 C.3   1 <1>  -0.1600 
 16 C       -0.7890     5.6390    -0.7510 C.3   1 <1>  -0.1600 
 17 C       -1.0520     3.3790    -1.8120 C.3   1 <1>  -0.1600 
 18 H        4.6280     3.4450    -1.0610 H     1 <1>   0.1500 
 19 H        3.0650    -1.7820    -0.0880 H     1 <1>   0.4000 
 20 H        4.3560    -1.7270    -1.2660 H     1 <1>   0.4000 
 21 H        2.9850     4.0350     1.0480 H     1 <1>   0.0800 
 22 H        2.2440     2.7180     1.8880 H     1 <1>   0.0800 
 23 H        0.9840     5.4420     1.3250 H     1 <1>   0.0800 
 24 H        0.2050     4.1560     2.1930 H     1 <1>   0.0800 
 25 H       -0.0480     1.8540     1.1120 H     1 <1>   0.0800 
 26 H        0.5310     1.5870    -0.5000 H     1 <1>   0.0800 
 27 H        1.6770     3.4660    -1.7750 H     1 <1>   0.0800 
 28 H        1.8730     5.0280    -1.0400 H     1 <1>   0.0800 
 29 H       -1.4630     5.7380     1.2950 H     1 <1>   0.0800 
 30 H       -1.9090     1.8850    -0.5140 H     1 <1>   0.0800 
 31 H        0.0120     5.0490    -2.6640 H     1 <1>   0.0800 
 32 H       -2.8760     4.0770     0.1180 H     1 <1>   0.0800 
 33 H       -2.0820     3.3450     1.4790 H     1 <1>   0.0800 
 34 H       -0.1610     6.5080    -0.6680 H     1 <1>   0.0800 
 35 H       -1.7330     5.9560    -1.1590 H     1 <1>   0.0800 
 36 H       -1.9990     3.6690    -2.2320 H     1 <1>   0.0800 
 37 H       -0.6070     2.6570    -2.4750 H     1 <1>   0.0800 
@<TRIPOS>BOND
  1   1   2  1   
  2   1   3  1   
  3   2   4  2   
  4   2   5  1   
  5   3   6  2   
  6   3  18  1   
  7   4   6  1   
  8   5  19  1   
  9   5  20  1   
 10   6   7  1   
 11   7   8  1   
 12   7  21  1   
 13   7  22  1   
 14   8   9  1   
 15   8  10  1   
 16   8  11  1   
 17   9  12  1   
 18   9  23  1   
 19   9  24  1   
 20  10  13  1   
 21  10  25  1   
 22  10  26  1   
 23  11  14  1   
 24  11  27  1   
 25  11  28  1   
 26  12  15  1   
 27  12  16  1   
 28  12  29  1   
 29  13  15  1   
 30  13  17  1   
 31  13  30  1   
 32  14  16  1   
 33  14  17  1   
 34  14  31  1   
 35  15  32  1   
 36  15  33  1   
 37  16  34  1   
 38  16  35  1   
 39  17  36  1   
 40  17  37  1   
@<TRIPOS>SUBSTRUCTURE
  1 ****   8 GROUP 4 **** **** 0

# MOE 2024.06 (io_trps.svl 2023.06)
