@<TRIPOS>MOLECULE
NONAME
31 33 1 0 0 
SMALL
USER_CHARGES


@<TRIPOS>ATOM
  1 S        2.1860     1.2300     2.1520 S.3   1 <1>  -0.0800 
  2 C        1.7320     1.9230     0.6020 C.2   1 <1>  -0.1400 
  3 C        3.0280    -0.0940     1.3680 C.2   1 <1>  -0.1100 
  4 C        2.2070     1.1630    -0.4050 C.2   1 <1>  -0.1500 
  5 C        0.9120     3.2030     0.6490 C.3   1 <1>   0.3200 
  6 C        2.9460     0.0160     0.0300 C.2   1 <1>  -0.1500 
  7 N        0.8790     3.8000    -0.7030 N.am  1 <1>  -0.7300 
  8 C       -0.0330     4.6470    -1.2320 C.2   1 <1>   0.5690 
  9 O        0.0090     4.8580    -2.4200 O.2   1 <1>  -0.5700 
 10 C       -1.1100     5.2910    -0.3660 C.3   1 <1>  -0.0190 
 11 C       -2.0540     6.2050    -1.1650 C.3   1 <1>   0.3380 
 12 C       -0.5490     6.3060     0.6750 C.3   1 <1>  -0.1860 
 13 O       -1.4180     7.4340    -1.0280 O.3   1 <1>  -0.5600 
 14 C       -3.2670     6.4840    -0.3060 C.2   1 <1>  -0.2880 
 15 C       -0.6900     5.9390     2.1270 C.2   1 <1>   0.9060 
 16 C       -1.3720     7.5480     0.3550 C.3   1 <1>   0.3380 
 17 C       -2.8400     7.3050     0.6440 C.2   1 <1>  -0.2880 
 18 O       -0.8510     4.7540     2.4370 O.co2 1 <1>  -0.9000 
 19 O       -0.5730     6.8310     2.9710 O.co2 1 <1>  -0.9000 
 20 H        3.5000    -0.8230     2.0030 H     1 <1>   0.1500 
 21 H        2.0670     1.3520    -1.4550 H     1 <1>   0.1500 
 22 H        1.3560     3.9000     1.3390 H     1 <1>   0.0800 
 23 H       -0.0850     2.9740     0.9820 H     1 <1>   0.0800 
 24 H        3.3770    -0.6660    -0.6810 H     1 <1>   0.1500 
 25 H        1.6060     3.4680    -1.3320 H     1 <1>   0.3700 
 26 H       -1.6910     4.5130     0.0950 H     1 <1>   0.0800 
 27 H       -2.2400     5.9720    -2.2000 H     1 <1>   0.0800 
 28 H        0.4840     6.5220     0.4880 H     1 <1>   0.0800 
 29 H       -4.2180     6.0250    -0.5030 H     1 <1>   0.1500 
 30 H       -0.9700     8.4980     0.6620 H     1 <1>   0.0800 
 31 H       -3.3080     7.7520     1.5020 H     1 <1>   0.1500 
@<TRIPOS>BOND
  1   1   2  1   
  2   1   3  1   
  3   2   4  2   
  4   2   5  1   
  5   3   6  2   
  6   3  20  1   
  7   4   6  1   
  8   4  21  1   
  9   5   7  1   
 10   5  22  1   
 11   5  23  1   
 12   6  24  1   
 13   7   8  am  
 14   7  25  1   
 15   8   9  2   
 16   8  10  1   
 17  10  11  1   
 18  10  12  1   
 19  10  26  1   
 20  11  13  1   
 21  11  14  1   
 22  11  27  1   
 23  12  15  1   
 24  12  16  1   
 25  12  28  1   
 26  13  16  1   
 27  14  17  2   
 28  14  29  1   
 29  15  18  ar  
 30  15  19  ar  
 31  16  17  1   
 32  16  30  1   
 33  17  31  1   
@<TRIPOS>SUBSTRUCTURE
  1 ****  10 GROUP 4 **** **** 0

# MOE 2024.06 (io_trps.svl 2023.06)
