@<TRIPOS>MOLECULE
NONAME
39 40 1 0 0 
SMALL
USER_CHARGES


@<TRIPOS>ATOM
  1 F       -1.9660     2.1500    -2.0190 F     1 <1>  -0.1900 
  2 C       -1.4260     2.7170    -0.9690 C.ar  1 <1>   0.1900 
  3 C       -2.0800     2.6480     0.2610 C.ar  1 <1>   0.0830 
  4 C       -0.2240     3.3740    -1.1380 C.ar  1 <1>  -0.1500 
  5 O       -3.2620     1.9810     0.3390 O.3   1 <1>  -0.3630 
  6 C       -1.4900     3.2670     1.3640 C.ar  1 <1>  -0.1500 
  7 C        0.3250     3.9760    -0.0230 C.ar  1 <1>   0.1900 
  8 C       -4.2140     2.3160     1.3390 C.3   1 <1>   0.1810 
  9 C       -0.2830     3.9360     1.2200 C.ar  1 <1>  -0.1500 
 10 F        1.4610     4.6090    -0.1470 F     1 <1>  -0.1900 
 11 C       -5.5690     1.6550     1.0930 C.2   1 <1>   0.5690 
 12 O       -5.9440     0.8740     1.9390 O.2   1 <1>  -0.5700 
 13 N       -6.3520     1.9570    -0.0020 N.am  1 <1>  -0.6600 
 14 C       -7.6680     1.2840    -0.1770 C.3   1 <1>   0.1400 
 15 C       -5.8830     2.7450    -1.1750 C.3   1 <1>   0.1400 
 16 C       -8.7560     1.9440     0.6760 C.3   1 <1>  -0.1600 
 17 C       -6.0560     4.2530    -0.9680 C.3   1 <1>  -0.1600 
 18 C       -9.2990     3.2790     0.1410 C.3   1 <1>  -0.1600 
 19 C       -7.5090     4.7530    -1.0140 C.3   1 <1>  -0.1600 
 20 C       -8.3300     4.4690     0.2570 C.3   1 <1>  -0.1600 
 21 H        0.2640     3.4150    -2.0940 H     1 <1>   0.1500 
 22 H       -1.9490     3.2310     2.3350 H     1 <1>   0.1500 
 23 H       -4.3310     3.3820     1.3610 H     1 <1>   0.0800 
 24 H       -3.8320     1.9780     2.2850 H     1 <1>   0.0800 
 25 H        0.1870     4.4190     2.0590 H     1 <1>   0.1500 
 26 H       -7.5680     0.2560     0.1280 H     1 <1>   0.0800 
 27 H       -7.9650     1.2830    -1.2110 H     1 <1>   0.0800 
 28 H       -6.4160     2.4450    -2.0590 H     1 <1>   0.0800 
 29 H       -4.8460     2.5300    -1.3620 H     1 <1>   0.0800 
 30 H       -8.4040     2.0600     1.6860 H     1 <1>   0.0800 
 31 H       -9.5820     1.2560     0.7160 H     1 <1>   0.0800 
 32 H       -5.5260     4.7380    -1.7690 H     1 <1>   0.0800 
 33 H       -5.5860     4.5650    -0.0540 H     1 <1>   0.0800 
 34 H      -10.1670     3.5170     0.7310 H     1 <1>   0.0800 
 35 H       -9.6400     3.1610    -0.8730 H     1 <1>   0.0800 
 36 H       -8.0060     4.3700    -1.8880 H     1 <1>   0.0800 
 37 H       -7.4650     5.8220    -1.1310 H     1 <1>   0.0800 
 38 H       -7.6900     4.3540     1.1150 H     1 <1>   0.0800 
 39 H       -8.9320     5.3420     0.4420 H     1 <1>   0.0800 
@<TRIPOS>BOND
  1   1   2  1   
  2   2   3  ar  
  3   2   4  ar  
  4   3   5  1   
  5   3   6  ar  
  6   4   7  ar  
  7   4  21  1   
  8   5   8  1   
  9   6   9  ar  
 10   6  22  1   
 11   7   9  ar  
 12   7  10  1   
 13   8  11  1   
 14   8  23  1   
 15   8  24  1   
 16   9  25  1   
 17  11  12  2   
 18  11  13  am  
 19  13  14  1   
 20  13  15  1   
 21  14  16  1   
 22  14  26  1   
 23  14  27  1   
 24  15  17  1   
 25  15  28  1   
 26  15  29  1   
 27  16  18  1   
 28  16  30  1   
 29  16  31  1   
 30  17  19  1   
 31  17  32  1   
 32  17  33  1   
 33  18  20  1   
 34  18  34  1   
 35  18  35  1   
 36  19  20  1   
 37  19  36  1   
 38  19  37  1   
 39  20  38  1   
 40  20  39  1   
@<TRIPOS>SUBSTRUCTURE
  1 ****   5 GROUP 4 **** **** 0

# MOE 2024.06 (io_trps.svl 2023.06)
