@<TRIPOS>MOLECULE
NONAME
41 41 1 0 0 
SMALL
USER_CHARGES


@<TRIPOS>ATOM
  1 S        0.8290     0.9290     1.2710 S.o2  1 <1>   1.3330 
  2 O        2.2100     0.8280     1.6850 O.2   1 <1>  -0.6500 
  3 O        0.0710    -0.2590     0.9700 O.2   1 <1>  -0.6500 
  4 N        0.7960     1.9460    -0.1240 N.am  1 <1>  -0.6930 
  5 C       -0.0510     1.9010     2.4740 C.3   1 <1>  -0.1350 
  6 C       -0.4060     2.2120    -0.7830 C.ar  1 <1>   0.1990 
  7 C        1.9690     2.8390    -0.3810 C.3   1 <1>   0.2570 
  8 C       -1.1410     3.3840    -0.5480 C.ar  1 <1>   0.0830 
  9 C       -0.8880     1.2870    -1.6970 C.ar  1 <1>  -0.1500 
 10 C        3.0920     2.1720    -1.1820 C.2   1 <1>   0.5690 
 11 O       -0.6520     4.2680     0.3750 O.3   1 <1>  -0.3630 
 12 C       -2.3280     3.6040    -1.2400 C.ar  1 <1>  -0.1500 
 13 C       -2.0700     1.5110    -2.3800 C.ar  1 <1>  -0.1500 
 14 O        3.3920     2.6260    -2.2620 O.2   1 <1>  -0.5700 
 15 N        3.7420     1.1010    -0.6610 N.am  1 <1>  -0.7300 
 16 C       -1.2300     5.5410     0.5490 C.3   1 <1>   0.1200 
 17 C       -2.7880     2.6700    -2.1540 C.ar  1 <1>  -0.1500 
 18 C        4.8320     0.3720    -1.3120 C.3   1 <1>   0.2780 
 19 C       -0.3890     6.3010     1.5690 C.3   1 <1>  -0.2400 
 20 C        5.6540    -0.2950    -0.2300 C.2   1 <1>  -0.2880 
 21 C        6.9430    -0.0480     0.0260 C.2   1 <1>  -0.3000 
 22 H       -0.0770     1.3860     3.4150 H     1 <1>   0.0800 
 23 H       -1.0580     2.0690     2.1460 H     1 <1>   0.0800 
 24 H        0.4300     2.8490     2.6100 H     1 <1>   0.0800 
 25 H        2.3710     3.1840     0.5540 H     1 <1>   0.0800 
 26 H        1.6420     3.7020    -0.9320 H     1 <1>   0.0800 
 27 H       -0.3280     0.3840    -1.8670 H     1 <1>   0.1500 
 28 H       -2.9150     4.4900    -1.0860 H     1 <1>   0.1500 
 29 H       -2.4270     0.7810    -3.0870 H     1 <1>   0.1500 
 30 H        3.4580     0.7450     0.2640 H     1 <1>   0.3700 
 31 H       -2.2380     5.4150     0.9060 H     1 <1>   0.0800 
 32 H       -1.2300     6.0500    -0.4000 H     1 <1>   0.0800 
 33 H       -3.7070     2.8440    -2.6870 H     1 <1>   0.1500 
 34 H        5.4370     1.0560    -1.8850 H     1 <1>   0.0800 
 35 H        4.4210    -0.3680    -1.9780 H     1 <1>   0.0800 
 36 H       -0.3850     5.7800     2.5100 H     1 <1>   0.0800 
 37 H       -0.8020     7.2810     1.7220 H     1 <1>   0.0800 
 38 H        0.6200     6.4080     1.2120 H     1 <1>   0.0800 
 39 H        5.0790    -1.0110     0.3340 H     1 <1>   0.1500 
 40 H        7.5040    -0.5360     0.8040 H     1 <1>   0.1500 
 41 H        7.5430     0.6630    -0.5170 H     1 <1>   0.1500 
@<TRIPOS>BOND
  1   1   2  2   
  2   1   3  2   
  3   1   4  am  
  4   1   5  1   
  5   4   6  1   
  6   4   7  1   
  7   5  22  1   
  8   5  23  1   
  9   5  24  1   
 10   6   8  ar  
 11   6   9  ar  
 12   7  10  1   
 13   7  25  1   
 14   7  26  1   
 15   8  11  1   
 16   8  12  ar  
 17   9  13  ar  
 18   9  27  1   
 19  10  14  2   
 20  10  15  am  
 21  11  16  1   
 22  12  17  ar  
 23  12  28  1   
 24  13  17  ar  
 25  13  29  1   
 26  15  18  1   
 27  15  30  1   
 28  16  19  1   
 29  16  31  1   
 30  16  32  1   
 31  17  33  1   
 32  18  20  1   
 33  18  34  1   
 34  18  35  1   
 35  19  36  1   
 36  19  37  1   
 37  19  38  1   
 38  20  21  2   
 39  20  39  1   
 40  21  40  1   
 41  21  41  1   
@<TRIPOS>SUBSTRUCTURE
  1 ****   4 GROUP 4 **** **** 0

# MOE 2024.06 (io_trps.svl 2023.06)
