@<TRIPOS>MOLECULE
NONAME
49 51 1 0 0 
SMALL
USER_CHARGES


@<TRIPOS>ATOM
  1 O       -0.7830    -0.3280    -1.2280 O.2   1 <1>  -0.5700 
  2 C       -1.8640    -0.8630    -1.0070 C.2   1 <1>   0.6160 
  3 N       -2.1390    -1.4740     0.2140 N.am  1 <1>  -0.2980 
  4 C       -2.8910    -0.8910    -1.9810 C.2   1 <1>  -0.1360 
  5 N       -3.3400    -2.0770     0.5270 N.2   1 <1>  -0.5120 
  6 C       -1.1010    -1.4900     1.2700 C.3   1 <1>   0.0600 
  7 C       -4.0760    -1.4820    -1.6760 C.2   1 <1>  -0.1360 
  8 C       -4.2630    -2.0530    -0.3870 C.2   1 <1>   0.5860 
  9 O       -5.4440    -2.6380    -0.1040 O.3   1 <1>  -0.2320 
 10 C       -6.5790    -1.9290    -0.0760 C.ar  1 <1>   0.7020 
 11 N       -7.6600    -2.6420     0.0290 N.ar  1 <1>  -0.6200 
 12 N       -6.5110    -0.6290    -0.1690 N.ar  1 <1>  -0.6200 
 13 C       -8.7640    -1.9380     0.0520 C.ar  1 <1>   0.7200 
 14 C       -7.6740    -0.0270    -0.1290 C.ar  1 <1>   0.7200 
 15 N       -8.8260    -0.6350    -0.0300 N.ar  1 <1>  -0.6200 
 16 N       -9.9490    -2.6280     0.1710 N.pl3 1 <1>  -0.8380 
 17 N       -7.6750     1.3510    -0.2010 N.pl3 1 <1>  -0.8380 
 18 C      -10.0120    -4.1050     0.4120 C.3   1 <1>   0.2090 
 19 C      -11.2650    -1.9440     0.3820 C.3   1 <1>   0.2090 
 20 C       -8.8920     2.1100    -0.5950 C.3   1 <1>   0.2090 
 21 C       -6.4330     2.1550    -0.0250 C.3   1 <1>   0.2090 
 22 C      -11.2310    -4.7300    -0.2900 C.3   1 <1>   0.1200 
 23 C      -12.4050    -2.7060    -0.3180 C.3   1 <1>   0.1200 
 24 C       -9.5730     2.6710     0.6490 C.3   1 <1>  -0.2400 
 25 C       -6.0640     2.2190     1.4550 C.3   1 <1>  -0.2400 
 26 O      -12.4110    -4.0570     0.0490 O.3   1 <1>  -0.5600 
 27 H       -2.6820    -0.4350    -2.9290 H     1 <1>   0.1500 
 28 H       -0.8350    -0.4800     1.5250 H     1 <1>   0.0800 
 29 H       -0.2300    -2.0060     0.9080 H     1 <1>   0.0800 
 30 H       -1.4740    -1.9910     2.1450 H     1 <1>   0.0800 
 31 H       -4.8890    -1.5300    -2.3760 H     1 <1>   0.1500 
 32 H      -10.0820    -4.2870     1.4700 H     1 <1>   0.0800 
 33 H       -9.1260    -4.5950     0.0500 H     1 <1>   0.0800 
 34 H      -11.2450    -0.9390     0.0000 H     1 <1>   0.0800 
 35 H      -11.4700    -1.8930     1.4370 H     1 <1>   0.0800 
 36 H       -9.5780     1.4680    -1.1230 H     1 <1>   0.0800 
 37 H       -8.6240     2.9100    -1.2640 H     1 <1>   0.0800 
 38 H       -6.5830     3.1530    -0.4000 H     1 <1>   0.0800 
 39 H       -5.6250     1.7140    -0.5850 H     1 <1>   0.0800 
 40 H      -11.3410    -5.7580     0.0080 H     1 <1>   0.0800 
 41 H      -11.1060    -4.6910    -1.3580 H     1 <1>   0.0800 
 42 H      -12.2960    -2.6400    -1.3860 H     1 <1>   0.0800 
 43 H      -13.3550    -2.2860    -0.0400 H     1 <1>   0.0800 
 44 H       -9.8000     1.8730     1.3320 H     1 <1>   0.0800 
 45 H      -10.4890     3.1580     0.3710 H     1 <1>   0.0800 
 46 H       -8.9380     3.3890     1.1330 H     1 <1>   0.0800 
 47 H       -6.8630     2.6550     2.0250 H     1 <1>   0.0800 
 48 H       -5.1820     2.8190     1.5820 H     1 <1>   0.0800 
 49 H       -5.8600     1.2320     1.8300 H     1 <1>   0.0800 
@<TRIPOS>BOND
  1   1   2  2   
  2   2   3  am  
  3   2   4  1   
  4   3   5  1   
  5   3   6  1   
  6   4   7  2   
  7   4  27  1   
  8   5   8  2   
  9   6  28  1   
 10   6  29  1   
 11   6  30  1   
 12   7   8  1   
 13   7  31  1   
 14   8   9  1   
 15   9  10  1   
 16  10  11  ar  
 17  10  12  ar  
 18  11  13  ar  
 19  12  14  ar  
 20  13  15  ar  
 21  13  16  1   
 22  14  15  ar  
 23  14  17  1   
 24  16  18  1   
 25  16  19  1   
 26  17  20  1   
 27  17  21  1   
 28  18  22  1   
 29  18  32  1   
 30  18  33  1   
 31  19  23  1   
 32  19  34  1   
 33  19  35  1   
 34  20  24  1   
 35  20  36  1   
 36  20  37  1   
 37  21  25  1   
 38  21  38  1   
 39  21  39  1   
 40  22  26  1   
 41  22  40  1   
 42  22  41  1   
 43  23  26  1   
 44  23  42  1   
 45  23  43  1   
 46  24  44  1   
 47  24  45  1   
 48  24  46  1   
 49  25  47  1   
 50  25  48  1   
 51  25  49  1   
@<TRIPOS>SUBSTRUCTURE
  1 ****  12 GROUP 4 **** **** 0

# MOE 2024.06 (io_trps.svl 2023.06)
