@<TRIPOS>MOLECULE
NONAME
45 46 1 0 0 
SMALL
USER_CHARGES


@<TRIPOS>ATOM
  1 O        3.8410    -1.5700     1.4280 O.2   1 <1>  -0.5700 
  2 C        2.7170    -1.1580     1.2890 C.2   1 <1>   0.5690 
  3 N        1.6830    -1.7840     1.8760 N.am  1 <1>  -0.8000 
  4 C        2.4920     0.0850     0.4420 C.3   1 <1>  -0.0190 
  5 C        3.4310     0.0160    -0.7740 C.3   1 <1>   0.3430 
  6 C        2.7080     1.3690     1.2850 C.3   1 <1>  -0.1600 
  7 N        4.7950     0.4420    -0.3560 N.4   1 <1>  -0.9590 
  8 C        3.5300     2.4270     0.5280 C.3   1 <1>  -0.1600 
  9 C        4.8820     1.8860     0.0330 C.3   1 <1>   0.3430 
 10 C        5.8600     0.0290    -1.3070 C.3   1 <1>   0.4860 
 11 C        7.2110     0.4070    -0.7270 C.ar  1 <1>  -0.1430 
 12 C        7.7800    -0.2810     0.3420 C.ar  1 <1>  -0.1430 
 13 C        7.8800     1.4880    -1.2830 C.ar  1 <1>  -0.1500 
 14 C        9.0000     0.1430     0.8450 C.ar  1 <1>  -0.1500 
 15 C        7.1250    -1.4910     1.0000 C.3   1 <1>  -0.0970 
 16 C        9.0990     1.9080    -0.7810 C.ar  1 <1>  -0.1430 
 17 C        9.6640     1.2340     0.2950 C.ar  1 <1>   0.0820 
 18 C        9.8130     3.0980    -1.4080 C.3   1 <1>  -0.0970 
 19 O       10.8590     1.6850     0.7610 O.3   1 <1>  -0.3620 
 20 C       11.5480     1.0330     1.8050 C.3   1 <1>   0.0400 
 21 H        1.8580    -2.6070     2.4580 H     1 <1>   0.3700 
 22 H        0.7110    -1.4720     1.8460 H     1 <1>   0.3700 
 23 H        1.4820     0.0650     0.0740 H     1 <1>   0.0800 
 24 H        3.0710     0.6680    -1.5530 H     1 <1>   0.0800 
 25 H        3.4520    -0.9940    -1.1510 H     1 <1>   0.0800 
 26 H        3.2340     1.1240     2.1940 H     1 <1>   0.0800 
 27 H        1.7550     1.7820     1.5730 H     1 <1>   0.0800 
 28 H        4.9850    -0.1050     0.5050 H     1 <1>   0.4500 
 29 H        3.7080     3.2760     1.1660 H     1 <1>   0.0800 
 30 H        2.9660     2.7850    -0.3160 H     1 <1>   0.0800 
 31 H        5.2090     2.4780    -0.8070 H     1 <1>   0.0800 
 32 H        5.6210     1.9910     0.8120 H     1 <1>   0.0800 
 33 H        5.7210     0.5230    -2.2550 H     1 <1>   0.0800 
 34 H        5.8230    -1.0360    -1.4680 H     1 <1>   0.0800 
 35 H        7.4560     2.0170    -2.1190 H     1 <1>   0.1500 
 36 H        9.4280    -0.3890     1.6730 H     1 <1>   0.1500 
 37 H        6.4950    -1.1740     1.8120 H     1 <1>   0.0800 
 38 H        7.8760    -2.1480     1.4010 H     1 <1>   0.0800 
 39 H        6.5410    -2.0620     0.3030 H     1 <1>   0.0800 
 40 H        9.2570     3.5040    -2.2320 H     1 <1>   0.0800 
 41 H       10.7800     2.7920    -1.7660 H     1 <1>   0.0800 
 42 H        9.9510     3.8690    -0.6710 H     1 <1>   0.0800 
 43 H       12.4710     1.5560     1.9730 H     1 <1>   0.0800 
 44 H       11.7510     0.0190     1.5090 H     1 <1>   0.0800 
 45 H       10.9440     1.0630     2.6950 H     1 <1>   0.0800 
@<TRIPOS>BOND
  1   1   2  2   
  2   2   3  am  
  3   2   4  1   
  4   3  21  1   
  5   3  22  1   
  6   4   5  1   
  7   4   6  1   
  8   4  23  1   
  9   5   7  1   
 10   5  24  1   
 11   5  25  1   
 12   6   8  1   
 13   6  26  1   
 14   6  27  1   
 15   7   9  1   
 16   7  10  1   
 17   7  28  1   
 18   8   9  1   
 19   8  29  1   
 20   8  30  1   
 21   9  31  1   
 22   9  32  1   
 23  10  11  1   
 24  10  33  1   
 25  10  34  1   
 26  11  12  ar  
 27  11  13  ar  
 28  12  14  ar  
 29  12  15  1   
 30  13  16  ar  
 31  13  35  1   
 32  14  17  ar  
 33  14  36  1   
 34  15  37  1   
 35  15  38  1   
 36  15  39  1   
 37  16  17  ar  
 38  16  18  1   
 39  17  19  1   
 40  18  40  1   
 41  18  41  1   
 42  18  42  1   
 43  19  20  1   
 44  20  43  1   
 45  20  44  1   
 46  20  45  1   
@<TRIPOS>SUBSTRUCTURE
  1 ****  11 GROUP 4 **** **** 0

# MOE 2024.06 (io_trps.svl 2023.06)
