@<TRIPOS>MOLECULE
NONAME
52 53 1 0 0 
SMALL
USER_CHARGES


@<TRIPOS>ATOM
  1 O        0.7180    -3.4030    -2.1140 O.2   1 <1>  -0.5700 
  2 C        0.4520    -2.8640    -1.0720 C.2   1 <1>   0.6590 
  3 O       -0.6950    -2.2400    -0.8580 O.3   1 <1>  -0.4300 
  4 C        1.4420    -2.8590     0.0890 C.3   1 <1>  -0.0190 
  5 C       -1.6900    -2.1710    -1.8550 C.3   1 <1>   0.1200 
  6 C        2.6940    -2.0360    -0.2670 C.3   1 <1>  -0.1600 
  7 C        1.8390    -4.2940     0.4870 C.3   1 <1>  -0.1600 
  8 C       -2.8720    -1.3890    -1.2900 C.3   1 <1>  -0.2400 
  9 C        3.7580    -2.1050     0.8260 C.3   1 <1>   0.3430 
 10 C        2.9210    -4.3150     1.5640 C.3   1 <1>   0.3430 
 11 N        4.0970    -3.5330     1.0970 N.4   1 <1>  -0.9590 
 12 C        5.2480    -3.6570     2.0330 C.3   1 <1>   0.4860 
 13 C        6.4700    -3.0710     1.3570 C.ar  1 <1>  -0.1430 
 14 C        7.1030    -3.7570     0.3340 C.ar  1 <1>  -0.1500 
 15 C        6.9590    -1.8330     1.7420 C.ar  1 <1>  -0.1500 
 16 C        8.2060    -3.2190    -0.3070 C.ar  1 <1>   0.0820 
 17 C        8.0610    -1.2720     1.1190 C.ar  1 <1>   0.0820 
 18 O        8.7210    -3.9750    -1.3130 O.3   1 <1>  -0.3620 
 19 C        8.7180    -1.9810     0.1030 C.ar  1 <1>   0.0820 
 20 O        8.4100    -0.0410     1.5830 O.3   1 <1>  -0.3630 
 21 C        9.0950    -3.3570    -2.5270 C.3   1 <1>   0.0400 
 22 O        9.8610    -1.4980    -0.4520 O.3   1 <1>  -0.3630 
 23 C        8.9940     0.9220     0.7310 C.3   1 <1>   0.0400 
 24 C       11.0510    -1.9950     0.1200 C.3   1 <1>   0.0400 
 25 H        0.9560    -2.3950     0.9300 H     1 <1>   0.0800 
 26 H       -1.9810    -3.1740    -2.1190 H     1 <1>   0.0800 
 27 H       -1.2770    -1.6770    -2.7180 H     1 <1>   0.0800 
 28 H        2.4140    -1.0070    -0.4180 H     1 <1>   0.0800 
 29 H        3.1170    -2.3890    -1.1930 H     1 <1>   0.0800 
 30 H        2.1930    -4.8310    -0.3770 H     1 <1>   0.0800 
 31 H        0.9700    -4.8160     0.8500 H     1 <1>   0.0800 
 32 H       -3.2700    -1.8880    -0.4250 H     1 <1>   0.0800 
 33 H       -3.6470    -1.3210    -2.0320 H     1 <1>   0.0800 
 34 H       -2.5660    -0.3930    -1.0240 H     1 <1>   0.0800 
 35 H        3.3900    -1.6370     1.7240 H     1 <1>   0.0800 
 36 H        4.6360    -1.5690     0.4980 H     1 <1>   0.0800 
 37 H        3.2070    -5.3360     1.7630 H     1 <1>   0.0800 
 38 H        2.5330    -3.8870     2.4750 H     1 <1>   0.0800 
 39 H        4.4130    -3.9310     0.2030 H     1 <1>   0.4500 
 40 H        5.4330    -4.6940     2.2610 H     1 <1>   0.0800 
 41 H        5.0440    -3.1330     2.9520 H     1 <1>   0.0800 
 42 H        6.7580    -4.7240     0.0090 H     1 <1>   0.1500 
 43 H        6.4940    -1.2730     2.5350 H     1 <1>   0.1500 
 44 H        8.4090    -2.5580    -2.7460 H     1 <1>   0.0800 
 45 H       10.0970    -2.9800    -2.4350 H     1 <1>   0.0800 
 46 H        9.0590    -4.0980    -3.3050 H     1 <1>   0.0800 
 47 H        8.8420     1.8930     1.1670 H     1 <1>   0.0800 
 48 H        8.5240     0.8740    -0.2350 H     1 <1>   0.0800 
 49 H       10.0480     0.7250     0.6510 H     1 <1>   0.0800 
 50 H       11.8840    -1.5460    -0.3890 H     1 <1>   0.0800 
 51 H       11.0700    -1.7340     1.1640 H     1 <1>   0.0800 
 52 H       11.0780    -3.0640     0.0000 H     1 <1>   0.0800 
@<TRIPOS>BOND
  1   1   2  2   
  2   2   3  1   
  3   2   4  1   
  4   3   5  1   
  5   4   6  1   
  6   4   7  1   
  7   4  25  1   
  8   5   8  1   
  9   5  26  1   
 10   5  27  1   
 11   6   9  1   
 12   6  28  1   
 13   6  29  1   
 14   7  10  1   
 15   7  30  1   
 16   7  31  1   
 17   8  32  1   
 18   8  33  1   
 19   8  34  1   
 20   9  11  1   
 21   9  35  1   
 22   9  36  1   
 23  10  11  1   
 24  10  37  1   
 25  10  38  1   
 26  11  12  1   
 27  11  39  1   
 28  12  13  1   
 29  12  40  1   
 30  12  41  1   
 31  13  14  ar  
 32  13  15  ar  
 33  14  16  ar  
 34  14  42  1   
 35  15  17  ar  
 36  15  43  1   
 37  16  18  1   
 38  16  19  ar  
 39  17  19  ar  
 40  17  20  1   
 41  18  21  1   
 42  19  22  1   
 43  20  23  1   
 44  21  44  1   
 45  21  45  1   
 46  21  46  1   
 47  22  24  1   
 48  23  47  1   
 49  23  48  1   
 50  23  49  1   
 51  24  50  1   
 52  24  51  1   
 53  24  52  1   
@<TRIPOS>SUBSTRUCTURE
  1 ****   9 GROUP 4 **** **** 0

# MOE 2024.06 (io_trps.svl 2023.06)
