@<TRIPOS>MOLECULE
NONAME
35 35 1 0 0 
SMALL
USER_CHARGES


@<TRIPOS>ATOM
  1 S        0.1410    -0.2500    -1.1900 S.o2  1 <1>   1.4470 
  2 O        0.6820    -0.9620    -2.3280 O.2   1 <1>  -0.6500 
  3 O        0.3250     1.1810    -1.0950 O.2   1 <1>  -0.6500 
  4 N        0.8090    -0.9610     0.1990 N.am  1 <1>  -0.8490 
  5 C       -1.6310    -0.6090    -1.0180 C.ar  1 <1>  -0.0090 
  6 C        2.1140    -0.3930     0.5450 C.3   1 <1>   0.1960 
  7 C        0.8420    -2.4210     0.1160 C.3   1 <1>   0.1960 
  8 C       -2.2550    -0.5460     0.2230 C.ar  1 <1>  -0.1500 
  9 C       -2.4110    -0.9370    -2.1190 C.ar  1 <1>  -0.1500 
 10 C        1.9220     0.6030     1.6840 C.3   1 <1>  -0.2400 
 11 C        0.8280    -3.0170     1.5220 C.3   1 <1>  -0.2400 
 12 C       -3.6090    -0.8060     0.3940 C.ar  1 <1>  -0.0090 
 13 C       -3.7620    -1.2000    -1.9810 C.ar  1 <1>  -0.1500 
 14 S       -4.3760    -0.6890     2.0300 S.o2  1 <1>   1.2040 
 15 C       -4.3520    -1.1350    -0.7320 C.ar  1 <1>  -0.1500 
 16 O       -5.6790    -1.3130     1.9980 O.2   1 <1>  -0.6500 
 17 O       -3.4120    -1.0770     3.0340 O.2   1 <1>  -0.6500 
 18 C       -4.6340     1.0670     2.1950 C.3   1 <1>  -0.1350 
 19 H        2.5590     0.0950    -0.3080 H     1 <1>   0.0800 
 20 H        2.7960    -1.1600     0.8710 H     1 <1>   0.0800 
 21 H        1.7090    -2.7480    -0.4370 H     1 <1>   0.0800 
 22 H       -0.0330    -2.7780    -0.4030 H     1 <1>   0.0800 
 23 H       -1.6600    -0.2910     1.0860 H     1 <1>   0.1500 
 24 H       -1.9550    -0.9890    -3.0940 H     1 <1>   0.1500 
 25 H        1.2860     1.4120     1.3740 H     1 <1>   0.0800 
 26 H        2.8740     1.0120     1.9710 H     1 <1>   0.0800 
 27 H        1.4870     0.1120     2.5360 H     1 <1>   0.0800 
 28 H        1.7130    -2.7500     2.0690 H     1 <1>   0.0800 
 29 H        0.7830    -4.0890     1.4580 H     1 <1>   0.0800 
 30 H       -0.0390    -2.6730     2.0590 H     1 <1>   0.0800 
 31 H       -4.3520    -1.4570    -2.8450 H     1 <1>   0.1500 
 32 H       -5.4050    -1.3470    -0.6320 H     1 <1>   0.1500 
 33 H       -5.2780     1.4260     1.4160 H     1 <1>   0.0800 
 34 H       -3.6990     1.5900     2.1430 H     1 <1>   0.0800 
 35 H       -5.0910     1.2810     3.1410 H     1 <1>   0.0800 
@<TRIPOS>BOND
  1   1   2  2   
  2   1   3  2   
  3   1   4  am  
  4   1   5  1   
  5   4   6  1   
  6   4   7  1   
  7   5   8  ar  
  8   5   9  ar  
  9   6  10  1   
 10   6  19  1   
 11   6  20  1   
 12   7  11  1   
 13   7  21  1   
 14   7  22  1   
 15   8  12  ar  
 16   8  23  1   
 17   9  13  ar  
 18   9  24  1   
 19  10  25  1   
 20  10  26  1   
 21  10  27  1   
 22  11  28  1   
 23  11  29  1   
 24  11  30  1   
 25  12  14  1   
 26  12  15  ar  
 27  13  15  ar  
 28  13  31  1   
 29  14  16  2   
 30  14  17  2   
 31  14  18  1   
 32  15  32  1   
 33  18  33  1   
 34  18  34  1   
 35  18  35  1   
@<TRIPOS>SUBSTRUCTURE
  1 ****   8 GROUP 4 **** **** 0

# MOE 2024.06 (io_trps.svl 2023.06)
