@<TRIPOS>MOLECULE
NONAME
39 40 1 0 0 
SMALL
USER_CHARGES


@<TRIPOS>ATOM
  1 CL      -0.4800     0.3820     1.2790 Cl    1 <1>  -0.1770 
  2 C        0.4650     1.7240     0.6670 C.ar  1 <1>   0.1770 
  3 C       -0.1690     2.9300     0.3790 C.ar  1 <1>   0.1170 
  4 C        1.8220     1.5470     0.4860 C.ar  1 <1>  -0.1500 
  5 N       -1.5580     3.0420     0.5860 N.am  1 <1>  -0.5470 
  6 C        0.6250     3.9730    -0.0920 C.ar  1 <1>  -0.1500 
  7 C        2.5870     2.5970     0.0090 C.ar  1 <1>  -0.1500 
  8 C       -2.4790     3.9520     0.1440 C.2   1 <1>   0.5690 
  9 C        1.9960     3.8250    -0.2820 C.ar  1 <1>  -0.1440 
 10 O       -2.1970     4.8850    -0.5650 O.2   1 <1>  -0.5700 
 11 C       -3.9310     3.7380     0.5750 C.3   1 <1>  -0.0190 
 12 C        2.8340     5.0020    -0.8140 C.3   1 <1>   1.1640 
 13 C       -4.6300     2.7090    -0.3350 C.3   1 <1>  -0.1600 
 14 C       -4.7460     5.0480     0.6060 C.3   1 <1>  -0.1600 
 15 F        4.1220     4.8980    -0.5050 F     1 <1>  -0.3400 
 16 F        2.7760     5.0960    -2.1350 F     1 <1>  -0.3400 
 17 F        2.4360     6.1740    -0.3340 F     1 <1>  -0.3400 
 18 C       -6.0870     2.4850     0.0780 C.3   1 <1>   0.1400 
 19 C       -6.1990     4.8000     1.0150 C.3   1 <1>   0.1400 
 20 N       -6.8050     3.7890     0.1050 N.am  1 <1>  -0.6600 
 21 C       -7.9120     3.9970    -0.6800 C.2   1 <1>   0.5690 
 22 O       -8.3800     3.1300    -1.3780 O.2   1 <1>  -0.5700 
 23 C       -8.6010     5.3420    -0.7030 C.3   1 <1>  -0.1790 
 24 H        2.2740     0.5980     0.7160 H     1 <1>   0.1500 
 25 H       -1.9520     2.2510     1.0980 H     1 <1>   0.3700 
 26 H        0.1680     4.9220    -0.3150 H     1 <1>   0.1500 
 27 H        3.6460     2.4480    -0.1330 H     1 <1>   0.1500 
 28 H       -3.9170     3.3450     1.5760 H     1 <1>   0.0800 
 29 H       -4.1080     1.7700    -0.3000 H     1 <1>   0.0800 
 30 H       -4.6100     3.0550    -1.3540 H     1 <1>   0.0800 
 31 H       -4.7360     5.5080    -0.3680 H     1 <1>   0.0800 
 32 H       -4.2930     5.7380     1.2950 H     1 <1>   0.0800 
 33 H       -6.1330     2.0400     1.0570 H     1 <1>   0.0800 
 34 H       -6.5540     1.8060    -0.6160 H     1 <1>   0.0800 
 35 H       -6.7400     5.7290     0.9880 H     1 <1>   0.0800 
 36 H       -6.2370     4.4260     2.0240 H     1 <1>   0.0800 
 37 H       -8.9810     5.5740     0.2730 H     1 <1>   0.0800 
 38 H       -9.4220     5.3150    -1.3950 H     1 <1>   0.0800 
 39 H       -7.9100     6.1000    -1.0200 H     1 <1>   0.0800 
@<TRIPOS>BOND
  1   1   2  1   
  2   2   3  ar  
  3   2   4  ar  
  4   3   5  1   
  5   3   6  ar  
  6   4   7  ar  
  7   4  24  1   
  8   5   8  am  
  9   5  25  1   
 10   6   9  ar  
 11   6  26  1   
 12   7   9  ar  
 13   7  27  1   
 14   8  10  2   
 15   8  11  1   
 16   9  12  1   
 17  11  13  1   
 18  11  14  1   
 19  11  28  1   
 20  12  15  1   
 21  12  16  1   
 22  12  17  1   
 23  13  18  1   
 24  13  29  1   
 25  13  30  1   
 26  14  19  1   
 27  14  31  1   
 28  14  32  1   
 29  18  20  1   
 30  18  33  1   
 31  18  34  1   
 32  19  20  1   
 33  19  35  1   
 34  19  36  1   
 35  20  21  am  
 36  21  22  2   
 37  21  23  1   
 38  23  37  1   
 39  23  38  1   
 40  23  39  1   
@<TRIPOS>SUBSTRUCTURE
  1 ****   8 GROUP 4 **** **** 0

# MOE 2024.06 (io_trps.svl 2023.06)
