@<TRIPOS>MOLECULE
NONAME
68 69 1 0 0 
SMALL
USER_CHARGES


@<TRIPOS>ATOM
  1 O       -0.5150     0.4130    -0.9060 O.2   1 <1>  -0.5700 
  2 C       -0.8280    -0.6370    -0.3870 C.2   1 <1>   0.7060 
  3 O       -2.0940    -0.8220    -0.0090 O.3   1 <1>  -0.4300 
  4 C        0.0840    -1.7220    -0.1760 C.2   1 <1>  -0.1360 
  5 C       -3.0540     0.2030    -0.1250 C.3   1 <1>   0.2000 
  6 C        1.4170    -1.6680     0.0690 C.2   1 <1>  -0.1360 
  7 C       -2.8790     1.1750     1.0420 C.3   1 <1>  -0.1600 
  8 C       -4.4350    -0.4400    -0.0540 C.3   1 <1>  -0.1600 
  9 C        2.2390    -0.5140     0.2820 C.2   1 <1>   0.7060 
 10 C       -3.9500     2.2710     1.0420 C.3   1 <1>   0.5030 
 11 C       -5.5570     0.6070    -0.0830 C.3   1 <1>   0.5030 
 12 O        1.8430     0.5060     0.8030 O.2   1 <1>  -0.5700 
 13 O        3.5160    -0.5960    -0.0980 O.3   1 <1>  -0.4300 
 14 N       -5.2970     1.6980     0.8720 N.4   1 <1>  -0.9060 
 15 C       -3.6870     3.3290    -0.0330 C.3   1 <1>  -0.2400 
 16 C       -3.9690     2.9670     2.4010 C.3   1 <1>  -0.2400 
 17 C       -5.7720     1.1790    -1.4870 C.3   1 <1>  -0.2400 
 18 C       -6.8650    -0.0350     0.3740 C.3   1 <1>  -0.2400 
 19 C        4.3900     0.5030     0.0200 C.3   1 <1>   0.2000 
 20 C        4.1360     1.4610    -1.1460 C.3   1 <1>  -0.1600 
 21 C        5.8190    -0.0250    -0.0530 C.3   1 <1>  -0.1600 
 22 C        5.1150     2.6390    -1.1430 C.3   1 <1>   0.5030 
 23 C        6.8520     1.1090    -0.0240 C.3   1 <1>   0.5030 
 24 N        6.5040     2.1770    -0.9760 N.4   1 <1>  -0.9060 
 25 C        4.7680     3.6710    -0.0670 C.3   1 <1>  -0.2400 
 26 C        5.0770     3.3380    -2.5010 C.3   1 <1>  -0.2400 
 27 C        7.0220     1.6930     1.3810 C.3   1 <1>  -0.2400 
 28 C        8.2080     0.5750    -0.4830 C.3   1 <1>  -0.2400 
 29 H       -0.3960    -2.6800    -0.2410 H     1 <1>   0.1500 
 30 H       -2.9150     0.6910    -1.0760 H     1 <1>   0.0800 
 31 H        1.9730    -2.5840     0.1320 H     1 <1>   0.1500 
 32 H       -2.9250     0.6240     1.9650 H     1 <1>   0.0800 
 33 H       -1.9080     1.6370     0.9890 H     1 <1>   0.0800 
 34 H       -4.5550    -1.1160    -0.8830 H     1 <1>   0.0800 
 35 H       -4.5030    -1.0180     0.8510 H     1 <1>   0.0800 
 36 H       -5.9390     2.4640     0.6610 H     1 <1>   0.4500 
 37 H       -5.5700     1.3440     1.7910 H     1 <1>   0.4500 
 38 H       -2.7960     3.8800     0.2170 H     1 <1>   0.0800 
 39 H       -4.4970     4.0340    -0.0970 H     1 <1>   0.0800 
 40 H       -3.5100     2.9000    -0.9980 H     1 <1>   0.0800 
 41 H       -4.1750     2.2730     3.1960 H     1 <1>   0.0800 
 42 H       -4.6990     3.7580     2.4240 H     1 <1>   0.0800 
 43 H       -3.0070     3.4080     2.5990 H     1 <1>   0.0800 
 44 H       -6.1580     0.4100    -2.1340 H     1 <1>   0.0800 
 45 H       -4.8620     1.5210    -1.9360 H     1 <1>   0.0800 
 46 H       -6.4870     1.9820    -1.4760 H     1 <1>   0.0800 
 47 H       -6.7800    -0.4340     1.3700 H     1 <1>   0.0800 
 48 H       -7.1200    -0.8520    -0.2790 H     1 <1>   0.0800 
 49 H       -7.6780     0.6700     0.3450 H     1 <1>   0.0800 
 50 H        4.2130     0.9770     0.9710 H     1 <1>   0.0800 
 51 H        4.2250     0.9170    -2.0690 H     1 <1>   0.0800 
 52 H        3.1310     1.8430    -1.0910 H     1 <1>   0.0800 
 53 H        5.9940    -0.6910     0.7730 H     1 <1>   0.0800 
 54 H        5.9320    -0.5950    -0.9590 H     1 <1>   0.0800 
 55 H        7.0820     2.9920    -0.7640 H     1 <1>   0.4500 
 56 H        6.8030     1.8470    -1.8960 H     1 <1>   0.4500 
 57 H        3.8360     4.1480    -0.3150 H     1 <1>   0.0800 
 58 H        5.5180     4.4380    -0.0020 H     1 <1>   0.0800 
 59 H        4.6270     3.2270     0.8980 H     1 <1>   0.0800 
 60 H        5.3360     2.6640    -3.2980 H     1 <1>   0.0800 
 61 H        5.7400     4.1850    -2.5240 H     1 <1>   0.0800 
 62 H        4.0810     3.6990    -2.6980 H     1 <1>   0.0800 
 63 H        7.4690     0.9570     2.0260 H     1 <1>   0.0800 
 64 H        6.0870     1.9600     1.8320 H     1 <1>   0.0800 
 65 H        7.6690     2.5520     1.3720 H     1 <1>   0.0800 
 66 H        8.1540     0.1730    -1.4800 H     1 <1>   0.0800 
 67 H        8.5280    -0.2200     0.1680 H     1 <1>   0.0800 
 68 H        8.9600     1.3440    -0.4530 H     1 <1>   0.0800 
@<TRIPOS>BOND
  1   1   2  2   
  2   2   3  1   
  3   2   4  1   
  4   3   5  1   
  5   4   6  2   
  6   4  29  1   
  7   5   7  1   
  8   5   8  1   
  9   5  30  1   
 10   6   9  1   
 11   6  31  1   
 12   7  10  1   
 13   7  32  1   
 14   7  33  1   
 15   8  11  1   
 16   8  34  1   
 17   8  35  1   
 18   9  12  2   
 19   9  13  1   
 20  10  14  1   
 21  10  15  1   
 22  10  16  1   
 23  11  14  1   
 24  11  17  1   
 25  11  18  1   
 26  13  19  1   
 27  14  36  1   
 28  14  37  1   
 29  15  38  1   
 30  15  39  1   
 31  15  40  1   
 32  16  41  1   
 33  16  42  1   
 34  16  43  1   
 35  17  44  1   
 36  17  45  1   
 37  17  46  1   
 38  18  47  1   
 39  18  48  1   
 40  18  49  1   
 41  19  20  1   
 42  19  21  1   
 43  19  50  1   
 44  20  22  1   
 45  20  51  1   
 46  20  52  1   
 47  21  23  1   
 48  21  53  1   
 49  21  54  1   
 50  22  24  1   
 51  22  25  1   
 52  22  26  1   
 53  23  24  1   
 54  23  27  1   
 55  23  28  1   
 56  24  55  1   
 57  24  56  1   
 58  25  57  1   
 59  25  58  1   
 60  25  59  1   
 61  26  60  1   
 62  26  61  1   
 63  26  62  1   
 64  27  63  1   
 65  27  64  1   
 66  27  65  1   
 67  28  66  1   
 68  28  67  1   
 69  28  68  1   
@<TRIPOS>SUBSTRUCTURE
  1 ****   1 GROUP 4 **** **** 0

# MOE 2024.06 (io_trps.svl 2023.06)
