@<TRIPOS>MOLECULE
NONAME
54 57 1 0 0 
SMALL
USER_CHARGES


@<TRIPOS>ATOM
  1 O       -0.6380     0.2200     0.5850 O.2   1 <1>  -0.5700 
  2 C       -0.8490     1.4410     0.4830 C.2   1 <1>   0.6160 
  3 N       -2.0870     2.0210     0.3730 N.am  1 <1>  -0.1570 
  4 C        0.1310     2.4610     0.4710 C.2   1 <1>   0.1230 
  5 N       -1.8700     3.4370     0.3270 N.pl3 1 <1>  -0.4890 
  6 C       -3.1580     1.4210    -0.3210 C.ar  1 <1>   0.1170 
  7 N        1.5340     2.2030     0.5490 N.am  1 <1>  -0.5390 
  8 C       -0.5260     3.6540     0.3990 C.2   1 <1>  -0.0380 
  9 C       -2.9230     4.3510     0.8330 C.3   1 <1>   0.1290 
 10 C       -3.7750     0.2850     0.1920 C.ar  1 <1>  -0.1500 
 11 C       -3.6260     1.9430    -1.5240 C.ar  1 <1>  -0.1500 
 12 C        2.5200     2.6520    -0.2800 C.2   1 <1>   0.5690 
 13 C        0.0540     5.0580     0.4280 C.3   1 <1>  -0.1020 
 14 C       -4.8360    -0.3070    -0.4690 C.ar  1 <1>  -0.1500 
 15 C       -4.6870     1.3550    -2.1880 C.ar  1 <1>  -0.1500 
 16 O        2.2870     3.4750    -1.1380 O.2   1 <1>  -0.5700 
 17 C        3.9530     2.0820    -0.1010 C.3   1 <1>   0.2040 
 18 C       -5.2950     0.2290    -1.6600 C.ar  1 <1>  -0.1500 
 19 C        3.8390     0.6980     0.5940 C.ar  1 <1>  -0.1430 
 20 C        4.7920     3.0850     0.7280 C.3   1 <1>  -0.1600 
 21 C        4.6800     1.8820    -1.4580 C.3   1 <1>  -0.1600 
 22 C        4.3280     0.4350     1.8720 C.ar  1 <1>  -0.1500 
 23 C        3.1820    -0.3330    -0.0720 C.ar  1 <1>  -0.1500 
 24 C        5.1600     4.3360    -0.0740 C.3   1 <1>   0.1200 
 25 C        5.1440     3.1930    -2.1110 C.3   1 <1>   0.1200 
 26 C        4.1690    -0.8100     2.4550 C.ar  1 <1>  -0.1500 
 27 C        3.0180    -1.5770     0.5100 C.ar  1 <1>  -0.1500 
 28 O        5.8800     3.9360    -1.1930 O.3   1 <1>  -0.5600 
 29 C        3.5140    -1.8180     1.7760 C.ar  1 <1>  -0.1500 
 30 H        1.7710     1.3480     1.0670 H     1 <1>   0.3700 
 31 H       -3.8890     4.0100     0.5070 H     1 <1>   0.0800 
 32 H       -2.7580     5.3430     0.4550 H     1 <1>   0.0800 
 33 H       -2.8980     4.3660     1.9080 H     1 <1>   0.0800 
 34 H       -3.4130    -0.1360     1.1130 H     1 <1>   0.1500 
 35 H       -3.1500     2.8130    -1.9390 H     1 <1>   0.1500 
 36 H       -0.1340     5.5450    -0.5110 H     1 <1>   0.0800 
 37 H        1.1150     5.0280     0.5920 H     1 <1>   0.0800 
 38 H       -0.3910     5.6310     1.2200 H     1 <1>   0.0800 
 39 H       -5.3030    -1.1860    -0.0590 H     1 <1>   0.1500 
 40 H       -5.0380     1.7710    -3.1170 H     1 <1>   0.1500 
 41 H       -6.1200    -0.2300    -2.1760 H     1 <1>   0.1500 
 42 H        5.7180     2.6300     1.0290 H     1 <1>   0.0800 
 43 H        4.2530     3.3760     1.6120 H     1 <1>   0.0800 
 44 H        4.0390     1.3690    -2.1510 H     1 <1>   0.0800 
 45 H        5.5490     1.2670    -1.3040 H     1 <1>   0.0800 
 46 H        4.8380     1.1820     2.4510 H     1 <1>   0.1500 
 47 H        2.7720    -0.1810    -1.0560 H     1 <1>   0.1500 
 48 H        5.7940     4.9830     0.5070 H     1 <1>   0.0800 
 49 H        4.2930     4.8910    -0.3920 H     1 <1>   0.0800 
 50 H        4.3170     3.7910    -2.4550 H     1 <1>   0.0800 
 51 H        5.7840     2.9850    -2.9500 H     1 <1>   0.0800 
 52 H        4.5560    -0.9950     3.4430 H     1 <1>   0.1500 
 53 H        2.4990    -2.3550    -0.0220 H     1 <1>   0.1500 
 54 H        3.3870    -2.7860     2.2310 H     1 <1>   0.1500 
@<TRIPOS>BOND
  1   1   2  2   
  2   2   3  am  
  3   2   4  1   
  4   3   5  1   
  5   3   6  1   
  6   4   7  1   
  7   4   8  2   
  8   5   8  1   
  9   5   9  1   
 10   6  10  ar  
 11   6  11  ar  
 12   7  12  am  
 13   7  30  1   
 14   8  13  1   
 15   9  31  1   
 16   9  32  1   
 17   9  33  1   
 18  10  14  ar  
 19  10  34  1   
 20  11  15  ar  
 21  11  35  1   
 22  12  16  2   
 23  12  17  1   
 24  13  36  1   
 25  13  37  1   
 26  13  38  1   
 27  14  18  ar  
 28  14  39  1   
 29  15  18  ar  
 30  15  40  1   
 31  17  19  1   
 32  17  20  1   
 33  17  21  1   
 34  18  41  1   
 35  19  22  ar  
 36  19  23  ar  
 37  20  24  1   
 38  20  42  1   
 39  20  43  1   
 40  21  25  1   
 41  21  44  1   
 42  21  45  1   
 43  22  26  ar  
 44  22  46  1   
 45  23  27  ar  
 46  23  47  1   
 47  24  28  1   
 48  24  48  1   
 49  24  49  1   
 50  25  28  1   
 51  25  50  1   
 52  25  51  1   
 53  26  29  ar  
 54  26  52  1   
 55  27  29  ar  
 56  27  53  1   
 57  29  54  1   
@<TRIPOS>SUBSTRUCTURE
  1 ****   7 GROUP 4 **** **** 0

# MOE 2024.06 (io_trps.svl 2023.06)
