@<TRIPOS>MOLECULE
NONAME
37 39 1 0 0 
SMALL
USER_CHARGES


@<TRIPOS>ATOM
  1 BR       1.2990    -1.0370     0.5980 Br    1 <1>  -0.0570 
  2 C       -0.2400    -1.8440    -0.2390 C.2   1 <1>   0.0570 
  3 C       -0.5010    -1.7880    -1.5540 C.2   1 <1>  -0.1100 
  4 C       -1.1800    -2.5530     0.5680 C.2   1 <1>  -0.1500 
  5 S       -1.9980    -2.6530    -1.8710 S.3   1 <1>  -0.0800 
  6 C       -2.1980    -3.0550    -0.1610 C.2   1 <1>  -0.1400 
  7 C       -3.4240    -3.8610     0.2130 C.3   1 <1>   0.5230 
  8 N       -4.6300    -3.0890    -0.1790 N.4   1 <1>  -0.9590 
  9 C       -4.7420    -1.7940     0.5930 C.3   1 <1>   0.3430 
 10 C       -5.8920    -3.9050    -0.0570 C.3   1 <1>   0.3430 
 11 C       -5.9940    -0.9830     0.2040 C.3   1 <1>   0.2090 
 12 C       -7.1510    -3.1040    -0.4510 C.3   1 <1>   0.2090 
 13 N       -7.2280    -1.8190     0.3060 N.pl3 1 <1>  -0.8380 
 14 C       -8.4330    -1.1170     0.1600 C.ar  1 <1>   0.1000 
 15 C       -8.8640    -0.5170    -1.0310 C.ar  1 <1>   0.1900 
 16 C       -9.2710    -0.9960     1.2610 C.ar  1 <1>  -0.1500 
 17 F       -8.1110    -0.5990    -2.1040 F     1 <1>  -0.1900 
 18 C      -10.0580     0.1670    -1.1370 C.ar  1 <1>  -0.1500 
 19 C      -10.4740    -0.3130     1.1740 C.ar  1 <1>  -0.1500 
 20 C      -10.8710     0.2680    -0.0200 C.ar  1 <1>  -0.1500 
 21 H        0.0200    -1.3360    -2.3800 H     1 <1>   0.1500 
 22 H       -1.0270    -2.6390     1.6300 H     1 <1>   0.1500 
 23 H       -3.4290    -4.0550     1.2730 H     1 <1>   0.0800 
 24 H       -3.3990    -4.8040    -0.3110 H     1 <1>   0.0800 
 25 H       -4.5040    -2.8340    -1.1680 H     1 <1>   0.4500 
 26 H       -3.8670    -1.1870     0.4220 H     1 <1>   0.0800 
 27 H       -4.7970    -2.0050     1.6480 H     1 <1>   0.0800 
 28 H       -6.0140    -4.2320     0.9630 H     1 <1>   0.0800 
 29 H       -5.8270    -4.7810    -0.6810 H     1 <1>   0.0800 
 30 H       -5.8860    -0.6100    -0.8000 H     1 <1>   0.0800 
 31 H       -6.0880    -0.1350     0.8610 H     1 <1>   0.0800 
 32 H       -8.0280    -3.6910    -0.2370 H     1 <1>   0.0800 
 33 H       -7.1380    -2.9060    -1.5090 H     1 <1>   0.0800 
 34 H       -8.9740    -1.4430     2.1920 H     1 <1>   0.1500 
 35 H      -10.3470     0.6110    -2.0720 H     1 <1>   0.1500 
 36 H      -11.1070    -0.2340     2.0420 H     1 <1>   0.1500 
 37 H      -11.8070     0.7970    -0.0790 H     1 <1>   0.1500 
@<TRIPOS>BOND
  1   1   2  1   
  2   2   3  2   
  3   2   4  1   
  4   3   5  1   
  5   3  21  1   
  6   4   6  2   
  7   4  22  1   
  8   5   6  1   
  9   6   7  1   
 10   7   8  1   
 11   7  23  1   
 12   7  24  1   
 13   8   9  1   
 14   8  10  1   
 15   8  25  1   
 16   9  11  1   
 17   9  26  1   
 18   9  27  1   
 19  10  12  1   
 20  10  28  1   
 21  10  29  1   
 22  11  13  1   
 23  11  30  1   
 24  11  31  1   
 25  12  13  1   
 26  12  32  1   
 27  12  33  1   
 28  13  14  1   
 29  14  15  ar  
 30  14  16  ar  
 31  15  17  1   
 32  15  18  ar  
 33  16  19  ar  
 34  16  34  1   
 35  18  20  ar  
 36  18  35  1   
 37  19  20  ar  
 38  19  36  1   
 39  20  37  1   
@<TRIPOS>SUBSTRUCTURE
  1 ****  11 GROUP 4 **** **** 0

# MOE 2024.06 (io_trps.svl 2023.06)
