@<TRIPOS>MOLECULE
NONAME
49 50 1 0 0 
SMALL
USER_CHARGES


@<TRIPOS>ATOM
  1 O       -1.0770    -0.3920    -2.1180 O.2   1 <1>  -0.5700 
  2 C       -1.0280    -1.5680    -1.8310 C.2   1 <1>   0.5440 
  3 N        0.1880    -2.0420    -1.4500 N.am  1 <1>  -0.7300 
  4 C       -2.2210    -2.3940    -1.8740 C.ar  1 <1>   0.0860 
  5 C        0.4810    -3.2330    -0.6210 C.3   1 <1>   0.1400 
  6 C       -3.4260    -1.9220    -1.3630 C.ar  1 <1>  -0.1500 
  7 C       -2.2110    -3.6740    -2.4280 C.ar  1 <1>  -0.1500 
  8 C        1.2320    -2.8260     0.6570 C.3   1 <1>  -0.0800 
  9 C       -4.5850    -2.6840    -1.3700 C.ar  1 <1>   0.1170 
 10 C       -3.3540    -4.4510    -2.4500 C.ar  1 <1>  -0.1500 
 11 C        2.5910    -2.1750     0.3520 C.3   1 <1>  -0.2400 
 12 C        1.4420    -4.0520     1.5530 C.3   1 <1>  -0.2400 
 13 N       -5.7550    -2.1290    -0.8330 N.am  1 <1>  -0.5470 
 14 C       -4.5330    -3.9600    -1.9230 C.ar  1 <1>  -0.1500 
 15 C       -6.9210    -2.6950    -0.3900 C.2   1 <1>   0.5690 
 16 O       -7.1330    -3.8830    -0.3900 O.2   1 <1>  -0.5700 
 17 C       -8.0100    -1.7740     0.1430 C.3   1 <1>   0.1810 
 18 O       -7.5830    -0.4170     0.1480 O.3   1 <1>  -0.3630 
 19 C       -8.4050     0.5730     0.5760 C.ar  1 <1>   0.0820 
 20 C       -7.9080     1.8660     0.5200 C.ar  1 <1>  -0.1500 
 21 C       -9.6940     0.3560     1.0560 C.ar  1 <1>  -0.1500 
 22 C       -8.6770     2.9400     0.9360 C.ar  1 <1>  -0.1430 
 23 C      -10.4650     1.4280     1.4710 C.ar  1 <1>  -0.1500 
 24 C       -9.9580     2.7150     1.4100 C.ar  1 <1>  -0.1500 
 25 C       -8.1290     4.3550     0.8710 C.3   1 <1>  -0.0970 
 26 H        0.9400    -1.3520    -1.4920 H     1 <1>   0.3700 
 27 H        1.0780    -3.9230    -1.1930 H     1 <1>   0.0800 
 28 H       -0.4380    -3.7250    -0.3500 H     1 <1>   0.0800 
 29 H       -3.4470    -0.9300    -0.9470 H     1 <1>   0.1500 
 30 H       -1.2970    -4.0570    -2.8480 H     1 <1>   0.1500 
 31 H        0.6210    -2.1210     1.1970 H     1 <1>   0.0800 
 32 H       -3.3300    -5.4380    -2.8790 H     1 <1>   0.1500 
 33 H        3.2080    -2.8380    -0.2280 H     1 <1>   0.0800 
 34 H        3.1050    -1.9430     1.2680 H     1 <1>   0.0800 
 35 H        2.4630    -1.2570    -0.1930 H     1 <1>   0.0800 
 36 H        2.0500    -4.7880     1.0570 H     1 <1>   0.0800 
 37 H        0.4960    -4.5000     1.8040 H     1 <1>   0.0800 
 38 H        1.9290    -3.7660     2.4690 H     1 <1>   0.0800 
 39 H       -5.7410    -1.1130    -0.7100 H     1 <1>   0.3700 
 40 H       -5.4150    -4.5730    -1.9510 H     1 <1>   0.1500 
 41 H       -8.2510    -2.0590     1.1510 H     1 <1>   0.0800 
 42 H       -8.8800    -1.8550    -0.4820 H     1 <1>   0.0800 
 43 H       -6.9130     2.0230     0.1460 H     1 <1>   0.1500 
 44 H      -10.1170    -0.6290     1.1170 H     1 <1>   0.1500 
 45 H      -11.4620     1.2630     1.8420 H     1 <1>   0.1500 
 46 H      -10.5670     3.5410     1.7340 H     1 <1>   0.1500 
 47 H       -7.0560     4.3460     0.8020 H     1 <1>   0.0800 
 48 H       -8.4080     4.9010     1.7540 H     1 <1>   0.0800 
 49 H       -8.5280     4.8600     0.0090 H     1 <1>   0.0800 
@<TRIPOS>BOND
  1   1   2  2   
  2   2   3  am  
  3   2   4  1   
  4   3   5  1   
  5   3  26  1   
  6   4   6  ar  
  7   4   7  ar  
  8   5   8  1   
  9   5  27  1   
 10   5  28  1   
 11   6   9  ar  
 12   6  29  1   
 13   7  10  ar  
 14   7  30  1   
 15   8  11  1   
 16   8  12  1   
 17   8  31  1   
 18   9  13  1   
 19   9  14  ar  
 20  10  14  ar  
 21  10  32  1   
 22  11  33  1   
 23  11  34  1   
 24  11  35  1   
 25  12  36  1   
 26  12  37  1   
 27  12  38  1   
 28  13  15  am  
 29  13  39  1   
 30  14  40  1   
 31  15  16  2   
 32  15  17  1   
 33  17  18  1   
 34  17  41  1   
 35  17  42  1   
 36  18  19  1   
 37  19  20  ar  
 38  19  21  ar  
 39  20  22  ar  
 40  20  43  1   
 41  21  23  ar  
 42  21  44  1   
 43  22  24  ar  
 44  22  25  1   
 45  23  24  ar  
 46  23  45  1   
 47  24  46  1   
 48  25  47  1   
 49  25  48  1   
 50  25  49  1   
@<TRIPOS>SUBSTRUCTURE
  1 ****  13 GROUP 4 **** **** 0

# MOE 2024.06 (io_trps.svl 2023.06)
