@<TRIPOS>MOLECULE
NONAME
23 23 1 0 0 
SMALL
USER_CHARGES


@<TRIPOS>ATOM
  1 BR      -0.6470    -1.1490     0.1790 Br    1 <1>  -0.1110 
  2 C        1.2620    -1.3010     0.3930 C.ar  1 <1>   0.1110 
  3 C        2.0440    -1.7580    -0.6380 C.ar  1 <1>   0.1600 
  4 C        1.8600    -0.9550     1.5790 C.ar  1 <1>   0.1600 
  5 N        3.3490    -1.8660    -0.5030 N.ar  1 <1>  -0.6200 
  6 N        3.1620    -1.0550     1.7350 N.ar  1 <1>  -0.6200 
  7 C        3.8460    -1.5070     0.6850 C.ar  1 <1>   0.7030 
  8 O        5.1700    -1.5890     0.8990 O.3   1 <1>  -0.3620 
  9 C        6.1960    -2.0190     0.0250 C.3   1 <1>   0.2800 
 10 C        6.2870    -1.0990    -1.1990 C.3   1 <1>  -0.2400 
 11 C        6.0010    -3.4930    -0.3550 C.3   1 <1>  -0.2400 
 12 C        7.4850    -1.8870     0.8400 C.3   1 <1>  -0.2400 
 13 H        1.5950    -2.0340    -1.5760 H     1 <1>   0.1500 
 14 H        1.2660    -0.5940     2.4010 H     1 <1>   0.1500 
 15 H        5.4440    -1.2280    -1.8500 H     1 <1>   0.0800 
 16 H        7.1700    -1.3300    -1.7660 H     1 <1>   0.0800 
 17 H        6.3410    -0.0710    -0.8890 H     1 <1>   0.0800 
 18 H        5.1580    -3.6220    -1.0070 H     1 <1>   0.0800 
 19 H        5.8610    -4.0900     0.5270 H     1 <1>   0.0800 
 20 H        6.8680    -3.8540    -0.8770 H     1 <1>   0.0800 
 21 H        7.6310    -0.8650     1.1400 H     1 <1>   0.0800 
 22 H        8.3330    -2.1940     0.2550 H     1 <1>   0.0800 
 23 H        7.4350    -2.5050     1.7180 H     1 <1>   0.0800 
@<TRIPOS>BOND
  1   1   2  1   
  2   2   3  ar  
  3   2   4  ar  
  4   3   5  ar  
  5   3  13  1   
  6   4   6  ar  
  7   4  14  1   
  8   5   7  ar  
  9   6   7  ar  
 10   7   8  1   
 11   8   9  1   
 12   9  10  1   
 13   9  11  1   
 14   9  12  1   
 15  10  15  1   
 16  10  16  1   
 17  10  17  1   
 18  11  18  1   
 19  11  19  1   
 20  11  20  1   
 21  12  21  1   
 22  12  22  1   
 23  12  23  1   
@<TRIPOS>SUBSTRUCTURE
  1 ****   7 GROUP 4 **** **** 0

# MOE 2024.06 (io_trps.svl 2023.06)
