@<TRIPOS>MOLECULE
NONAME
37 38 1 0 0 
SMALL
USER_CHARGES


@<TRIPOS>ATOM
  1 S        0.2780     0.2450    -0.7690 S.o2  1 <1>   1.2950 
  2 O        0.6150     0.6920    -2.1110 O.2   1 <1>  -0.6500 
  3 O        0.2580     1.2520     0.2800 O.2   1 <1>  -0.6500 
  4 N        1.3760    -1.0910    -0.2920 N.pl3 1 <1>   0.5840 
  5 C       -1.3450    -0.5620    -0.8230 C.ar  1 <1>  -0.0090 
  6 N        0.9860    -2.3850    -0.0560 N.2   1 <1>  -0.7070 
  7 C        2.7290    -0.9980    -0.1050 C.2   1 <1>  -0.3320 
  8 C       -2.1470    -0.6370     0.3090 C.ar  1 <1>  -0.1500 
  9 C       -1.8190    -1.1440    -1.9900 C.ar  1 <1>  -0.1500 
 10 C        2.0580    -3.0310     0.2580 C.2   1 <1>   0.1080 
 11 C        3.1860    -2.2200     0.2460 C.2   1 <1>  -0.1810 
 12 C        3.4950     0.3080    -0.2860 C.3   1 <1>  -0.0600 
 13 C       -3.3830    -1.2650     0.2900 C.ar  1 <1>  -0.1430 
 14 C       -3.0490    -1.7740    -2.0250 C.ar  1 <1>  -0.1500 
 15 C        2.0390    -4.5060     0.5940 C.3   1 <1>  -0.0590 
 16 C        4.5990    -2.6760     0.5700 C.3   1 <1>  -0.0590 
 17 C       -3.8390    -1.8400    -0.8890 C.ar  1 <1>  -0.1430 
 18 C       -4.2080    -1.3100     1.5680 C.3   1 <1>  -0.0970 
 19 C       -5.1870    -2.5440    -0.9640 C.3   1 <1>  -0.0970 
 20 H       -1.7920    -0.1920     1.2230 H     1 <1>   0.1500 
 21 H       -1.2210    -1.1060    -2.8850 H     1 <1>   0.1500 
 22 H        3.1250     1.0560     0.3940 H     1 <1>   0.0800 
 23 H        3.3820     0.6710    -1.2930 H     1 <1>   0.0800 
 24 H        4.5440     0.1750    -0.0960 H     1 <1>   0.0800 
 25 H       -3.3860    -2.2150    -2.9470 H     1 <1>   0.1500 
 26 H        1.0350    -4.8830     0.5310 H     1 <1>   0.0800 
 27 H        2.4060    -4.6570     1.5910 H     1 <1>   0.0800 
 28 H        2.6560    -5.0450    -0.1000 H     1 <1>   0.0800 
 29 H        5.2980    -1.8650     0.4910 H     1 <1>   0.0800 
 30 H        4.8970    -3.4500    -0.1140 H     1 <1>   0.0800 
 31 H        4.6360    -3.0630     1.5720 H     1 <1>   0.0800 
 32 H       -3.7000    -0.8130     2.3750 H     1 <1>   0.0800 
 33 H       -4.3810    -2.3300     1.8580 H     1 <1>   0.0800 
 34 H       -5.1530    -0.8220     1.4140 H     1 <1>   0.0800 
 35 H       -5.9760    -1.8560    -0.7170 H     1 <1>   0.0800 
 36 H       -5.2100    -3.3680    -0.2750 H     1 <1>   0.0800 
 37 H       -5.3690    -2.9250    -1.9520 H     1 <1>   0.0800 
@<TRIPOS>BOND
  1   1   2  2   
  2   1   3  2   
  3   1   4  1   
  4   1   5  1   
  5   4   6  1   
  6   4   7  1   
  7   5   8  ar  
  8   5   9  ar  
  9   6  10  2   
 10   7  11  2   
 11   7  12  1   
 12   8  13  ar  
 13   8  20  1   
 14   9  14  ar  
 15   9  21  1   
 16  10  11  1   
 17  10  15  1   
 18  11  16  1   
 19  12  22  1   
 20  12  23  1   
 21  12  24  1   
 22  13  17  ar  
 23  13  18  1   
 24  14  17  ar  
 25  14  25  1   
 26  15  26  1   
 27  15  27  1   
 28  15  28  1   
 29  16  29  1   
 30  16  30  1   
 31  16  31  1   
 32  17  19  1   
 33  18  32  1   
 34  18  33  1   
 35  18  34  1   
 36  19  35  1   
 37  19  36  1   
 38  19  37  1   
@<TRIPOS>SUBSTRUCTURE
  1 ****   5 GROUP 4 **** **** 0

# MOE 2024.06 (io_trps.svl 2023.06)
