@<TRIPOS>MOLECULE
NONAME
46 48 1 0 0 
SMALL
USER_CHARGES


@<TRIPOS>ATOM
  1 O        7.5470    -3.8790    -0.4810 O.3   1 <1>  -0.2800 
  2 C        6.6780    -4.8500    -0.6880 C.2   1 <1>  -0.0400 
  3 C        7.0310    -2.7680    -0.9680 C.2   1 <1>  -0.0100 
  4 C        5.5820    -4.3710    -1.3190 C.2   1 <1>  -0.1500 
  5 C        7.0430    -6.2480    -0.2160 C.3   1 <1>   0.2900 
  6 C        5.8140    -3.0020    -1.5010 C.2   1 <1>  -0.1500 
  7 N        5.8460    -7.1020    -0.0370 N.3   1 <1>  -0.8100 
  8 C        6.2160    -8.5260     0.1290 C.3   1 <1>   0.1100 
  9 C        5.0240    -6.6470     1.1160 C.3   1 <1>   0.1100 
 10 C        4.9760    -9.4390     0.3080 C.3   1 <1>   0.3430 
 11 C        3.7750    -7.5340     1.3380 C.3   1 <1>   0.3430 
 12 N        3.7110    -8.6380     0.3220 N.4   1 <1>  -0.9590 
 13 C        2.4680    -9.4480     0.3850 C.3   1 <1>   0.4860 
 14 C        1.2790    -8.5210     0.2320 C.ar  1 <1>  -0.1430 
 15 C        1.0000    -7.9330    -0.9930 C.ar  1 <1>  -0.1500 
 16 C        0.4680    -8.2410     1.3220 C.ar  1 <1>  -0.1500 
 17 C       -0.0700    -7.0660    -1.1210 C.ar  1 <1>  -0.1500 
 18 C       -0.6010    -7.3730     1.1900 C.ar  1 <1>  -0.1500 
 19 C       -0.8750    -6.7790    -0.0310 C.ar  1 <1>  -0.1430 
 20 C       -2.0490    -5.8240    -0.1740 C.3   1 <1>  -0.0170 
 21 C       -1.6110    -4.3860     0.1140 C.3   1 <1>  -0.2400 
 22 H        7.5980    -1.8560    -0.8930 H     1 <1>   0.1500 
 23 H        4.7040    -4.9030    -1.6340 H     1 <1>   0.1500 
 24 H        7.5830    -6.1750     0.7140 H     1 <1>   0.0800 
 25 H        7.7000    -6.6820    -0.9500 H     1 <1>   0.0800 
 26 H        5.1410    -2.3090    -1.9750 H     1 <1>   0.1500 
 27 H        6.8640    -8.6400     0.9820 H     1 <1>   0.0800 
 28 H        6.7650    -8.8560    -0.7380 H     1 <1>   0.0800 
 29 H        4.6960    -5.6340     0.9530 H     1 <1>   0.0800 
 30 H        5.6190    -6.6470     2.0140 H     1 <1>   0.0800 
 31 H        5.0750    -9.9920     1.2270 H     1 <1>   0.0800 
 32 H        4.9500   -10.1510    -0.5020 H     1 <1>   0.0800 
 33 H        2.8960    -6.9140     1.2640 H     1 <1>   0.0800 
 34 H        3.8020    -7.9450     2.3330 H     1 <1>   0.0800 
 35 H        3.7180    -8.1230    -0.5710 H     1 <1>   0.4500 
 36 H        2.4090    -9.9670     1.3280 H     1 <1>   0.0800 
 37 H        2.4570   -10.1760    -0.4100 H     1 <1>   0.0800 
 38 H        1.6030    -8.1400    -1.8600 H     1 <1>   0.1500 
 39 H        0.6530    -8.6900     2.2830 H     1 <1>   0.1500 
 40 H       -0.2780    -6.6110    -2.0750 H     1 <1>   0.1500 
 41 H       -1.2250    -7.1590     2.0410 H     1 <1>   0.1500 
 42 H       -2.8330    -6.1050     0.5070 H     1 <1>   0.0800 
 43 H       -2.4480    -5.8850    -1.1720 H     1 <1>   0.0800 
 44 H       -1.2290    -4.3080     1.1160 H     1 <1>   0.0800 
 45 H       -2.4460    -3.7170     0.0100 H     1 <1>   0.0800 
 46 H       -0.8410    -4.0870    -0.5740 H     1 <1>   0.0800 
@<TRIPOS>BOND
  1   1   2  1   
  2   1   3  1   
  3   2   4  2   
  4   2   5  1   
  5   3   6  2   
  6   3  22  1   
  7   4   6  1   
  8   4  23  1   
  9   5   7  1   
 10   5  24  1   
 11   5  25  1   
 12   6  26  1   
 13   7   8  1   
 14   7   9  1   
 15   8  10  1   
 16   8  27  1   
 17   8  28  1   
 18   9  11  1   
 19   9  29  1   
 20   9  30  1   
 21  10  12  1   
 22  10  31  1   
 23  10  32  1   
 24  11  12  1   
 25  11  33  1   
 26  11  34  1   
 27  12  13  1   
 28  12  35  1   
 29  13  14  1   
 30  13  36  1   
 31  13  37  1   
 32  14  15  ar  
 33  14  16  ar  
 34  15  17  ar  
 35  15  38  1   
 36  16  18  ar  
 37  16  39  1   
 38  17  19  ar  
 39  17  40  1   
 40  18  19  ar  
 41  18  41  1   
 42  19  20  1   
 43  20  21  1   
 44  20  42  1   
 45  20  43  1   
 46  21  44  1   
 47  21  45  1   
 48  21  46  1   
@<TRIPOS>SUBSTRUCTURE
  1 ****  11 GROUP 4 **** **** 0

# MOE 2024.06 (io_trps.svl 2023.06)
