@<TRIPOS>MOLECULE
NONAME
31 32 1 0 0 
SMALL
USER_CHARGES


@<TRIPOS>ATOM
  1 S        0.3060    -0.2350     0.5340 S.3   1 <1>  -0.3320 
  2 C        0.0680    -1.9730     0.2060 C.ar  1 <1>   0.7220 
  3 C        2.0540    -0.0860     1.1220 C.3   1 <1>  -0.0100 
  4 N        1.1000    -2.7460     0.4030 N.ar  1 <1>  -0.6200 
  5 N       -1.1170    -2.3030    -0.2030 N.ar  1 <1>  -0.6200 
  6 C        0.8370    -4.0000     0.1430 C.ar  1 <1>   0.7030 
  7 C       -1.2390    -3.5840    -0.4270 C.ar  1 <1>   0.7200 
  8 O        1.8660    -4.8320     0.3300 O.3   1 <1>  -0.2330 
  9 N       -0.3050    -4.4830    -0.2800 N.ar  1 <1>  -0.6200 
 10 N       -2.4270    -4.0630    -0.8520 N.pl3 1 <1>  -0.8690 
 11 C        1.8010    -6.1360    -0.0060 C.2   1 <1>   0.5860 
 12 C       -3.6890    -3.3010    -1.0380 C.3   1 <1>   0.1290 
 13 N        1.9180    -7.0110     0.9450 N.2   1 <1>  -0.5120 
 14 C        1.6600    -6.4830    -1.3790 C.2   1 <1>  -0.1360 
 15 N        1.8690    -8.3410     0.5790 N.am  1 <1>  -0.2980 
 16 C        1.6180    -7.7930    -1.7360 C.2   1 <1>  -0.1360 
 17 C        1.7200    -8.7880    -0.7320 C.2   1 <1>   0.6160 
 18 C        1.9870    -9.3310     1.6740 C.3   1 <1>   0.0600 
 19 O        1.6800    -9.9830    -1.0040 O.2   1 <1>  -0.5700 
 20 H        2.2390     0.9500     1.3400 H     1 <1>   0.0800 
 21 H        2.6990    -0.4360     0.3370 H     1 <1>   0.0800 
 22 H        2.1580    -0.6900     2.0050 H     1 <1>   0.0800 
 23 H       -2.4830    -5.0800    -0.9160 H     1 <1>   0.4000 
 24 H       -3.5010    -2.2410    -1.0460 H     1 <1>   0.0800 
 25 H       -4.3700    -3.5260    -0.2350 H     1 <1>   0.0800 
 26 H       -4.1430    -3.5750    -1.9740 H     1 <1>   0.0800 
 27 H        1.5880    -5.6910    -2.1000 H     1 <1>   0.1500 
 28 H        1.5090    -8.1290    -2.7500 H     1 <1>   0.1500 
 29 H        2.8450    -9.9550     1.5020 H     1 <1>   0.0800 
 30 H        1.1030    -9.9420     1.6990 H     1 <1>   0.0800 
 31 H        2.0970    -8.8260     2.6170 H     1 <1>   0.0800 
@<TRIPOS>BOND
  1   1   2  1   
  2   1   3  1   
  3   2   4  ar  
  4   2   5  ar  
  5   3  20  1   
  6   3  21  1   
  7   3  22  1   
  8   4   6  ar  
  9   5   7  ar  
 10   6   8  1   
 11   6   9  ar  
 12   7   9  ar  
 13   7  10  1   
 14   8  11  1   
 15  10  12  1   
 16  10  23  1   
 17  11  13  2   
 18  11  14  1   
 19  12  24  1   
 20  12  25  1   
 21  12  26  1   
 22  13  15  1   
 23  14  16  2   
 24  14  27  1   
 25  15  17  am  
 26  15  18  1   
 27  16  17  1   
 28  16  28  1   
 29  17  19  2   
 30  18  29  1   
 31  18  30  1   
 32  18  31  1   
@<TRIPOS>SUBSTRUCTURE
  1 ****   6 GROUP 4 **** **** 0

# MOE 2024.06 (io_trps.svl 2023.06)
