@<TRIPOS>MOLECULE
NONAME
54 56 1 0 0 
SMALL
USER_CHARGES


@<TRIPOS>ATOM
  1 S        0.2220    -0.1820    -0.1820 S.o2  1 <1>   1.4470 
  2 O       -0.3910    -1.4460     0.1560 O.2   1 <1>  -0.6500 
  3 O        0.8170     0.0310    -1.4810 O.2   1 <1>  -0.6500 
  4 N        1.3650     0.1960     1.0040 N.am  1 <1>  -0.8490 
  5 C       -1.0330     1.1040     0.0900 C.ar  1 <1>  -0.0090 
  6 C        2.5490    -0.6400     1.2310 C.3   1 <1>   0.6310 
  7 C        1.8000     1.5790     0.9670 C.3   1 <1>   0.1960 
  8 C       -1.8500     1.0770     1.2130 C.ar  1 <1>  -0.1500 
  9 C       -1.1880     2.1640    -0.7970 C.ar  1 <1>  -0.1500 
 10 N        3.7130     0.2520     1.2480 N.am  1 <1>  -0.8490 
 11 C        2.7490    -2.0960     0.6850 C.3   1 <1>  -0.0800 
 12 C        3.1650     1.5500     1.6160 C.3   1 <1>   0.1960 
 13 C       -2.7860     2.0700     1.4470 C.ar  1 <1>  -0.1500 
 14 C       -2.1210     3.1600    -0.5700 C.ar  1 <1>  -0.1500 
 15 S        4.6570     0.3310    -0.1600 S.o2  1 <1>   1.4470 
 16 C        2.5650    -2.3810    -0.8210 C.3   1 <1>  -0.2400 
 17 C        1.9780    -3.1500     1.5050 C.3   1 <1>  -0.2400 
 18 C       -2.9240     3.1200     0.5570 C.ar  1 <1>  -0.1440 
 19 O        3.8800     0.9860    -1.1880 O.2   1 <1>  -0.6500 
 20 O        5.2750    -0.9530    -0.4030 O.2   1 <1>  -0.6500 
 21 C        5.9930     1.4550     0.3440 C.ar  1 <1>  -0.0090 
 22 C       -3.9510     4.2100     0.8070 C.3   1 <1>  -0.0970 
 23 C        6.7750     1.1760     1.4580 C.ar  1 <1>  -0.1500 
 24 C        6.2640     2.6230    -0.3610 C.ar  1 <1>  -0.1500 
 25 C        7.7840     2.0330     1.8620 C.ar  1 <1>  -0.1500 
 26 C        7.2720     3.4850     0.0370 C.ar  1 <1>  -0.1500 
 27 C        8.0380     3.1940     1.1530 C.ar  1 <1>  -0.1430 
 28 C        9.1440     4.1360     1.5920 C.3   1 <1>  -0.0970 
 29 H        2.4420    -0.8590     2.2810 H     1 <1>   0.0800 
 30 H        1.1220     2.2200     1.5040 H     1 <1>   0.0800 
 31 H        1.8890     1.9280    -0.0490 H     1 <1>   0.0800 
 32 H       -1.7530     0.2630     1.9120 H     1 <1>   0.1500 
 33 H       -0.5720     2.2100    -1.6810 H     1 <1>   0.1500 
 34 H        3.7750    -2.3290     0.9050 H     1 <1>   0.0800 
 35 H        3.0490     1.5970     2.6850 H     1 <1>   0.0800 
 36 H        3.7720     2.3800     1.2980 H     1 <1>   0.0800 
 37 H       -3.4080     2.0190     2.3240 H     1 <1>   0.1500 
 38 H       -2.2210     3.9660    -1.2770 H     1 <1>   0.1500 
 39 H        2.9210    -1.5700    -1.4290 H     1 <1>   0.0800 
 40 H        1.5370    -2.5650    -1.0700 H     1 <1>   0.0800 
 41 H        3.1220    -3.2600    -1.0910 H     1 <1>   0.0800 
 42 H        0.9160    -3.0380     1.4100 H     1 <1>   0.0800 
 43 H        2.2320    -3.0770     2.5470 H     1 <1>   0.0800 
 44 H        2.2380    -4.1390     1.1700 H     1 <1>   0.0800 
 45 H       -4.8860     3.9410     0.3500 H     1 <1>   0.0800 
 46 H       -3.6170     5.1440     0.3920 H     1 <1>   0.0800 
 47 H       -4.1070     4.3450     1.8630 H     1 <1>   0.0800 
 48 H        6.5910     0.2730     2.0150 H     1 <1>   0.1500 
 49 H        5.6810     2.8630    -1.2340 H     1 <1>   0.1500 
 50 H        8.3730     1.7910     2.7300 H     1 <1>   0.1500 
 51 H        7.4590     4.3820    -0.5270 H     1 <1>   0.1500 
 52 H        9.9380     3.5890     2.0680 H     1 <1>   0.0800 
 53 H        8.7540     4.8580     2.2880 H     1 <1>   0.0800 
 54 H        9.5540     4.6570     0.7460 H     1 <1>   0.0800 
@<TRIPOS>BOND
  1   1   2  2   
  2   1   3  2   
  3   1   4  am  
  4   1   5  1   
  5   4   6  1   
  6   4   7  1   
  7   5   8  ar  
  8   5   9  ar  
  9   6  10  1   
 10   6  11  1   
 11   6  29  1   
 12   7  12  1   
 13   7  30  1   
 14   7  31  1   
 15   8  13  ar  
 16   8  32  1   
 17   9  14  ar  
 18   9  33  1   
 19  10  12  1   
 20  10  15  am  
 21  11  16  1   
 22  11  17  1   
 23  11  34  1   
 24  12  35  1   
 25  12  36  1   
 26  13  18  ar  
 27  13  37  1   
 28  14  18  ar  
 29  14  38  1   
 30  15  19  2   
 31  15  20  2   
 32  15  21  1   
 33  16  39  1   
 34  16  40  1   
 35  16  41  1   
 36  17  42  1   
 37  17  43  1   
 38  17  44  1   
 39  18  22  1   
 40  21  23  ar  
 41  21  24  ar  
 42  22  45  1   
 43  22  46  1   
 44  22  47  1   
 45  23  25  ar  
 46  23  48  1   
 47  24  26  ar  
 48  24  49  1   
 49  25  27  ar  
 50  25  50  1   
 51  26  27  ar  
 52  26  51  1   
 53  27  28  1   
 54  28  52  1   
 55  28  53  1   
 56  28  54  1   
@<TRIPOS>SUBSTRUCTURE
  1 ****   7 GROUP 4 **** **** 0

# MOE 2024.06 (io_trps.svl 2023.06)
