@<TRIPOS>MOLECULE
NONAME
46 49 1 0 0 
SMALL
USER_CHARGES


@<TRIPOS>ATOM
  1 O       -3.4040    -0.6720    -2.1890 O.2   1 <1>  -0.5700 
  2 C       -3.1930    -0.7450    -0.9900 C.2   1 <1>   0.7150 
  3 N       -2.6410    -1.9130    -0.4920 N.am  1 <1>  -0.6600 
  4 C       -3.5340     0.4020    -0.1690 C.2   1 <1>   0.0550 
  5 C       -2.6210    -2.2720     0.9670 C.3   1 <1>   0.1400 
  6 C       -1.9990    -2.9270    -1.4000 C.3   1 <1>   0.1400 
  7 O       -2.9340     0.6700     0.9920 O.3   1 <1>  -0.2800 
  8 C       -4.4400     1.3910    -0.4110 C.2   1 <1>  -0.1500 
  9 C       -3.0220    -3.7330     1.2220 C.3   1 <1>   0.1400 
 10 C       -2.4160    -4.3680    -1.0730 C.3   1 <1>   0.1400 
 11 C       -3.4330     1.7790     1.4870 C.2   1 <1>  -0.0100 
 12 C       -4.3770     2.2790     0.6630 C.2   1 <1>  -0.1500 
 13 N       -2.2150    -4.6490     0.3760 N.am  1 <1>  -0.6600 
 14 C       -1.5270    -5.7070     0.9210 C.2   1 <1>   0.5690 
 15 O       -1.3780    -5.7840     2.1220 O.2   1 <1>  -0.5700 
 16 C       -0.8190    -6.7540     0.0370 C.3   1 <1>  -0.0190 
 17 C       -1.8010    -7.7940    -0.8600 C.3   1 <1>  -0.1860 
 18 C        0.1980    -7.7010     0.9170 C.3   1 <1>  -0.0800 
 19 C       -3.2770    -7.4160    -0.9240 C.2   1 <1>   0.9060 
 20 C       -1.5080    -9.3260    -0.3500 C.3   1 <1>  -0.0800 
 21 C       -0.6390    -8.5150     0.2680 C.3   1 <1>  -0.1600 
 22 C        0.5050    -9.2320     1.4020 C.3   1 <1>  -0.1600 
 23 O       -3.6910    -6.9130    -1.9760 O.co2 1 <1>  -0.9000 
 24 O       -4.0170    -7.6150     0.0430 O.co2 1 <1>  -0.9000 
 25 C       -0.4800   -10.2530     0.5180 C.3   1 <1>  -0.1600 
 26 H       -3.3020    -1.6510     1.5170 H     1 <1>   0.0800 
 27 H       -1.6300    -2.1100     1.3540 H     1 <1>   0.0800 
 28 H       -0.9310    -2.8480    -1.3030 H     1 <1>   0.0800 
 29 H       -2.2470    -2.7290    -2.4280 H     1 <1>   0.0800 
 30 H       -5.0830     1.4820    -1.2690 H     1 <1>   0.1500 
 31 H       -4.0630    -3.8710     0.9850 H     1 <1>   0.0800 
 32 H       -2.8930    -3.9620     2.2650 H     1 <1>   0.0800 
 33 H       -1.8570    -5.0500    -1.6860 H     1 <1>   0.0800 
 34 H       -3.4580    -4.4990    -1.3160 H     1 <1>   0.0800 
 35 H       -3.0620     2.1470     2.4280 H     1 <1>   0.1500 
 36 H       -4.9690     3.1700     0.7790 H     1 <1>   0.1500 
 37 H       -0.2230    -6.1860    -0.6560 H     1 <1>   0.0800 
 38 H       -1.4750    -7.7330    -1.8870 H     1 <1>   0.0800 
 39 H        1.1540    -7.4220     0.4980 H     1 <1>   0.0800 
 40 H       -2.4550    -9.5950     0.1020 H     1 <1>   0.0800 
 41 H       -1.4060    -8.4170     1.1590 H     1 <1>   0.0800 
 42 H        0.1210    -8.5950    -0.6220 H     1 <1>   0.0800 
 43 H        0.2850    -9.3290     2.4550 H     1 <1>   0.0800 
 44 H        1.5430    -9.4870     1.2590 H     1 <1>   0.0800 
 45 H        0.1120   -10.8670    -0.1430 H     1 <1>   0.0800 
 46 H       -1.0250   -10.9120     1.1750 H     1 <1>   0.0800 
@<TRIPOS>BOND
  1   1   2  2   
  2   2   3  am  
  3   2   4  1   
  4   3   5  1   
  5   3   6  1   
  6   4   7  1   
  7   4   8  2   
  8   5   9  1   
  9   5  26  1   
 10   5  27  1   
 11   6  10  1   
 12   6  28  1   
 13   6  29  1   
 14   7  11  1   
 15   8  12  1   
 16   8  30  1   
 17   9  13  1   
 18   9  31  1   
 19   9  32  1   
 20  10  13  1   
 21  10  33  1   
 22  10  34  1   
 23  11  12  2   
 24  11  35  1   
 25  12  36  1   
 26  13  14  am  
 27  14  15  2   
 28  14  16  1   
 29  16  17  1   
 30  16  18  1   
 31  16  37  1   
 32  17  19  1   
 33  17  20  1   
 34  17  38  1   
 35  18  21  1   
 36  18  22  1   
 37  18  39  1   
 38  19  23  ar  
 39  19  24  ar  
 40  20  21  1   
 41  20  25  1   
 42  20  40  1   
 43  21  41  1   
 44  21  42  1   
 45  22  25  1   
 46  22  43  1   
 47  22  44  1   
 48  25  45  1   
 49  25  46  1   
@<TRIPOS>SUBSTRUCTURE
  1 ****  13 GROUP 4 **** **** 0

# MOE 2024.06 (io_trps.svl 2023.06)
