@<TRIPOS>MOLECULE
NONAME
44 45 1 0 0 
SMALL
USER_CHARGES


@<TRIPOS>ATOM
  1 O       -2.3250     1.9980     2.4540 O.2   1 <1>  -0.5700 
  2 C       -1.5770     2.1010     1.5140 C.2   1 <1>   0.5690 
  3 N       -1.9090     1.7520     0.2370 N.am  1 <1>  -0.5470 
  4 C       -0.1980     2.6640     1.7460 C.3   1 <1>  -0.1790 
  5 C       -3.0970     1.1900    -0.2510 C.ar  1 <1>   0.1170 
  6 C       -3.8820     0.3360     0.5130 C.ar  1 <1>  -0.1500 
  7 C       -3.5070     1.4800    -1.5460 C.ar  1 <1>  -0.1500 
  8 C       -5.0540    -0.1960     0.0100 C.ar  1 <1>  -0.1500 
  9 C       -4.6810     0.9540    -2.0560 C.ar  1 <1>  -0.1500 
 10 C       -5.4690     0.1210    -1.2750 C.ar  1 <1>  -0.1430 
 11 C       -6.7810    -0.4240    -1.8040 C.3   1 <1>   0.4860 
 12 N       -7.8800     0.2590    -1.0740 N.4   1 <1>  -0.9590 
 13 C       -9.1870    -0.4180    -1.1970 C.3   1 <1>   0.3430 
 14 C       -7.9650     1.7080    -1.3510 C.3   1 <1>   0.3430 
 15 C       -9.4300    -1.2030     0.0890 C.3   1 <1>  -0.1600 
 16 C       -7.9310     2.4550    -0.0170 C.3   1 <1>  -0.1600 
 17 C       -9.8610    -0.3440     1.2940 C.3   1 <1>  -0.1600 
 18 C       -9.0660     2.1090     0.9680 C.3   1 <1>  -0.1600 
 19 C       -8.9040     0.7810     1.7400 C.3   1 <1>  -0.1600 
 20 H       -1.2090     1.9730    -0.4680 H     1 <1>   0.3700 
 21 H       -0.0890     3.5920     1.2180 H     1 <1>   0.0800 
 22 H        0.5440     1.9650     1.4090 H     1 <1>   0.0800 
 23 H       -0.0520     2.8430     2.7960 H     1 <1>   0.0800 
 24 H       -3.5720     0.0840     1.5130 H     1 <1>   0.1500 
 25 H       -2.9060     2.1290    -2.1580 H     1 <1>   0.1500 
 26 H       -5.6300    -0.8550     0.6370 H     1 <1>   0.1500 
 27 H       -4.9680     1.2050    -3.0630 H     1 <1>   0.1500 
 28 H       -6.8200    -1.4870    -1.6260 H     1 <1>   0.0800 
 29 H       -6.8640    -0.2460    -2.8640 H     1 <1>   0.0800 
 30 H       -7.6340     0.2130    -0.0770 H     1 <1>   0.4500 
 31 H       -9.1850    -1.0830    -2.0460 H     1 <1>   0.0800 
 32 H       -9.9790     0.3020    -1.3280 H     1 <1>   0.0800 
 33 H       -8.8730     1.9400    -1.8830 H     1 <1>   0.0800 
 34 H       -7.1270     2.0260    -1.9510 H     1 <1>   0.0800 
 35 H       -8.5630    -1.7890     0.3390 H     1 <1>   0.0800 
 36 H      -10.2270    -1.9010    -0.1050 H     1 <1>   0.0800 
 37 H       -8.0050     3.5050    -0.2460 H     1 <1>   0.0800 
 38 H       -6.9730     2.3160     0.4550 H     1 <1>   0.0800 
 39 H       -9.9790    -1.0150     2.1300 H     1 <1>   0.0800 
 40 H      -10.8370     0.0720     1.1090 H     1 <1>   0.0800 
 41 H      -10.0200     2.1540     0.4700 H     1 <1>   0.0800 
 42 H       -9.0800     2.8970     1.7040 H     1 <1>   0.0800 
 43 H       -7.8820     0.4470     1.7610 H     1 <1>   0.0800 
 44 H       -9.1570     0.9960     2.7670 H     1 <1>   0.0800 
@<TRIPOS>BOND
  1   1   2  2   
  2   2   3  am  
  3   2   4  1   
  4   3   5  1   
  5   3  20  1   
  6   4  21  1   
  7   4  22  1   
  8   4  23  1   
  9   5   6  ar  
 10   5   7  ar  
 11   6   8  ar  
 12   6  24  1   
 13   7   9  ar  
 14   7  25  1   
 15   8  10  ar  
 16   8  26  1   
 17   9  10  ar  
 18   9  27  1   
 19  10  11  1   
 20  11  12  1   
 21  11  28  1   
 22  11  29  1   
 23  12  13  1   
 24  12  14  1   
 25  12  30  1   
 26  13  15  1   
 27  13  31  1   
 28  13  32  1   
 29  14  16  1   
 30  14  33  1   
 31  14  34  1   
 32  15  17  1   
 33  15  35  1   
 34  15  36  1   
 35  16  18  1   
 36  16  37  1   
 37  16  38  1   
 38  17  19  1   
 39  17  39  1   
 40  17  40  1   
 41  18  19  1   
 42  18  41  1   
 43  18  42  1   
 44  19  43  1   
 45  19  44  1   
@<TRIPOS>SUBSTRUCTURE
  1 ****   8 GROUP 4 **** **** 0

# MOE 2024.06 (io_trps.svl 2023.06)
