@<TRIPOS>MOLECULE
NONAME
52 54 1 0 0 
SMALL
USER_CHARGES


@<TRIPOS>ATOM
  1 O       -0.7340    -1.0320    -1.7620 O.2   1 <1>  -0.5700 
  2 C       -0.9210    -1.9180    -0.9680 C.2   1 <1>   0.5690 
  3 N       -2.0860    -2.1580    -0.3110 N.am  1 <1>  -0.4200 
  4 C        0.1380    -2.9310    -0.5800 C.3   1 <1>  -0.0190 
  5 C       -1.9870    -3.2420     0.5030 C.2   1 <1>   0.5690 
  6 C       -3.3100    -1.3360    -0.4390 C.3   1 <1>   0.1400 
  7 C       -0.5980    -3.8440     0.4390 C.3   1 <1>  -0.0190 
  8 C        1.4330    -2.2560    -0.0860 C.3   1 <1>  -0.0220 
  9 O       -2.8800    -3.6890     1.1790 O.2   1 <1>  -0.5700 
 10 C       -4.3240    -2.0330    -1.3450 C.3   1 <1>  -0.0990 
 11 C        0.0450    -3.9730     1.8330 C.3   1 <1>  -0.0220 
 12 C        2.1900    -3.1640     0.8630 C.2   1 <1>  -0.2880 
 13 C       -5.6510    -1.3250    -1.2440 C.2   1 <1>   0.5690 
 14 C        1.5580    -3.9470     1.7370 C.2   1 <1>  -0.2880 
 15 O       -5.8570    -0.3730    -1.9540 O.2   1 <1>  -0.5700 
 16 N       -6.5520    -1.7780    -0.3390 N.am  1 <1>  -0.7300 
 17 C       -7.8840    -1.1910    -0.0960 C.3   1 <1>   0.2200 
 18 C       -7.8950    -0.5900     1.3240 C.3   1 <1>  -0.1600 
 19 C       -8.9290    -2.2970    -0.3030 C.3   1 <1>  -0.1600 
 20 C       -8.2980     0.8930     1.3460 C.3   1 <1>  -0.1600 
 21 C      -10.3190    -1.7900    -0.7200 C.3   1 <1>  -0.1600 
 22 C       -9.8130     1.1450     1.3910 C.3   1 <1>  -0.1600 
 23 C      -11.0130    -0.8660     0.2930 C.3   1 <1>  -0.1600 
 24 C      -10.6010     0.6160     0.1820 C.3   1 <1>  -0.1600 
 25 H        0.3750    -3.5150    -1.4500 H     1 <1>   0.0800 
 26 H       -3.0640    -0.3680    -0.8430 H     1 <1>   0.0800 
 27 H       -3.7340    -1.1930     0.5410 H     1 <1>   0.0800 
 28 H       -0.6790    -4.8280     0.0140 H     1 <1>   0.0800 
 29 H        1.2070    -1.3380     0.4290 H     1 <1>   0.0800 
 30 H        2.0470    -2.0130    -0.9360 H     1 <1>   0.0800 
 31 H       -4.4530    -3.0580    -1.0510 H     1 <1>   0.0800 
 32 H       -3.9860    -1.9990    -2.3640 H     1 <1>   0.0800 
 33 H       -0.2810    -4.8940     2.2860 H     1 <1>   0.0800 
 34 H       -0.2690    -3.1650     2.4710 H     1 <1>   0.0800 
 35 H        3.2630    -3.0990     0.7800 H     1 <1>   0.1500 
 36 H        2.0610    -4.5880     2.4440 H     1 <1>   0.1500 
 37 H       -6.3200    -2.5760     0.2550 H     1 <1>   0.3700 
 38 H       -8.0480    -0.4180    -0.8290 H     1 <1>   0.0800 
 39 H       -6.9050    -0.6530     1.7410 H     1 <1>   0.0800 
 40 H       -8.5420    -1.1460     1.9780 H     1 <1>   0.0800 
 41 H       -9.0140    -2.8980     0.5840 H     1 <1>   0.0800 
 42 H       -8.5890    -2.9410    -1.0970 H     1 <1>   0.0800 
 43 H       -7.8630     1.4040     0.5030 H     1 <1>   0.0800 
 44 H       -7.8730     1.3380     2.2300 H     1 <1>   0.0800 
 45 H      -10.9450    -2.6550    -0.8580 H     1 <1>   0.0800 
 46 H      -10.2540    -1.3000    -1.6770 H     1 <1>   0.0800 
 47 H       -9.9540     2.2110     1.4320 H     1 <1>   0.0800 
 48 H      -10.2240     0.7450     2.3020 H     1 <1>   0.0800 
 49 H      -10.8770    -1.2400     1.2930 H     1 <1>   0.0800 
 50 H      -12.0690    -0.9160     0.0920 H     1 <1>   0.0800 
 51 H      -10.0600     0.8100    -0.7280 H     1 <1>   0.0800 
 52 H      -11.5080     1.1940     0.1220 H     1 <1>   0.0800 
@<TRIPOS>BOND
  1   1   2  2   
  2   2   3  am  
  3   2   4  1   
  4   3   5  am  
  5   3   6  1   
  6   4   7  1   
  7   4   8  1   
  8   4  25  1   
  9   5   7  1   
 10   5   9  2   
 11   6  10  1   
 12   6  26  1   
 13   6  27  1   
 14   7  11  1   
 15   7  28  1   
 16   8  12  1   
 17   8  29  1   
 18   8  30  1   
 19  10  13  1   
 20  10  31  1   
 21  10  32  1   
 22  11  14  1   
 23  11  33  1   
 24  11  34  1   
 25  12  14  2   
 26  12  35  1   
 27  13  15  2   
 28  13  16  am  
 29  14  36  1   
 30  16  17  1   
 31  16  37  1   
 32  17  18  1   
 33  17  19  1   
 34  17  38  1   
 35  18  20  1   
 36  18  39  1   
 37  18  40  1   
 38  19  21  1   
 39  19  41  1   
 40  19  42  1   
 41  20  22  1   
 42  20  43  1   
 43  20  44  1   
 44  21  23  1   
 45  21  45  1   
 46  21  46  1   
 47  22  24  1   
 48  22  47  1   
 49  22  48  1   
 50  23  24  1   
 51  23  49  1   
 52  23  50  1   
 53  24  51  1   
 54  24  52  1   
@<TRIPOS>SUBSTRUCTURE
  1 ****   6 GROUP 4 **** **** 0

# MOE 2024.06 (io_trps.svl 2023.06)
