@<TRIPOS>MOLECULE
NONAME
37 39 1 0 0 
SMALL
USER_CHARGES


@<TRIPOS>ATOM
  1 O        0.5470     0.3530     1.5820 O.2   1 <1>  -0.5700 
  2 C        0.3680     1.3990     0.9980 C.2   1 <1>   0.5690 
  3 N        1.3640     1.9700     0.2430 N.am  1 <1>  -0.6600 
  4 C       -1.0010     2.0650     1.1800 C.3   1 <1>   0.1810 
  5 C        2.6940     1.2950     0.1450 C.3   1 <1>   0.3200 
  6 C        1.1960     3.1930    -0.6130 C.3   1 <1>   0.1400 
  7 O       -1.7030     2.2080    -0.0320 O.3   1 <1>  -0.5600 
  8 C        3.7920     2.3360     0.0070 C.2   1 <1>  -0.3320 
  9 C        2.2240     4.2800    -0.2600 C.3   1 <1>   0.0210 
 10 C       -2.9970     2.6820     0.1180 C.3   1 <1>   0.1200 
 11 N        5.1330     2.0750     0.0480 N.pl3 1 <1>   0.0330 
 12 C        3.6000     3.6600    -0.1700 C.2   1 <1>  -0.1810 
 13 C       -3.5920     2.8320    -1.2770 C.3   1 <1>  -0.2400 
 14 C        5.8020     3.2650    -0.1040 C.ar  1 <1>  -0.1520 
 15 C        4.8630     4.2850    -0.2420 C.ar  1 <1>   0.0000 
 16 C        7.1710     3.5440    -0.1320 C.ar  1 <1>  -0.1500 
 17 C        5.2940     5.6040    -0.4100 C.ar  1 <1>  -0.1500 
 18 C        7.5810     4.8470    -0.2990 C.ar  1 <1>  -0.1500 
 19 C        6.6430     5.8770    -0.4370 C.ar  1 <1>  -0.1500 
 20 H       -0.8650     3.0380     1.6140 H     1 <1>   0.0800 
 21 H       -1.5910     1.4590     1.8430 H     1 <1>   0.0800 
 22 H        2.6950     0.6430    -0.7100 H     1 <1>   0.0800 
 23 H        2.8740     0.7050     1.0280 H     1 <1>   0.0800 
 24 H        0.2090     3.6060    -0.5240 H     1 <1>   0.0800 
 25 H        1.3360     2.9030    -1.6400 H     1 <1>   0.0800 
 26 H        1.9730     4.7300     0.6830 H     1 <1>   0.0800 
 27 H        2.2140     5.0420    -1.0170 H     1 <1>   0.0800 
 28 H       -2.9680     3.6330     0.6220 H     1 <1>   0.0800 
 29 H       -3.5630     1.9720     0.6970 H     1 <1>   0.0800 
 30 H        5.5780     1.1630     0.1830 H     1 <1>   0.2700 
 31 H       -3.0130     3.5310    -1.8530 H     1 <1>   0.0800 
 32 H       -4.6010     3.1950    -1.2060 H     1 <1>   0.0800 
 33 H       -3.6030     1.8790    -1.7750 H     1 <1>   0.0800 
 34 H        7.8850     2.7480    -0.0240 H     1 <1>   0.1500 
 35 H        4.5640     6.3840    -0.5140 H     1 <1>   0.1500 
 36 H        8.6290     5.0870    -0.3240 H     1 <1>   0.1500 
 37 H        6.9900     6.8870    -0.5660 H     1 <1>   0.1500 
@<TRIPOS>BOND
  1   1   2  2   
  2   2   3  am  
  3   2   4  1   
  4   3   5  1   
  5   3   6  1   
  6   4   7  1   
  7   4  20  1   
  8   4  21  1   
  9   5   8  1   
 10   5  22  1   
 11   5  23  1   
 12   6   9  1   
 13   6  24  1   
 14   6  25  1   
 15   7  10  1   
 16   8  11  1   
 17   8  12  2   
 18   9  12  1   
 19   9  26  1   
 20   9  27  1   
 21  10  13  1   
 22  10  28  1   
 23  10  29  1   
 24  11  14  1   
 25  11  30  1   
 26  12  15  1   
 27  13  31  1   
 28  13  32  1   
 29  13  33  1   
 30  14  15  ar  
 31  14  16  ar  
 32  15  17  ar  
 33  16  18  ar  
 34  16  34  1   
 35  17  19  ar  
 36  17  35  1   
 37  18  19  ar  
 38  18  36  1   
 39  19  37  1   
@<TRIPOS>SUBSTRUCTURE
  1 ****  12 GROUP 4 **** **** 0

# MOE 2024.06 (io_trps.svl 2023.06)
