@<TRIPOS>MOLECULE
NONAME
39 40 1 0 0 
SMALL
USER_CHARGES


@<TRIPOS>ATOM
  1 O        1.6580    -5.8630    -0.1940 O.2   1 <1>  -0.5700 
  2 C        1.6290    -4.6500    -0.1480 C.2   1 <1>   0.8050 
  3 O        0.4260    -4.0570    -0.0950 O.3   1 <1>  -0.4300 
  4 C        2.7920    -3.7940    -0.1450 C.2   1 <1>   0.0550 
  5 C       -0.7580    -4.8300    -0.0990 C.3   1 <1>   0.1200 
  6 O        4.0240    -4.3230    -0.1960 O.3   1 <1>  -0.2800 
  7 C        2.8910    -2.4390    -0.0970 C.2   1 <1>  -0.1500 
  8 C       -1.9630    -3.8860    -0.0090 C.3   1 <1>   0.3430 
  9 C        4.9070    -3.3280    -0.1810 C.ar  1 <1>   0.1400 
 10 C        4.2560    -2.1110    -0.1190 C.ar  1 <1>   0.0000 
 11 N       -3.2770    -4.6110    -0.1030 N.4   1 <1>  -0.9590 
 12 C        6.2920    -3.4210    -0.2200 C.ar  1 <1>  -0.1500 
 13 C        5.0050    -0.9330    -0.0940 C.ar  1 <1>  -0.1500 
 14 C       -4.3900    -3.6470    -0.3320 C.3   1 <1>   0.4230 
 15 C       -3.4970    -5.5310     1.0670 C.3   1 <1>   0.2630 
 16 C        7.0270    -2.2520    -0.1940 C.ar  1 <1>  -0.1500 
 17 C        6.3820    -1.0130    -0.1320 C.ar  1 <1>  -0.1500 
 18 C       -4.7160    -2.8340     0.9230 C.3   1 <1>  -0.2400 
 19 C       -5.6170    -4.4080    -0.8260 C.3   1 <1>  -0.2400 
 20 H       -0.7200    -5.4950     0.7470 H     1 <1>   0.0800 
 21 H       -0.7800    -5.3960    -1.0150 H     1 <1>   0.0800 
 22 H        2.1020    -1.7120    -0.0500 H     1 <1>   0.1500 
 23 H       -1.8930    -3.1750    -0.8170 H     1 <1>   0.0800 
 24 H       -1.9150    -3.3460     0.9220 H     1 <1>   0.0800 
 25 H       -3.2470    -5.1950    -0.9510 H     1 <1>   0.4500 
 26 H        6.7600    -4.3870    -0.2670 H     1 <1>   0.1500 
 27 H        4.5030     0.0170    -0.0460 H     1 <1>   0.1500 
 28 H       -4.0950    -2.9600    -1.1110 H     1 <1>   0.0800 
 29 H       -3.5020    -4.9720     1.9890 H     1 <1>   0.0800 
 30 H       -2.7170    -6.2720     1.1200 H     1 <1>   0.0800 
 31 H       -4.4410    -6.0420     0.9720 H     1 <1>   0.0800 
 32 H        8.1020    -2.2890    -0.2230 H     1 <1>   0.1500 
 33 H        6.9750    -0.1140    -0.1130 H     1 <1>   0.1500 
 34 H       -5.1150    -3.4510     1.7080 H     1 <1>   0.0800 
 35 H       -5.4660    -2.1010     0.6800 H     1 <1>   0.0800 
 36 H       -3.8540    -2.3030     1.2820 H     1 <1>   0.0800 
 37 H       -6.0170    -5.0570    -0.0680 H     1 <1>   0.0800 
 38 H       -5.3830    -4.9810    -1.7050 H     1 <1>   0.0800 
 39 H       -6.3870    -3.7060    -1.0910 H     1 <1>   0.0800 
@<TRIPOS>BOND
  1   1   2  2   
  2   2   3  1   
  3   2   4  1   
  4   3   5  1   
  5   4   6  1   
  6   4   7  2   
  7   5   8  1   
  8   5  20  1   
  9   5  21  1   
 10   6   9  1   
 11   7  10  1   
 12   7  22  1   
 13   8  11  1   
 14   8  23  1   
 15   8  24  1   
 16   9  10  ar  
 17   9  12  ar  
 18  10  13  ar  
 19  11  14  1   
 20  11  15  1   
 21  11  25  1   
 22  12  16  ar  
 23  12  26  1   
 24  13  17  ar  
 25  13  27  1   
 26  14  18  1   
 27  14  19  1   
 28  14  28  1   
 29  15  29  1   
 30  15  30  1   
 31  15  31  1   
 32  16  17  ar  
 33  16  32  1   
 34  17  33  1   
 35  18  34  1   
 36  18  35  1   
 37  18  36  1   
 38  19  37  1   
 39  19  38  1   
 40  19  39  1   
@<TRIPOS>SUBSTRUCTURE
  1 ****   3 GROUP 4 **** **** 0

# MOE 2024.06 (io_trps.svl 2023.06)
