@<TRIPOS>MOLECULE
NONAME
48 49 1 0 0 
SMALL
USER_CHARGES


@<TRIPOS>ATOM
  1 O        0.8400     0.3410    -1.3550 O.2   1 <1>  -0.5700 
  2 C        0.5050     1.5040    -1.2610 C.2   1 <1>   0.6900 
  3 N       -0.6680     1.8800    -0.6770 N.am  1 <1>  -0.5470 
  4 N        1.3240     2.4900    -1.7090 N.am  1 <1>  -0.7300 
  5 C       -1.7360     1.1240    -0.1660 C.ar  1 <1>   0.1170 
  6 C        2.5490     2.2720    -2.5330 C.3   1 <1>   0.1400 
  7 C       -2.5580     1.6700     0.8250 C.ar  1 <1>  -0.1430 
  8 C       -2.0190    -0.1560    -0.6360 C.ar  1 <1>  -0.1500 
  9 C        3.8140     2.8520    -1.8700 C.3   1 <1>   0.1100 
 10 C       -3.6240     0.9360     1.3220 C.ar  1 <1>  -0.1500 
 11 C       -2.3090     3.0660     1.3830 C.3   1 <1>  -0.0970 
 12 C       -3.0820    -0.8830    -0.1350 C.ar  1 <1>  -0.1500 
 13 N        4.5090     1.9060    -0.9660 N.3   1 <1>  -0.8100 
 14 C       -3.8870    -0.3370     0.8470 C.ar  1 <1>  -0.1500 
 15 C        5.7920     2.4570    -0.4750 C.3   1 <1>   0.1100 
 16 C        3.6650     1.4460     0.1700 C.3   1 <1>   0.1100 
 17 C        6.5970     1.4150     0.3420 C.3   1 <1>   0.3430 
 18 C        4.4430     0.6080     1.2100 C.3   1 <1>   0.3430 
 19 N        5.7750     0.1980     0.6560 N.4   1 <1>  -0.9590 
 20 C        6.5050    -0.8120     1.4560 C.3   1 <1>   0.3430 
 21 C        5.7770    -2.1490     1.3830 C.3   1 <1>  -0.2400 
 22 H       -0.7600     2.8750    -0.5230 H     1 <1>   0.3700 
 23 H        0.9540     3.4370    -1.7390 H     1 <1>   0.3700 
 24 H        2.3990     2.7630    -3.4790 H     1 <1>   0.0800 
 25 H        2.6950     1.2230    -2.7340 H     1 <1>   0.0800 
 26 H       -1.4100    -0.5920    -1.4060 H     1 <1>   0.1500 
 27 H        3.5680     3.7620    -1.3480 H     1 <1>   0.0800 
 28 H        4.4970     3.1070    -2.6630 H     1 <1>   0.0800 
 29 H       -4.2610     1.3470     2.0850 H     1 <1>   0.1500 
 30 H       -1.3060     3.1390     1.7630 H     1 <1>   0.0800 
 31 H       -2.9870     3.2850     2.1880 H     1 <1>   0.0800 
 32 H       -2.4540     3.8020     0.6130 H     1 <1>   0.0800 
 33 H       -3.2820    -1.8710    -0.5100 H     1 <1>   0.1500 
 34 H       -4.7150    -0.9000     1.2400 H     1 <1>   0.1500 
 35 H        5.6030     3.3210     0.1400 H     1 <1>   0.0800 
 36 H        6.3930     2.7790    -1.3090 H     1 <1>   0.0800 
 37 H        2.8860     0.8190    -0.2140 H     1 <1>   0.0800 
 38 H        3.1990     2.2850     0.6580 H     1 <1>   0.0800 
 39 H        6.9450     1.8740     1.2530 H     1 <1>   0.0800 
 40 H        7.4630     1.1240    -0.2290 H     1 <1>   0.0800 
 41 H        3.8530    -0.2570     1.4640 H     1 <1>   0.0800 
 42 H        4.5820     1.1890     2.1050 H     1 <1>   0.0800 
 43 H        5.5380    -0.1890    -0.2720 H     1 <1>   0.4500 
 44 H        6.5880    -0.4880     2.4810 H     1 <1>   0.0800 
 45 H        7.5000    -0.9360     1.0590 H     1 <1>   0.0800 
 46 H        4.8140    -2.1000     1.8570 H     1 <1>   0.0800 
 47 H        6.3570    -2.8940     1.8980 H     1 <1>   0.0800 
 48 H        5.6620    -2.4660     0.3610 H     1 <1>   0.0800 
@<TRIPOS>BOND
  1   1   2  2   
  2   2   3  am  
  3   2   4  am  
  4   3   5  1   
  5   3  22  1   
  6   4   6  1   
  7   4  23  1   
  8   5   7  ar  
  9   5   8  ar  
 10   6   9  1   
 11   6  24  1   
 12   6  25  1   
 13   7  10  ar  
 14   7  11  1   
 15   8  12  ar  
 16   8  26  1   
 17   9  13  1   
 18   9  27  1   
 19   9  28  1   
 20  10  14  ar  
 21  10  29  1   
 22  11  30  1   
 23  11  31  1   
 24  11  32  1   
 25  12  14  ar  
 26  12  33  1   
 27  13  15  1   
 28  13  16  1   
 29  14  34  1   
 30  15  17  1   
 31  15  35  1   
 32  15  36  1   
 33  16  18  1   
 34  16  37  1   
 35  16  38  1   
 36  17  19  1   
 37  17  39  1   
 38  17  40  1   
 39  18  19  1   
 40  18  41  1   
 41  18  42  1   
 42  19  20  1   
 43  19  43  1   
 44  20  21  1   
 45  20  44  1   
 46  20  45  1   
 47  21  46  1   
 48  21  47  1   
 49  21  48  1   
@<TRIPOS>SUBSTRUCTURE
  1 ****   1 GROUP 4 **** **** 0

# MOE 2024.06 (io_trps.svl 2023.06)
