@<TRIPOS>MOLECULE
NONAME
54 56 1 0 0 
SMALL
USER_CHARGES


@<TRIPOS>ATOM
  1 O        0.6840     0.5550     0.9460 O.2   1 <1>  -0.5700 
  2 C        1.8080     0.3130     0.5540 C.2   1 <1>   0.6340 
  3 O        2.6220     1.3360     0.2660 O.3   1 <1>  -0.4300 
  4 C        2.3160    -1.0320     0.3840 C.ar  1 <1>   0.0860 
  5 C        2.2040     2.6800     0.4020 C.3   1 <1>   0.0400 
  6 C        1.4970    -2.1420     0.5990 C.ar  1 <1>  -0.1500 
  7 C        3.6320    -1.2930     0.0050 C.ar  1 <1>  -0.1500 
  8 C        1.9360    -3.4470     0.4520 C.ar  1 <1>   0.1170 
  9 C        4.0950    -2.5850    -0.1420 C.ar  1 <1>  -0.1500 
 10 N        0.9880    -4.4590     0.7150 N.am  1 <1>  -0.5470 
 11 C        3.2770    -3.6870     0.0760 C.ar  1 <1>   0.1000 
 12 C        0.5990    -5.5090    -0.0730 C.2   1 <1>   0.5440 
 13 N        3.8610    -4.9480    -0.0950 N.pl3 1 <1>  -0.8380 
 14 O        1.0060    -5.5810    -1.2180 O.2   1 <1>  -0.5700 
 15 C       -0.2340    -6.5710     0.4680 C.ar  1 <1>   0.0860 
 16 C        4.3670    -5.3270    -1.4570 C.3   1 <1>   0.2090 
 17 C        3.8290    -5.9990     0.9730 C.3   1 <1>   0.2090 
 18 C       -0.7470    -7.5610    -0.3700 C.ar  1 <1>  -0.1500 
 19 C       -0.5240    -6.6840     1.8320 C.ar  1 <1>  -0.1500 
 20 C        4.2310    -6.8370    -1.7620 C.3   1 <1>   0.3430 
 21 C        3.3210    -7.3770     0.4720 C.3   1 <1>   0.3430 
 22 C       -1.4870    -8.6240     0.1130 C.ar  1 <1>   0.0830 
 23 C       -1.2770    -7.7340     2.3270 C.ar  1 <1>  -0.1500 
 24 N        3.0800    -7.4260    -1.0120 N.4   1 <1>  -0.9590 
 25 O       -1.9040    -9.5360    -0.7970 O.3   1 <1>  -0.3630 
 26 C       -1.7590    -8.7090     1.4730 C.ar  1 <1>  -0.1500 
 27 C        2.6380    -8.7590    -1.5070 C.3   1 <1>   0.2630 
 28 C       -2.8250   -10.5490    -0.4520 C.3   1 <1>   0.0400 
 29 H        3.0180     3.3210     0.1150 H     1 <1>   0.0800 
 30 H        1.9350     2.8580     1.4290 H     1 <1>   0.0800 
 31 H        1.3550     2.8470    -0.2380 H     1 <1>   0.0800 
 32 H        0.4750    -1.9640     0.8830 H     1 <1>   0.1500 
 33 H        4.3050    -0.4720    -0.1730 H     1 <1>   0.1500 
 34 H        5.1190    -2.7450    -0.4240 H     1 <1>   0.1500 
 35 H        0.3590    -4.2460     1.4880 H     1 <1>   0.3700 
 36 H        5.3970    -5.0340    -1.5540 H     1 <1>   0.0800 
 37 H        3.8030    -4.7790    -2.1940 H     1 <1>   0.0800 
 38 H        3.2120    -5.6660     1.7900 H     1 <1>   0.0800 
 39 H        4.8250    -6.1180     1.3630 H     1 <1>   0.0800 
 40 H       -0.5720    -7.5100    -1.4310 H     1 <1>   0.1500 
 41 H       -0.1600    -5.9520     2.5310 H     1 <1>   0.1500 
 42 H        5.1410    -7.3380    -1.4800 H     1 <1>   0.0800 
 43 H        4.0930    -6.9660    -2.8220 H     1 <1>   0.0800 
 44 H        2.4040    -7.6100     0.9870 H     1 <1>   0.0800 
 45 H        4.0420    -8.1280     0.7470 H     1 <1>   0.0800 
 46 H       -1.4900    -7.7960     3.3810 H     1 <1>   0.1500 
 47 H        2.3160    -6.7300    -1.1770 H     1 <1>   0.4500 
 48 H       -2.3370    -9.5180     1.8810 H     1 <1>   0.1500 
 49 H        3.4140    -9.4920    -1.3570 H     1 <1>   0.0800 
 50 H        2.4060    -8.7060    -2.5580 H     1 <1>   0.0800 
 51 H        1.7520    -9.0760    -0.9800 H     1 <1>   0.0800 
 52 H       -3.0660   -11.1000    -1.3430 H     1 <1>   0.0800 
 53 H       -3.7150   -10.0920    -0.0560 H     1 <1>   0.0800 
 54 H       -2.3730   -11.2040     0.2710 H     1 <1>   0.0800 
@<TRIPOS>BOND
  1   1   2  2   
  2   2   3  1   
  3   2   4  1   
  4   3   5  1   
  5   4   6  ar  
  6   4   7  ar  
  7   5  29  1   
  8   5  30  1   
  9   5  31  1   
 10   6   8  ar  
 11   6  32  1   
 12   7   9  ar  
 13   7  33  1   
 14   8  10  1   
 15   8  11  ar  
 16   9  11  ar  
 17   9  34  1   
 18  10  12  am  
 19  10  35  1   
 20  11  13  1   
 21  12  14  2   
 22  12  15  1   
 23  13  16  1   
 24  13  17  1   
 25  15  18  ar  
 26  15  19  ar  
 27  16  20  1   
 28  16  36  1   
 29  16  37  1   
 30  17  21  1   
 31  17  38  1   
 32  17  39  1   
 33  18  22  ar  
 34  18  40  1   
 35  19  23  ar  
 36  19  41  1   
 37  20  24  1   
 38  20  42  1   
 39  20  43  1   
 40  21  24  1   
 41  21  44  1   
 42  21  45  1   
 43  22  25  1   
 44  22  26  ar  
 45  23  26  ar  
 46  23  46  1   
 47  24  27  1   
 48  24  47  1   
 49  25  28  1   
 50  26  48  1   
 51  27  49  1   
 52  27  50  1   
 53  27  51  1   
 54  28  52  1   
 55  28  53  1   
 56  28  54  1   
@<TRIPOS>SUBSTRUCTURE
  1 ****  10 GROUP 4 **** **** 0

# MOE 2024.06 (io_trps.svl 2023.06)
