@<TRIPOS>MOLECULE
NONAME
49 51 1 0 0 
SMALL
USER_CHARGES


@<TRIPOS>ATOM
  1 N       -0.1920     0.4020     0.2130 N.3   1 <1>  -0.8100 
  2 C       -0.3920     1.7870     0.7010 C.3   1 <1>   0.1100 
  3 C        0.4520    -0.4360     1.2580 C.3   1 <1>   0.1100 
  4 C       -1.4510    -0.1900    -0.2820 C.3   1 <1>   0.2540 
  5 C        0.9210     2.4240     1.2200 C.3   1 <1>   0.3430 
  6 C        1.7870     0.1680     1.7560 C.3   1 <1>   0.3430 
  7 C       -1.1960    -1.5660    -0.8800 C.ar  1 <1>  -0.1440 
  8 N        2.0740     1.4720     1.0780 N.4   1 <1>  -0.9590 
  9 C       -1.7350    -2.7010    -0.2930 C.ar  1 <1>  -0.1500 
 10 C       -0.4140    -1.6950    -2.0170 C.ar  1 <1>  -0.1500 
 11 C        3.3970     2.0580     1.4100 C.3   1 <1>   0.4860 
 12 C       -1.4940    -3.9560    -0.8300 C.ar  1 <1>  -0.1440 
 13 C       -0.1700    -2.9450    -2.5580 C.ar  1 <1>  -0.1500 
 14 C        3.6070     3.3000     0.5670 C.ar  1 <1>  -0.1440 
 15 C       -0.7080    -4.0720    -1.9640 C.ar  1 <1>  -0.1500 
 16 C       -2.0850    -5.1970    -0.1850 C.3   1 <1>  -0.0970 
 17 C        3.5570     4.5570     1.1520 C.ar  1 <1>  -0.1500 
 18 C        3.8380     3.1930    -0.7970 C.ar  1 <1>  -0.1500 
 19 C        3.7250     5.6920     0.3790 C.ar  1 <1>  -0.1500 
 20 C        4.0040     4.3310    -1.5660 C.ar  1 <1>  -0.1500 
 21 C        3.9450     5.5850    -0.9830 C.ar  1 <1>  -0.1440 
 22 C        4.1300     6.8340    -1.8270 C.3   1 <1>  -0.0970 
 23 H       -1.1240     1.7960     1.4920 H     1 <1>   0.0800 
 24 H       -0.7760     2.3940    -0.1010 H     1 <1>   0.0800 
 25 H        0.6580    -1.4170     0.8630 H     1 <1>   0.0800 
 26 H       -0.2170    -0.5610     2.0920 H     1 <1>   0.0800 
 27 H       -1.8690     0.4420    -1.0470 H     1 <1>   0.0800 
 28 H       -2.1660    -0.2620     0.5200 H     1 <1>   0.0800 
 29 H        0.7980     2.7060     2.2520 H     1 <1>   0.0800 
 30 H        1.1140     3.3220     0.6550 H     1 <1>   0.0800 
 31 H        2.5790    -0.5330     1.5540 H     1 <1>   0.0800 
 32 H        1.7350     0.3080     2.8230 H     1 <1>   0.0800 
 33 H        2.0580     1.2440     0.0730 H     1 <1>   0.4500 
 34 H       -2.3460    -2.6130     0.5870 H     1 <1>   0.1500 
 35 H        0.0070    -0.8210    -2.4810 H     1 <1>   0.1500 
 36 H        4.1810     1.3480     1.2010 H     1 <1>   0.0800 
 37 H        3.4380     2.3160     2.4550 H     1 <1>   0.0800 
 38 H        0.4360    -3.0410    -3.4410 H     1 <1>   0.1500 
 39 H       -0.5140    -5.0410    -2.3900 H     1 <1>   0.1500 
 40 H       -2.9550    -4.9470     0.3950 H     1 <1>   0.0800 
 41 H       -1.3560    -5.6550     0.4590 H     1 <1>   0.0800 
 42 H       -2.3750    -5.9060    -0.9400 H     1 <1>   0.0800 
 43 H        3.3920     4.6710     2.2100 H     1 <1>   0.1500 
 44 H        3.8940     2.2320    -1.2780 H     1 <1>   0.1500 
 45 H        3.6870     6.6640     0.8420 H     1 <1>   0.1500 
 46 H        4.1840     4.2390    -2.6240 H     1 <1>   0.1500 
 47 H        3.8310     6.6520    -2.8440 H     1 <1>   0.0800 
 48 H        5.1640     7.1290    -1.8180 H     1 <1>   0.0800 
 49 H        3.5350     7.6420    -1.4400 H     1 <1>   0.0800 
@<TRIPOS>BOND
  1   1   2  1   
  2   1   3  1   
  3   1   4  1   
  4   2   5  1   
  5   2  23  1   
  6   2  24  1   
  7   3   6  1   
  8   3  25  1   
  9   3  26  1   
 10   4   7  1   
 11   4  27  1   
 12   4  28  1   
 13   5   8  1   
 14   5  29  1   
 15   5  30  1   
 16   6   8  1   
 17   6  31  1   
 18   6  32  1   
 19   7   9  ar  
 20   7  10  ar  
 21   8  11  1   
 22   8  33  1   
 23   9  12  ar  
 24   9  34  1   
 25  10  13  ar  
 26  10  35  1   
 27  11  14  1   
 28  11  36  1   
 29  11  37  1   
 30  12  15  ar  
 31  12  16  1   
 32  13  15  ar  
 33  13  38  1   
 34  14  17  ar  
 35  14  18  ar  
 36  15  39  1   
 37  16  40  1   
 38  16  41  1   
 39  16  42  1   
 40  17  19  ar  
 41  17  43  1   
 42  18  20  ar  
 43  18  44  1   
 44  19  21  ar  
 45  19  45  1   
 46  20  21  ar  
 47  20  46  1   
 48  21  22  1   
 49  22  47  1   
 50  22  48  1   
 51  22  49  1   
@<TRIPOS>SUBSTRUCTURE
  1 ****   1 GROUP 4 **** **** 0

# MOE 2024.06 (io_trps.svl 2023.06)
