@<TRIPOS>MOLECULE
NONAME
38 41 1 0 0 
SMALL
USER_CHARGES


@<TRIPOS>ATOM
  1 CL       0.4380     0.2330    -2.4530 Cl    1 <1>  -0.1770 
  2 C       -0.5880     1.4570    -1.7470 C.ar  1 <1>   0.1770 
  3 C       -1.9570     1.2820    -1.7570 C.ar  1 <1>  -0.1500 
  4 C       -0.0070     2.5800    -1.1920 C.ar  1 <1>  -0.1500 
  5 C       -2.7810     2.2520    -1.1970 C.ar  1 <1>   0.1170 
  6 C       -0.8160     3.5550    -0.6340 C.ar  1 <1>  -0.1500 
  7 N       -4.1830     2.1510    -1.1690 N.am  1 <1>  -0.5470 
  8 C       -2.2010     3.3970    -0.6360 C.ar  1 <1>   0.0830 
  9 C       -5.0610     1.1450    -1.4640 C.2   1 <1>   0.5690 
 10 O       -3.0530     4.3260    -0.1030 O.3   1 <1>  -0.3630 
 11 O       -4.7100     0.0560    -1.8440 O.2   1 <1>  -0.5700 
 12 C       -6.5620     1.3800    -1.2920 C.3   1 <1>  -0.0190 
 13 C       -2.5650     5.5110     0.4890 C.3   1 <1>   0.0400 
 14 C       -7.0310     2.8480    -1.4830 C.3   1 <1>  -0.0190 
 15 C       -7.0560     1.0600     0.1400 C.3   1 <1>  -0.0800 
 16 C       -8.3110     2.8710    -2.2780 C.2   1 <1>   0.6590 
 17 C       -7.5530     3.2260    -0.0880 C.3   1 <1>  -0.0800 
 18 C       -8.6010     1.0770     0.1510 C.3   1 <1>  -0.1600 
 19 C       -6.7640     2.3560     0.8770 C.3   1 <1>  -0.1600 
 20 O       -8.3930     3.0420    -3.4620 O.2   1 <1>  -0.5700 
 21 O       -9.3420     2.6830    -1.4800 O.3   1 <1>  -0.4300 
 22 C       -8.9360     2.5560    -0.1380 C.3   1 <1>   0.2000 
 23 H       -2.3620     0.3940    -2.2030 H     1 <1>   0.1500 
 24 H        1.0630     2.6860    -1.2000 H     1 <1>   0.1500 
 25 H       -0.3470     4.4220    -0.2080 H     1 <1>   0.1500 
 26 H       -4.5990     2.9990    -0.7850 H     1 <1>   0.3700 
 27 H       -7.0560     0.7320    -1.9970 H     1 <1>   0.0800 
 28 H       -3.4060     6.0840     0.8360 H     1 <1>   0.0800 
 29 H       -2.0210     6.0740    -0.2490 H     1 <1>   0.0800 
 30 H       -1.9330     5.2530     1.3210 H     1 <1>   0.0800 
 31 H       -6.2990     3.5220    -1.8890 H     1 <1>   0.0800 
 32 H       -6.6210     0.1730     0.5720 H     1 <1>   0.0800 
 33 H       -7.5830     4.2800     0.1300 H     1 <1>   0.0800 
 34 H       -8.9570     0.8110     1.1310 H     1 <1>   0.0800 
 35 H       -9.0320     0.4060    -0.5720 H     1 <1>   0.0800 
 36 H       -5.7190     2.6070     0.9220 H     1 <1>   0.0800 
 37 H       -7.1770     2.3680     1.8730 H     1 <1>   0.0800 
 38 H       -9.6750     2.9770     0.5220 H     1 <1>   0.0800 
@<TRIPOS>BOND
  1   1   2  1   
  2   2   3  ar  
  3   2   4  ar  
  4   3   5  ar  
  5   3  23  1   
  6   4   6  ar  
  7   4  24  1   
  8   5   7  1   
  9   5   8  ar  
 10   6   8  ar  
 11   6  25  1   
 12   7   9  am  
 13   7  26  1   
 14   8  10  1   
 15   9  11  2   
 16   9  12  1   
 17  10  13  1   
 18  12  14  1   
 19  12  15  1   
 20  12  27  1   
 21  13  28  1   
 22  13  29  1   
 23  13  30  1   
 24  14  16  1   
 25  14  17  1   
 26  14  31  1   
 27  15  18  1   
 28  15  19  1   
 29  15  32  1   
 30  16  20  2   
 31  16  21  1   
 32  17  19  1   
 33  17  22  1   
 34  17  33  1   
 35  18  22  1   
 36  18  34  1   
 37  18  35  1   
 38  19  36  1   
 39  19  37  1   
 40  21  22  1   
 41  22  38  1   
@<TRIPOS>SUBSTRUCTURE
  1 ****   7 GROUP 4 **** **** 0

# MOE 2024.06 (io_trps.svl 2023.06)
