@<TRIPOS>MOLECULE
NONAME
34 35 1 0 0 
SMALL
USER_CHARGES


@<TRIPOS>ATOM
  1 O        0.1190    -0.6850     1.5430 O.2   1 <1>  -0.5700 
  2 C        0.0160    -1.7820     1.0270 C.2   1 <1>   0.5440 
  3 N        1.1380    -2.3740     0.4850 N.am  1 <1>  -0.6600 
  4 C       -1.2800    -2.4320     0.9910 C.ar  1 <1>   0.0860 
  5 C        2.5070    -1.8030     0.6690 C.3   1 <1>   0.1400 
  6 C        1.0950    -3.4800    -0.5190 C.3   1 <1>   0.1400 
  7 C       -2.3860    -1.7950     0.4340 C.ar  1 <1>  -0.1500 
  8 C       -1.4650    -3.7140     1.5100 C.ar  1 <1>  -0.1500 
  9 C        3.1480    -1.4870    -0.6920 C.3   1 <1>   0.1200 
 10 C        1.8250    -3.0690    -1.8090 C.3   1 <1>   0.1200 
 11 C       -3.6250    -2.4080     0.3750 C.ar  1 <1>   0.0830 
 12 C       -2.6980    -4.3390     1.4600 C.ar  1 <1>  -0.1500 
 13 O        3.1170    -2.6130    -1.5250 O.3   1 <1>  -0.5600 
 14 O       -4.6290    -1.6990    -0.1970 O.3   1 <1>  -0.3630 
 15 C       -3.7810    -3.6910     0.8910 C.ar  1 <1>  -0.1500 
 16 C       -5.9480    -2.1900    -0.2340 C.3   1 <1>   0.1200 
 17 C       -6.8260    -1.1340    -0.8990 C.3   1 <1>  -0.2400 
 18 H        3.1190    -2.5170     1.1900 H     1 <1>   0.0800 
 19 H        2.4720    -0.9060     1.2620 H     1 <1>   0.0800 
 20 H        0.0800    -3.7370    -0.7640 H     1 <1>   0.0800 
 21 H        1.5710    -4.3510    -0.1060 H     1 <1>   0.0800 
 22 H       -2.2750    -0.8000     0.0420 H     1 <1>   0.1500 
 23 H       -0.6280    -4.2180     1.9590 H     1 <1>   0.1500 
 24 H        4.1760    -1.2020    -0.5600 H     1 <1>   0.0800 
 25 H        2.6240    -0.6810    -1.1760 H     1 <1>   0.0800 
 26 H        1.2870    -2.2860    -2.3150 H     1 <1>   0.0800 
 27 H        1.9130    -3.9110    -2.4710 H     1 <1>   0.0800 
 28 H       -2.8170    -5.3290     1.8660 H     1 <1>   0.1500 
 29 H       -4.7280    -4.1960     0.8610 H     1 <1>   0.1500 
 30 H       -6.2720    -2.3730     0.7760 H     1 <1>   0.0800 
 31 H       -5.9570    -3.1040    -0.8030 H     1 <1>   0.0800 
 32 H       -6.7950    -0.2200    -0.3330 H     1 <1>   0.0800 
 33 H       -7.8430    -1.4780    -0.9410 H     1 <1>   0.0800 
 34 H       -6.4840    -0.9470    -1.9010 H     1 <1>   0.0800 
@<TRIPOS>BOND
  1   1   2  2   
  2   2   3  am  
  3   2   4  1   
  4   3   5  1   
  5   3   6  1   
  6   4   7  ar  
  7   4   8  ar  
  8   5   9  1   
  9   5  18  1   
 10   5  19  1   
 11   6  10  1   
 12   6  20  1   
 13   6  21  1   
 14   7  11  ar  
 15   7  22  1   
 16   8  12  ar  
 17   8  23  1   
 18   9  13  1   
 19   9  24  1   
 20   9  25  1   
 21  10  13  1   
 22  10  26  1   
 23  10  27  1   
 24  11  14  1   
 25  11  15  ar  
 26  12  15  ar  
 27  12  28  1   
 28  14  16  1   
 29  15  29  1   
 30  16  17  1   
 31  16  30  1   
 32  16  31  1   
 33  17  32  1   
 34  17  33  1   
 35  17  34  1   
@<TRIPOS>SUBSTRUCTURE
  1 ****   4 GROUP 4 **** **** 0

# MOE 2024.06 (io_trps.svl 2023.06)
