@<TRIPOS>MOLECULE
NONAME
41 42 1 0 0 
SMALL
USER_CHARGES


@<TRIPOS>ATOM
  1 S       -0.3250     0.3340    -1.3970 S.o2  1 <1>   1.4470 
  2 O       -0.9510     0.7130    -2.6470 O.2   1 <1>  -0.6500 
  3 O       -0.0400    -1.0610    -1.1410 O.2   1 <1>  -0.6500 
  4 N       -1.3400     0.8790    -0.1550 N.am  1 <1>  -0.8490 
  5 C        1.1890     1.2990    -1.1480 C.ar  1 <1>  -0.0090 
  6 C       -1.7740     2.2660    -0.3680 C.3   1 <1>   0.1960 
  7 C       -2.4950    -0.0070     0.0150 C.3   1 <1>   0.1960 
  8 C        1.8360     1.9180    -2.2120 C.ar  1 <1>  -0.1500 
  9 C        1.7460     1.4460     0.1170 C.ar  1 <1>  -0.1500 
 10 C       -2.5510     2.7820     0.8530 C.3   1 <1>  -0.0800 
 11 C       -3.3180     0.4200     1.2350 C.3   1 <1>  -0.1600 
 12 C        2.9860     2.6620    -2.0160 C.ar  1 <1>  -0.1500 
 13 C        2.8940     2.1910     0.3170 C.ar  1 <1>  -0.1500 
 14 C       -3.7650     1.8840     1.1340 C.3   1 <1>  -0.1600 
 15 C       -2.9930     4.2360     0.6460 C.3   1 <1>  -0.2400 
 16 C        3.5330     2.8160    -0.7490 C.ar  1 <1>   0.1990 
 17 N        4.6850     3.5750    -0.6070 N.am  1 <1>  -0.7570 
 18 S        5.4430     4.1630     0.8140 S.o2  1 <1>   1.3330 
 19 O        6.3430     5.1740     0.3250 O.2   1 <1>  -0.6500 
 20 O        4.4180     4.4650     1.7800 O.2   1 <1>  -0.6500 
 21 C        6.3930     2.7550     1.3450 C.3   1 <1>  -0.1350 
 22 H       -2.3950     2.3260    -1.2480 H     1 <1>   0.0800 
 23 H       -0.9140     2.8960    -0.5220 H     1 <1>   0.0800 
 24 H       -2.1580    -1.0200     0.1650 H     1 <1>   0.0800 
 25 H       -3.1060     0.0160    -0.8730 H     1 <1>   0.0800 
 26 H        1.4310     1.8160    -3.2050 H     1 <1>   0.1500 
 27 H        1.2650     0.9720     0.9570 H     1 <1>   0.1500 
 28 H       -1.8900     2.7510     1.7030 H     1 <1>   0.0800 
 29 H       -2.7190     0.2830     2.1190 H     1 <1>   0.0800 
 30 H       -4.1810    -0.2170     1.3230 H     1 <1>   0.0800 
 31 H        3.4620     3.1300    -2.8590 H     1 <1>   0.1500 
 32 H        3.2790     2.2850     1.3140 H     1 <1>   0.1500 
 33 H       -4.4810     1.9810     0.3360 H     1 <1>   0.0800 
 34 H       -4.2420     2.1830     2.0510 H     1 <1>   0.0800 
 35 H       -3.6470     4.3190    -0.2050 H     1 <1>   0.0800 
 36 H       -2.1370     4.8670     0.4840 H     1 <1>   0.0800 
 37 H       -3.5150     4.5940     1.5160 H     1 <1>   0.0800 
 38 H        5.0120     4.1130    -1.4040 H     1 <1>   0.4200 
 39 H        7.0690     2.4520     0.5710 H     1 <1>   0.0800 
 40 H        5.7450     1.9340     1.5800 H     1 <1>   0.0800 
 41 H        6.9610     3.0060     2.2190 H     1 <1>   0.0800 
@<TRIPOS>BOND
  1   1   2  2   
  2   1   3  2   
  3   1   4  am  
  4   1   5  1   
  5   4   6  1   
  6   4   7  1   
  7   5   8  ar  
  8   5   9  ar  
  9   6  10  1   
 10   6  22  1   
 11   6  23  1   
 12   7  11  1   
 13   7  24  1   
 14   7  25  1   
 15   8  12  ar  
 16   8  26  1   
 17   9  13  ar  
 18   9  27  1   
 19  10  14  1   
 20  10  15  1   
 21  10  28  1   
 22  11  14  1   
 23  11  29  1   
 24  11  30  1   
 25  12  16  ar  
 26  12  31  1   
 27  13  16  ar  
 28  13  32  1   
 29  14  33  1   
 30  14  34  1   
 31  15  35  1   
 32  15  36  1   
 33  15  37  1   
 34  16  17  1   
 35  17  18  am  
 36  17  38  1   
 37  18  19  2   
 38  18  20  2   
 39  18  21  1   
 40  21  39  1   
 41  21  40  1   
 42  21  41  1   
@<TRIPOS>SUBSTRUCTURE
  1 ****   9 GROUP 4 **** **** 0

# MOE 2024.06 (io_trps.svl 2023.06)
