@<TRIPOS>MOLECULE
NONAME
26 26 1 0 0 
SMALL
USER_CHARGES


@<TRIPOS>ATOM
  1 F        0.3410    -0.7920     0.3700 F     1 <1>  -0.3400 
  2 C        1.6180    -1.1080     0.5410 C.3   1 <1>   1.0200 
  3 F        1.9650    -0.6530     1.7380 F     1 <1>  -0.3400 
  4 F        1.6690    -2.4330     0.6180 F     1 <1>  -0.3400 
  5 C        2.5090    -0.5660    -0.6000 C.3   1 <1>   0.1400 
  6 N        3.9730    -0.9360    -0.5300 N.am  1 <1>  -0.7300 
  7 C        4.9610    -0.0570    -0.2400 C.2   1 <1>   0.6900 
  8 O        4.6950     1.1160    -0.0800 O.2   1 <1>  -0.5700 
  9 N        6.2240    -0.5400    -0.1440 N.am  1 <1>  -0.5470 
 10 C        7.4320     0.0370     0.1720 C.ar  1 <1>   0.4270 
 11 N        8.4500    -0.7840    -0.0370 N.ar  1 <1>  -0.6200 
 12 C        7.5840     1.3310     0.6680 C.ar  1 <1>  -0.1500 
 13 C        9.6530    -0.3150     0.2420 C.ar  1 <1>   0.1670 
 14 C        8.8400     1.8120     0.9560 C.ar  1 <1>  -0.1500 
 15 C        9.8990     0.9570     0.7320 C.ar  1 <1>  -0.1500 
 16 C       10.8040    -1.2660    -0.0070 C.3   1 <1>  -0.0970 
 17 H        2.4080     0.5040    -0.6100 H     1 <1>   0.0800 
 18 H        2.1120    -0.9330    -1.5290 H     1 <1>   0.0800 
 19 H        4.1840    -1.9350    -0.5110 H     1 <1>   0.3700 
 20 H        6.3570    -1.4990    -0.4380 H     1 <1>   0.3700 
 21 H        6.7290     1.9580     0.8300 H     1 <1>   0.1500 
 22 H        8.9900     2.8080     1.3370 H     1 <1>   0.1500 
 23 H       10.9020     1.2810     0.9400 H     1 <1>   0.1500 
 24 H       10.6750    -2.1500     0.5900 H     1 <1>   0.0800 
 25 H       11.7450    -0.8130     0.2430 H     1 <1>   0.0800 
 26 H       10.8180    -1.5480    -1.0440 H     1 <1>   0.0800 
@<TRIPOS>BOND
  1   1   2  1   
  2   2   3  1   
  3   2   4  1   
  4   2   5  1   
  5   5   6  1   
  6   5  17  1   
  7   5  18  1   
  8   6   7  am  
  9   6  19  1   
 10   7   8  2   
 11   7   9  am  
 12   9  10  1   
 13   9  20  1   
 14  10  11  ar  
 15  10  12  ar  
 16  11  13  ar  
 17  12  14  ar  
 18  12  21  1   
 19  13  15  ar  
 20  13  16  1   
 21  14  15  ar  
 22  14  22  1   
 23  15  23  1   
 24  16  24  1   
 25  16  25  1   
 26  16  26  1   
@<TRIPOS>SUBSTRUCTURE
  1 ****   9 GROUP 4 **** **** 0

# MOE 2024.06 (io_trps.svl 2023.06)
