@<TRIPOS>MOLECULE
NONAME
40 42 1 0 0 
SMALL
USER_CHARGES


@<TRIPOS>ATOM
  1 O        1.6200     0.2740    -1.5250 O.3   1 <1>  -0.5120 
  2 C        2.1790    -0.8620    -1.0780 C.2   1 <1>   0.3510 
  3 N        1.6400    -2.0020    -1.3070 N.2   1 <1>  -0.7070 
  4 C        3.3760    -0.9080    -0.3380 C.ar  1 <1>   0.0000 
  5 N        2.4810    -2.8910    -0.7090 N.pl3 1 <1>   0.3140 
  6 C        4.3270    -0.0130     0.1660 C.ar  1 <1>  -0.1440 
  7 C        3.5440    -2.2610    -0.1130 C.ar  1 <1>   0.1050 
  8 C        2.1960    -4.3510    -0.7500 C.3   1 <1>   0.1760 
  9 C        5.3700    -0.5740     0.8580 C.ar  1 <1>  -0.1500 
 10 C        4.2120     1.4880    -0.0410 C.3   1 <1>  -0.0960 
 11 N        4.5690    -2.8140     0.5670 N.ar  1 <1>  -0.5670 
 12 C        2.0210    -4.9070     0.6790 C.3   1 <1>  -0.1600 
 13 C        3.2560    -5.0700    -1.6070 C.3   1 <1>  -0.1600 
 14 C        5.4480    -1.9660     1.0310 C.ar  1 <1>   0.1670 
 15 C        1.3050    -6.2670     0.6970 C.3   1 <1>  -0.1600 
 16 C        3.0620    -6.5890    -1.7450 C.3   1 <1>  -0.1600 
 17 C        6.6110    -2.5570     1.8000 C.3   1 <1>  -0.0970 
 18 C        2.2290    -7.4840     0.5380 C.3   1 <1>  -0.1600 
 19 C        3.3980    -7.3400    -0.4480 C.3   1 <1>  -0.1600 
 20 H        2.1600     1.0300    -1.2590 H     1 <1>   0.4500 
 21 H        1.2520    -4.4530    -1.2550 H     1 <1>   0.0800 
 22 H        6.1420     0.0450     1.2770 H     1 <1>   0.1500 
 23 H        3.3020     1.8530     0.4020 H     1 <1>   0.0800 
 24 H        4.2200     1.7180    -1.0910 H     1 <1>   0.0800 
 25 H        5.0390     1.9980     0.4210 H     1 <1>   0.0800 
 26 H        1.4080    -4.2120     1.2270 H     1 <1>   0.0800 
 27 H        2.9690    -4.9740     1.1820 H     1 <1>   0.0800 
 28 H        4.2360    -4.8790    -1.2030 H     1 <1>   0.0800 
 29 H        3.2260    -4.6400    -2.5930 H     1 <1>   0.0800 
 30 H        0.5510    -6.2860    -0.0710 H     1 <1>   0.0800 
 31 H        0.7880    -6.3690     1.6370 H     1 <1>   0.0800 
 32 H        3.7390    -6.9330    -2.5080 H     1 <1>   0.0800 
 33 H        2.0640    -6.8220    -2.0750 H     1 <1>   0.0800 
 34 H        7.2820    -1.7930     2.1440 H     1 <1>   0.0800 
 35 H        7.1510    -3.2350     1.1640 H     1 <1>   0.0800 
 36 H        6.2390    -3.1020     2.6480 H     1 <1>   0.0800 
 37 H        1.6230    -8.3210     0.2360 H     1 <1>   0.0800 
 38 H        2.6410    -7.7300     1.5010 H     1 <1>   0.0800 
 39 H        4.2230    -6.8530     0.0440 H     1 <1>   0.0800 
 40 H        3.7350    -8.3300    -0.7020 H     1 <1>   0.0800 
@<TRIPOS>BOND
  1   1   2  1   
  2   1  20  1   
  3   2   3  2   
  4   2   4  1   
  5   3   5  1   
  6   4   6  ar  
  7   4   7  ar  
  8   5   7  1   
  9   5   8  1   
 10   6   9  ar  
 11   6  10  1   
 12   7  11  ar  
 13   8  12  1   
 14   8  13  1   
 15   8  21  1   
 16   9  14  ar  
 17   9  22  1   
 18  10  23  1   
 19  10  24  1   
 20  10  25  1   
 21  11  14  ar  
 22  12  15  1   
 23  12  26  1   
 24  12  27  1   
 25  13  16  1   
 26  13  28  1   
 27  13  29  1   
 28  14  17  1   
 29  15  18  1   
 30  15  30  1   
 31  15  31  1   
 32  16  19  1   
 33  16  32  1   
 34  16  33  1   
 35  17  34  1   
 36  17  35  1   
 37  17  36  1   
 38  18  19  1   
 39  18  37  1   
 40  18  38  1   
 41  19  39  1   
 42  19  40  1   
@<TRIPOS>SUBSTRUCTURE
  1 ****   7 GROUP 4 **** **** 0

# MOE 2024.06 (io_trps.svl 2023.06)
