@<TRIPOS>MOLECULE
NONAME
46 48 1 0 0 
SMALL
USER_CHARGES


@<TRIPOS>ATOM
  1 N        0.1350     0.1630     0.7400 N.3   1 <1>  -0.8100 
  2 C       -1.1340     0.7150     1.2770 C.3   1 <1>   0.1900 
  3 C        0.1090    -1.3190     0.7540 C.3   1 <1>   0.1100 
  4 C        1.3490     0.6820     1.4270 C.3   1 <1>   0.2540 
  5 C       -2.3870     0.1300     0.5460 C.3   1 <1>   0.4230 
  6 C       -1.1350     2.2500     1.1970 C.3   1 <1>  -0.2400 
  7 C       -1.0690    -1.8790    -0.0580 C.3   1 <1>   0.3430 
  8 C        2.6330     0.0480     0.8980 C.ar  1 <1>  -0.1440 
  9 N       -2.3990    -1.3610     0.4200 N.4   1 <1>  -0.9590 
 10 C       -2.6020     0.6050    -0.8910 C.3   1 <1>  -0.1600 
 11 C        3.1310     0.3270    -0.3730 C.ar  1 <1>  -0.1440 
 12 C        3.3210    -0.8390     1.7150 C.ar  1 <1>  -0.1500 
 13 C       -3.4590    -1.6640    -0.5740 C.3   1 <1>   0.3430 
 14 C       -3.4500    -0.4880    -1.5490 C.3   1 <1>  -0.1600 
 15 C        4.2960    -0.2920    -0.8010 C.ar  1 <1>  -0.1500 
 16 C        2.4290     1.2990    -1.3100 C.3   1 <1>  -0.0970 
 17 C        4.4820    -1.4500     1.2780 C.ar  1 <1>  -0.1500 
 18 C        4.9750    -1.1790     0.0150 C.ar  1 <1>  -0.1440 
 19 C        6.2480    -1.8450    -0.4760 C.3   1 <1>  -0.0970 
 20 H       -1.2140     0.4430     2.3160 H     1 <1>   0.0800 
 21 H        0.0670    -1.6820     1.7670 H     1 <1>   0.0800 
 22 H        1.0080    -1.7060     0.3040 H     1 <1>   0.0800 
 23 H        1.2680     0.5040     2.4860 H     1 <1>   0.0800 
 24 H        1.4290     1.7440     1.2800 H     1 <1>   0.0800 
 25 H       -3.2570     0.4270     1.1090 H     1 <1>   0.0800 
 26 H       -0.8520     2.5820     0.2130 H     1 <1>   0.0800 
 27 H       -0.4610     2.6740     1.9180 H     1 <1>   0.0800 
 28 H       -2.1140     2.6350     1.4200 H     1 <1>   0.0800 
 29 H       -1.0550    -2.9550    -0.0080 H     1 <1>   0.0800 
 30 H       -0.9190    -1.5950    -1.0860 H     1 <1>   0.0800 
 31 H       -2.6110    -1.7780     1.3330 H     1 <1>   0.4500 
 32 H       -1.6530     0.6930    -1.3920 H     1 <1>   0.0800 
 33 H       -3.0910     1.5630    -0.9160 H     1 <1>   0.0800 
 34 H        2.9580    -1.0620     2.7020 H     1 <1>   0.1500 
 35 H       -4.4170    -1.7100    -0.0810 H     1 <1>   0.0800 
 36 H       -3.2770    -2.6010    -1.0780 H     1 <1>   0.0800 
 37 H       -3.0240    -0.7840    -2.4930 H     1 <1>   0.0800 
 38 H       -4.4580    -0.1520    -1.7220 H     1 <1>   0.0800 
 39 H        4.6830    -0.0810    -1.7820 H     1 <1>   0.1500 
 40 H        2.3530     2.2670    -0.8500 H     1 <1>   0.0800 
 41 H        1.4420     0.9430    -1.5400 H     1 <1>   0.0800 
 42 H        2.9710     1.4080    -2.2320 H     1 <1>   0.0800 
 43 H        5.0000    -2.1350     1.9260 H     1 <1>   0.1500 
 44 H        6.8270    -1.1540    -1.0620 H     1 <1>   0.0800 
 45 H        6.0020    -2.6960    -1.0840 H     1 <1>   0.0800 
 46 H        6.8490    -2.1720     0.3540 H     1 <1>   0.0800 
@<TRIPOS>BOND
  1   1   2  1   
  2   1   3  1   
  3   1   4  1   
  4   2   5  1   
  5   2   6  1   
  6   2  20  1   
  7   3   7  1   
  8   3  21  1   
  9   3  22  1   
 10   4   8  1   
 11   4  23  1   
 12   4  24  1   
 13   5   9  1   
 14   5  10  1   
 15   5  25  1   
 16   6  26  1   
 17   6  27  1   
 18   6  28  1   
 19   7   9  1   
 20   7  29  1   
 21   7  30  1   
 22   8  11  ar  
 23   8  12  ar  
 24   9  13  1   
 25   9  31  1   
 26  10  14  1   
 27  10  32  1   
 28  10  33  1   
 29  11  15  ar  
 30  11  16  1   
 31  12  17  ar  
 32  12  34  1   
 33  13  14  1   
 34  13  35  1   
 35  13  36  1   
 36  14  37  1   
 37  14  38  1   
 38  15  18  ar  
 39  15  39  1   
 40  16  40  1   
 41  16  41  1   
 42  16  42  1   
 43  17  18  ar  
 44  17  43  1   
 45  18  19  1   
 46  19  44  1   
 47  19  45  1   
 48  19  46  1   
@<TRIPOS>SUBSTRUCTURE
  1 ****   1 GROUP 4 **** **** 0

# MOE 2024.06 (io_trps.svl 2023.06)
