@<TRIPOS>MOLECULE
NONAME
42 44 1 0 0 
SMALL
USER_CHARGES


@<TRIPOS>ATOM
  1 S       -2.1080    -0.3740    -0.9670 S.3   1 <1>  -0.2860 
  2 C       -1.5920    -2.0270    -0.5110 C.2   1 <1>   0.2420 
  3 C       -0.7950     0.6930    -0.2350 C.3   1 <1>   0.0700 
  4 N       -0.4970    -2.2610     0.1230 N.2   1 <1>  -0.5650 
  5 N       -2.3450    -3.1110    -0.8240 N.pl3 1 <1>   0.0480 
  6 C       -1.1590     2.1490    -0.5140 C.3   1 <1>  -0.2400 
  7 C       -0.5080    -3.6160     0.2580 C.ar  1 <1>   0.2270 
  8 C       -1.6440    -4.1630    -0.3180 C.ar  1 <1>  -0.1520 
  9 C       -3.6150    -3.1620    -1.5700 C.3   1 <1>   0.2390 
 10 C        0.4310    -4.4460     0.8670 C.ar  1 <1>  -0.1500 
 11 C       -1.8740    -5.5410    -0.2900 C.ar  1 <1>  -0.1500 
 12 C       -4.7850    -3.2350    -0.6100 C.ar  1 <1>   0.4760 
 13 C        0.2140    -5.8070     0.8910 C.ar  1 <1>  -0.1500 
 14 C       -0.9390    -6.3520     0.3140 C.ar  1 <1>  -0.1500 
 15 N       -5.2380    -2.1040    -0.1480 N.ar  1 <1>  -0.6200 
 16 N       -5.2560    -4.4180    -0.3250 N.ar  1 <1>  -0.6200 
 17 C       -6.2460    -2.2110     0.6930 C.ar  1 <1>   0.7200 
 18 C       -6.2610    -4.3860     0.5100 C.ar  1 <1>   0.7200 
 19 N       -6.8010    -3.3410     1.0550 N.ar  1 <1>  -0.6200 
 20 N       -6.7440    -1.0430     1.2270 N.pl3 1 <1>  -0.8380 
 21 N       -6.7770    -5.5670     0.8510 N.pl3 1 <1>  -0.9000 
 22 C       -5.9860     0.2400     1.1730 C.3   1 <1>   0.1290 
 23 C       -8.0550    -0.9820     1.9310 C.3   1 <1>   0.1290 
 24 H        0.1370     0.4130    -0.6960 H     1 <1>   0.0800 
 25 H       -0.7630     0.4790     0.8190 H     1 <1>   0.0800 
 26 H       -1.2120     2.3210    -1.5740 H     1 <1>   0.0800 
 27 H       -0.4120     2.7990    -0.0950 H     1 <1>   0.0800 
 28 H       -2.1100     2.3840    -0.0700 H     1 <1>   0.0800 
 29 H       -3.6120    -4.0270    -2.2040 H     1 <1>   0.0800 
 30 H       -3.7080    -2.2880    -2.1850 H     1 <1>   0.0800 
 31 H        1.3050    -4.0000     1.3040 H     1 <1>   0.1500 
 32 H       -2.7660    -5.9530    -0.7290 H     1 <1>   0.1500 
 33 H        0.9300    -6.4610     1.3570 H     1 <1>   0.1500 
 34 H       -1.0890    -7.4170     0.3500 H     1 <1>   0.1500 
 35 H       -7.3760    -5.5780     1.6720 H     1 <1>   0.4000 
 36 H       -6.2060    -6.3890     0.6830 H     1 <1>   0.4000 
 37 H       -4.9270     0.0550     1.1040 H     1 <1>   0.0800 
 38 H       -6.1690     0.8160     2.0620 H     1 <1>   0.0800 
 39 H       -6.2970     0.8060     0.3120 H     1 <1>   0.0800 
 40 H       -8.7020    -1.7770     1.6010 H     1 <1>   0.0800 
 41 H       -8.5410    -0.0450     1.7250 H     1 <1>   0.0800 
 42 H       -7.8990    -1.0760     2.9920 H     1 <1>   0.0800 
@<TRIPOS>BOND
  1   1   2  1   
  2   1   3  1   
  3   2   4  2   
  4   2   5  1   
  5   3   6  1   
  6   3  24  1   
  7   3  25  1   
  8   4   7  1   
  9   5   8  1   
 10   5   9  1   
 11   6  26  1   
 12   6  27  1   
 13   6  28  1   
 14   7   8  ar  
 15   7  10  ar  
 16   8  11  ar  
 17   9  12  1   
 18   9  29  1   
 19   9  30  1   
 20  10  13  ar  
 21  10  31  1   
 22  11  14  ar  
 23  11  32  1   
 24  12  15  ar  
 25  12  16  ar  
 26  13  14  ar  
 27  13  33  1   
 28  14  34  1   
 29  15  17  ar  
 30  16  18  ar  
 31  17  19  ar  
 32  17  20  1   
 33  18  19  ar  
 34  18  21  1   
 35  20  22  1   
 36  20  23  1   
 37  21  35  1   
 38  21  36  1   
 39  22  37  1   
 40  22  38  1   
 41  22  39  1   
 42  23  40  1   
 43  23  41  1   
 44  23  42  1   
@<TRIPOS>SUBSTRUCTURE
  1 ****   5 GROUP 4 **** **** 0

# MOE 2024.06 (io_trps.svl 2023.06)
