@<TRIPOS>MOLECULE
NONAME
32 31 1 0 0 
SMALL
USER_CHARGES


@<TRIPOS>ATOM
  1 O       -1.1960     1.6930    -0.6510 O.co2 1 <1>  -0.9000 
  2 C       -2.4340     1.7860    -0.8140 C.2   1 <1>   0.9060 
  3 O       -3.0860     1.2240    -1.7310 O.co2 1 <1>  -0.9000 
  4 C       -3.2560     2.6300     0.2080 C.3   1 <1>   0.1140 
  5 N       -4.6430     2.1480     0.2940 N.am  1 <1>  -0.7300 
  6 C       -3.3080     4.1280    -0.1550 C.3   1 <1>  -0.1600 
  7 C       -5.4930     2.2580     1.3400 C.2   1 <1>   0.5690 
  8 C       -1.9340     4.8080    -0.0850 C.3   1 <1>  -0.2400 
  9 O       -5.2310     2.8770     2.3440 O.2   1 <1>  -0.5700 
 10 C       -6.8380     1.5690     1.2320 C.3   1 <1>  -0.0990 
 11 C       -7.8250     2.3690     0.3660 C.3   1 <1>  -0.1600 
 12 C       -9.1850     1.6660     0.2720 C.3   1 <1>  -0.1600 
 13 C      -10.1630     2.4710    -0.5910 C.3   1 <1>  -0.1600 
 14 C      -11.5220     1.7700    -0.6840 C.3   1 <1>  -0.2400 
 15 H       -2.7750     2.5160     1.1790 H     1 <1>   0.0800 
 16 H       -4.8750     1.5640    -0.5020 H     1 <1>   0.3700 
 17 H       -3.9680     4.6290     0.5310 H     1 <1>   0.0800 
 18 H       -3.7030     4.2300    -1.1500 H     1 <1>   0.0800 
 19 H       -1.5120     4.6920     0.8980 H     1 <1>   0.0800 
 20 H       -2.0280     5.8560    -0.3030 H     1 <1>   0.0800 
 21 H       -1.2600     4.3670    -0.7990 H     1 <1>   0.0800 
 22 H       -7.2380     1.4500     2.2230 H     1 <1>   0.0800 
 23 H       -6.6890     0.5910     0.8130 H     1 <1>   0.0800 
 24 H       -7.4100     2.4900    -0.6210 H     1 <1>   0.0800 
 25 H       -7.9510     3.3480     0.7950 H     1 <1>   0.0800 
 26 H       -9.5940     1.5460     1.2600 H     1 <1>   0.0800 
 27 H       -9.0520     0.6870    -0.1570 H     1 <1>   0.0800 
 28 H       -9.7570     2.5910    -1.5810 H     1 <1>   0.0800 
 29 H      -10.2990     3.4510    -0.1650 H     1 <1>   0.0800 
 30 H      -11.4120     0.7970    -1.1290 H     1 <1>   0.0800 
 31 H      -12.1930     2.3500    -1.2920 H     1 <1>   0.0800 
 32 H      -11.9550     1.6590     0.2940 H     1 <1>   0.0800 
@<TRIPOS>BOND
  1   1   2  ar  
  2   2   3  ar  
  3   2   4  1   
  4   4   5  1   
  5   4   6  1   
  6   4  15  1   
  7   5   7  am  
  8   5  16  1   
  9   6   8  1   
 10   6  17  1   
 11   6  18  1   
 12   7   9  2   
 13   7  10  1   
 14   8  19  1   
 15   8  20  1   
 16   8  21  1   
 17  10  11  1   
 18  10  22  1   
 19  10  23  1   
 20  11  12  1   
 21  11  24  1   
 22  11  25  1   
 23  12  13  1   
 24  12  26  1   
 25  12  27  1   
 26  13  14  1   
 27  13  28  1   
 28  13  29  1   
 29  14  30  1   
 30  14  31  1   
 31  14  32  1   
@<TRIPOS>SUBSTRUCTURE
  1 ****   5 GROUP 4 **** **** 0

# MOE 2024.06 (io_trps.svl 2023.06)
