@<TRIPOS>MOLECULE
NONAME
28 27 1 0 0 
SMALL
USER_CHARGES


@<TRIPOS>ATOM
  1 SI       0.0950    -0.2580     0.3890 Si    1 <1>   0.3220 
  2 C        1.7040     0.0110     1.1770 C.3   1 <1>  -0.2410 
  3 C       -0.4370     1.1980    -0.5560 C.3   1 <1>  -0.2410 
  4 C        0.1600    -1.7220    -0.6810 C.3   1 <1>  -0.2410 
  5 C       -1.1200    -0.5390     1.6920 C.3   1 <1>  -0.3200 
  6 C        2.9500    -0.2060     0.2900 C.3   1 <1>  -0.2660 
  7 C        0.4560     1.6060    -1.7340 C.3   1 <1>  -0.2400 
  8 C       -1.1600    -2.0940    -1.3710 C.3   1 <1>  -0.2400 
  9 C        4.2480     0.0670     1.0190 C.2   1 <1>   0.9060 
 10 O        4.7290     1.2030     0.9620 O.co2 1 <1>  -0.9000 
 11 O        4.7820    -0.8570     1.6400 O.co2 1 <1>  -0.9000 
 12 H        1.8280    -0.6490     2.0170 H     1 <1>   0.0800 
 13 H        1.7770     1.0050     1.5810 H     1 <1>   0.0800 
 14 H       -0.5120     2.0570     0.0880 H     1 <1>   0.0800 
 15 H       -1.4240     1.0460    -0.9530 H     1 <1>   0.0800 
 16 H        0.4800    -2.5830    -0.1220 H     1 <1>   0.0800 
 17 H        0.8940    -1.5910    -1.4560 H     1 <1>   0.0800 
 18 H       -1.1740     0.2880     2.3750 H     1 <1>   0.0800 
 19 H       -0.8860    -1.4080     2.2790 H     1 <1>   0.0800 
 20 H       -2.1110    -0.6840     1.3040 H     1 <1>   0.0800 
 21 H        2.9240     0.4370    -0.5660 H     1 <1>   0.0800 
 22 H        2.9860    -1.2220    -0.0530 H     1 <1>   0.0800 
 23 H        1.4210     1.9240    -1.3800 H     1 <1>   0.0800 
 24 H        0.0100     2.4260    -2.2690 H     1 <1>   0.0800 
 25 H        0.5890     0.7830    -2.4140 H     1 <1>   0.0800 
 26 H       -1.9200    -2.3070    -0.6410 H     1 <1>   0.0800 
 27 H       -1.0200    -2.9680    -1.9830 H     1 <1>   0.0800 
 28 H       -1.4960    -1.2890    -2.0000 H     1 <1>   0.0800 
@<TRIPOS>BOND
  1   1   2  1   
  2   1   3  1   
  3   1   4  1   
  4   1   5  1   
  5   2   6  1   
  6   2  12  1   
  7   2  13  1   
  8   3   7  1   
  9   3  14  1   
 10   3  15  1   
 11   4   8  1   
 12   4  16  1   
 13   4  17  1   
 14   5  18  1   
 15   5  19  1   
 16   5  20  1   
 17   6   9  1   
 18   6  21  1   
 19   6  22  1   
 20   7  23  1   
 21   7  24  1   
 22   7  25  1   
 23   8  26  1   
 24   8  27  1   
 25   8  28  1   
 26   9  10  ar  
 27   9  11  ar  
@<TRIPOS>SUBSTRUCTURE
  1 ****   2 GROUP 4 **** **** 0

# MOE 2024.06 (io_trps.svl 2023.06)
