@<TRIPOS>MOLECULE
NONAME
50 51 1 0 0 
SMALL
USER_CHARGES


@<TRIPOS>ATOM
  1 S        0.1950    -0.6120    -1.0720 S.3   1 <1>  -0.3710 
  2 C       -1.0110     0.6180    -0.5670 C.2   1 <1>   0.6510 
  3 C        1.5140     0.3350    -1.9960 C.3   1 <1>   0.1310 
  4 N       -0.7640     1.8270    -0.8890 N.2   1 <1>  -0.6210 
  5 N       -2.1010     0.1630     0.1480 N.am  1 <1>  -0.2370 
  6 C        2.8750     0.2270    -1.3120 C.2   1 <1>   0.5690 
  7 C       -1.6060     2.7980    -0.4430 C.2   1 <1>   0.0210 
  8 C       -2.9900     1.1370     0.5960 C.2   1 <1>   0.6160 
  9 C       -2.3490    -1.2090     0.3600 C.ar  1 <1>   0.1170 
 10 O        3.6240    -0.6310    -1.7270 O.2   1 <1>  -0.5700 
 11 N        3.2630     1.0850    -0.3060 N.am  1 <1>  -0.6600 
 12 O       -1.2800     3.9530    -0.7270 O.3   1 <1>  -0.8500 
 13 C       -2.7340     2.4740     0.3010 C.2   1 <1>  -0.1240 
 14 O       -3.9870     0.7700     1.2510 O.2   1 <1>  -0.5700 
 15 C       -3.0710    -1.9710    -0.5620 C.ar  1 <1>  -0.1430 
 16 C       -1.8600    -1.8200     1.5090 C.ar  1 <1>  -0.1500 
 17 C        2.3770     2.1200     0.2960 C.3   1 <1>   0.1400 
 18 C        4.6290     1.0140     0.2700 C.3   1 <1>   0.1400 
 19 C       -3.6670     3.5790     0.7870 C.3   1 <1>  -0.0220 
 20 C       -3.2830    -3.3190    -0.3210 C.ar  1 <1>  -0.1500 
 21 C       -3.6320    -1.3350    -1.8280 C.3   1 <1>  -0.0970 
 22 C       -2.0750    -3.1660     1.7420 C.ar  1 <1>  -0.1500 
 23 C        2.4850     3.4280    -0.4820 C.3   1 <1>  -0.2400 
 24 C        4.6180     0.1170     1.5050 C.3   1 <1>  -0.2400 
 25 C       -3.2910     4.0200     2.2040 C.3   1 <1>  -0.2400 
 26 C       -2.7870    -3.9170     0.8250 C.ar  1 <1>  -0.1500 
 27 H        1.2220     1.3580    -2.1120 H     1 <1>   0.0800 
 28 H        1.5700    -0.1110    -2.9700 H     1 <1>   0.0800 
 29 H       -1.3090    -1.2320     2.2200 H     1 <1>   0.1500 
 30 H        2.6560     2.2890     1.3210 H     1 <1>   0.0800 
 31 H        1.3620     1.7780     0.3050 H     1 <1>   0.0800 
 32 H        4.9650     2.0030     0.5290 H     1 <1>   0.0800 
 33 H        5.3130     0.6140    -0.4610 H     1 <1>   0.0800 
 34 H       -4.6860     3.2350     0.7680 H     1 <1>   0.0800 
 35 H       -3.5950     4.4210     0.1210 H     1 <1>   0.0800 
 36 H       -3.8360    -3.9140    -1.0260 H     1 <1>   0.1500 
 37 H       -2.8330    -0.9330    -2.4240 H     1 <1>   0.0800 
 38 H       -4.3060    -0.5380    -1.5680 H     1 <1>   0.0800 
 39 H       -4.1690    -2.0550    -2.4190 H     1 <1>   0.0800 
 40 H       -1.6900    -3.6260     2.6350 H     1 <1>   0.1500 
 41 H        3.4800     3.8280    -0.4270 H     1 <1>   0.0800 
 42 H        1.7960     4.1410    -0.0630 H     1 <1>   0.0800 
 43 H        2.2060     3.2850    -1.5090 H     1 <1>   0.0800 
 44 H        3.9600     0.5140     2.2570 H     1 <1>   0.0800 
 45 H        5.6090     0.0500     1.9140 H     1 <1>   0.0800 
 46 H        4.2920    -0.8720     1.2320 H     1 <1>   0.0800 
 47 H       -3.3790     3.1940     2.8850 H     1 <1>   0.0800 
 48 H       -3.9340     4.8170     2.5260 H     1 <1>   0.0800 
 49 H       -2.2720     4.3690     2.2050 H     1 <1>   0.0800 
 50 H       -2.9560    -4.9640     1.0020 H     1 <1>   0.1500 
@<TRIPOS>BOND
  1   1   2  1   
  2   1   3  1   
  3   2   4  2   
  4   2   5  1   
  5   3   6  1   
  6   3  27  1   
  7   3  28  1   
  8   4   7  1   
  9   5   8  am  
 10   5   9  1   
 11   6  10  2   
 12   6  11  am  
 13   7  12  1   
 14   7  13  2   
 15   8  13  1   
 16   8  14  2   
 17   9  15  ar  
 18   9  16  ar  
 19  11  17  1   
 20  11  18  1   
 21  13  19  1   
 22  15  20  ar  
 23  15  21  1   
 24  16  22  ar  
 25  16  29  1   
 26  17  23  1   
 27  17  30  1   
 28  17  31  1   
 29  18  24  1   
 30  18  32  1   
 31  18  33  1   
 32  19  25  1   
 33  19  34  1   
 34  19  35  1   
 35  20  26  ar  
 36  20  36  1   
 37  21  37  1   
 38  21  38  1   
 39  21  39  1   
 40  22  26  ar  
 41  22  40  1   
 42  23  41  1   
 43  23  42  1   
 44  23  43  1   
 45  24  44  1   
 46  24  45  1   
 47  24  46  1   
 48  25  47  1   
 49  25  48  1   
 50  25  49  1   
 51  26  50  1   
@<TRIPOS>SUBSTRUCTURE
  1 ****   2 GROUP 4 **** **** 0

# MOE 2024.06 (io_trps.svl 2023.06)
