@<TRIPOS>MOLECULE
NONAME
53 55 1 0 0 
SMALL
USER_CHARGES


@<TRIPOS>ATOM
  1 O      -11.8830     1.3920     0.9700 O.2   1 <1>  -0.5700 
  2 C      -11.3830     0.7250     0.1140 C.2   1 <1>   0.4480 
  3 C       -9.8760     0.7100    -0.1100 C.3   1 <1>  -0.0190 
  4 C      -12.2120    -0.1460    -0.8120 C.3   1 <1>  -0.0990 
  5 C       -9.3680    -0.7450    -0.1620 C.3   1 <1>  -0.1600 
  6 C       -9.1410     1.4760     1.0020 C.3   1 <1>   0.3430 
  7 C      -11.6570    -1.5770    -0.8730 C.3   1 <1>  -0.1600 
  8 C      -10.1540    -1.5820    -1.1830 C.3   1 <1>  -0.1600 
  9 N       -8.9650     2.9350     0.7090 N.4   1 <1>  -0.9590 
 10 C       -7.8790     3.5310     1.5330 C.3   1 <1>   0.4860 
 11 C      -10.2270     3.7280     0.7920 C.3   1 <1>   0.4860 
 12 C       -6.5750     2.8370     1.1860 C.ar  1 <1>  -0.1440 
 13 C       -9.9400     5.1770     0.4470 C.ar  1 <1>  -0.1440 
 14 C       -6.1000     2.8460    -0.1230 C.ar  1 <1>   0.0820 
 15 C       -5.8540     2.1880     2.1770 C.ar  1 <1>  -0.1500 
 16 C       -9.5770     5.5360    -0.8440 C.ar  1 <1>  -0.1500 
 17 C      -10.0270     6.1550     1.4280 C.ar  1 <1>  -0.1500 
 18 O       -6.8410     3.4890    -1.0650 O.3   1 <1>  -0.3630 
 19 C       -4.9060     2.1980    -0.4260 C.ar  1 <1>  -0.1500 
 20 C       -4.6690     1.5460     1.8690 C.ar  1 <1>  -0.1500 
 21 C       -9.2920     6.8560    -1.1460 C.ar  1 <1>  -0.1500 
 22 C       -9.7430     7.4740     1.1240 C.ar  1 <1>  -0.1500 
 23 C       -6.2510     3.9110    -2.2790 C.3   1 <1>   0.0400 
 24 C       -4.1960     1.5510     0.5690 C.ar  1 <1>  -0.1500 
 25 C       -9.3730     7.8250    -0.1620 C.ar  1 <1>  -0.1500 
 26 H       -9.6620     1.1660    -1.0590 H     1 <1>   0.0800 
 27 H      -12.2040     0.2880    -1.7960 H     1 <1>   0.0800 
 28 H      -13.2310    -0.1660    -0.4670 H     1 <1>   0.0800 
 29 H       -9.4700    -1.2020     0.8090 H     1 <1>   0.0800 
 30 H       -8.3230    -0.7600    -0.4250 H     1 <1>   0.0800 
 31 H       -8.1660     1.0280     1.1100 H     1 <1>   0.0800 
 32 H       -9.6610     1.3440     1.9380 H     1 <1>   0.0800 
 33 H      -12.1860    -2.1380    -1.6250 H     1 <1>   0.0800 
 34 H      -11.8260    -2.0630     0.0740 H     1 <1>   0.0800 
 35 H       -9.7920    -2.5970    -1.1670 H     1 <1>   0.0800 
 36 H       -9.9890    -1.1970    -2.1760 H     1 <1>   0.0800 
 37 H       -8.5860     3.0420    -0.2460 H     1 <1>   0.4500 
 38 H       -8.0980     3.4190     2.5820 H     1 <1>   0.0800 
 39 H       -7.7740     4.5810     1.3130 H     1 <1>   0.0800 
 40 H      -10.6460     3.6570     1.7820 H     1 <1>   0.0800 
 41 H      -10.9530     3.3430     0.0960 H     1 <1>   0.0800 
 42 H       -6.2000     2.1750     3.1980 H     1 <1>   0.1500 
 43 H       -9.5110     4.8000    -1.6260 H     1 <1>   0.1500 
 44 H      -10.3200     5.9060     2.4350 H     1 <1>   0.1500 
 45 H       -4.5140     2.1800    -1.4260 H     1 <1>   0.1500 
 46 H       -4.1080     1.0430     2.6400 H     1 <1>   0.1500 
 47 H       -9.0100     7.1350    -2.1470 H     1 <1>   0.1500 
 48 H       -9.8110     8.2330     1.8860 H     1 <1>   0.1500 
 49 H       -6.0310     3.0490    -2.8840 H     1 <1>   0.0800 
 50 H       -5.3530     4.4630    -2.0600 H     1 <1>   0.0800 
 51 H       -6.9500     4.5470    -2.7930 H     1 <1>   0.0800 
 52 H       -3.2710     1.0510     0.3330 H     1 <1>   0.1500 
 53 H       -9.1530     8.8520    -0.3980 H     1 <1>   0.1500 
@<TRIPOS>BOND
  1   1   2  2   
  2   2   3  1   
  3   2   4  1   
  4   3   5  1   
  5   3   6  1   
  6   3  26  1   
  7   4   7  1   
  8   4  27  1   
  9   4  28  1   
 10   5   8  1   
 11   5  29  1   
 12   5  30  1   
 13   6   9  1   
 14   6  31  1   
 15   6  32  1   
 16   7   8  1   
 17   7  33  1   
 18   7  34  1   
 19   8  35  1   
 20   8  36  1   
 21   9  10  1   
 22   9  11  1   
 23   9  37  1   
 24  10  12  1   
 25  10  38  1   
 26  10  39  1   
 27  11  13  1   
 28  11  40  1   
 29  11  41  1   
 30  12  14  ar  
 31  12  15  ar  
 32  13  16  ar  
 33  13  17  ar  
 34  14  18  1   
 35  14  19  ar  
 36  15  20  ar  
 37  15  42  1   
 38  16  21  ar  
 39  16  43  1   
 40  17  22  ar  
 41  17  44  1   
 42  18  23  1   
 43  19  24  ar  
 44  19  45  1   
 45  20  24  ar  
 46  20  46  1   
 47  21  25  ar  
 48  21  47  1   
 49  22  25  ar  
 50  22  48  1   
 51  23  49  1   
 52  23  50  1   
 53  23  51  1   
 54  24  52  1   
 55  25  53  1   
@<TRIPOS>SUBSTRUCTURE
  1 ****   9 GROUP 4 **** **** 0

# MOE 2024.06 (io_trps.svl 2023.06)
