@<TRIPOS>MOLECULE
NONAME
53 54 1 0 0 
SMALL
USER_CHARGES


@<TRIPOS>ATOM
  1 S        0.0320     0.3850     0.1950 S.o2  1 <1>   1.4470 
  2 O       -0.4900    -0.1170     1.4450 O.2   1 <1>  -0.6500 
  3 O       -0.3430    -0.2310    -1.0560 O.2   1 <1>  -0.6500 
  4 N       -0.4990     1.9660     0.0280 N.am  1 <1>  -0.9140 
  5 C        1.8320     0.5640     0.2990 C.ar  1 <1>  -0.0090 
  6 C       -1.8710     2.1470     0.4630 C.3   1 <1>   0.1960 
  7 C        2.6760    -0.0540    -0.6180 C.ar  1 <1>  -0.1500 
  8 C        2.4130     1.3260     1.3060 C.ar  1 <1>  -0.1500 
  9 C       -2.3070     3.5720     0.1260 C.3   1 <1>  -0.1600 
 10 C        4.0510     0.0840    -0.5410 C.ar  1 <1>  -0.1500 
 11 C        3.7860     1.4710     1.3930 C.ar  1 <1>  -0.1500 
 12 C       -3.7510     3.8310     0.5750 C.3   1 <1>  -0.1600 
 13 C        4.6140     0.8570     0.4700 C.ar  1 <1>   0.0830 
 14 C       -4.1840     5.2600     0.2360 C.3   1 <1>  -0.2400 
 15 O        5.9440     1.0570     0.6160 O.3   1 <1>  -0.3620 
 16 C        6.8800     0.4950    -0.2920 C.3   1 <1>   0.1810 
 17 C        8.3100     0.9050     0.0540 C.2   1 <1>   0.5690 
 18 O        9.1460     0.0340     0.0430 O.2   1 <1>  -0.5700 
 19 N        8.6630     2.2070     0.3450 N.am  1 <1>  -0.6600 
 20 C       10.0160     2.5120     0.9130 C.3   1 <1>   0.1400 
 21 C        7.7470     3.3870     0.2300 C.3   1 <1>   0.1400 
 22 C       10.6710     3.7070     0.1990 C.3   1 <1>   0.3430 
 23 C        8.4450     4.5860    -0.4440 C.3   1 <1>   0.3430 
 24 N        9.7720     4.9150     0.1880 N.4   1 <1>  -0.9590 
 25 C       10.4290     6.0670    -0.5020 C.3   1 <1>   0.2630 
 26 H       -0.4910     2.1090    -0.9800 H     1 <1>   0.4200 
 27 H       -1.9380     1.9880     1.5270 H     1 <1>   0.0800 
 28 H       -2.5130     1.4370    -0.0330 H     1 <1>   0.0800 
 29 H        2.2490    -0.6560    -1.4040 H     1 <1>   0.1500 
 30 H        1.7780     1.8090     2.0300 H     1 <1>   0.1500 
 31 H       -2.2330     3.7280    -0.9360 H     1 <1>   0.0800 
 32 H       -1.6510     4.2660     0.6240 H     1 <1>   0.0800 
 33 H        4.6570    -0.4190    -1.2720 H     1 <1>   0.1500 
 34 H        4.2180     2.0600     2.1820 H     1 <1>   0.1500 
 35 H       -3.8330     3.6800     1.6380 H     1 <1>   0.0800 
 36 H       -4.4140     3.1370     0.0870 H     1 <1>   0.0800 
 37 H       -3.5490     5.9740     0.7320 H     1 <1>   0.0800 
 38 H       -5.1970     5.4240     0.5590 H     1 <1>   0.0800 
 39 H       -4.1330     5.4290    -0.8250 H     1 <1>   0.0800 
 40 H        6.6410     0.8280    -1.2840 H     1 <1>   0.0800 
 41 H        6.7950    -0.5760    -0.2370 H     1 <1>   0.0800 
 42 H       10.6680     1.6600     0.8230 H     1 <1>   0.0800 
 43 H        9.9160     2.7260     1.9630 H     1 <1>   0.0800 
 44 H        7.4080     3.6660     1.2130 H     1 <1>   0.0800 
 45 H        6.8790     3.1360    -0.3530 H     1 <1>   0.0800 
 46 H       10.9000     3.4130    -0.8130 H     1 <1>   0.0800 
 47 H       11.5990     3.9430     0.6920 H     1 <1>   0.0800 
 48 H        7.7930     5.4430    -0.3940 H     1 <1>   0.0800 
 49 H        8.5930     4.3490    -1.4850 H     1 <1>   0.0800 
 50 H        9.5930     5.1740     1.1690 H     1 <1>   0.4500 
 51 H       10.6310     5.8210    -1.5330 H     1 <1>   0.0800 
 52 H       11.3610     6.3120    -0.0180 H     1 <1>   0.0800 
 53 H        9.7910     6.9350    -0.4740 H     1 <1>   0.0800 
@<TRIPOS>BOND
  1   1   2  2   
  2   1   3  2   
  3   1   4  am  
  4   1   5  1   
  5   4   6  1   
  6   4  26  1   
  7   5   7  ar  
  8   5   8  ar  
  9   6   9  1   
 10   6  27  1   
 11   6  28  1   
 12   7  10  ar  
 13   7  29  1   
 14   8  11  ar  
 15   8  30  1   
 16   9  12  1   
 17   9  31  1   
 18   9  32  1   
 19  10  13  ar  
 20  10  33  1   
 21  11  13  ar  
 22  11  34  1   
 23  12  14  1   
 24  12  35  1   
 25  12  36  1   
 26  13  15  1   
 27  14  37  1   
 28  14  38  1   
 29  14  39  1   
 30  15  16  1   
 31  16  17  1   
 32  16  40  1   
 33  16  41  1   
 34  17  18  2   
 35  17  19  am  
 36  19  20  1   
 37  19  21  1   
 38  20  22  1   
 39  20  42  1   
 40  20  43  1   
 41  21  23  1   
 42  21  44  1   
 43  21  45  1   
 44  22  24  1   
 45  22  46  1   
 46  22  47  1   
 47  23  24  1   
 48  23  48  1   
 49  23  49  1   
 50  24  25  1   
 51  24  50  1   
 52  25  51  1   
 53  25  52  1   
 54  25  53  1   
@<TRIPOS>SUBSTRUCTURE
  1 ****  13 GROUP 4 **** **** 0

# MOE 2024.06 (io_trps.svl 2023.06)
