@<TRIPOS>MOLECULE
NONAME
30 30 1 0 0 
SMALL
USER_CHARGES


@<TRIPOS>ATOM
  1 BR      -0.3010     0.9430    -1.3470 Br    1 <1>  -0.1110 
  2 C        1.4620     1.4220    -0.7380 C.ar  1 <1>   0.1110 
  3 C        1.6220     2.5820    -0.0070 C.ar  1 <1>  -0.1500 
  4 C        2.5240     0.5920    -1.0460 C.ar  1 <1>  -0.1500 
  5 C        2.8970     2.9030     0.4170 C.ar  1 <1>   0.1770 
  6 C        3.7930     0.9370    -0.6080 C.ar  1 <1>  -0.1500 
  7 CL       3.1160     4.3660     1.3570 Cl    1 <1>  -0.1770 
  8 C        4.0060     2.1040     0.1270 C.ar  1 <1>   0.1170 
  9 N        5.2760     2.4910     0.5960 N.am  1 <1>  -0.5470 
 10 C        6.5310     2.1680     0.1740 C.2   1 <1>   0.6900 
 11 O        6.7140     1.4920    -0.8180 O.2   1 <1>  -0.5700 
 12 N        7.5670     2.6460     0.9110 N.am  1 <1>  -0.7300 
 13 C        9.0150     2.4730     0.6660 C.3   1 <1>   0.2200 
 14 C        9.4020     3.0610    -0.7010 C.3   1 <1>  -0.1600 
 15 C        9.3840     0.9970     0.8240 C.3   1 <1>  -0.2400 
 16 C       10.9210     3.1880    -0.8940 C.3   1 <1>  -0.2400 
 17 H        0.7830     3.2120     0.2250 H     1 <1>   0.1500 
 18 H        2.3630    -0.3050    -1.6170 H     1 <1>   0.1500 
 19 H        4.6190     0.2900    -0.8420 H     1 <1>   0.1500 
 20 H        5.2570     3.2650     1.2550 H     1 <1>   0.3700 
 21 H        7.3530     3.0580     1.8140 H     1 <1>   0.3700 
 22 H        9.5370     3.0310     1.4250 H     1 <1>   0.0800 
 23 H        8.9670     4.0410    -0.7910 H     1 <1>   0.0800 
 24 H        9.0030     2.4460    -1.4890 H     1 <1>   0.0800 
 25 H        8.9510     0.4120     0.0330 H     1 <1>   0.0800 
 26 H        9.0350     0.6260     1.7700 H     1 <1>   0.0800 
 27 H       10.4500     0.8740     0.7890 H     1 <1>   0.0800 
 28 H       11.3540     3.7830    -0.1090 H     1 <1>   0.0800 
 29 H       11.1280     3.6640    -1.8360 H     1 <1>   0.0800 
 30 H       11.3880     2.2200    -0.8980 H     1 <1>   0.0800 
@<TRIPOS>BOND
  1   1   2  1   
  2   2   3  ar  
  3   2   4  ar  
  4   3   5  ar  
  5   3  17  1   
  6   4   6  ar  
  7   4  18  1   
  8   5   7  1   
  9   5   8  ar  
 10   6   8  ar  
 11   6  19  1   
 12   8   9  1   
 13   9  10  am  
 14   9  20  1   
 15  10  11  2   
 16  10  12  am  
 17  12  13  1   
 18  12  21  1   
 19  13  14  1   
 20  13  15  1   
 21  13  22  1   
 22  14  16  1   
 23  14  23  1   
 24  14  24  1   
 25  15  25  1   
 26  15  26  1   
 27  15  27  1   
 28  16  28  1   
 29  16  29  1   
 30  16  30  1   
@<TRIPOS>SUBSTRUCTURE
  1 ****   9 GROUP 4 **** **** 0

# MOE 2024.06 (io_trps.svl 2023.06)
