@<TRIPOS>MOLECULE
Structure2267
28 28 1 0 0 
SMALL
USER_CHARGES


@<TRIPOS>ATOM
  1 O        0.1390     0.3690     0.2170 O.3   1 <1>  -0.5600 
  2 C        1.4220     0.2730    -0.3010 C.3   1 <1>   0.2000 
  3 C       -0.7160     1.2780    -0.4110 C.3   1 <1>   0.1200 
  4 C        1.9800    -1.0770     0.1820 C.3   1 <1>   0.3430 
  5 C        2.2660     1.4480     0.2190 C.3   1 <1>  -0.1600 
  6 C       -2.1100     1.1470     0.2080 C.3   1 <1>  -0.1600 
  7 N        3.4490    -1.2230    -0.0950 N.4   1 <1>  -0.9060 
  8 C        3.7640     1.2230    -0.0480 C.3   1 <1>  -0.1600 
  9 C       -2.7210    -0.2470     0.0070 C.3   1 <1>  -0.2400 
 10 C        4.2510    -0.1200     0.5010 C.3   1 <1>   0.3430 
 11 H        1.3650     0.2760    -1.3770 H     1 <1>   0.0800 
 12 H       -0.7550     1.0580    -1.4650 H     1 <1>   0.0800 
 13 H       -0.3410     2.2760    -0.2600 H     1 <1>   0.0800 
 14 H        1.4330    -1.8720    -0.2980 H     1 <1>   0.0800 
 15 H        1.8120    -1.1440     1.2450 H     1 <1>   0.0800 
 16 H        2.1090     1.5530     1.2800 H     1 <1>   0.0800 
 17 H        1.9580     2.3630    -0.2580 H     1 <1>   0.0800 
 18 H       -2.7560     1.8780    -0.2450 H     1 <1>   0.0800 
 19 H       -2.0520     1.3720     1.2580 H     1 <1>   0.0800 
 20 H        3.6020    -1.2400    -1.1110 H     1 <1>   0.4500 
 21 H        3.7750    -2.1260     0.2730 H     1 <1>   0.4500 
 22 H        4.3260     2.0140     0.4190 H     1 <1>   0.0800 
 23 H        3.9630     1.2740    -1.1050 H     1 <1>   0.0800 
 24 H       -2.7900    -0.4820    -1.0410 H     1 <1>   0.0800 
 25 H       -3.7100    -0.2780     0.4300 H     1 <1>   0.0800 
 26 H       -2.1210    -0.9960     0.4930 H     1 <1>   0.0800 
 27 H        5.2960    -0.2520     0.2680 H     1 <1>   0.0800 
 28 H        4.1410    -0.1280     1.5750 H     1 <1>   0.0800 
@<TRIPOS>BOND
  1   1   2  1   
  2   1   3  1   
  3   2   4  1   
  4   2   5  1   
  5   2  11  1   
  6   3   6  1   
  7   3  12  1   
  8   3  13  1   
  9   4   7  1   
 10   4  14  1   
 11   4  15  1   
 12   5   8  1   
 13   5  16  1   
 14   5  17  1   
 15   6   9  1   
 16   6  18  1   
 17   6  19  1   
 18   7  10  1   
 19   7  20  1   
 20   7  21  1   
 21   8  10  1   
 22   8  22  1   
 23   8  23  1   
 24   9  24  1   
 25   9  25  1   
 26   9  26  1   
 27  10  27  1   
 28  10  28  1   
@<TRIPOS>SUBSTRUCTURE
  1 ****   2 GROUP 4 **** **** 0

# MOE 2024.06 (io_trps.svl 2023.06)
