@<TRIPOS>MOLECULE
NONAME
48 50 1 0 0 
SMALL
USER_CHARGES


@<TRIPOS>ATOM
  1 O       -0.7370    -0.2050     2.0720 O.2   1 <1>  -0.5700 
  2 C       -0.1510     0.7190     1.5610 C.2   1 <1>   0.5690 
  3 N        1.1940     0.7300     1.3380 N.am  1 <1>  -0.5470 
  4 C       -0.9690     1.9400     1.1740 C.3   1 <1>   0.0450 
  5 C        2.2410    -0.1590     1.6410 C.ar  1 <1>   0.1170 
  6 C       -0.3390     2.8100     0.0880 C.ar  1 <1>  -0.1430 
  7 C        3.5300     0.2310     1.2500 C.ar  1 <1>   0.1000 
  8 C        2.0660    -1.3700     2.2970 C.ar  1 <1>  -0.1500 
  9 C       -0.4530     2.4480    -1.2450 C.ar  1 <1>  -0.1500 
 10 C        0.3340     3.9760     0.4200 C.ar  1 <1>  -0.1500 
 11 N        3.7190     1.4500     0.5790 N.pl3 1 <1>  -0.8380 
 12 C        4.6070    -0.6000     1.5280 C.ar  1 <1>  -0.1500 
 13 C        3.1490    -2.1900     2.5670 C.ar  1 <1>  -0.1500 
 14 C        0.0830     3.2510    -2.2370 C.ar  1 <1>  -0.1500 
 15 C        0.8720     4.7790    -0.5710 C.ar  1 <1>  -0.1500 
 16 C        4.0990     1.3500    -0.8590 C.3   1 <1>   0.2090 
 17 C        4.5100     2.4920     1.2980 C.3   1 <1>   0.2090 
 18 C        4.4210    -1.8050     2.1830 C.ar  1 <1>  -0.1500 
 19 C        0.7410     4.4200    -1.9010 C.ar  1 <1>  -0.1500 
 20 C        3.9280     2.7060    -1.5630 C.3   1 <1>   0.1400 
 21 C        4.3390     3.8630     0.6240 C.3   1 <1>   0.1400 
 22 N        4.6560     3.8010    -0.8410 N.am  1 <1>  -0.6600 
 23 C        5.5220     4.6940    -1.4130 C.2   1 <1>   0.5690 
 24 O        6.0840     5.5450    -0.7680 O.2   1 <1>  -0.5700 
 25 C        5.8050     4.6480    -2.8960 C.3   1 <1>  -0.1790 
 26 H        1.5650     1.5490     0.8420 H     1 <1>   0.3700 
 27 H       -1.1300     2.5230     2.0610 H     1 <1>   0.0800 
 28 H       -1.9330     1.6040     0.8370 H     1 <1>   0.0800 
 29 H        1.0860    -1.6850     2.6020 H     1 <1>   0.1500 
 30 H       -0.9680     1.5420    -1.5180 H     1 <1>   0.1500 
 31 H        0.4370     4.2710     1.4500 H     1 <1>   0.1500 
 32 H        5.5940    -0.3020     1.2300 H     1 <1>   0.1500 
 33 H        2.9970    -3.1260     3.0760 H     1 <1>   0.1500 
 34 H       -0.0180     2.9670    -3.2700 H     1 <1>   0.1500 
 35 H        1.3900     5.6860    -0.3100 H     1 <1>   0.1500 
 36 H        3.4760     0.6150    -1.3400 H     1 <1>   0.0800 
 37 H        5.1230     1.0290    -0.9420 H     1 <1>   0.0800 
 38 H        5.5520     2.2250     1.2990 H     1 <1>   0.0800 
 39 H        4.1770     2.5510     2.3200 H     1 <1>   0.0800 
 40 H        5.2630    -2.4410     2.3930 H     1 <1>   0.1500 
 41 H        1.1530     5.0500    -2.6700 H     1 <1>   0.1500 
 42 H        2.8810     2.9410    -1.5860 H     1 <1>   0.0800 
 43 H        4.2680     2.6150    -2.5770 H     1 <1>   0.0800 
 44 H        4.9740     4.5770     1.1190 H     1 <1>   0.0800 
 45 H        3.3220     4.1870     0.7470 H     1 <1>   0.0800 
 46 H        6.2850     3.7210    -3.1470 H     1 <1>   0.0800 
 47 H        6.4600     5.4570    -3.1640 H     1 <1>   0.0800 
 48 H        4.8910     4.7510    -3.4480 H     1 <1>   0.0800 
@<TRIPOS>BOND
  1   1   2  2   
  2   2   3  am  
  3   2   4  1   
  4   3   5  1   
  5   3  26  1   
  6   4   6  1   
  7   4  27  1   
  8   4  28  1   
  9   5   7  ar  
 10   5   8  ar  
 11   6   9  ar  
 12   6  10  ar  
 13   7  11  1   
 14   7  12  ar  
 15   8  13  ar  
 16   8  29  1   
 17   9  14  ar  
 18   9  30  1   
 19  10  15  ar  
 20  10  31  1   
 21  11  16  1   
 22  11  17  1   
 23  12  18  ar  
 24  12  32  1   
 25  13  18  ar  
 26  13  33  1   
 27  14  19  ar  
 28  14  34  1   
 29  15  19  ar  
 30  15  35  1   
 31  16  20  1   
 32  16  36  1   
 33  16  37  1   
 34  17  21  1   
 35  17  38  1   
 36  17  39  1   
 37  18  40  1   
 38  19  41  1   
 39  20  22  1   
 40  20  42  1   
 41  20  43  1   
 42  21  22  1   
 43  21  44  1   
 44  21  45  1   
 45  22  23  am  
 46  23  24  2   
 47  23  25  1   
 48  25  46  1   
 49  25  47  1   
 50  25  48  1   
@<TRIPOS>SUBSTRUCTURE
  1 ****  11 GROUP 4 **** **** 0

# MOE 2024.06 (io_trps.svl 2023.06)
