@<TRIPOS>MOLECULE
NONAME
44 45 1 0 0 
SMALL
USER_CHARGES


@<TRIPOS>ATOM
  1 S        0.3690     0.8170     0.1260 S.3   1 <1>  -0.2860 
  2 C       -1.3770     0.6520     0.5120 C.2   1 <1>   0.2420 
  3 C        1.0440     1.6550     1.6450 C.3   1 <1>   0.1310 
  4 N       -1.8970     1.0330     1.6240 N.2   1 <1>  -0.3380 
  5 N       -2.2570     0.1170    -0.3330 N.pl3 1 <1>   0.0480 
  6 C        2.5540     1.8200     1.5720 C.2   1 <1>   0.5690 
  7 N       -3.1980     0.7420     1.5330 N.2   1 <1>  -0.3380 
  8 C       -3.3930     0.2030     0.3750 C.2   1 <1>   0.0060 
  9 C       -2.0270    -0.4200    -1.6920 C.3   1 <1>   0.0960 
 10 O        3.0740     2.6660     2.2590 O.2   1 <1>  -0.5700 
 11 N        3.2800     1.0150     0.7520 N.am  1 <1>  -0.7300 
 12 C       -4.7480    -0.2710    -0.1140 C.3   1 <1>  -0.0600 
 13 C       -1.6670    -1.9080    -1.6320 C.3   1 <1>  -0.2400 
 14 C        4.7390     1.0550     0.5730 C.3   1 <1>   0.2200 
 15 C        5.0160     1.5320    -0.8570 C.3   1 <1>  -0.1600 
 16 C        5.2940    -0.3350     0.9110 C.3   1 <1>  -0.1600 
 17 C        6.5000     1.5530    -1.2630 C.3   1 <1>  -0.1600 
 18 C        6.8220    -0.3320     1.0740 C.3   1 <1>  -0.1600 
 19 C        7.0660     0.1440    -1.4880 C.3   1 <1>  -0.1600 
 20 C        7.6130    -0.5430    -0.2270 C.3   1 <1>  -0.1600 
 21 H        0.7760     1.0500     2.4910 H     1 <1>   0.0800 
 22 H        0.5640     2.6140     1.7180 H     1 <1>   0.0800 
 23 H       -1.2300     0.1330    -2.1560 H     1 <1>   0.0800 
 24 H       -2.9170    -0.2790    -2.2790 H     1 <1>   0.0800 
 25 H        2.7840     0.3470     0.1590 H     1 <1>   0.3700 
 26 H       -5.0410     0.2810    -0.9880 H     1 <1>   0.0800 
 27 H       -5.4860    -0.1160     0.6530 H     1 <1>   0.0800 
 28 H       -4.7120    -1.3200    -0.3470 H     1 <1>   0.0800 
 29 H       -0.7650    -2.0520    -1.0640 H     1 <1>   0.0800 
 30 H       -1.5050    -2.2840    -2.6270 H     1 <1>   0.0800 
 31 H       -2.4640    -2.4720    -1.1800 H     1 <1>   0.0800 
 32 H        5.1550     1.7720     1.2630 H     1 <1>   0.0800 
 33 H        4.6370     2.5360    -0.9410 H     1 <1>   0.0800 
 34 H        4.4710     0.9200    -1.5540 H     1 <1>   0.0800 
 35 H        4.9940    -1.0580     0.1740 H     1 <1>   0.0800 
 36 H        4.8730    -0.6300     1.8570 H     1 <1>   0.0800 
 37 H        7.0870     2.0910    -0.5380 H     1 <1>   0.0800 
 38 H        6.5730     2.0910    -2.1930 H     1 <1>   0.0800 
 39 H        7.0970    -1.1190     1.7550 H     1 <1>   0.0800 
 40 H        7.1300     0.5920     1.5330 H     1 <1>   0.0800 
 41 H        7.8720     0.2090    -2.1990 H     1 <1>   0.0800 
 42 H        6.3110    -0.4780    -1.9360 H     1 <1>   0.0800 
 43 H        7.6720    -1.5990    -0.4280 H     1 <1>   0.0800 
 44 H        8.6200    -0.2020    -0.0580 H     1 <1>   0.0800 
@<TRIPOS>BOND
  1   1   2  1   
  2   1   3  1   
  3   2   4  2   
  4   2   5  1   
  5   3   6  1   
  6   3  21  1   
  7   3  22  1   
  8   4   7  1   
  9   5   8  1   
 10   5   9  1   
 11   6  10  2   
 12   6  11  am  
 13   7   8  2   
 14   8  12  1   
 15   9  13  1   
 16   9  23  1   
 17   9  24  1   
 18  11  14  1   
 19  11  25  1   
 20  12  26  1   
 21  12  27  1   
 22  12  28  1   
 23  13  29  1   
 24  13  30  1   
 25  13  31  1   
 26  14  15  1   
 27  14  16  1   
 28  14  32  1   
 29  15  17  1   
 30  15  33  1   
 31  15  34  1   
 32  16  18  1   
 33  16  35  1   
 34  16  36  1   
 35  17  19  1   
 36  17  37  1   
 37  17  38  1   
 38  18  20  1   
 39  18  39  1   
 40  18  40  1   
 41  19  20  1   
 42  19  41  1   
 43  19  42  1   
 44  20  43  1   
 45  20  44  1   
@<TRIPOS>SUBSTRUCTURE
  1 ****   1 GROUP 4 **** **** 0

# MOE 2024.06 (io_trps.svl 2023.06)
