@<TRIPOS>MOLECULE
NONAME
36 38 1 0 0 
SMALL
USER_CHARGES


@<TRIPOS>ATOM
  1 CL      -1.9090     1.5530    -1.3630 Cl    1 <1>  -0.1770 
  2 C       -3.3200     0.8660    -0.6000 C.ar  1 <1>   0.1770 
  3 C       -4.1360     1.6480     0.2140 C.ar  1 <1>   0.1770 
  4 C       -3.6120    -0.4680    -0.8210 C.ar  1 <1>  -0.1500 
  5 CL      -3.7650     3.3310     0.4880 Cl    1 <1>  -0.1770 
  6 C       -5.2560     1.1080     0.8210 C.ar  1 <1>  -0.1500 
  7 C       -4.7380    -1.0130    -0.2120 C.ar  1 <1>   0.0860 
  8 C       -5.5510    -0.2330     0.6010 C.ar  1 <1>   0.0860 
  9 C       -5.3090    -2.3300    -0.2340 C.2   1 <1>   0.5440 
 10 C       -6.6120    -1.0810     1.0650 C.2   1 <1>   0.5440 
 11 O       -4.8790    -3.2990    -0.8190 O.2   1 <1>  -0.5700 
 12 N       -6.4370    -2.3340     0.5410 N.am  1 <1>  -0.4200 
 13 O       -7.5340    -0.7690     1.7900 O.2   1 <1>  -0.5700 
 14 C       -7.3730    -3.4870     0.6910 C.3   1 <1>   0.2010 
 15 C       -8.6860    -3.2820    -0.0580 C.2   1 <1>   0.5690 
 16 O       -9.0170    -4.0850    -0.8960 O.2   1 <1>  -0.5700 
 17 N       -9.4510    -2.2030     0.2440 N.am  1 <1>  -0.7300 
 18 C      -10.7080    -1.8140    -0.4090 C.3   1 <1>   0.2200 
 19 C      -10.4760    -0.5150    -1.1700 C.3   1 <1>  -0.1600 
 20 C      -11.7070    -1.4130     0.6680 C.3   1 <1>  -0.1600 
 21 C      -10.5410     0.5980    -0.1170 C.3   1 <1>  -0.1600 
 22 C      -11.3350     0.0220     1.0630 C.3   1 <1>  -0.1600 
 23 H       -2.9840    -1.0760    -1.4500 H     1 <1>   0.1500 
 24 H       -5.8870     1.7110     1.4510 H     1 <1>   0.1500 
 25 H       -7.5900    -3.6290     1.7330 H     1 <1>   0.0800 
 26 H       -6.9020    -4.3810     0.3210 H     1 <1>   0.0800 
 27 H       -9.1090    -1.5230     0.9370 H     1 <1>   0.3700 
 28 H      -11.0740    -2.6080    -1.0420 H     1 <1>   0.0800 
 29 H      -11.2830    -0.3830    -1.8690 H     1 <1>   0.0800 
 30 H       -9.5480    -0.5230    -1.7130 H     1 <1>   0.0800 
 31 H      -11.7000    -2.0900     1.5040 H     1 <1>   0.0800 
 32 H      -12.6920    -1.4120     0.2350 H     1 <1>   0.0800 
 33 H      -11.0120     1.4790    -0.5170 H     1 <1>   0.0800 
 34 H       -9.5470     0.8510     0.2090 H     1 <1>   0.0800 
 35 H      -10.7140     0.0100     1.9430 H     1 <1>   0.0800 
 36 H      -12.2170     0.6050     1.2680 H     1 <1>   0.0800 
@<TRIPOS>BOND
  1   1   2  1   
  2   2   3  ar  
  3   2   4  ar  
  4   3   5  1   
  5   3   6  ar  
  6   4   7  ar  
  7   4  23  1   
  8   6   8  ar  
  9   6  24  1   
 10   7   8  ar  
 11   7   9  1   
 12   8  10  1   
 13   9  11  2   
 14   9  12  am  
 15  10  12  am  
 16  10  13  2   
 17  12  14  1   
 18  14  15  1   
 19  14  25  1   
 20  14  26  1   
 21  15  16  2   
 22  15  17  am  
 23  17  18  1   
 24  17  27  1   
 25  18  19  1   
 26  18  20  1   
 27  18  28  1   
 28  19  21  1   
 29  19  29  1   
 30  19  30  1   
 31  20  22  1   
 32  20  31  1   
 33  20  32  1   
 34  21  22  1   
 35  21  33  1   
 36  21  34  1   
 37  22  35  1   
 38  22  36  1   
@<TRIPOS>SUBSTRUCTURE
  1 ****  10 GROUP 4 **** **** 0

# MOE 2024.06 (io_trps.svl 2023.06)
