@<TRIPOS>MOLECULE
NONAME
52 54 1 0 0 
SMALL
USER_CHARGES


@<TRIPOS>ATOM
  1 O        0.2420     0.0000    -0.2060 O.3   1 <1>  -0.3630 
  2 C        1.4130    -0.6930    -0.1060 C.ar  1 <1>   0.0830 
  3 C        0.1600     1.4030    -0.0740 C.3   1 <1>   0.0400 
  4 C        1.4460    -2.0720    -0.3790 C.ar  1 <1>   0.0830 
  5 C        2.5970    -0.0530     0.2580 C.ar  1 <1>  -0.1500 
  6 O        0.3940    -2.8630    -0.7370 O.3   1 <1>  -0.3630 
  7 C        2.6510    -2.7480    -0.2950 C.ar  1 <1>  -0.1500 
  8 C        3.7960    -0.7450     0.3440 C.ar  1 <1>  -0.1430 
  9 C       -0.9530    -2.4730    -0.5870 C.3   1 <1>   0.0400 
 10 C        3.8210    -2.1030     0.0630 C.ar  1 <1>  -0.1430 
 11 C        5.0560     0.0020     0.7530 C.3   1 <1>   0.4860 
 12 C        5.1140    -2.8980     0.1260 C.3   1 <1>  -0.0160 
 13 N        6.2770    -0.7040     0.2570 N.4   1 <1>  -0.9590 
 14 C        6.2510    -2.1090     0.7790 C.3   1 <1>   0.3430 
 15 C        7.5530     0.0200     0.5530 C.3   1 <1>   0.4230 
 16 C        7.4810     1.4770     0.0600 C.3   1 <1>  -0.1600 
 17 C        8.7310    -0.7010    -0.1290 C.3   1 <1>  -0.1600 
 18 C        8.8110     2.2190     0.2500 C.3   1 <1>  -0.1600 
 19 C       10.0600     0.0460     0.0550 C.3   1 <1>  -0.1600 
 20 C        9.9750     1.4980    -0.4440 C.3   1 <1>  -0.0800 
 21 C       11.2840     2.2730    -0.1990 C.3   1 <1>  -0.1600 
 22 C       12.4770     1.7220    -0.9900 C.3   1 <1>  -0.2400 
 23 H       -0.8600     1.6940    -0.2540 H     1 <1>   0.0800 
 24 H        0.8020     1.8620    -0.8040 H     1 <1>   0.0800 
 25 H        0.4430     1.6780     0.9260 H     1 <1>   0.0800 
 26 H        2.5920     0.9970     0.4810 H     1 <1>   0.1500 
 27 H        2.6540    -3.8010    -0.5170 H     1 <1>   0.1500 
 28 H       -1.5720    -3.3330    -0.7650 H     1 <1>   0.0800 
 29 H       -1.1770    -1.7090    -1.3090 H     1 <1>   0.0800 
 30 H       -1.1040    -2.1130     0.4150 H     1 <1>   0.0800 
 31 H        5.0880     0.0830     1.8270 H     1 <1>   0.0800 
 32 H        5.0080     0.9950     0.3390 H     1 <1>   0.0800 
 33 H        5.4040    -3.1780    -0.8710 H     1 <1>   0.0800 
 34 H        4.9550    -3.8050     0.6830 H     1 <1>   0.0800 
 35 H        6.1750    -0.7550    -0.7640 H     1 <1>   0.4500 
 36 H        7.1770    -2.6170     0.5750 H     1 <1>   0.0800 
 37 H        6.1050    -2.0920     1.8470 H     1 <1>   0.0800 
 38 H        7.7260     0.0280     1.6180 H     1 <1>   0.0800 
 39 H        6.7390     2.0290     0.6070 H     1 <1>   0.0800 
 40 H        7.2260     1.4960    -0.9860 H     1 <1>   0.0800 
 41 H        8.5370    -0.7920    -1.1840 H     1 <1>   0.0800 
 42 H        8.8680    -1.6840     0.2800 H     1 <1>   0.0800 
 43 H        9.0240     2.3120     1.3020 H     1 <1>   0.0800 
 44 H        8.7200     3.2150    -0.1500 H     1 <1>   0.0800 
 45 H       10.8250    -0.4820    -0.4880 H     1 <1>   0.0800 
 46 H       10.3380     0.0400     1.0960 H     1 <1>   0.0800 
 47 H        9.7860     1.4890    -1.5060 H     1 <1>   0.0800 
 48 H       11.5240     2.2680     0.8510 H     1 <1>   0.0800 
 49 H       11.1400     3.3000    -0.4910 H     1 <1>   0.0800 
 50 H       12.7550     0.7430    -0.6450 H     1 <1>   0.0800 
 51 H       13.3270     2.3700    -0.8620 H     1 <1>   0.0800 
 52 H       12.2460     1.6730    -2.0390 H     1 <1>   0.0800 
@<TRIPOS>BOND
  1   1   2  1   
  2   1   3  1   
  3   2   4  ar  
  4   2   5  ar  
  5   3  23  1   
  6   3  24  1   
  7   3  25  1   
  8   4   6  1   
  9   4   7  ar  
 10   5   8  ar  
 11   5  26  1   
 12   6   9  1   
 13   7  10  ar  
 14   7  27  1   
 15   8  10  ar  
 16   8  11  1   
 17   9  28  1   
 18   9  29  1   
 19   9  30  1   
 20  10  12  1   
 21  11  13  1   
 22  11  31  1   
 23  11  32  1   
 24  12  14  1   
 25  12  33  1   
 26  12  34  1   
 27  13  14  1   
 28  13  15  1   
 29  13  35  1   
 30  14  36  1   
 31  14  37  1   
 32  15  16  1   
 33  15  17  1   
 34  15  38  1   
 35  16  18  1   
 36  16  39  1   
 37  16  40  1   
 38  17  19  1   
 39  17  41  1   
 40  17  42  1   
 41  18  20  1   
 42  18  43  1   
 43  18  44  1   
 44  19  20  1   
 45  19  45  1   
 46  19  46  1   
 47  20  21  1   
 48  20  47  1   
 49  21  22  1   
 50  21  48  1   
 51  21  49  1   
 52  22  50  1   
 53  22  51  1   
 54  22  52  1   
@<TRIPOS>SUBSTRUCTURE
  1 ****  11 GROUP 4 **** **** 0

# MOE 2024.06 (io_trps.svl 2023.06)
