@<TRIPOS>MOLECULE
NONAME
37 40 1 0 0 
SMALL
USER_CHARGES


@<TRIPOS>ATOM
  1 O       -0.3820    -0.2600     0.4540 O.3   1 <1>  -0.2800 
  2 C        0.6710     0.3110    -0.1710 C.ar  1 <1>   0.1400 
  3 C       -1.3300     0.6810     0.5510 C.ar  1 <1>   0.1400 
  4 C        1.9190    -0.2150    -0.5210 C.ar  1 <1>   0.4100 
  5 C        0.4040     1.6170    -0.4720 C.ar  1 <1>   0.2560 
  6 C       -0.9060     1.8740    -0.0080 C.ar  1 <1>   0.0000 
  7 C       -2.5860     0.5460     1.1200 C.ar  1 <1>  -0.1500 
  8 N        2.8000     0.5670    -1.1220 N.ar  1 <1>  -0.6200 
  9 N        2.2950    -1.5310    -0.2740 N.pl3 1 <1>  -0.8380 
 10 N        1.2800     2.4120    -1.0850 N.ar  1 <1>  -0.5660 
 11 C       -1.7590     2.9760    -0.0030 C.ar  1 <1>  -0.1500 
 12 C       -3.4290     1.6420     1.1220 C.ar  1 <1>  -0.1500 
 13 C        2.4220     1.8230    -1.3650 C.ar  1 <1>   0.4700 
 14 C        1.2760    -2.6150    -0.3570 C.3   1 <1>   0.2090 
 15 C        3.7370    -1.8520    -0.0610 C.3   1 <1>   0.2090 
 16 C       -3.0150     2.8520     0.5610 C.ar  1 <1>  -0.1500 
 17 C        1.7930    -3.9020    -1.0100 C.3   1 <1>  -0.1600 
 18 C        3.9580    -2.9580     0.9760 C.3   1 <1>  -0.1600 
 19 C        2.5100    -4.8370    -0.0240 C.3   1 <1>  -0.1600 
 20 C        3.9130    -4.3700     0.3730 C.3   1 <1>  -0.1600 
 21 H       -2.8820    -0.3960     1.5460 H     1 <1>   0.1500 
 22 H       -1.4270     3.9030    -0.4380 H     1 <1>   0.1500 
 23 H       -4.4110     1.5680     1.5560 H     1 <1>   0.1500 
 24 H        3.1590     2.4330    -1.8600 H     1 <1>   0.1500 
 25 H        0.4490    -2.2610    -0.9480 H     1 <1>   0.0800 
 26 H        0.9010    -2.8240     0.6310 H     1 <1>   0.0800 
 27 H        4.2360    -0.9660     0.2940 H     1 <1>   0.0800 
 28 H        4.1860    -2.1190    -1.0020 H     1 <1>   0.0800 
 29 H       -3.6850     3.6950     0.5720 H     1 <1>   0.1500 
 30 H        2.4140    -3.6680    -1.8560 H     1 <1>   0.0800 
 31 H        0.9350    -4.4320    -1.3840 H     1 <1>   0.0800 
 32 H        3.2570    -2.8550     1.7860 H     1 <1>   0.0800 
 33 H        4.9420    -2.8170     1.3860 H     1 <1>   0.0800 
 34 H        2.5990    -5.8090    -0.4790 H     1 <1>   0.0800 
 35 H        1.9090    -4.9540     0.8610 H     1 <1>   0.0800 
 36 H        4.3050    -5.0630     1.0970 H     1 <1>   0.0800 
 37 H        4.5590    -4.4110    -0.4880 H     1 <1>   0.0800 
@<TRIPOS>BOND
  1   1   2  1   
  2   1   3  1   
  3   2   4  ar  
  4   2   5  ar  
  5   3   6  ar  
  6   3   7  ar  
  7   4   8  ar  
  8   4   9  1   
  9   5   6  1   
 10   5  10  ar  
 11   6  11  ar  
 12   7  12  ar  
 13   7  21  1   
 14   8  13  ar  
 15   9  14  1   
 16   9  15  1   
 17  10  13  ar  
 18  11  16  ar  
 19  11  22  1   
 20  12  16  ar  
 21  12  23  1   
 22  13  24  1   
 23  14  17  1   
 24  14  25  1   
 25  14  26  1   
 26  15  18  1   
 27  15  27  1   
 28  15  28  1   
 29  16  29  1   
 30  17  19  1   
 31  17  30  1   
 32  17  31  1   
 33  18  20  1   
 34  18  32  1   
 35  18  33  1   
 36  19  20  1   
 37  19  34  1   
 38  19  35  1   
 39  20  36  1   
 40  20  37  1   
@<TRIPOS>SUBSTRUCTURE
  1 ****   2 GROUP 4 **** **** 0

# MOE 2024.06 (io_trps.svl 2023.06)
