@<TRIPOS>MOLECULE
NONAME
34 34 1 0 0 
SMALL
USER_CHARGES


@<TRIPOS>ATOM
  1 S        0.3330     0.1180     1.0190 S.3   1 <1>  -0.3320 
  2 C       -1.1520     1.0770     0.6580 C.ar  1 <1>   0.4120 
  3 C        1.7300     0.7090    -0.0530 C.3   1 <1>   0.1310 
  4 N       -2.2240     0.3200     0.7800 N.ar  1 <1>  -0.6200 
  5 C       -1.1520     2.4330     0.3080 C.ar  1 <1>   0.0860 
  6 C        2.7240    -0.4080    -0.2990 C.2   1 <1>   0.6590 
  7 C       -3.3830     0.8960     0.5390 C.ar  1 <1>   0.1660 
  8 C       -2.3960     3.0320     0.0810 C.ar  1 <1>  -0.1440 
  9 C        0.0700     3.1890     0.1890 C.2   1 <1>   0.5440 
 10 O        2.8990    -0.8600    -1.4020 O.2   1 <1>  -0.5700 
 11 O        3.4100    -0.8370     0.7560 O.3   1 <1>  -0.4300 
 12 C       -3.5290     2.2330     0.1700 C.ar  1 <1>  -0.1440 
 13 C       -4.5740    -0.0320     0.7050 C.3   1 <1>  -0.0970 
 14 C       -2.5030     4.5290    -0.2340 C.3   1 <1>  -0.0970 
 15 O        0.7490     3.4790     1.1470 O.2   1 <1>  -0.5700 
 16 N        0.5130     3.6230    -1.0150 N.am  1 <1>  -0.8000 
 17 C        4.3550    -1.8810     0.6530 C.3   1 <1>   0.0400 
 18 C       -4.9170     2.8140    -0.1230 C.3   1 <1>  -0.0970 
 19 H        2.2100     1.5240     0.4550 H     1 <1>   0.0800 
 20 H        1.3080     1.0290    -0.9860 H     1 <1>   0.0800 
 21 H       -4.2810    -0.9290     1.2220 H     1 <1>   0.0800 
 22 H       -4.9590    -0.3070    -0.2590 H     1 <1>   0.0800 
 23 H       -5.3450     0.4430     1.2830 H     1 <1>   0.0800 
 24 H       -1.6590     5.0800     0.1390 H     1 <1>   0.0800 
 25 H       -3.3710     4.9570     0.2330 H     1 <1>   0.0800 
 26 H       -2.5710     4.6790    -1.2970 H     1 <1>   0.0800 
 27 H        1.3360     4.2270    -1.0510 H     1 <1>   0.3700 
 28 H       -0.0110     3.5080    -1.8840 H     1 <1>   0.3700 
 29 H        4.7750    -2.0570     1.6270 H     1 <1>   0.0800 
 30 H        5.1260    -1.5860    -0.0380 H     1 <1>   0.0800 
 31 H        3.8560    -2.7660     0.2980 H     1 <1>   0.0800 
 32 H       -5.6060     2.0600    -0.4530 H     1 <1>   0.0800 
 33 H       -4.8730     3.5470    -0.9080 H     1 <1>   0.0800 
 34 H       -5.3120     3.2770     0.7640 H     1 <1>   0.0800 
@<TRIPOS>BOND
  1   1   2  1   
  2   1   3  1   
  3   2   4  ar  
  4   2   5  ar  
  5   3   6  1   
  6   3  19  1   
  7   3  20  1   
  8   4   7  ar  
  9   5   8  ar  
 10   5   9  1   
 11   6  10  2   
 12   6  11  1   
 13   7  12  ar  
 14   7  13  1   
 15   8  12  ar  
 16   8  14  1   
 17   9  15  2   
 18   9  16  am  
 19  11  17  1   
 20  12  18  1   
 21  13  21  1   
 22  13  22  1   
 23  13  23  1   
 24  14  24  1   
 25  14  25  1   
 26  14  26  1   
 27  16  27  1   
 28  16  28  1   
 29  17  29  1   
 30  17  30  1   
 31  17  31  1   
 32  18  32  1   
 33  18  33  1   
 34  18  34  1   
@<TRIPOS>SUBSTRUCTURE
  1 ****   2 GROUP 4 **** **** 0

# MOE 2024.06 (io_trps.svl 2023.06)
