@<TRIPOS>MOLECULE
NONAME
32 32 1 0 0 
SMALL
USER_CHARGES


@<TRIPOS>ATOM
  1 CL       1.2060     0.0420    -0.6130 Cl    1 <1>  -0.1770 
  2 C        0.5970    -1.5900    -0.4520 C.ar  1 <1>   0.1770 
  3 C        1.2690    -2.5260     0.3250 C.ar  1 <1>  -0.0090 
  4 C       -0.5690    -1.8980    -1.1350 C.ar  1 <1>  -0.1500 
  5 S        2.7810    -2.1000     1.2150 S.o2  1 <1>   1.4470 
  6 C        0.7290    -3.8070     0.3990 C.ar  1 <1>  -0.1500 
  7 C       -1.0930    -3.1760    -1.0500 C.ar  1 <1>  -0.1500 
  8 O        2.5880    -0.9720     2.0910 O.2   1 <1>  -0.6500 
  9 O        3.4230    -3.2930     1.7160 O.2   1 <1>  -0.6500 
 10 N        3.8230    -1.4940     0.0450 N.am  1 <1>  -0.9140 
 11 C       -0.4340    -4.1170    -0.2820 C.ar  1 <1>   0.1770 
 12 C        5.1750    -1.3190     0.5690 C.3   1 <1>   0.1960 
 13 CL      -1.0830    -5.7310    -0.1680 Cl    1 <1>  -0.1770 
 14 C        6.1520    -0.9330    -0.5570 C.3   1 <1>   0.3430 
 15 N        7.5780    -0.8120    -0.0900 N.4   1 <1>  -0.9590 
 16 C        8.4260    -0.2240    -1.1740 C.3   1 <1>   0.2630 
 17 C        8.1460    -2.1320     0.3430 C.3   1 <1>   0.2630 
 18 H       -1.0600    -1.1430    -1.7260 H     1 <1>   0.1500 
 19 H        1.2100    -4.5700     0.9880 H     1 <1>   0.1500 
 20 H       -1.9970    -3.4430    -1.5690 H     1 <1>   0.1500 
 21 H        3.4250    -0.5680    -0.1360 H     1 <1>   0.4200 
 22 H        5.5020    -2.2470     1.0060 H     1 <1>   0.0800 
 23 H        5.1670    -0.5600     1.3350 H     1 <1>   0.0800 
 24 H        5.8330     0.0080    -0.9730 H     1 <1>   0.0800 
 25 H        6.0920    -1.6800    -1.3310 H     1 <1>   0.0800 
 26 H        7.6060    -0.1660     0.7160 H     1 <1>   0.4500 
 27 H        8.4290    -0.8670    -2.0390 H     1 <1>   0.0800 
 28 H        9.4420    -0.1040    -0.8320 H     1 <1>   0.0800 
 29 H        8.0480     0.7430    -1.4640 H     1 <1>   0.0800 
 30 H        8.1120    -2.8400    -0.4690 H     1 <1>   0.0800 
 31 H        7.5860    -2.5330     1.1730 H     1 <1>   0.0800 
 32 H        9.1720    -2.0140     0.6530 H     1 <1>   0.0800 
@<TRIPOS>BOND
  1   1   2  1   
  2   2   3  ar  
  3   2   4  ar  
  4   3   5  1   
  5   3   6  ar  
  6   4   7  ar  
  7   4  18  1   
  8   5   8  2   
  9   5   9  2   
 10   5  10  am  
 11   6  11  ar  
 12   6  19  1   
 13   7  11  ar  
 14   7  20  1   
 15  10  12  1   
 16  10  21  1   
 17  11  13  1   
 18  12  14  1   
 19  12  22  1   
 20  12  23  1   
 21  14  15  1   
 22  14  24  1   
 23  14  25  1   
 24  15  16  1   
 25  15  17  1   
 26  15  26  1   
 27  16  27  1   
 28  16  28  1   
 29  16  29  1   
 30  17  30  1   
 31  17  31  1   
 32  17  32  1   
@<TRIPOS>SUBSTRUCTURE
  1 ****  10 GROUP 4 **** **** 0

# MOE 2024.06 (io_trps.svl 2023.06)
