@<TRIPOS>MOLECULE
NONAME
38 40 1 0 0 
SMALL
USER_CHARGES


@<TRIPOS>ATOM
  1 O        0.7140    -0.7020    -0.8770 O.2   1 <1>  -0.5700 
  2 C        1.7070    -1.2990    -0.6000 C.2   1 <1>   0.4480 
  3 C        3.0710    -0.8320    -1.0980 C.3   1 <1>  -0.0990 
  4 C        1.6570    -2.5430     0.2940 C.3   1 <1>  -0.0990 
  5 C        4.0270    -0.8380     0.0960 C.3   1 <1>  -0.0190 
  6 C        2.7780    -2.5970     1.3610 C.3   1 <1>  -0.1600 
  7 C        5.4930    -0.4880    -0.0360 C.2   1 <1>   0.5690 
  8 C        4.1070    -2.2520     0.6790 C.3   1 <1>  -0.0190 
  9 O        5.9330     0.3450    -0.7850 O.2   1 <1>  -0.5700 
 10 N        6.2060    -1.2330     0.8530 N.am  1 <1>  -0.4200 
 11 C        5.4270    -2.1970     1.4190 C.2   1 <1>   0.5690 
 12 C        7.6870    -1.3130     0.8480 C.3   1 <1>   0.2010 
 13 O        5.7370    -2.9150     2.3340 O.2   1 <1>  -0.5700 
 14 C        8.2190    -2.3670    -0.1300 C.2   1 <1>   0.5690 
 15 O        7.4430    -2.9500    -0.8580 O.2   1 <1>  -0.5700 
 16 N        9.5600    -2.6370    -0.1670 N.am  1 <1>  -0.6600 
 17 C       10.6120    -2.0060     0.6620 C.3   1 <1>   0.1400 
 18 C       10.1360    -3.6590    -1.0690 C.3   1 <1>   0.1400 
 19 C       11.9240    -2.5020     0.0660 C.3   1 <1>  -0.1600 
 20 C       11.5730    -3.8330    -0.5920 C.3   1 <1>  -0.1600 
 21 H        2.9900     0.1620    -1.5020 H     1 <1>   0.0800 
 22 H        3.4220    -1.4880    -1.8750 H     1 <1>   0.0800 
 23 H        1.7340    -3.4050    -0.3430 H     1 <1>   0.0800 
 24 H        0.6970    -2.5860     0.7790 H     1 <1>   0.0800 
 25 H        3.6360    -0.1640     0.8390 H     1 <1>   0.0800 
 26 H        2.8310    -3.5810     1.7950 H     1 <1>   0.0800 
 27 H        2.5730    -1.8930     2.1510 H     1 <1>   0.0800 
 28 H        4.2680    -2.9590    -0.1180 H     1 <1>   0.0800 
 29 H        8.0230    -1.5570     1.8390 H     1 <1>   0.0800 
 30 H        8.0890    -0.3540     0.5740 H     1 <1>   0.0800 
 31 H       10.5130    -2.3490     1.6790 H     1 <1>   0.0800 
 32 H       10.5490    -0.9320     0.6250 H     1 <1>   0.0800 
 33 H       10.1120    -3.2870    -2.0790 H     1 <1>   0.0800 
 34 H        9.5800    -4.5800    -1.0110 H     1 <1>   0.0800 
 35 H       12.6920    -2.6040     0.8130 H     1 <1>   0.0800 
 36 H       12.2550    -1.8030    -0.6820 H     1 <1>   0.0800 
 37 H       12.2350    -4.0800    -1.4030 H     1 <1>   0.0800 
 38 H       11.6030    -4.6240     0.1380 H     1 <1>   0.0800 
@<TRIPOS>BOND
  1   1   2  2   
  2   2   3  1   
  3   2   4  1   
  4   3   5  1   
  5   3  21  1   
  6   3  22  1   
  7   4   6  1   
  8   4  23  1   
  9   4  24  1   
 10   5   7  1   
 11   5   8  1   
 12   5  25  1   
 13   6   8  1   
 14   6  26  1   
 15   6  27  1   
 16   7   9  2   
 17   7  10  am  
 18   8  11  1   
 19   8  28  1   
 20  10  11  am  
 21  10  12  1   
 22  11  13  2   
 23  12  14  1   
 24  12  29  1   
 25  12  30  1   
 26  14  15  2   
 27  14  16  am  
 28  16  17  1   
 29  16  18  1   
 30  17  19  1   
 31  17  31  1   
 32  17  32  1   
 33  18  20  1   
 34  18  33  1   
 35  18  34  1   
 36  19  20  1   
 37  19  35  1   
 38  19  36  1   
 39  20  37  1   
 40  20  38  1   
@<TRIPOS>SUBSTRUCTURE
  1 ****  10 GROUP 4 **** **** 0

# MOE 2024.06 (io_trps.svl 2023.06)
