@<TRIPOS>MOLECULE
NONAME
56 58 1 0 0 
SMALL
USER_CHARGES


@<TRIPOS>ATOM
  1 O        0.8670    -0.7110     1.2210 O.2   1 <1>  -0.5700 
  2 C        1.2270    -1.8330     0.9170 C.2   1 <1>   0.5440 
  3 N        2.5670    -2.1450     1.0080 N.am  1 <1>  -0.6600 
  4 C        0.2400    -2.7910     0.4550 C.ar  1 <1>   0.0860 
  5 C        3.5370    -1.2660     1.7390 C.3   1 <1>   0.1400 
  6 C        3.2380    -3.2100     0.1910 C.3   1 <1>   0.1400 
  7 C        0.2380    -4.1110     0.8970 C.ar  1 <1>  -0.1500 
  8 C       -0.7490    -2.4120    -0.4500 C.ar  1 <1>  -0.1500 
  9 C        4.5900    -0.6800     0.7850 C.3   1 <1>   0.2090 
 10 C        4.3090    -2.6150    -0.7420 C.3   1 <1>   0.2090 
 11 C       -0.6840    -5.0360     0.4450 C.ar  1 <1>   0.0820 
 12 C       -1.7030    -3.3130    -0.9090 C.ar  1 <1>   0.0820 
 13 N        5.2710    -1.7620     0.0130 N.pl3 1 <1>  -0.8380 
 14 O       -0.5340    -6.2950     0.9420 O.3   1 <1>  -0.3630 
 15 C       -1.6810    -4.6340    -0.4540 C.ar  1 <1>   0.0830 
 16 O       -2.6730    -2.9520    -1.8000 O.3   1 <1>  -0.3630 
 17 C        6.4390    -1.4070    -0.6610 C.ar  1 <1>   0.1000 
 18 C       -0.8020    -7.4200     0.1330 C.3   1 <1>   0.0400 
 19 O       -2.6290    -5.5070    -0.8820 O.3   1 <1>  -0.3630 
 20 C       -2.7980    -1.6270    -2.2690 C.3   1 <1>   0.0400 
 21 C        7.6770    -1.9390    -0.2860 C.ar  1 <1>  -0.1430 
 22 C        6.3750    -0.5130    -1.7250 C.ar  1 <1>  -0.1500 
 23 C       -3.8930    -5.3930    -0.2700 C.3   1 <1>   0.0400 
 24 C        8.8150    -1.5610    -0.9890 C.ar  1 <1>  -0.1500 
 25 C        7.7240    -2.9190     0.8900 C.3   1 <1>  -0.0170 
 26 C        7.5120    -0.1450    -2.4150 C.ar  1 <1>  -0.1500 
 27 C        8.7360    -0.6710    -2.0470 C.ar  1 <1>  -0.1500 
 28 C        9.1120    -3.4490     1.2710 C.3   1 <1>  -0.2400 
 29 H        4.0380    -1.8490     2.4910 H     1 <1>   0.0800 
 30 H        3.0230    -0.4630     2.2360 H     1 <1>   0.0800 
 31 H        2.5220    -3.7400    -0.4090 H     1 <1>   0.0800 
 32 H        3.7080    -3.9160     0.8530 H     1 <1>   0.0800 
 33 H        0.9770    -4.4270     1.6120 H     1 <1>   0.1500 
 34 H       -0.7450    -1.3890    -0.7760 H     1 <1>   0.1500 
 35 H        5.3240    -0.1330     1.3510 H     1 <1>   0.0800 
 36 H        4.1100     0.0040     0.1070 H     1 <1>   0.0800 
 37 H        3.8290    -2.0260    -1.5030 H     1 <1>   0.0800 
 38 H        4.8470    -3.4120    -1.2250 H     1 <1>   0.0800 
 39 H       -0.2650    -8.2590     0.5360 H     1 <1>   0.0800 
 40 H       -0.4750    -7.2200    -0.8720 H     1 <1>   0.0800 
 41 H       -1.8580    -7.6210     0.1550 H     1 <1>   0.0800 
 42 H       -3.6420    -1.5870    -2.9330 H     1 <1>   0.0800 
 43 H       -1.9030    -1.3590    -2.8020 H     1 <1>   0.0800 
 44 H       -2.9610    -0.9720    -1.4310 H     1 <1>   0.0800 
 45 H        5.4240    -0.1060    -2.0090 H     1 <1>   0.1500 
 46 H       -4.5290    -6.1630    -0.6670 H     1 <1>   0.0800 
 47 H       -4.3070    -4.4250    -0.4910 H     1 <1>   0.0800 
 48 H       -3.7770    -5.5180     0.7920 H     1 <1>   0.0800 
 49 H        9.7820    -1.9490    -0.7310 H     1 <1>   0.1500 
 50 H        7.0910    -3.7560     0.6540 H     1 <1>   0.0800 
 51 H        7.2980    -2.4310     1.7490 H     1 <1>   0.0800 
 52 H        7.4480     0.5470    -3.2360 H     1 <1>   0.1500 
 53 H        9.6270    -0.3900    -2.5800 H     1 <1>   0.1500 
 54 H        9.5470    -3.9860     0.4470 H     1 <1>   0.0800 
 55 H        9.0280    -4.1190     2.1080 H     1 <1>   0.0800 
 56 H        9.7590    -2.6360     1.5490 H     1 <1>   0.0800 
@<TRIPOS>BOND
  1   1   2  2   
  2   2   3  am  
  3   2   4  1   
  4   3   5  1   
  5   3   6  1   
  6   4   7  ar  
  7   4   8  ar  
  8   5   9  1   
  9   5  29  1   
 10   5  30  1   
 11   6  10  1   
 12   6  31  1   
 13   6  32  1   
 14   7  11  ar  
 15   7  33  1   
 16   8  12  ar  
 17   8  34  1   
 18   9  13  1   
 19   9  35  1   
 20   9  36  1   
 21  10  13  1   
 22  10  37  1   
 23  10  38  1   
 24  11  14  1   
 25  11  15  ar  
 26  12  15  ar  
 27  12  16  1   
 28  13  17  1   
 29  14  18  1   
 30  15  19  1   
 31  16  20  1   
 32  17  21  ar  
 33  17  22  ar  
 34  18  39  1   
 35  18  40  1   
 36  18  41  1   
 37  19  23  1   
 38  20  42  1   
 39  20  43  1   
 40  20  44  1   
 41  21  24  ar  
 42  21  25  1   
 43  22  26  ar  
 44  22  45  1   
 45  23  46  1   
 46  23  47  1   
 47  23  48  1   
 48  24  27  ar  
 49  24  49  1   
 50  25  28  1   
 51  25  50  1   
 52  25  51  1   
 53  26  27  ar  
 54  26  52  1   
 55  27  53  1   
 56  28  54  1   
 57  28  55  1   
 58  28  56  1   
@<TRIPOS>SUBSTRUCTURE
  1 ****   6 GROUP 4 **** **** 0

# MOE 2024.06 (io_trps.svl 2023.06)
