@<TRIPOS>MOLECULE
NONAME
49 51 1 0 0 
SMALL
USER_CHARGES


@<TRIPOS>ATOM
  1 O       -0.5360     2.5340    -2.4980 O.2   1 <1>  -0.5700 
  2 C        0.0850     2.2220    -1.5100 C.2   1 <1>   0.5690 
  3 N       -0.5000     1.6530    -0.4270 N.am  1 <1>  -0.7300 
  4 C        1.5970     2.4680    -1.4560 C.3   1 <1>   0.1710 
  5 C       -1.9120     1.2800    -0.2780 C.3   1 <1>   0.2200 
  6 N        2.3260     1.6090    -0.4720 N.3   1 <1>  -0.8100 
  7 C       -2.4480     1.9930     0.9680 C.3   1 <1>  -0.1600 
  8 C       -1.9890    -0.2520    -0.2330 C.3   1 <1>  -0.1600 
  9 C        3.6710     2.1450    -0.2160 C.3   1 <1>   0.1100 
 10 C        2.4000     0.2160    -0.9530 C.3   1 <1>   0.1100 
 11 C       -3.8980     1.6460     1.3460 C.3   1 <1>  -0.1600 
 12 C       -3.4250    -0.7730    -0.3980 C.3   1 <1>  -0.1600 
 13 C        4.3410     1.3400     0.8980 C.3   1 <1>  -0.1600 
 14 C        3.0130    -0.6680     0.1310 C.3   1 <1>  -0.1600 
 15 C       -4.0270     0.2360     1.9400 C.3   1 <1>  -0.1600 
 16 C       -4.2270    -0.8840     0.9080 C.3   1 <1>  -0.1600 
 17 C        4.3860    -0.1430     0.5280 C.3   1 <1>   0.5600 
 18 O        4.8770    -0.8980     1.5830 O.3   1 <1>  -0.5600 
 19 O        5.2760    -0.3540    -0.5210 O.3   1 <1>  -0.5600 
 20 C        6.2470    -1.0140     1.4520 C.3   1 <1>   0.1200 
 21 C        6.5120    -0.7000    -0.0070 C.3   1 <1>   0.1200 
 22 H        0.1380     1.3780     0.3260 H     1 <1>   0.3700 
 23 H        1.7320     3.5010    -1.1920 H     1 <1>   0.0800 
 24 H        2.0060     2.3240    -2.4410 H     1 <1>   0.0800 
 25 H       -2.4540     1.6310    -1.1410 H     1 <1>   0.0800 
 26 H       -2.3990     3.0510     0.7800 H     1 <1>   0.0800 
 27 H       -1.8070     1.7830     1.8060 H     1 <1>   0.0800 
 28 H       -1.5500    -0.6310     0.6730 H     1 <1>   0.0800 
 29 H       -1.4150    -0.6290    -1.0620 H     1 <1>   0.0800 
 30 H        3.5990     3.1740     0.0920 H     1 <1>   0.0800 
 31 H        4.2650     2.0950    -1.1140 H     1 <1>   0.0800 
 32 H        3.0000     0.1660    -1.8470 H     1 <1>   0.0800 
 33 H        1.4150    -0.1500    -1.1860 H     1 <1>   0.0800 
 34 H       -4.5540     1.7680     0.5020 H     1 <1>   0.0800 
 35 H       -4.2130     2.3500     2.0980 H     1 <1>   0.0800 
 36 H       -3.3870    -1.7520    -0.8440 H     1 <1>   0.0800 
 37 H       -3.9550    -0.1410    -1.0900 H     1 <1>   0.0800 
 38 H        3.7670     1.4590     1.7980 H     1 <1>   0.0800 
 39 H        5.3320     1.7130     1.0720 H     1 <1>   0.0800 
 40 H        3.1040    -1.6780    -0.2220 H     1 <1>   0.0800 
 41 H        2.3680    -0.6610     0.9900 H     1 <1>   0.0800 
 42 H       -4.8720     0.2210     2.6070 H     1 <1>   0.0800 
 43 H       -3.1590     0.0190     2.5400 H     1 <1>   0.0800 
 44 H       -3.9820    -1.8180     1.3850 H     1 <1>   0.0800 
 45 H       -5.2710    -0.9320     0.6490 H     1 <1>   0.0800 
 46 H        6.5430    -2.0140     1.7140 H     1 <1>   0.0800 
 47 H        6.7220    -0.3010     2.1030 H     1 <1>   0.0800 
 48 H        7.1870     0.1300    -0.1200 H     1 <1>   0.0800 
 49 H        6.8820    -1.5570    -0.5410 H     1 <1>   0.0800 
@<TRIPOS>BOND
  1   1   2  2   
  2   2   3  am  
  3   2   4  1   
  4   3   5  1   
  5   3  22  1   
  6   4   6  1   
  7   4  23  1   
  8   4  24  1   
  9   5   7  1   
 10   5   8  1   
 11   5  25  1   
 12   6   9  1   
 13   6  10  1   
 14   7  11  1   
 15   7  26  1   
 16   7  27  1   
 17   8  12  1   
 18   8  28  1   
 19   8  29  1   
 20   9  13  1   
 21   9  30  1   
 22   9  31  1   
 23  10  14  1   
 24  10  32  1   
 25  10  33  1   
 26  11  15  1   
 27  11  34  1   
 28  11  35  1   
 29  12  16  1   
 30  12  36  1   
 31  12  37  1   
 32  13  17  1   
 33  13  38  1   
 34  13  39  1   
 35  14  17  1   
 36  14  40  1   
 37  14  41  1   
 38  15  16  1   
 39  15  42  1   
 40  15  43  1   
 41  16  44  1   
 42  16  45  1   
 43  17  18  1   
 44  17  19  1   
 45  18  20  1   
 46  19  21  1   
 47  20  21  1   
 48  20  46  1   
 49  20  47  1   
 50  21  48  1   
 51  21  49  1   
@<TRIPOS>SUBSTRUCTURE
  1 ****   6 GROUP 4 **** **** 0

# MOE 2024.06 (io_trps.svl 2023.06)
