@<TRIPOS>MOLECULE
NONAME
40 41 1 0 0 
SMALL
USER_CHARGES


@<TRIPOS>ATOM
  1 S        0.0750     0.3500     1.1960 S.o2  1 <1>   1.3330 
  2 O        0.6840     0.2440     2.5010 O.2   1 <1>  -0.6500 
  3 O       -0.0790     1.6440     0.5720 O.2   1 <1>  -0.6500 
  4 N       -1.4710    -0.2520     1.4430 N.am  1 <1>  -0.9140 
  5 C        0.8040    -0.8430     0.0640 C.3   1 <1>   0.0890 
  6 C       -2.4970     0.3340     0.5880 C.3   1 <1>   0.1960 
  7 C        2.2520    -0.5470    -0.3050 C.ar  1 <1>  -0.1430 
  8 C       -3.8380    -0.3620     0.8340 C.3   1 <1>  -0.0220 
  9 C        2.5730    -0.0600    -1.5640 C.ar  1 <1>  -0.1500 
 10 C        3.2620    -0.7620     0.6200 C.ar  1 <1>  -0.1500 
 11 C       -4.9770     0.1640    -0.0380 C.2   1 <1>  -0.2760 
 12 C        3.8910     0.2030    -1.8950 C.ar  1 <1>  -0.1500 
 13 C        4.5800    -0.4980     0.2900 C.ar  1 <1>  -0.1500 
 14 C       -4.8870     1.1760    -0.9120 C.2   1 <1>  -0.2880 
 15 C       -6.2790    -0.6030     0.1820 C.3   1 <1>  -0.0220 
 16 C        4.8950    -0.0170    -0.9690 C.ar  1 <1>  -0.1500 
 17 C       -6.0310     1.6600    -1.7900 C.3   1 <1>  -0.0220 
 18 C       -7.4920     0.1290    -0.4120 C.3   1 <1>  -0.1600 
 19 C       -7.1860     0.6500    -1.8200 C.3   1 <1>  -0.1600 
 20 H       -1.6730     0.0160     2.4070 H     1 <1>   0.4200 
 21 H        0.2150    -0.8770    -0.8310 H     1 <1>   0.0800 
 22 H        0.7610    -1.8160     0.5120 H     1 <1>   0.0800 
 23 H       -2.2210     0.2130    -0.4470 H     1 <1>   0.0800 
 24 H       -2.5930     1.3870     0.7970 H     1 <1>   0.0800 
 25 H       -4.1090    -0.2360     1.8670 H     1 <1>   0.0800 
 26 H       -3.7140    -1.4130     0.6410 H     1 <1>   0.0800 
 27 H        1.8030     0.1220    -2.2930 H     1 <1>   0.1500 
 28 H        3.0300    -1.1290     1.6060 H     1 <1>   0.1500 
 29 H        4.1360     0.5810    -2.8720 H     1 <1>   0.1500 
 30 H        5.3590    -0.6650     1.0130 H     1 <1>   0.1500 
 31 H       -3.9940     1.7520    -1.0800 H     1 <1>   0.1500 
 32 H       -6.4510    -0.7440     1.2350 H     1 <1>   0.0800 
 33 H       -6.1900    -1.5740    -0.2720 H     1 <1>   0.0800 
 34 H        5.9200     0.1880    -1.2250 H     1 <1>   0.1500 
 35 H       -5.6760     1.8160    -2.7930 H     1 <1>   0.0800 
 36 H       -6.3830     2.6030    -1.4090 H     1 <1>   0.0800 
 37 H       -7.7450     0.9610     0.2220 H     1 <1>   0.0800 
 38 H       -8.3360    -0.5370    -0.4410 H     1 <1>   0.0800 
 39 H       -6.9130    -0.1790    -2.4500 H     1 <1>   0.0800 
 40 H       -8.0600     1.1150    -2.2410 H     1 <1>   0.0800 
@<TRIPOS>BOND
  1   1   2  2   
  2   1   3  2   
  3   1   4  am  
  4   1   5  1   
  5   4   6  1   
  6   4  20  1   
  7   5   7  1   
  8   5  21  1   
  9   5  22  1   
 10   6   8  1   
 11   6  23  1   
 12   6  24  1   
 13   7   9  ar  
 14   7  10  ar  
 15   8  11  1   
 16   8  25  1   
 17   8  26  1   
 18   9  12  ar  
 19   9  27  1   
 20  10  13  ar  
 21  10  28  1   
 22  11  14  2   
 23  11  15  1   
 24  12  16  ar  
 25  12  29  1   
 26  13  16  ar  
 27  13  30  1   
 28  14  17  1   
 29  14  31  1   
 30  15  18  1   
 31  15  32  1   
 32  15  33  1   
 33  16  34  1   
 34  17  19  1   
 35  17  35  1   
 36  17  36  1   
 37  18  19  1   
 38  18  37  1   
 39  18  38  1   
 40  19  39  1   
 41  19  40  1   
@<TRIPOS>SUBSTRUCTURE
  1 ****   6 GROUP 4 **** **** 0

# MOE 2024.06 (io_trps.svl 2023.06)
