@<TRIPOS>MOLECULE
NONAME
46 48 1 0 0 
SMALL
USER_CHARGES


@<TRIPOS>ATOM
  1 O        1.1820    -3.4040    -0.3220 O.3   1 <1>  -0.5600 
  2 C        0.7500    -4.4140    -1.1920 C.3   1 <1>   0.2000 
  3 C        0.8750    -3.5280     1.0440 C.3   1 <1>   0.2000 
  4 C       -0.7960    -4.5500    -1.1520 C.3   1 <1>   0.3430 
  5 C        1.4930    -5.7180    -0.8730 C.3   1 <1>  -0.2400 
  6 C       -0.5240    -4.1590     1.2780 C.3   1 <1>   0.3430 
  7 C        0.9570    -2.1160     1.6210 C.3   1 <1>  -0.2400 
  8 N       -1.4080    -3.9590     0.0890 N.4   1 <1>  -0.9590 
  9 C       -2.8460    -4.3050     0.3010 C.3   1 <1>   0.3430 
 10 C       -3.7460    -3.4830    -0.6470 C.3   1 <1>   0.2000 
 11 O       -3.2060    -2.2040    -0.7870 O.3   1 <1>  -0.6800 
 12 C       -5.1890    -3.3620    -0.1390 C.3   1 <1>   0.1200 
 13 O       -5.8850    -2.4690    -0.9830 O.3   1 <1>  -0.3630 
 14 C       -7.1950    -2.1790    -0.7660 C.ar  1 <1>   0.0820 
 15 C       -7.9280    -2.6950     0.3060 C.ar  1 <1>  -0.1500 
 16 C       -7.8010    -1.3190    -1.6810 C.ar  1 <1>  -0.1500 
 17 C       -9.2530    -2.3220     0.4150 C.ar  1 <1>   0.0820 
 18 C       -9.1360    -0.9590    -1.5500 C.ar  1 <1>  -0.1500 
 19 O      -10.1370    -2.6890     1.3480 O.3   1 <1>  -0.3620 
 20 C       -9.8400    -1.4810    -0.4840 C.ar  1 <1>   0.0820 
 21 C      -11.3650    -2.0380     1.0250 C.3   1 <1>   0.4000 
 22 O      -11.1220    -1.2780    -0.1570 O.3   1 <1>  -0.3620 
 23 H        1.0370    -4.1060    -2.1840 H     1 <1>   0.0800 
 24 H        1.6330    -4.1410     1.5040 H     1 <1>   0.0800 
 25 H       -1.0480    -5.5940    -1.2290 H     1 <1>   0.0800 
 26 H       -1.2050    -4.0550    -2.0180 H     1 <1>   0.0800 
 27 H        1.2060    -6.1280     0.0770 H     1 <1>   0.0800 
 28 H        2.5550    -5.5400    -0.8770 H     1 <1>   0.0800 
 29 H        1.2810    -6.4520    -1.6300 H     1 <1>   0.0800 
 30 H       -0.9650    -3.7180     2.1560 H     1 <1>   0.0800 
 31 H       -0.4030    -5.2120     1.4650 H     1 <1>   0.0800 
 32 H        0.2320    -1.4720     1.1580 H     1 <1>   0.0800 
 33 H        1.9410    -1.7120     1.4520 H     1 <1>   0.0800 
 34 H        0.7810    -2.1320     2.6810 H     1 <1>   0.0800 
 35 H       -1.4210    -2.9340    -0.0940 H     1 <1>   0.4500 
 36 H       -3.1220    -4.0600     1.3130 H     1 <1>   0.0800 
 37 H       -3.0130    -5.3600     0.1580 H     1 <1>   0.0800 
 38 H       -3.7580    -3.9410    -1.6210 H     1 <1>   0.0800 
 39 H       -3.8890    -1.6190    -1.1920 H     1 <1>   0.4000 
 40 H       -5.2080    -2.9680     0.8620 H     1 <1>   0.0800 
 41 H       -5.6870    -4.3160    -0.1700 H     1 <1>   0.0800 
 42 H       -7.5200    -3.3580     1.0410 H     1 <1>   0.1500 
 43 H       -7.2230    -0.9310    -2.5000 H     1 <1>   0.1500 
 44 H       -9.6170    -0.2970    -2.2480 H     1 <1>   0.1500 
 45 H      -11.6460    -1.3780     1.8270 H     1 <1>   0.0800 
 46 H      -12.1240    -2.7750     0.8310 H     1 <1>   0.0800 
@<TRIPOS>BOND
  1   1   2  1   
  2   1   3  1   
  3   2   4  1   
  4   2   5  1   
  5   2  23  1   
  6   3   6  1   
  7   3   7  1   
  8   3  24  1   
  9   4   8  1   
 10   4  25  1   
 11   4  26  1   
 12   5  27  1   
 13   5  28  1   
 14   5  29  1   
 15   6   8  1   
 16   6  30  1   
 17   6  31  1   
 18   7  32  1   
 19   7  33  1   
 20   7  34  1   
 21   8   9  1   
 22   8  35  1   
 23   9  10  1   
 24   9  36  1   
 25   9  37  1   
 26  10  11  1   
 27  10  12  1   
 28  10  38  1   
 29  11  39  1   
 30  12  13  1   
 31  12  40  1   
 32  12  41  1   
 33  13  14  1   
 34  14  15  ar  
 35  14  16  ar  
 36  15  17  ar  
 37  15  42  1   
 38  16  18  ar  
 39  16  43  1   
 40  17  19  1   
 41  17  20  ar  
 42  18  20  ar  
 43  18  44  1   
 44  19  21  1   
 45  20  22  1   
 46  21  22  1   
 47  21  45  1   
 48  21  46  1   
@<TRIPOS>SUBSTRUCTURE
  1 ****  12 GROUP 4 **** **** 0

# MOE 2024.06 (io_trps.svl 2023.06)
