@<TRIPOS>MOLECULE
NONAME
50 52 1 0 0 
SMALL
USER_CHARGES


@<TRIPOS>ATOM
  1 S        1.0000     0.3900     0.4530 S.o2  1 <1>   1.3330 
  2 O       -0.0080    -0.6340     0.5620 O.2   1 <1>  -0.6500 
  3 O        2.2820     0.2210     1.1000 O.2   1 <1>  -0.6500 
  4 N        0.3410     1.8830     1.0300 N.am  1 <1>  -0.6930 
  5 C        1.2710     0.7590    -1.2680 C.3   1 <1>  -0.1350 
  6 C       -0.9130     2.3450     0.6360 C.ar  1 <1>   0.1990 
  7 C        1.2500     2.7860     1.8040 C.3   1 <1>   0.2570 
  8 C       -2.0620     1.6130     0.9110 C.ar  1 <1>  -0.1500 
  9 C       -1.0480     3.5520    -0.0430 C.ar  1 <1>  -0.1500 
 10 C        2.3580     3.4400     0.9690 C.2   1 <1>   0.5690 
 11 C       -3.3070     2.0670     0.5150 C.ar  1 <1>  -0.1500 
 12 C       -2.2910     4.0090    -0.4390 C.ar  1 <1>  -0.1500 
 13 O        2.2110     4.5810     0.6000 O.2   1 <1>  -0.5700 
 14 N        3.4790     2.7340     0.6640 N.am  1 <1>  -0.7300 
 15 C       -3.4300     3.2690    -0.1640 C.ar  1 <1>  -0.1430 
 16 C        4.6510     3.2590    -0.0630 C.3   1 <1>   0.2200 
 17 C       -4.7970     3.7710    -0.5990 C.3   1 <1>  -0.0170 
 18 C        4.9660     2.4810    -1.3570 C.3   1 <1>  -0.0800 
 19 C        5.9360     3.0930     0.7620 C.3   1 <1>  -0.1600 
 20 C       -5.4200     4.6450     0.4920 C.3   1 <1>  -0.2400 
 21 C        6.4350     2.8330    -1.5410 C.3   1 <1>  -0.1600 
 22 C        5.0760     0.9650    -1.0910 C.3   1 <1>  -0.1600 
 23 C        6.8610     2.3020    -0.1810 C.3   1 <1>  -0.0800 
 24 C        6.3570     0.8510    -0.2480 C.3   1 <1>  -0.1600 
 25 H        1.7170    -0.0830    -1.7590 H     1 <1>   0.0800 
 26 H        1.9210     1.6050    -1.3730 H     1 <1>   0.0800 
 27 H        0.3380     0.9810    -1.7470 H     1 <1>   0.0800 
 28 H        1.7040     2.2270     2.6020 H     1 <1>   0.0800 
 29 H        0.6660     3.5680     2.2540 H     1 <1>   0.0800 
 30 H       -1.9800     0.6820     1.4420 H     1 <1>   0.1500 
 31 H       -0.1780     4.1400    -0.2700 H     1 <1>   0.1500 
 32 H       -4.1810     1.4810     0.7400 H     1 <1>   0.1500 
 33 H       -2.3700     4.9470    -0.9610 H     1 <1>   0.1500 
 34 H        3.5420     1.7450     0.9440 H     1 <1>   0.3700 
 35 H        4.5050     4.3020    -0.2960 H     1 <1>   0.0800 
 36 H       -5.4430     2.9340    -0.8040 H     1 <1>   0.0800 
 37 H       -4.7030     4.3390    -1.5080 H     1 <1>   0.0800 
 38 H        4.3360     2.7500    -2.1860 H     1 <1>   0.0800 
 39 H        5.7740     2.5780     1.6920 H     1 <1>   0.0800 
 40 H        6.3600     4.0610     0.9620 H     1 <1>   0.0800 
 41 H       -5.5340     4.0790     1.3990 H     1 <1>   0.0800 
 42 H       -6.3860     4.9980     0.1780 H     1 <1>   0.0800 
 43 H       -4.7880     5.4920     0.6920 H     1 <1>   0.0800 
 44 H        6.6040     3.8920    -1.6480 H     1 <1>   0.0800 
 45 H        6.8950     2.3020    -2.3580 H     1 <1>   0.0800 
 46 H        5.2030     0.4390    -2.0220 H     1 <1>   0.0800 
 47 H        4.2240     0.5570    -0.5830 H     1 <1>   0.0800 
 48 H        7.9090     2.3950     0.0470 H     1 <1>   0.0800 
 49 H        7.0770     0.2270    -0.7480 H     1 <1>   0.0800 
 50 H        6.1610     0.4480     0.7310 H     1 <1>   0.0800 
@<TRIPOS>BOND
  1   1   2  2   
  2   1   3  2   
  3   1   4  am  
  4   1   5  1   
  5   4   6  1   
  6   4   7  1   
  7   5  25  1   
  8   5  26  1   
  9   5  27  1   
 10   6   8  ar  
 11   6   9  ar  
 12   7  10  1   
 13   7  28  1   
 14   7  29  1   
 15   8  11  ar  
 16   8  30  1   
 17   9  12  ar  
 18   9  31  1   
 19  10  13  2   
 20  10  14  am  
 21  11  15  ar  
 22  11  32  1   
 23  12  15  ar  
 24  12  33  1   
 25  14  16  1   
 26  14  34  1   
 27  15  17  1   
 28  16  18  1   
 29  16  19  1   
 30  16  35  1   
 31  17  20  1   
 32  17  36  1   
 33  17  37  1   
 34  18  21  1   
 35  18  22  1   
 36  18  38  1   
 37  19  23  1   
 38  19  39  1   
 39  19  40  1   
 40  20  41  1   
 41  20  42  1   
 42  20  43  1   
 43  21  23  1   
 44  21  44  1   
 45  21  45  1   
 46  22  24  1   
 47  22  46  1   
 48  22  47  1   
 49  23  24  1   
 50  23  48  1   
 51  24  49  1   
 52  24  50  1   
@<TRIPOS>SUBSTRUCTURE
  1 ****   4 GROUP 4 **** **** 0

# MOE 2024.06 (io_trps.svl 2023.06)
