@<TRIPOS>MOLECULE
NONAME
36 37 1 0 0 
SMALL
USER_CHARGES


@<TRIPOS>ATOM
  1 CL       0.4110     0.3480     1.7310 Cl    1 <1>  -0.1770 
  2 C        1.7690     1.0830     0.9130 C.ar  1 <1>   0.1770 
  3 C        2.6710     0.2810     0.2390 C.ar  1 <1>  -0.1500 
  4 C        1.9200     2.4570     0.9490 C.ar  1 <1>  -0.1500 
  5 C        3.7470     0.8660    -0.4040 C.ar  1 <1>  -0.1500 
  6 C        2.9990     3.0340     0.3030 C.ar  1 <1>  -0.1500 
  7 C        3.9280     2.2460    -0.3710 C.ar  1 <1>   0.1000 
  8 N        5.0200     2.8130    -1.0130 N.pl3 1 <1>  -0.8690 
  9 C        5.9500     3.6300    -0.2280 C.3   1 <1>   0.2890 
 10 C        6.0930     4.9840    -0.9130 C.3   1 <1>  -0.1600 
 11 C        7.2950     2.9150    -0.1470 C.3   1 <1>  -0.1600 
 12 C        7.1400     5.8360    -0.2050 C.3   1 <1>   0.3430 
 13 C        8.3240     3.7970     0.5540 C.3   1 <1>   0.3430 
 14 N        8.4430     5.1070    -0.1580 N.4   1 <1>  -0.9590 
 15 C        9.4950     5.9740     0.4370 C.3   1 <1>   0.3430 
 16 C       10.8740     5.4200     0.0950 C.3   1 <1>  -0.2400 
 17 H        2.5270    -0.7840     0.2210 H     1 <1>   0.1500 
 18 H        1.1990     3.0590     1.4720 H     1 <1>   0.1500 
 19 H        4.4500     0.2500    -0.9330 H     1 <1>   0.1500 
 20 H        3.1170     4.1010     0.3100 H     1 <1>   0.1500 
 21 H        5.4950     2.1690    -1.6530 H     1 <1>   0.4000 
 22 H        5.5600     3.7690     0.7690 H     1 <1>   0.0800 
 23 H        5.1460     5.4940    -0.8830 H     1 <1>   0.0800 
 24 H        6.3680     4.8540    -1.9440 H     1 <1>   0.0800 
 25 H        7.6500     2.6660    -1.1310 H     1 <1>   0.0800 
 26 H        7.1760     2.0040     0.4120 H     1 <1>   0.0800 
 27 H        6.8080     6.0560     0.7970 H     1 <1>   0.0800 
 28 H        7.2570     6.7690    -0.7340 H     1 <1>   0.0800 
 29 H        9.2760     3.2900     0.5630 H     1 <1>   0.0800 
 30 H        8.0210     3.9620     1.5750 H     1 <1>   0.0800 
 31 H        8.7220     4.9120    -1.1300 H     1 <1>   0.4500 
 32 H        9.3720     6.0330     1.5070 H     1 <1>   0.0800 
 33 H        9.4150     6.9710     0.0330 H     1 <1>   0.0800 
 34 H       11.0440     4.4650     0.5570 H     1 <1>   0.0800 
 35 H       11.6240     6.0970     0.4650 H     1 <1>   0.0800 
 36 H       11.0020     5.3380    -0.9700 H     1 <1>   0.0800 
@<TRIPOS>BOND
  1   1   2  1   
  2   2   3  ar  
  3   2   4  ar  
  4   3   5  ar  
  5   3  17  1   
  6   4   6  ar  
  7   4  18  1   
  8   5   7  ar  
  9   5  19  1   
 10   6   7  ar  
 11   6  20  1   
 12   7   8  1   
 13   8   9  1   
 14   8  21  1   
 15   9  10  1   
 16   9  11  1   
 17   9  22  1   
 18  10  12  1   
 19  10  23  1   
 20  10  24  1   
 21  11  13  1   
 22  11  25  1   
 23  11  26  1   
 24  12  14  1   
 25  12  27  1   
 26  12  28  1   
 27  13  14  1   
 28  13  29  1   
 29  13  30  1   
 30  14  15  1   
 31  14  31  1   
 32  15  16  1   
 33  15  32  1   
 34  15  33  1   
 35  16  34  1   
 36  16  35  1   
 37  16  36  1   
@<TRIPOS>SUBSTRUCTURE
  1 ****   9 GROUP 4 **** **** 0

# MOE 2024.06 (io_trps.svl 2023.06)
