@<TRIPOS>MOLECULE
NONAME
43 44 1 0 0 
SMALL
USER_CHARGES


@<TRIPOS>ATOM
  1 CL      -1.3780     0.4610     3.0340 Cl    1 <1>  -0.1770 
  2 C       -2.5920     0.2910     1.7930 C.ar  1 <1>   0.1770 
  3 C       -3.1910     1.4180     1.2740 C.ar  1 <1>  -0.1500 
  4 C       -2.9370    -0.9690     1.3520 C.ar  1 <1>  -0.1500 
  5 C       -4.1620     1.2850     0.2830 C.ar  1 <1>   0.0830 
  6 C       -3.9010    -1.0930     0.3670 C.ar  1 <1>  -0.1500 
  7 O       -4.7860     2.3680    -0.2390 O.3   1 <1>  -0.3630 
  8 C       -4.5240     0.0210    -0.1920 C.ar  1 <1>  -0.0090 
  9 C       -4.2770     3.6770    -0.0900 C.3   1 <1>   0.0400 
 10 S       -5.7860    -0.2210    -1.4800 S.o2  1 <1>   1.4470 
 11 O       -5.5310    -1.5050    -2.1000 O.2   1 <1>  -0.6500 
 12 O       -5.9630     0.9180    -2.3550 O.2   1 <1>  -0.6500 
 13 N       -7.2370    -0.3970    -0.6150 N.am  1 <1>  -0.8490 
 14 C       -8.2750    -0.9960    -1.4580 C.3   1 <1>   0.1960 
 15 C       -7.6890     0.8740    -0.0410 C.3   1 <1>   0.1960 
 16 C       -9.5350    -1.2800    -0.6370 C.3   1 <1>  -0.1600 
 17 C       -8.9260     0.6550     0.8320 C.3   1 <1>  -0.1600 
 18 C      -10.0670    -0.0040     0.0350 C.3   1 <1>  -0.0190 
 19 C      -11.3030    -0.2950     0.8850 C.2   1 <1>   0.6590 
 20 O      -11.3110    -0.1860     2.0850 O.2   1 <1>  -0.5700 
 21 O      -12.3800    -0.6750     0.2090 O.3   1 <1>  -0.4300 
 22 C      -13.5890    -0.9810     0.8640 C.3   1 <1>   0.1200 
 23 C      -14.6090    -1.3920    -0.1930 C.3   1 <1>  -0.2400 
 24 H       -2.8930     2.3740     1.6580 H     1 <1>   0.1500 
 25 H       -2.4600    -1.8360     1.7730 H     1 <1>   0.1500 
 26 H       -4.1750    -2.0770     0.0220 H     1 <1>   0.1500 
 27 H       -4.8630     4.3330    -0.7080 H     1 <1>   0.0800 
 28 H       -3.2510     3.6930    -0.4130 H     1 <1>   0.0800 
 29 H       -4.3640     3.9730     0.9400 H     1 <1>   0.0800 
 30 H       -7.9210    -1.9280    -1.8680 H     1 <1>   0.0800 
 31 H       -8.5040    -0.3360    -2.2800 H     1 <1>   0.0800 
 32 H       -7.9100     1.5790    -0.8270 H     1 <1>   0.0800 
 33 H       -6.9130     1.2920     0.5760 H     1 <1>   0.0800 
 34 H       -9.3020    -2.0180     0.1110 H     1 <1>   0.0800 
 35 H      -10.2890    -1.6930    -1.2830 H     1 <1>   0.0800 
 36 H       -9.2570     1.6000     1.2250 H     1 <1>   0.0800 
 37 H       -8.6530     0.0320     1.6670 H     1 <1>   0.0800 
 38 H      -10.3730     0.6810    -0.7350 H     1 <1>   0.0800 
 39 H      -13.9180    -0.1060     1.4000 H     1 <1>   0.0800 
 40 H      -13.4070    -1.7830     1.5600 H     1 <1>   0.0800 
 41 H      -14.7720    -0.5860    -0.8850 H     1 <1>   0.0800 
 42 H      -15.5430    -1.6320     0.2810 H     1 <1>   0.0800 
 43 H      -14.2620    -2.2600    -0.7240 H     1 <1>   0.0800 
@<TRIPOS>BOND
  1   1   2  1   
  2   2   3  ar  
  3   2   4  ar  
  4   3   5  ar  
  5   3  24  1   
  6   4   6  ar  
  7   4  25  1   
  8   5   7  1   
  9   5   8  ar  
 10   6   8  ar  
 11   6  26  1   
 12   7   9  1   
 13   8  10  1   
 14   9  27  1   
 15   9  28  1   
 16   9  29  1   
 17  10  11  2   
 18  10  12  2   
 19  10  13  am  
 20  13  14  1   
 21  13  15  1   
 22  14  16  1   
 23  14  30  1   
 24  14  31  1   
 25  15  17  1   
 26  15  32  1   
 27  15  33  1   
 28  16  18  1   
 29  16  34  1   
 30  16  35  1   
 31  17  18  1   
 32  17  36  1   
 33  17  37  1   
 34  18  19  1   
 35  18  38  1   
 36  19  20  2   
 37  19  21  1   
 38  21  22  1   
 39  22  23  1   
 40  22  39  1   
 41  22  40  1   
 42  23  41  1   
 43  23  42  1   
 44  23  43  1   
@<TRIPOS>SUBSTRUCTURE
  1 ****  13 GROUP 4 **** **** 0

# MOE 2024.06 (io_trps.svl 2023.06)
