@<TRIPOS>MOLECULE
NONAME
39 39 1 0 0 
SMALL
USER_CHARGES


@<TRIPOS>ATOM
  1 O        0.4240    -1.0970    -1.0980 O.2   1 <1>  -0.5700 
  2 C        0.1270    -1.7680    -0.1280 C.2   1 <1>   0.5440 
  3 N        1.0720    -1.9590     0.8420 N.am  1 <1>  -0.7300 
  4 C       -1.2000    -2.3440     0.0010 C.ar  1 <1>   0.0860 
  5 C        2.4370    -1.3700     0.8300 C.3   1 <1>   0.1400 
  6 C       -2.3000    -1.7550    -0.6270 C.ar  1 <1>  -0.1500 
  7 C       -1.4370    -3.5010     0.7480 C.ar  1 <1>  -0.1500 
  8 C        3.3210    -2.0810    -0.1950 C.3   1 <1>   0.1200 
  9 C       -3.5740    -2.2790    -0.5100 C.ar  1 <1>  -0.1500 
 10 C       -2.7080    -4.0300     0.8710 C.ar  1 <1>  -0.1500 
 11 O        4.6390    -1.6700    -0.0030 O.3   1 <1>  -0.5600 
 12 C       -3.7870    -3.4260     0.2480 C.ar  1 <1>   0.0830 
 13 C        5.5270    -2.1830    -0.9430 C.3   1 <1>   0.0400 
 14 O       -4.9960    -4.0050     0.4190 O.3   1 <1>  -0.3630 
 15 C       -6.1590    -3.4840    -0.1810 C.3   1 <1>   0.1200 
 16 C       -7.3390    -4.3750     0.2090 C.3   1 <1>  -0.1600 
 17 C       -8.6480    -3.8670    -0.4110 C.3   1 <1>  -0.1600 
 18 C       -9.8250    -4.7630    -0.0180 C.3   1 <1>  -0.2400 
 19 H        0.8000    -2.4160     1.7130 H     1 <1>   0.3700 
 20 H        2.8720    -1.4680     1.8080 H     1 <1>   0.0800 
 21 H        2.3720    -0.3250     0.5760 H     1 <1>   0.0800 
 22 H       -2.1430    -0.8680    -1.2180 H     1 <1>   0.1500 
 23 H       -0.6180    -4.0000     1.2320 H     1 <1>   0.1500 
 24 H        3.0130    -1.8190    -1.1920 H     1 <1>   0.0800 
 25 H        3.2750    -3.1470    -0.0560 H     1 <1>   0.0800 
 26 H       -4.3830    -1.7850    -1.0120 H     1 <1>   0.1500 
 27 H       -2.8760    -4.9210     1.4510 H     1 <1>   0.1500 
 28 H        6.5100    -1.8160    -0.7090 H     1 <1>   0.0800 
 29 H        5.2380    -1.8460    -1.9240 H     1 <1>   0.0800 
 30 H        5.5170    -3.2580    -0.8920 H     1 <1>   0.0800 
 31 H       -6.0190    -3.4840    -1.2480 H     1 <1>   0.0800 
 32 H       -6.3060    -2.4800     0.1780 H     1 <1>   0.0800 
 33 H       -7.4310    -4.3850     1.2810 H     1 <1>   0.0800 
 34 H       -7.1470    -5.3780    -0.1310 H     1 <1>   0.0800 
 35 H       -8.5590    -3.8520    -1.4850 H     1 <1>   0.0800 
 36 H       -8.8420    -2.8620    -0.0770 H     1 <1>   0.0800 
 37 H       -9.6640    -5.7700    -0.3610 H     1 <1>   0.0800 
 38 H      -10.7340    -4.3930    -0.4610 H     1 <1>   0.0800 
 39 H       -9.9470    -4.7760     1.0510 H     1 <1>   0.0800 
@<TRIPOS>BOND
  1   1   2  2   
  2   2   3  am  
  3   2   4  1   
  4   3   5  1   
  5   3  19  1   
  6   4   6  ar  
  7   4   7  ar  
  8   5   8  1   
  9   5  20  1   
 10   5  21  1   
 11   6   9  ar  
 12   6  22  1   
 13   7  10  ar  
 14   7  23  1   
 15   8  11  1   
 16   8  24  1   
 17   8  25  1   
 18   9  12  ar  
 19   9  26  1   
 20  10  12  ar  
 21  10  27  1   
 22  11  13  1   
 23  12  14  1   
 24  13  28  1   
 25  13  29  1   
 26  13  30  1   
 27  14  15  1   
 28  15  16  1   
 29  15  31  1   
 30  15  32  1   
 31  16  17  1   
 32  16  33  1   
 33  16  34  1   
 34  17  18  1   
 35  17  35  1   
 36  17  36  1   
 37  18  37  1   
 38  18  38  1   
 39  18  39  1   
@<TRIPOS>SUBSTRUCTURE
  1 ****   4 GROUP 4 **** **** 0

# MOE 2024.06 (io_trps.svl 2023.06)
