@<TRIPOS>MOLECULE
NONAME
47 49 1 0 0 
SMALL
USER_CHARGES


@<TRIPOS>ATOM
  1 BR      -2.1560     1.4790     3.6380 Br    1 <1>  -0.1110 
  2 C       -2.5470     1.6350     1.7620 C.ar  1 <1>   0.1110 
  3 C       -3.6370     0.9530     1.2560 C.ar  1 <1>  -0.1500 
  4 C       -1.7320     2.4210     0.9730 C.ar  1 <1>  -0.1500 
  5 C       -3.9300     1.0690    -0.0960 C.ar  1 <1>  -0.1440 
  6 C       -2.0220     2.5240    -0.3760 C.ar  1 <1>  -0.1500 
  7 C       -3.1120     1.8500    -0.9070 C.ar  1 <1>  -0.1500 
  8 C       -5.1320     0.3540    -0.6830 C.3   1 <1>   0.4870 
  9 N       -6.3700     1.0710    -0.2410 N.4   1 <1>  -0.9590 
 10 C       -7.5860     0.2910    -0.5820 C.3   1 <1>   0.3430 
 11 C       -6.4060     2.4590    -0.7820 C.3   1 <1>   0.3430 
 12 C       -8.8310     1.0000    -0.0450 C.3   1 <1>  -0.1600 
 13 C       -7.6330     3.1980    -0.2470 C.3   1 <1>  -0.1600 
 14 C       -8.9430     2.4500    -0.5490 C.3   1 <1>   0.4230 
 15 N      -10.1110     3.1470     0.0930 N.4   1 <1>  -0.9590 
 16 C      -11.4230     2.4450    -0.1330 C.3   1 <1>   0.3430 
 17 C      -10.2510     4.5850    -0.3250 C.3   1 <1>   0.3430 
 18 C      -12.5210     3.0850     0.7170 C.3   1 <1>  -0.1600 
 19 C      -11.3180     5.2820     0.5190 C.3   1 <1>  -0.1600 
 20 C      -12.6740     4.5780     0.4130 C.3   1 <1>  -0.1600 
 21 H       -4.2220     0.3460     1.9250 H     1 <1>   0.1500 
 22 H       -0.8900     2.9360     1.4040 H     1 <1>   0.1500 
 23 H       -1.3930     3.1260    -1.0120 H     1 <1>   0.1500 
 24 H       -3.3040     1.9440    -1.9630 H     1 <1>   0.1500 
 25 H       -5.1430    -0.6640    -0.3290 H     1 <1>   0.0800 
 26 H       -5.0650     0.3400    -1.7590 H     1 <1>   0.0800 
 27 H       -6.2770     1.1370     0.7830 H     1 <1>   0.4500 
 28 H       -7.5230    -0.6980    -0.1520 H     1 <1>   0.0800 
 29 H       -7.6620     0.1830    -1.6540 H     1 <1>   0.0800 
 30 H       -6.4360     2.4300    -1.8600 H     1 <1>   0.0800 
 31 H       -5.5140     2.9930    -0.4880 H     1 <1>   0.0800 
 32 H       -8.8060     0.9770     1.0300 H     1 <1>   0.0800 
 33 H       -9.6760     0.4240    -0.3740 H     1 <1>   0.0800 
 34 H       -7.6350     4.1630    -0.7190 H     1 <1>   0.0800 
 35 H       -7.5160     3.3410     0.8130 H     1 <1>   0.0800 
 36 H       -9.0920     2.4330    -1.6180 H     1 <1>   0.0800 
 37 H       -9.9700     3.1620     1.1120 H     1 <1>   0.4500 
 38 H      -11.3520     1.4060     0.1400 H     1 <1>   0.0800 
 39 H      -11.6960     2.5040    -1.1750 H     1 <1>   0.0800 
 40 H      -10.5260     4.6400    -1.3670 H     1 <1>   0.0800 
 41 H       -9.3220     5.1130    -0.1920 H     1 <1>   0.0800 
 42 H      -12.3000     2.9420     1.7610 H     1 <1>   0.0800 
 43 H      -13.4550     2.5880     0.5170 H     1 <1>   0.0800 
 44 H      -11.4230     6.3000     0.1840 H     1 <1>   0.0800 
 45 H      -11.0000     5.3170     1.5470 H     1 <1>   0.0800 
 46 H      -13.3750     5.0240     1.1010 H     1 <1>   0.0800 
 47 H      -13.0700     4.7060    -0.5820 H     1 <1>   0.0800 
@<TRIPOS>BOND
  1   1   2  1   
  2   2   3  ar  
  3   2   4  ar  
  4   3   5  ar  
  5   3  21  1   
  6   4   6  ar  
  7   4  22  1   
  8   5   7  ar  
  9   5   8  1   
 10   6   7  ar  
 11   6  23  1   
 12   7  24  1   
 13   8   9  1   
 14   8  25  1   
 15   8  26  1   
 16   9  10  1   
 17   9  11  1   
 18   9  27  1   
 19  10  12  1   
 20  10  28  1   
 21  10  29  1   
 22  11  13  1   
 23  11  30  1   
 24  11  31  1   
 25  12  14  1   
 26  12  32  1   
 27  12  33  1   
 28  13  14  1   
 29  13  34  1   
 30  13  35  1   
 31  14  15  1   
 32  14  36  1   
 33  15  16  1   
 34  15  17  1   
 35  15  37  1   
 36  16  18  1   
 37  16  38  1   
 38  16  39  1   
 39  17  19  1   
 40  17  40  1   
 41  17  41  1   
 42  18  20  1   
 43  18  42  1   
 44  18  43  1   
 45  19  20  1   
 46  19  44  1   
 47  19  45  1   
 48  20  46  1   
 49  20  47  1   
@<TRIPOS>SUBSTRUCTURE
  1 ****  11 GROUP 4 **** **** 0

# MOE 2024.06 (io_trps.svl 2023.06)
