@<TRIPOS>MOLECULE
NONAME
41 42 1 0 0 
SMALL
USER_CHARGES


@<TRIPOS>ATOM
  1 S       -0.3600    -0.2440    -0.1700 S.o2  1 <1>   1.2040 
  2 O       -0.4130    -1.2090    -1.2460 O.2   1 <1>  -0.6500 
  3 O       -0.7400    -0.6460     1.1670 O.2   1 <1>  -0.6500 
  4 C        1.2640     0.5500    -0.1350 C.ar  1 <1>  -0.0090 
  5 C       -1.4240     1.1220    -0.6210 C.3   1 <1>  -0.0550 
  6 C        1.7650     1.1100     1.0340 C.ar  1 <1>  -0.1500 
  7 C        2.0370     0.6510    -1.2850 C.ar  1 <1>  -0.1500 
  8 C       -2.9000     0.7090    -0.7310 C.3   1 <1>  -0.0990 
  9 C        2.9920     1.7500     1.0550 C.ar  1 <1>  -0.1500 
 10 C        3.2650     1.2910    -1.2710 C.ar  1 <1>  -0.1500 
 11 C       -3.7810     1.9030    -1.0190 C.2   1 <1>   0.5690 
 12 C        3.7480     1.8470    -0.1000 C.ar  1 <1>  -0.1440 
 13 O       -3.4560     2.6660    -1.8950 O.2   1 <1>  -0.5700 
 14 N       -4.8990     2.0790    -0.2770 N.am  1 <1>  -0.7300 
 15 C        5.0950     2.5470    -0.0810 C.3   1 <1>  -0.0970 
 16 C       -5.8570     3.1860    -0.4320 C.3   1 <1>   0.2200 
 17 C       -5.9880     3.9110     0.9020 C.3   1 <1>  -0.1600 
 18 C       -7.2470     2.6050    -0.6530 C.3   1 <1>  -0.1600 
 19 C       -6.9650     3.0770     1.7380 C.3   1 <1>  -0.1600 
 20 C       -7.7750     2.2390     0.7400 C.3   1 <1>  -0.1600 
 21 H       -1.1080     1.5280    -1.5640 H     1 <1>   0.0800 
 22 H       -1.3370     1.8990     0.1140 H     1 <1>   0.0800 
 23 H        1.1910     1.0410     1.9440 H     1 <1>   0.1500 
 24 H        1.6780     0.2200    -2.2050 H     1 <1>   0.1500 
 25 H       -3.2120     0.2420     0.1860 H     1 <1>   0.0800 
 26 H       -3.0180    -0.0030    -1.5280 H     1 <1>   0.0800 
 27 H        3.3560     2.1720     1.9770 H     1 <1>   0.1500 
 28 H        3.8430     1.3510    -2.1770 H     1 <1>   0.1500 
 29 H       -5.1520     1.4120     0.4510 H     1 <1>   0.3700 
 30 H        5.8710     1.8350     0.1350 H     1 <1>   0.0800 
 31 H        5.1100     3.3160     0.6710 H     1 <1>   0.0800 
 32 H        5.2960     3.0020    -1.0340 H     1 <1>   0.0800 
 33 H       -5.5560     3.8460    -1.2300 H     1 <1>   0.0800 
 34 H       -6.4230     4.8780     0.7190 H     1 <1>   0.0800 
 35 H       -5.0360     4.0500     1.3850 H     1 <1>   0.0800 
 36 H       -7.2360     1.7680    -1.3300 H     1 <1>   0.0800 
 37 H       -7.8730     3.3740    -1.0710 H     1 <1>   0.0800 
 38 H       -7.6040     3.7130     2.3270 H     1 <1>   0.0800 
 39 H       -6.4200     2.4270     2.4000 H     1 <1>   0.0800 
 40 H       -7.6140     1.1910     0.9300 H     1 <1>   0.0800 
 41 H       -8.8280     2.4460     0.8160 H     1 <1>   0.0800 
@<TRIPOS>BOND
  1   1   2  2   
  2   1   3  2   
  3   1   4  1   
  4   1   5  1   
  5   4   6  ar  
  6   4   7  ar  
  7   5   8  1   
  8   5  21  1   
  9   5  22  1   
 10   6   9  ar  
 11   6  23  1   
 12   7  10  ar  
 13   7  24  1   
 14   8  11  1   
 15   8  25  1   
 16   8  26  1   
 17   9  12  ar  
 18   9  27  1   
 19  10  12  ar  
 20  10  28  1   
 21  11  13  2   
 22  11  14  am  
 23  12  15  1   
 24  14  16  1   
 25  14  29  1   
 26  15  30  1   
 27  15  31  1   
 28  15  32  1   
 29  16  17  1   
 30  16  18  1   
 31  16  33  1   
 32  17  19  1   
 33  17  34  1   
 34  17  35  1   
 35  18  20  1   
 36  18  36  1   
 37  18  37  1   
 38  19  20  1   
 39  19  38  1   
 40  19  39  1   
 41  20  40  1   
 42  20  41  1   
@<TRIPOS>SUBSTRUCTURE
  1 ****   5 GROUP 4 **** **** 0

# MOE 2024.06 (io_trps.svl 2023.06)
