@<TRIPOS>MOLECULE
NONAME
53 54 1 0 0 
SMALL
USER_CHARGES


@<TRIPOS>ATOM
  1 O       -0.0100    -0.9000    -1.6550 O.2   1 <1>  -0.5700 
  2 C       -0.5930    -1.6120    -0.8700 C.2   1 <1>   0.4950 
  3 C        0.0790    -2.4290     0.0950 C.2   1 <1>   0.0290 
  4 C       -2.1090    -1.5770    -0.9630 C.3   1 <1>  -0.0990 
  5 C       -0.7140    -3.2650     0.9540 C.2   1 <1>   0.4950 
  6 C        1.4580    -2.3900     0.1640 C.2   1 <1>  -0.0500 
  7 C       -2.7720    -2.8810    -0.5000 C.3   1 <1>   0.0000 
  8 O       -0.2580    -4.0380     1.7700 O.2   1 <1>  -0.5700 
  9 C       -2.2320    -3.2230     0.8960 C.3   1 <1>  -0.0990 
 10 N        2.2320    -3.0960     1.0230 N.pl3 1 <1>  -0.8690 
 11 C       -2.4730    -4.0220    -1.4900 C.3   1 <1>  -0.2400 
 12 C       -4.2950    -2.6880    -0.4300 C.3   1 <1>  -0.2400 
 13 C        3.6960    -3.0770     1.1020 C.3   1 <1>   0.2090 
 14 C        4.1910    -4.4430     0.6360 C.3   1 <1>  -0.1600 
 15 C        5.7120    -4.4980     0.6320 C.3   1 <1>   0.3430 
 16 N        6.1350    -5.8350     0.1470 N.4   1 <1>  -0.9060 
 17 C        7.5970    -6.0360     0.1270 C.3   1 <1>   0.4230 
 18 C        8.2310    -5.1930    -0.9890 C.3   1 <1>  -0.1600 
 19 C        7.8700    -7.5280    -0.0870 C.3   1 <1>  -0.1600 
 20 C        9.7380    -5.4680    -1.1020 C.3   1 <1>  -0.1600 
 21 C        9.3760    -7.8070    -0.1930 C.3   1 <1>  -0.1600 
 22 C       10.0180    -6.9630    -1.3010 C.3   1 <1>  -0.1600 
 23 H       -2.4520    -0.7540    -0.3630 H     1 <1>   0.0800 
 24 H       -2.3910    -1.3700    -1.9810 H     1 <1>   0.0800 
 25 H        1.9810    -1.7410    -0.5230 H     1 <1>   0.1500 
 26 H       -2.6200    -4.1770     1.2070 H     1 <1>   0.0800 
 27 H       -2.5660    -2.4930     1.6110 H     1 <1>   0.0800 
 28 H        1.7450    -3.7130     1.7040 H     1 <1>   0.4000 
 29 H       -2.8580    -3.7830    -2.4670 H     1 <1>   0.0800 
 30 H       -2.9410    -4.9350    -1.1640 H     1 <1>   0.0800 
 31 H       -1.4180    -4.2070    -1.5870 H     1 <1>   0.0800 
 32 H       -4.5520    -1.8980     0.2540 H     1 <1>   0.0800 
 33 H       -4.7760    -3.5910    -0.0970 H     1 <1>   0.0800 
 34 H       -4.6890    -2.4350    -1.3990 H     1 <1>   0.0800 
 35 H        4.0790    -2.2930     0.4680 H     1 <1>   0.0800 
 36 H        3.9940    -2.8790     2.1190 H     1 <1>   0.0800 
 37 H        3.8190    -4.6130    -0.3600 H     1 <1>   0.0800 
 38 H        3.7970    -5.1930     1.2980 H     1 <1>   0.0800 
 39 H        6.0860    -4.3290     1.6290 H     1 <1>   0.0800 
 40 H        6.0990    -3.7280    -0.0160 H     1 <1>   0.0800 
 41 H        5.7720    -5.9920    -0.8000 H     1 <1>   0.4500 
 42 H        5.7150    -6.5570     0.7430 H     1 <1>   0.4500 
 43 H        8.0210    -5.7420     1.0750 H     1 <1>   0.0800 
 44 H        7.7700    -5.4280    -1.9330 H     1 <1>   0.0800 
 45 H        8.0970    -4.1440    -0.7920 H     1 <1>   0.0800 
 46 H        7.4740    -8.0960     0.7370 H     1 <1>   0.0800 
 47 H        7.3970    -7.8630    -0.9940 H     1 <1>   0.0800 
 48 H       10.1460    -4.9150    -1.9320 H     1 <1>   0.0800 
 49 H       10.2380    -5.1290    -0.2100 H     1 <1>   0.0800 
 50 H        9.8560    -7.5850     0.7460 H     1 <1>   0.0800 
 51 H        9.5380    -8.8520    -0.4010 H     1 <1>   0.0800 
 52 H       11.0830    -7.1300    -1.3080 H     1 <1>   0.0800 
 53 H        9.6360    -7.2760    -2.2590 H     1 <1>   0.0800 
@<TRIPOS>BOND
  1   1   2  2   
  2   2   3  1   
  3   2   4  1   
  4   3   5  1   
  5   3   6  2   
  6   4   7  1   
  7   4  23  1   
  8   4  24  1   
  9   5   8  2   
 10   5   9  1   
 11   6  10  1   
 12   6  25  1   
 13   7   9  1   
 14   7  11  1   
 15   7  12  1   
 16   9  26  1   
 17   9  27  1   
 18  10  13  1   
 19  10  28  1   
 20  11  29  1   
 21  11  30  1   
 22  11  31  1   
 23  12  32  1   
 24  12  33  1   
 25  12  34  1   
 26  13  14  1   
 27  13  35  1   
 28  13  36  1   
 29  14  15  1   
 30  14  37  1   
 31  14  38  1   
 32  15  16  1   
 33  15  39  1   
 34  15  40  1   
 35  16  17  1   
 36  16  41  1   
 37  16  42  1   
 38  17  18  1   
 39  17  19  1   
 40  17  43  1   
 41  18  20  1   
 42  18  44  1   
 43  18  45  1   
 44  19  21  1   
 45  19  46  1   
 46  19  47  1   
 47  20  22  1   
 48  20  48  1   
 49  20  49  1   
 50  21  22  1   
 51  21  50  1   
 52  21  51  1   
 53  22  52  1   
 54  22  53  1   
@<TRIPOS>SUBSTRUCTURE
  1 ****  10 GROUP 4 **** **** 0

# MOE 2024.06 (io_trps.svl 2023.06)
