@<TRIPOS>MOLECULE
NONAME
54 56 1 0 0 
SMALL
USER_CHARGES


@<TRIPOS>ATOM
  1 CL       0.8650    -2.8690     3.5570 Cl    1 <1>  -0.1770 
  2 C        1.2750    -3.1400     1.8780 C.ar  1 <1>   0.1770 
  3 C        0.3310    -2.9220     0.8800 C.ar  1 <1>   0.0830 
  4 C        2.5510    -3.5750     1.5880 C.ar  1 <1>  -0.1500 
  5 O       -0.9030    -2.4910     1.2370 O.3   1 <1>  -0.3630 
  6 C        0.7070    -3.1600    -0.4390 C.ar  1 <1>  -0.1500 
  7 C        2.9430    -3.8130     0.2690 C.ar  1 <1>   0.0860 
  8 C       -1.9150    -2.2320     0.2890 C.3   1 <1>   0.0400 
  9 C        1.9880    -3.5980    -0.7280 C.ar  1 <1>  -0.1500 
 10 C        4.2780    -4.2680    -0.0650 C.2   1 <1>   0.5440 
 11 O        4.4470    -5.0250    -1.0010 O.2   1 <1>  -0.5700 
 12 N        5.3460    -3.8590     0.6930 N.am  1 <1>  -0.5470 
 13 C        6.7100    -3.8080     0.3350 C.ar  1 <1>   0.1170 
 14 C        7.5400    -4.9310     0.1100 C.ar  1 <1>   0.1000 
 15 C        7.2520    -2.5390     0.2180 C.ar  1 <1>  -0.1500 
 16 N        7.1410    -6.2690     0.1860 N.pl3 1 <1>  -0.8380 
 17 C        8.8700    -4.7000    -0.2180 C.ar  1 <1>  -0.1500 
 18 C        8.5860    -2.3020    -0.1160 C.ar  1 <1>   0.0860 
 19 C        6.3830    -6.8160     1.3490 C.3   1 <1>   0.2090 
 20 C        7.1980    -7.1020    -1.0550 C.3   1 <1>   0.2090 
 21 C        9.3840    -3.4250    -0.3310 C.ar  1 <1>  -0.1500 
 22 C        9.0980    -0.9530    -0.2280 C.2   1 <1>   0.6340 
 23 C        5.0480    -7.4630     0.9190 C.3   1 <1>   0.3430 
 24 C        5.8340    -7.7290    -1.4030 C.3   1 <1>   0.3430 
 25 O        8.4270     0.0320     0.0060 O.2   1 <1>  -0.5700 
 26 O       10.3710    -0.7890    -0.6070 O.3   1 <1>  -0.4300 
 27 N        5.1920    -8.4290    -0.2300 N.4   1 <1>  -0.9590 
 28 C       10.9470     0.4950    -0.7430 C.3   1 <1>   0.0400 
 29 C        3.8630    -8.9810    -0.6230 C.3   1 <1>   0.2630 
 30 H        3.2320    -3.7310     2.4040 H     1 <1>   0.1500 
 31 H        0.0170    -3.0090    -1.2490 H     1 <1>   0.1500 
 32 H       -2.7900    -1.8990     0.8180 H     1 <1>   0.0800 
 33 H       -2.1360    -3.1380    -0.2460 H     1 <1>   0.0800 
 34 H       -1.5790    -1.4600    -0.3810 H     1 <1>   0.0800 
 35 H        2.2630    -3.7750    -1.7550 H     1 <1>   0.1500 
 36 H        5.1040    -3.1610     1.3970 H     1 <1>   0.3700 
 37 H        6.6210    -1.6840     0.3850 H     1 <1>   0.1500 
 38 H        9.5180    -5.5420    -0.3810 H     1 <1>   0.1500 
 39 H        6.1910    -6.0300     2.0580 H     1 <1>   0.0800 
 40 H        6.9940    -7.5510     1.8430 H     1 <1>   0.0800 
 41 H        7.9300    -7.8790    -0.9220 H     1 <1>   0.0800 
 42 H        7.5170    -6.4910    -1.8830 H     1 <1>   0.0800 
 43 H       10.4220    -3.2990    -0.5880 H     1 <1>   0.1500 
 44 H        4.3730    -6.6760     0.6340 H     1 <1>   0.0800 
 45 H        4.6190    -7.9670     1.7690 H     1 <1>   0.0800 
 46 H        5.9700    -8.4250    -2.2140 H     1 <1>   0.0800 
 47 H        5.1850    -6.9470    -1.7570 H     1 <1>   0.0800 
 48 H        5.8190    -9.1890     0.0670 H     1 <1>   0.4500 
 49 H       11.9690     0.3790    -1.0560 H     1 <1>   0.0800 
 50 H       10.9040     0.9980     0.2080 H     1 <1>   0.0800 
 51 H       10.3920     1.0480    -1.4810 H     1 <1>   0.0800 
 52 H        3.2110    -8.1850    -0.9430 H     1 <1>   0.0800 
 53 H        3.4060    -9.4890     0.2110 H     1 <1>   0.0800 
 54 H        3.9740    -9.6820    -1.4340 H     1 <1>   0.0800 
@<TRIPOS>BOND
  1   1   2  1   
  2   2   3  ar  
  3   2   4  ar  
  4   3   5  1   
  5   3   6  ar  
  6   4   7  ar  
  7   4  30  1   
  8   5   8  1   
  9   6   9  ar  
 10   6  31  1   
 11   7   9  ar  
 12   7  10  1   
 13   8  32  1   
 14   8  33  1   
 15   8  34  1   
 16   9  35  1   
 17  10  11  2   
 18  10  12  am  
 19  12  13  1   
 20  12  36  1   
 21  13  14  ar  
 22  13  15  ar  
 23  14  16  1   
 24  14  17  ar  
 25  15  18  ar  
 26  15  37  1   
 27  16  19  1   
 28  16  20  1   
 29  17  21  ar  
 30  17  38  1   
 31  18  21  ar  
 32  18  22  1   
 33  19  23  1   
 34  19  39  1   
 35  19  40  1   
 36  20  24  1   
 37  20  41  1   
 38  20  42  1   
 39  21  43  1   
 40  22  25  2   
 41  22  26  1   
 42  23  27  1   
 43  23  44  1   
 44  23  45  1   
 45  24  27  1   
 46  24  46  1   
 47  24  47  1   
 48  26  28  1   
 49  27  29  1   
 50  27  48  1   
 51  28  49  1   
 52  28  50  1   
 53  28  51  1   
 54  29  52  1   
 55  29  53  1   
 56  29  54  1   
@<TRIPOS>SUBSTRUCTURE
  1 ****  12 GROUP 4 **** **** 0

# MOE 2024.06 (io_trps.svl 2023.06)
