@<TRIPOS>MOLECULE
NONAME
44 46 1 0 0 
SMALL
USER_CHARGES


@<TRIPOS>ATOM
  1 BR      -0.4780    -1.5460     0.1590 Br    1 <1>  -0.1110 
  2 C        1.4400    -1.3750     0.2040 C.ar  1 <1>   0.1110 
  3 C        2.2100    -2.3620    -0.3850 C.ar  1 <1>  -0.1500 
  4 C        1.9930    -0.2690     0.8210 C.ar  1 <1>  -0.1500 
  5 C        3.5910    -2.2470    -0.3570 C.ar  1 <1>  -0.1440 
  6 C        3.3720    -0.1560     0.8520 C.ar  1 <1>  -0.1500 
  7 C        4.1630    -1.1410     0.2760 C.ar  1 <1>   0.0830 
  8 C        4.4430    -3.3210    -1.0200 C.3   1 <1>  -0.0960 
  9 O        5.5030    -0.9930     0.3360 O.3   1 <1>  -0.3630 
 10 C        6.1830    -1.7600     1.3210 C.3   1 <1>   0.1810 
 11 C        7.3680    -2.5170     0.7240 C.2   1 <1>   0.5690 
 12 O        7.3530    -3.7240     0.8260 O.2   1 <1>  -0.5700 
 13 N        8.4160    -1.8670     0.1180 N.am  1 <1>  -0.6600 
 14 C        8.5240    -0.3830    -0.0720 C.3   1 <1>   0.1400 
 15 C        9.5820    -2.6150    -0.4510 C.3   1 <1>   0.1400 
 16 C        9.8710     0.1560     0.4430 C.3   1 <1>   0.2090 
 17 C       10.9170    -2.0630     0.0790 C.3   1 <1>   0.2090 
 18 N       11.0230    -0.5920    -0.1460 N.pl3 1 <1>  -0.8380 
 19 C       12.2820    -0.0430     0.0000 C.ar  1 <1>   0.4100 
 20 N       12.5240     0.6420     1.1120 N.ar  1 <1>  -0.6200 
 21 C       13.2310    -0.2360    -1.0000 C.ar  1 <1>  -0.1500 
 22 C       13.7430     1.1420     1.2270 C.ar  1 <1>   0.1600 
 23 C       14.4950     0.2900    -0.8670 C.ar  1 <1>  -0.1500 
 24 C       14.7490     1.0000     0.2880 C.ar  1 <1>  -0.1500 
 25 H        1.7290    -3.2000    -0.8560 H     1 <1>   0.1500 
 26 H        1.3600     0.4800     1.2620 H     1 <1>   0.1500 
 27 H        3.8390     0.6920     1.3190 H     1 <1>   0.1500 
 28 H        3.8740    -3.8570    -1.7580 H     1 <1>   0.0800 
 29 H        4.7940    -4.0210    -0.2830 H     1 <1>   0.0800 
 30 H        5.2920    -2.8790    -1.5100 H     1 <1>   0.0800 
 31 H        5.4970    -2.4630     1.7590 H     1 <1>   0.0800 
 32 H        6.5270    -1.0890     2.0850 H     1 <1>   0.0800 
 33 H        7.7330     0.1340     0.4370 H     1 <1>   0.0800 
 34 H        8.4410    -0.1590    -1.1210 H     1 <1>   0.0800 
 35 H        9.5670    -2.5240    -1.5220 H     1 <1>   0.0800 
 36 H        9.5160    -3.6610    -0.2080 H     1 <1>   0.0800 
 37 H        9.9020     0.0700     1.5160 H     1 <1>   0.0800 
 38 H        9.9600     1.1980     0.1910 H     1 <1>   0.0800 
 39 H       11.7300    -2.5650    -0.4160 H     1 <1>   0.0800 
 40 H       10.9930    -2.2680     1.1330 H     1 <1>   0.0800 
 41 H       12.9540    -0.7940    -1.8730 H     1 <1>   0.1500 
 42 H       13.9520     1.6990     2.1240 H     1 <1>   0.1500 
 43 H       15.2480     0.1570    -1.6250 H     1 <1>   0.1500 
 44 H       15.7150     1.4390     0.4590 H     1 <1>   0.1500 
@<TRIPOS>BOND
  1   1   2  1   
  2   2   3  ar  
  3   2   4  ar  
  4   3   5  ar  
  5   3  25  1   
  6   4   6  ar  
  7   4  26  1   
  8   5   7  ar  
  9   5   8  1   
 10   6   7  ar  
 11   6  27  1   
 12   7   9  1   
 13   8  28  1   
 14   8  29  1   
 15   8  30  1   
 16   9  10  1   
 17  10  11  1   
 18  10  31  1   
 19  10  32  1   
 20  11  12  2   
 21  11  13  am  
 22  13  14  1   
 23  13  15  1   
 24  14  16  1   
 25  14  33  1   
 26  14  34  1   
 27  15  17  1   
 28  15  35  1   
 29  15  36  1   
 30  16  18  1   
 31  16  37  1   
 32  16  38  1   
 33  17  18  1   
 34  17  39  1   
 35  17  40  1   
 36  18  19  1   
 37  19  20  ar  
 38  19  21  ar  
 39  20  22  ar  
 40  21  23  ar  
 41  21  41  1   
 42  22  24  ar  
 43  22  42  1   
 44  23  24  ar  
 45  23  43  1   
 46  24  44  1   
@<TRIPOS>SUBSTRUCTURE
  1 ****  13 GROUP 4 **** **** 0

# MOE 2024.06 (io_trps.svl 2023.06)
