@<TRIPOS>MOLECULE
NONAME
46 47 1 0 0 
SMALL
USER_CHARGES


@<TRIPOS>ATOM
  1 O       -8.5480     2.9470    -0.2670 O.3   1 <1>  -0.3630 
  2 C       -8.7530     1.6020    -0.2880 C.ar  1 <1>   0.0830 
  3 C       -7.2550     3.5060    -0.3050 C.3   1 <1>   0.1200 
  4 C      -10.0530     1.1270    -0.1040 C.ar  1 <1>  -0.1440 
  5 C       -7.7080     0.7000    -0.4870 C.ar  1 <1>  -0.1500 
  6 C       -7.3960     5.0250    -0.1850 C.3   1 <1>   0.1100 
  7 C      -10.2710    -0.2440    -0.1180 C.ar  1 <1>  -0.1500 
  8 C      -11.2410     2.0740     0.1130 C.3   1 <1>   0.0640 
  9 C       -7.9400    -0.6640    -0.4960 C.ar  1 <1>  -0.1440 
 10 N       -6.0790     5.7030    -0.1870 N.3   1 <1>  -0.8100 
 11 C       -9.2280    -1.1320    -0.3110 C.ar  1 <1>  -0.1500 
 12 C      -11.8870     1.8390     1.4830 C.3   1 <1>  -0.2400 
 13 C      -12.2760     1.9220    -1.0080 C.3   1 <1>  -0.2400 
 14 C       -6.7990    -1.6420    -0.7140 C.3   1 <1>  -0.0970 
 15 C       -6.2240     7.1190    -0.5800 C.3   1 <1>   0.1100 
 16 C       -5.3810     5.5690     1.1110 C.3   1 <1>   0.1100 
 17 C       -4.8560     7.8280    -0.6400 C.3   1 <1>   0.3430 
 18 C       -4.0010     6.2570     1.0790 C.3   1 <1>   0.3430 
 19 N       -4.1100     7.6930     0.6550 N.4   1 <1>  -0.9060 
 20 H       -6.8020     3.2460    -1.2450 H     1 <1>   0.0800 
 21 H       -6.6970     3.0990     0.5170 H     1 <1>   0.0800 
 22 H       -6.7040     1.0420    -0.6410 H     1 <1>   0.1500 
 23 H       -7.9390     5.2690     0.7130 H     1 <1>   0.0800 
 24 H       -7.9720     5.3590    -1.0320 H     1 <1>   0.0800 
 25 H      -11.2620    -0.6350     0.0220 H     1 <1>   0.1500 
 26 H      -10.9050     3.0960     0.0940 H     1 <1>   0.0800 
 27 H       -9.4260    -2.1890    -0.3190 H     1 <1>   0.1500 
 28 H      -12.3130     0.8540     1.5450 H     1 <1>   0.0800 
 29 H      -12.6640     2.5620     1.6560 H     1 <1>   0.0800 
 30 H      -11.1450     1.9410     2.2550 H     1 <1>   0.0800 
 31 H      -12.7100     0.9390    -1.0020 H     1 <1>   0.0800 
 32 H      -11.8020     2.0830    -1.9600 H     1 <1>   0.0800 
 33 H      -13.0610     2.6460    -0.8890 H     1 <1>   0.0800 
 34 H       -5.8640    -1.2080    -0.4100 H     1 <1>   0.0800 
 35 H       -6.7390    -1.9040    -1.7550 H     1 <1>   0.0800 
 36 H       -6.9590    -2.5360    -0.1380 H     1 <1>   0.0800 
 37 H       -6.8730     7.6310     0.1100 H     1 <1>   0.0800 
 38 H       -6.6770     7.1690    -1.5570 H     1 <1>   0.0800 
 39 H       -5.2330     4.5270     1.3360 H     1 <1>   0.0800 
 40 H       -5.9820     5.9920     1.8990 H     1 <1>   0.0800 
 41 H       -5.0030     8.8700    -0.8760 H     1 <1>   0.0800 
 42 H       -4.2820     7.3850    -1.4370 H     1 <1>   0.0800 
 43 H       -3.3750     5.7210     0.3840 H     1 <1>   0.0800 
 44 H       -3.5470     6.1920     2.0540 H     1 <1>   0.0800 
 45 H       -4.6100     8.2170     1.3820 H     1 <1>   0.4500 
 46 H       -3.1730     8.1040     0.5640 H     1 <1>   0.4500 
@<TRIPOS>BOND
  1   1   2  1   
  2   1   3  1   
  3   2   4  ar  
  4   2   5  ar  
  5   3   6  1   
  6   3  20  1   
  7   3  21  1   
  8   4   7  ar  
  9   4   8  1   
 10   5   9  ar  
 11   5  22  1   
 12   6  10  1   
 13   6  23  1   
 14   6  24  1   
 15   7  11  ar  
 16   7  25  1   
 17   8  12  1   
 18   8  13  1   
 19   8  26  1   
 20   9  11  ar  
 21   9  14  1   
 22  10  15  1   
 23  10  16  1   
 24  11  27  1   
 25  12  28  1   
 26  12  29  1   
 27  12  30  1   
 28  13  31  1   
 29  13  32  1   
 30  13  33  1   
 31  14  34  1   
 32  14  35  1   
 33  14  36  1   
 34  15  17  1   
 35  15  37  1   
 36  15  38  1   
 37  16  18  1   
 38  16  39  1   
 39  16  40  1   
 40  17  19  1   
 41  17  41  1   
 42  17  42  1   
 43  18  19  1   
 44  18  43  1   
 45  18  44  1   
 46  19  45  1   
 47  19  46  1   
@<TRIPOS>SUBSTRUCTURE
  1 ****   1 GROUP 4 **** **** 0

# MOE 2024.06 (io_trps.svl 2023.06)
