@<TRIPOS>MOLECULE
NONAME
51 53 1 0 0 
SMALL
USER_CHARGES


@<TRIPOS>ATOM
  1 O        3.7200    -3.2200    -2.3060 O.2   1 <1>  -0.5700 
  2 C        3.6990    -2.9290    -1.1380 C.2   1 <1>   0.5690 
  3 N        4.3860    -1.8490    -0.7070 N.am  1 <1>  -0.7300 
  4 C        2.8790    -3.8080    -0.1900 C.3   1 <1>  -0.0190 
  5 C        4.4660    -1.2300     0.6260 C.3   1 <1>   0.2840 
  6 C        3.3150    -5.2830    -0.3030 C.3   1 <1>  -0.1600 
  7 C        1.3760    -3.6730    -0.5020 C.3   1 <1>  -0.1600 
  8 C        5.1700     0.1030     0.4810 C.ar  1 <1>  -0.1440 
  9 C        2.4220    -6.2200     0.5060 C.3   1 <1>   0.3430 
 10 C        0.5210    -4.6460     0.3080 C.3   1 <1>   0.3430 
 11 C        6.5290     0.2100     0.7310 C.ar  1 <1>  -0.1500 
 12 C        4.4620     1.2300     0.0910 C.ar  1 <1>  -0.1500 
 13 N        1.0070    -6.0390     0.0850 N.4   1 <1>  -0.9590 
 14 C        7.1710     1.4300     0.5980 C.ar  1 <1>  -0.1500 
 15 C        5.1050     2.4480    -0.0420 C.ar  1 <1>  -0.1500 
 16 C        0.1130    -7.0480     0.7190 C.3   1 <1>   0.4860 
 17 C        6.4630     2.5550     0.2100 C.ar  1 <1>  -0.1440 
 18 C       -1.2640    -6.9440     0.0930 C.ar  1 <1>  -0.1440 
 19 C        7.1670     3.8910     0.0650 C.3   1 <1>  -0.0970 
 20 C       -2.3160    -6.3930     0.8110 C.ar  1 <1>  -0.1500 
 21 C       -1.4830    -7.3950    -1.2010 C.ar  1 <1>  -0.1500 
 22 C       -3.5700    -6.2820     0.2360 C.ar  1 <1>  -0.1500 
 23 C       -2.7370    -7.2830    -1.7750 C.ar  1 <1>  -0.1500 
 24 C       -3.7800    -6.7250    -1.0570 C.ar  1 <1>  -0.1500 
 25 H        4.8990    -1.3280    -1.4250 H     1 <1>   0.3700 
 26 H        3.0450    -3.4900     0.8220 H     1 <1>   0.0800 
 27 H        5.0190    -1.8700     1.2910 H     1 <1>   0.0800 
 28 H        3.4760    -1.0800     1.0230 H     1 <1>   0.0800 
 29 H        4.3310    -5.3800     0.0400 H     1 <1>   0.0800 
 30 H        3.3000    -5.5950    -1.3340 H     1 <1>   0.0800 
 31 H        1.2020    -3.8470    -1.5510 H     1 <1>   0.0800 
 32 H        1.0570    -2.6670    -0.2930 H     1 <1>   0.0800 
 33 H        2.5230    -5.9990     1.5570 H     1 <1>   0.0800 
 34 H        2.7320    -7.2390     0.3400 H     1 <1>   0.0800 
 35 H       -0.5080    -4.5570    -0.0050 H     1 <1>   0.0800 
 36 H        0.5790    -4.3990     1.3560 H     1 <1>   0.0800 
 37 H        7.0990    -0.6520     1.0290 H     1 <1>   0.1500 
 38 H        3.4080     1.1670    -0.1150 H     1 <1>   0.1500 
 39 H        0.9500    -6.2020    -0.9290 H     1 <1>   0.4500 
 40 H        8.2260     1.4980     0.7970 H     1 <1>   0.1500 
 41 H        4.5430     3.3150    -0.3440 H     1 <1>   0.1500 
 42 H        0.0480    -6.8760     1.7810 H     1 <1>   0.0800 
 43 H        0.4990    -8.0410     0.5570 H     1 <1>   0.0800 
 44 H        8.1920     3.7470    -0.2270 H     1 <1>   0.0800 
 45 H        7.1430     4.4190     1.0010 H     1 <1>   0.0800 
 46 H        6.6840     4.4920    -0.6850 H     1 <1>   0.0800 
 47 H       -2.1800    -6.0470     1.8220 H     1 <1>   0.1500 
 48 H       -0.6910    -7.8410    -1.7790 H     1 <1>   0.1500 
 49 H       -4.3880    -5.8550     0.7930 H     1 <1>   0.1500 
 50 H       -2.9090    -7.6320    -2.7790 H     1 <1>   0.1500 
 51 H       -4.7560    -6.6390    -1.5040 H     1 <1>   0.1500 
@<TRIPOS>BOND
  1   1   2  2   
  2   2   3  am  
  3   2   4  1   
  4   3   5  1   
  5   3  25  1   
  6   4   6  1   
  7   4   7  1   
  8   4  26  1   
  9   5   8  1   
 10   5  27  1   
 11   5  28  1   
 12   6   9  1   
 13   6  29  1   
 14   6  30  1   
 15   7  10  1   
 16   7  31  1   
 17   7  32  1   
 18   8  11  ar  
 19   8  12  ar  
 20   9  13  1   
 21   9  33  1   
 22   9  34  1   
 23  10  13  1   
 24  10  35  1   
 25  10  36  1   
 26  11  14  ar  
 27  11  37  1   
 28  12  15  ar  
 29  12  38  1   
 30  13  16  1   
 31  13  39  1   
 32  14  17  ar  
 33  14  40  1   
 34  15  17  ar  
 35  15  41  1   
 36  16  18  1   
 37  16  42  1   
 38  16  43  1   
 39  17  19  1   
 40  18  20  ar  
 41  18  21  ar  
 42  19  44  1   
 43  19  45  1   
 44  19  46  1   
 45  20  22  ar  
 46  20  47  1   
 47  21  23  ar  
 48  21  48  1   
 49  22  24  ar  
 50  22  49  1   
 51  23  24  ar  
 52  23  50  1   
 53  24  51  1   
@<TRIPOS>SUBSTRUCTURE
  1 ****   4 GROUP 4 **** **** 0

# MOE 2024.06 (io_trps.svl 2023.06)
