@<TRIPOS>MOLECULE
NONAME
33 33 1 0 0 
SMALL
USER_CHARGES


@<TRIPOS>ATOM
  1 F        4.2010    -5.3660    -0.6610 F     1 <1>  -0.1900 
  2 C        4.1920    -4.0890    -0.3970 C.ar  1 <1>   0.1900 
  3 C        3.0390    -3.4940     0.1170 C.ar  1 <1>   0.0860 
  4 C        5.3500    -3.3850    -0.6680 C.ar  1 <1>  -0.1500 
  5 C        1.8360    -4.2410     0.4060 C.2   1 <1>   0.6340 
  6 C        3.1060    -2.1150     0.3380 C.ar  1 <1>  -0.1500 
  7 C        5.3820    -2.0230    -0.4310 C.ar  1 <1>  -0.1500 
  8 O        1.8170    -5.3650     0.8590 O.2   1 <1>  -0.5700 
  9 O        0.6650    -3.6340     0.1730 O.3   1 <1>  -0.4300 
 10 C        4.2560    -1.3910     0.0710 C.ar  1 <1>  -0.1500 
 11 C       -0.5540    -4.2990     0.4120 C.3   1 <1>   0.1200 
 12 C       -1.6900    -3.3700    -0.0120 C.3   1 <1>  -0.1600 
 13 C       -3.0370    -4.0590     0.2000 C.3   1 <1>   0.3430 
 14 N       -4.1500    -3.2100    -0.3190 N.4   1 <1>  -0.9590 
 15 C       -4.3810    -1.9920     0.5220 C.3   1 <1>   0.2630 
 16 C       -5.4100    -4.0090    -0.4270 C.3   1 <1>   0.2630 
 17 H        6.2100    -3.8980    -1.0610 H     1 <1>   0.1500 
 18 H        2.2440    -1.6020     0.7300 H     1 <1>   0.1500 
 19 H        6.2750    -1.4570    -0.6360 H     1 <1>   0.1500 
 20 H        4.2790    -0.3290     0.2540 H     1 <1>   0.1500 
 21 H       -0.6060    -4.5360     1.4630 H     1 <1>   0.0800 
 22 H       -0.5560    -5.2100    -0.1630 H     1 <1>   0.0800 
 23 H       -1.5640    -3.1320    -1.0540 H     1 <1>   0.0800 
 24 H       -1.6310    -2.4730     0.5770 H     1 <1>   0.0800 
 25 H       -3.1850    -4.2630     1.2490 H     1 <1>   0.0800 
 26 H       -3.0290    -5.0000    -0.3260 H     1 <1>   0.0800 
 27 H       -3.8880    -2.9010    -1.2690 H     1 <1>   0.4500 
 28 H       -4.6310    -2.2750     1.5320 H     1 <1>   0.0800 
 29 H       -5.1910    -1.4060     0.1180 H     1 <1>   0.0800 
 30 H       -3.4960    -1.3760     0.5460 H     1 <1>   0.0800 
 31 H       -5.7180    -4.3570     0.5460 H     1 <1>   0.0800 
 32 H       -5.2600    -4.8630    -1.0670 H     1 <1>   0.0800 
 33 H       -6.2010    -3.4060    -0.8430 H     1 <1>   0.0800 
@<TRIPOS>BOND
  1   1   2  1   
  2   2   3  ar  
  3   2   4  ar  
  4   3   5  1   
  5   3   6  ar  
  6   4   7  ar  
  7   4  17  1   
  8   5   8  2   
  9   5   9  1   
 10   6  10  ar  
 11   6  18  1   
 12   7  10  ar  
 13   7  19  1   
 14   9  11  1   
 15  10  20  1   
 16  11  12  1   
 17  11  21  1   
 18  11  22  1   
 19  12  13  1   
 20  12  23  1   
 21  12  24  1   
 22  13  14  1   
 23  13  25  1   
 24  13  26  1   
 25  14  15  1   
 26  14  16  1   
 27  14  27  1   
 28  15  28  1   
 29  15  29  1   
 30  15  30  1   
 31  16  31  1   
 32  16  32  1   
 33  16  33  1   
@<TRIPOS>SUBSTRUCTURE
  1 ****   9 GROUP 4 **** **** 0

# MOE 2024.06 (io_trps.svl 2023.06)
