@<TRIPOS>MOLECULE
NONAME
46 48 1 0 0 
SMALL
USER_CHARGES


@<TRIPOS>ATOM
  1 F       -0.9470    -0.3650     0.2540 F     1 <1>  -0.1900 
  2 C       -2.2430    -0.1810     0.2470 C.ar  1 <1>   0.1900 
  3 C       -3.0360    -1.0540    -0.4740 C.ar  1 <1>  -0.1500 
  4 C       -2.7700     0.8800     0.9610 C.ar  1 <1>  -0.1500 
  5 C       -4.4060    -0.8530    -0.4770 C.ar  1 <1>  -0.1500 
  6 C       -4.1410     1.0660     0.9470 C.ar  1 <1>  -0.1500 
  7 C       -4.9690     0.2070     0.2320 C.ar  1 <1>   0.1000 
  8 N       -6.3420     0.4230     0.2420 N.pl3 1 <1>  -0.8380 
  9 C       -6.9550     0.8380    -1.0600 C.3   1 <1>   0.2090 
 10 C       -7.1620    -0.5910     0.9740 C.3   1 <1>   0.2090 
 11 C       -8.4120     1.3010    -0.8830 C.3   1 <1>   0.1400 
 12 C       -8.6120    -0.1110     1.1560 C.3   1 <1>   0.1400 
 13 N       -9.2130     0.2760    -0.1540 N.am  1 <1>  -0.6600 
 14 C      -10.5220     0.0320    -0.4790 C.2   1 <1>   0.6900 
 15 O      -11.1490     0.8730    -1.1000 O.2   1 <1>  -0.5700 
 16 N      -11.1300    -1.1460    -0.1210 N.am  1 <1>  -0.6600 
 17 C      -12.6100    -1.1440     0.0390 C.3   1 <1>   0.1400 
 18 C      -10.3900    -2.4330    -0.2590 C.3   1 <1>   0.1400 
 19 C      -13.1250    -2.2430     0.9750 C.3   1 <1>  -0.1600 
 20 C      -11.1550    -3.5070    -1.0420 C.3   1 <1>  -0.1600 
 21 C      -13.3830    -3.5720     0.2500 C.3   1 <1>  -0.1600 
 22 C      -12.1140    -4.3230    -0.1620 C.3   1 <1>  -0.1600 
 23 H       -2.5880    -1.8660    -1.0160 H     1 <1>   0.1500 
 24 H       -2.1210     1.5380     1.5090 H     1 <1>   0.1500 
 25 H       -5.0460    -1.5150    -1.0280 H     1 <1>   0.1500 
 26 H       -4.5890     1.8790     1.4890 H     1 <1>   0.1500 
 27 H       -6.9320     0.0110    -1.7480 H     1 <1>   0.0800 
 28 H       -6.3760     1.6400    -1.4840 H     1 <1>   0.0800 
 29 H       -6.7220    -0.7690     1.9400 H     1 <1>   0.0800 
 30 H       -7.1610    -1.5180     0.4290 H     1 <1>   0.0800 
 31 H       -8.8460     1.4870    -1.8500 H     1 <1>   0.0800 
 32 H       -8.4270     2.2210    -0.3270 H     1 <1>   0.0800 
 33 H       -8.6130     0.7470     1.8040 H     1 <1>   0.0800 
 34 H       -9.1960    -0.8790     1.6300 H     1 <1>   0.0800 
 35 H      -13.0710    -1.2260    -0.9310 H     1 <1>   0.0800 
 36 H      -12.8980    -0.1890     0.4470 H     1 <1>   0.0800 
 37 H      -10.1410    -2.8040     0.7190 H     1 <1>   0.0800 
 38 H       -9.4670    -2.2420    -0.7800 H     1 <1>   0.0800 
 39 H      -14.0680    -1.9070     1.3700 H     1 <1>   0.0800 
 40 H      -12.4580    -2.3720     1.8090 H     1 <1>   0.0800 
 41 H      -10.4260    -4.1910    -1.4390 H     1 <1>   0.0800 
 42 H      -11.6670    -3.0690    -1.8820 H     1 <1>   0.0800 
 43 H      -13.9870    -3.3890    -0.6230 H     1 <1>   0.0800 
 44 H      -13.9540    -4.2110     0.9010 H     1 <1>   0.0800 
 45 H      -11.5950    -4.6580     0.7200 H     1 <1>   0.0800 
 46 H      -12.4110    -5.2030    -0.7080 H     1 <1>   0.0800 
@<TRIPOS>BOND
  1   1   2  1   
  2   2   3  ar  
  3   2   4  ar  
  4   3   5  ar  
  5   3  23  1   
  6   4   6  ar  
  7   4  24  1   
  8   5   7  ar  
  9   5  25  1   
 10   6   7  ar  
 11   6  26  1   
 12   7   8  1   
 13   8   9  1   
 14   8  10  1   
 15   9  11  1   
 16   9  27  1   
 17   9  28  1   
 18  10  12  1   
 19  10  29  1   
 20  10  30  1   
 21  11  13  1   
 22  11  31  1   
 23  11  32  1   
 24  12  13  1   
 25  12  33  1   
 26  12  34  1   
 27  13  14  am  
 28  14  15  2   
 29  14  16  am  
 30  16  17  1   
 31  16  18  1   
 32  17  19  1   
 33  17  35  1   
 34  17  36  1   
 35  18  20  1   
 36  18  37  1   
 37  18  38  1   
 38  19  21  1   
 39  19  39  1   
 40  19  40  1   
 41  20  22  1   
 42  20  41  1   
 43  20  42  1   
 44  21  22  1   
 45  21  43  1   
 46  21  44  1   
 47  22  45  1   
 48  22  46  1   
@<TRIPOS>SUBSTRUCTURE
  1 ****  10 GROUP 4 **** **** 0

# MOE 2024.06 (io_trps.svl 2023.06)
