@<TRIPOS>MOLECULE
NONAME
40 41 1 0 0 
SMALL
USER_CHARGES


@<TRIPOS>ATOM
  1 O       -0.7450     1.5050    -1.0980 O.2   1 <1>  -0.5700 
  2 C       -0.5520     2.5620    -0.5250 C.2   1 <1>   0.7060 
  3 O        0.6830     3.0640    -0.6190 O.3   1 <1>  -0.2320 
  4 C       -1.5440     3.2900     0.2300 C.2   1 <1>   0.0290 
  5 C        1.0780     4.2250    -0.0480 C.ar  1 <1>   0.0830 
  6 C       -2.8930     2.7780     0.3550 C.2   1 <1>   0.6160 
  7 C       -1.1680     4.4640     0.8150 C.2   1 <1>  -0.1780 
  8 C        2.3920     4.6650    -0.2050 C.ar  1 <1>   0.0830 
  9 C        0.1560     4.9680     0.6930 C.ar  1 <1>   0.0280 
 10 O       -3.7060     3.4140     0.9980 O.2   1 <1>  -0.5700 
 11 N       -3.2920     1.6050    -0.2230 N.am  1 <1>  -0.7300 
 12 O        3.2330     3.8890    -0.9410 O.3   1 <1>  -0.3630 
 13 C        2.7840     5.8600     0.3870 C.ar  1 <1>  -0.1500 
 14 C        0.5750     6.1630     1.2770 C.ar  1 <1>  -0.1500 
 15 C       -4.5900     0.9270    -0.2140 C.3   1 <1>   0.3000 
 16 C        4.5770     4.2480    -1.1560 C.3   1 <1>   0.1200 
 17 C        1.8740     6.6030     1.1260 C.ar  1 <1>  -0.1500 
 18 C       -5.6460     1.8170    -0.8700 C.3   1 <1>  -0.2400 
 19 C       -4.4130    -0.3480    -1.0370 C.3   1 <1>  -0.2400 
 20 C       -4.9750     0.5600     1.2190 C.3   1 <1>  -0.2400 
 21 C        5.2210     3.1630    -2.0140 C.3   1 <1>  -0.2400 
 22 H       -1.8660     5.0500     1.3910 H     1 <1>   0.1500 
 23 H       -2.5770     1.0960    -0.7580 H     1 <1>   0.3700 
 24 H        3.7860     6.2330     0.2900 H     1 <1>   0.1500 
 25 H       -0.1250     6.7450     1.8510 H     1 <1>   0.1500 
 26 H        5.0690     4.3190    -0.2010 H     1 <1>   0.0800 
 27 H        4.6010     5.1970    -1.6630 H     1 <1>   0.0800 
 28 H        2.1860     7.5280     1.5810 H     1 <1>   0.1500 
 29 H       -5.8110     2.7040    -0.2860 H     1 <1>   0.0800 
 30 H       -6.5800     1.2910    -0.9420 H     1 <1>   0.0800 
 31 H       -5.3360     2.1020    -1.8590 H     1 <1>   0.0800 
 32 H       -4.1260    -0.1090    -2.0460 H     1 <1>   0.0800 
 33 H       -5.3360    -0.8970    -1.0720 H     1 <1>   0.0800 
 34 H       -3.6620    -0.9800    -0.5980 H     1 <1>   0.0800 
 35 H       -4.2010    -0.0260     1.6790 H     1 <1>   0.0800 
 36 H       -5.8850    -0.0110     1.2230 H     1 <1>   0.0800 
 37 H       -5.1390     1.4450     1.8070 H     1 <1>   0.0800 
 38 H        5.1750     2.2160    -1.5060 H     1 <1>   0.0800 
 39 H        6.2510     3.4060    -2.1980 H     1 <1>   0.0800 
 40 H        4.7100     3.0880    -2.9570 H     1 <1>   0.0800 
@<TRIPOS>BOND
  1   1   2  2   
  2   2   3  1   
  3   2   4  1   
  4   3   5  1   
  5   4   6  1   
  6   4   7  2   
  7   5   8  ar  
  8   5   9  ar  
  9   6  10  2   
 10   6  11  am  
 11   7   9  1   
 12   7  22  1   
 13   8  12  1   
 14   8  13  ar  
 15   9  14  ar  
 16  11  15  1   
 17  11  23  1   
 18  12  16  1   
 19  13  17  ar  
 20  13  24  1   
 21  14  17  ar  
 22  14  25  1   
 23  15  18  1   
 24  15  19  1   
 25  15  20  1   
 26  16  21  1   
 27  16  26  1   
 28  16  27  1   
 29  17  28  1   
 30  18  29  1   
 31  18  30  1   
 32  18  31  1   
 33  19  32  1   
 34  19  33  1   
 35  19  34  1   
 36  20  35  1   
 37  20  36  1   
 38  20  37  1   
 39  21  38  1   
 40  21  39  1   
 41  21  40  1   
@<TRIPOS>SUBSTRUCTURE
  1 ****   2 GROUP 4 **** **** 0

# MOE 2024.06 (io_trps.svl 2023.06)
