@<TRIPOS>MOLECULE
NONAME
42 44 1 0 0 
SMALL
USER_CHARGES


@<TRIPOS>ATOM
  1 S       -0.4000     0.1160    -0.7930 S.3   1 <1>  -0.0800 
  2 C       -0.4560     1.6310     0.1230 C.2   1 <1>  -0.0450 
  3 C        1.3310    -0.0070    -0.5920 C.2   1 <1>  -0.1400 
  4 C       -1.7240     2.2840     0.3100 C.2   1 <1>   0.7150 
  5 C        0.8050     1.9650     0.5020 C.2   1 <1>  -0.1500 
  6 C        1.8090     1.0380     0.0990 C.2   1 <1>  -0.1810 
  7 C        2.1110    -1.1700    -1.1670 C.3   1 <1>   0.0200 
  8 O       -1.9230     3.3700    -0.2050 O.2   1 <1>  -0.5700 
  9 N       -2.7700     1.7100     1.0130 N.am  1 <1>  -0.6600 
 10 C        3.2880     1.1910     0.4050 C.3   1 <1>   0.0210 
 11 C        3.5290    -1.1720    -0.5660 C.3   1 <1>  -0.1600 
 12 C       -4.0960     2.3860     1.0530 C.3   1 <1>   0.1400 
 13 C       -2.7240     0.3640     1.6330 C.3   1 <1>   0.1400 
 14 C        4.1280     0.2490    -0.4830 C.3   1 <1>  -0.1600 
 15 C       -4.8280     2.1720    -0.2820 C.3   1 <1>   0.3430 
 16 C       -3.6660    -0.6080     0.9040 C.3   1 <1>  -0.1600 
 17 N       -5.1880     0.7320    -0.5700 N.4   1 <1>  -0.9590 
 18 C       -4.0260    -0.2160    -0.5360 C.3   1 <1>   0.3430 
 19 C       -5.8590     0.6550    -1.9020 C.3   1 <1>   0.2630 
 20 H        1.0590     2.8520     1.0550 H     1 <1>   0.1500 
 21 H        2.1630    -1.0570    -2.2350 H     1 <1>   0.0800 
 22 H        1.6160    -2.0980    -0.9420 H     1 <1>   0.0800 
 23 H        3.4510     0.9550     1.4420 H     1 <1>   0.0800 
 24 H        3.5930     2.2090     0.2380 H     1 <1>   0.0800 
 25 H        4.1670    -1.8050    -1.1570 H     1 <1>   0.0800 
 26 H        3.4840    -1.5840     0.4270 H     1 <1>   0.0800 
 27 H       -3.9500     3.4420     1.2080 H     1 <1>   0.0800 
 28 H       -4.6870     2.0180     1.8740 H     1 <1>   0.0800 
 29 H       -3.0060     0.4400     2.6710 H     1 <1>   0.0800 
 30 H       -1.7190    -0.0210     1.6150 H     1 <1>   0.0800 
 31 H        5.1320     0.2000    -0.1000 H     1 <1>   0.0800 
 32 H        4.1750     0.6620    -1.4760 H     1 <1>   0.0800 
 33 H       -4.1970     2.5540    -1.0690 H     1 <1>   0.0800 
 34 H       -5.7270     2.7670    -0.2730 H     1 <1>   0.0800 
 35 H       -4.5600    -0.7550     1.4830 H     1 <1>   0.0800 
 36 H       -3.1680    -1.5600     0.8740 H     1 <1>   0.0800 
 37 H       -5.8560     0.4210     0.1480 H     1 <1>   0.4500 
 38 H       -4.2940    -1.1150    -1.0670 H     1 <1>   0.0800 
 39 H       -3.1710     0.2170    -1.0330 H     1 <1>   0.0800 
 40 H       -5.1820     0.9690    -2.6800 H     1 <1>   0.0800 
 41 H       -6.7280     1.2930    -1.9230 H     1 <1>   0.0800 
 42 H       -6.1730    -0.3570    -2.1060 H     1 <1>   0.0800 
@<TRIPOS>BOND
  1   1   2  1   
  2   1   3  1   
  3   2   4  1   
  4   2   5  2   
  5   3   6  2   
  6   3   7  1   
  7   4   8  2   
  8   4   9  am  
  9   5   6  1   
 10   5  20  1   
 11   6  10  1   
 12   7  11  1   
 13   7  21  1   
 14   7  22  1   
 15   9  12  1   
 16   9  13  1   
 17  10  14  1   
 18  10  23  1   
 19  10  24  1   
 20  11  14  1   
 21  11  25  1   
 22  11  26  1   
 23  12  15  1   
 24  12  27  1   
 25  12  28  1   
 26  13  16  1   
 27  13  29  1   
 28  13  30  1   
 29  14  31  1   
 30  14  32  1   
 31  15  17  1   
 32  15  33  1   
 33  15  34  1   
 34  16  18  1   
 35  16  35  1   
 36  16  36  1   
 37  17  18  1   
 38  17  19  1   
 39  17  37  1   
 40  18  38  1   
 41  18  39  1   
 42  19  40  1   
 43  19  41  1   
 44  19  42  1   
@<TRIPOS>SUBSTRUCTURE
  1 ****   2 GROUP 4 **** **** 0

# MOE 2024.06 (io_trps.svl 2023.06)
