@<TRIPOS>MOLECULE
NONAME
38 38 1 0 0 
SMALL
USER_CHARGES


@<TRIPOS>ATOM
  1 O        0.3250    -0.4010    -1.7770 O.2   1 <1>  -0.5700 
  2 C        0.6860    -1.2160    -0.9650 C.2   1 <1>   0.5690 
  3 N       -0.1610    -1.9460    -0.1780 N.am  1 <1>  -0.5470 
  4 C        2.1740    -1.4640    -0.8030 C.3   1 <1>  -0.0990 
  5 C       -1.5620    -1.9490    -0.0720 C.ar  1 <1>   0.1170 
  6 C        2.7260    -0.8670     0.5020 C.3   1 <1>  -0.1600 
  7 C       -2.1790    -3.0420     0.5250 C.ar  1 <1>  -0.1500 
  8 C       -2.3640    -0.9040    -0.5210 C.ar  1 <1>  -0.1500 
  9 C        4.2300    -1.1250     0.6400 C.3   1 <1>  -0.2400 
 10 C       -3.5540    -3.0930     0.6650 C.ar  1 <1>  -0.1500 
 11 C       -3.7400    -0.9490    -0.3840 C.ar  1 <1>  -0.1500 
 12 C       -4.3450    -2.0510     0.2130 C.ar  1 <1>   0.0830 
 13 O       -5.6860    -2.1800     0.3870 O.3   1 <1>  -0.3630 
 14 C       -6.5740    -1.1850    -0.0690 C.3   1 <1>   0.1200 
 15 C       -8.0000    -1.6290     0.2560 C.3   1 <1>  -0.1600 
 16 C       -9.0260    -0.5900    -0.2140 C.3   1 <1>  -0.1600 
 17 C      -10.4520    -1.0390     0.1130 C.3   1 <1>  -0.2400 
 18 H        0.3040    -2.6220     0.4230 H     1 <1>   0.3700 
 19 H        2.6840    -1.0210    -1.6410 H     1 <1>   0.0800 
 20 H        2.3560    -2.5220    -0.8330 H     1 <1>   0.0800 
 21 H        2.2140    -1.2920     1.3470 H     1 <1>   0.0800 
 22 H        2.5460     0.1960     0.5070 H     1 <1>   0.0800 
 23 H       -1.5860    -3.8640     0.8810 H     1 <1>   0.1500 
 24 H       -1.9160    -0.0410    -0.9790 H     1 <1>   0.1500 
 25 H        4.4340    -2.1810     0.6560 H     1 <1>   0.0800 
 26 H        4.5940    -0.6930     1.5560 H     1 <1>   0.0800 
 27 H        4.7650    -0.6810    -0.1810 H     1 <1>   0.0800 
 28 H       -4.0260    -3.9420     1.1260 H     1 <1>   0.1500 
 29 H       -4.3170    -0.1200    -0.7470 H     1 <1>   0.1500 
 30 H       -6.4430    -1.0760    -1.1320 H     1 <1>   0.0800 
 31 H       -6.3380    -0.2640     0.4340 H     1 <1>   0.0800 
 32 H       -8.0890    -1.7660     1.3200 H     1 <1>   0.0800 
 33 H       -8.1930    -2.5700    -0.2300 H     1 <1>   0.0800 
 34 H       -8.9350    -0.4470    -1.2780 H     1 <1>   0.0800 
 35 H       -8.8330     0.3540     0.2680 H     1 <1>   0.0800 
 36 H      -10.6750    -1.9710    -0.3760 H     1 <1>   0.0800 
 37 H      -11.1580    -0.3000    -0.2230 H     1 <1>   0.0800 
 38 H      -10.5720    -1.1680     1.1750 H     1 <1>   0.0800 
@<TRIPOS>BOND
  1   1   2  2   
  2   2   3  am  
  3   2   4  1   
  4   3   5  1   
  5   3  18  1   
  6   4   6  1   
  7   4  19  1   
  8   4  20  1   
  9   5   7  ar  
 10   5   8  ar  
 11   6   9  1   
 12   6  21  1   
 13   6  22  1   
 14   7  10  ar  
 15   7  23  1   
 16   8  11  ar  
 17   8  24  1   
 18   9  25  1   
 19   9  26  1   
 20   9  27  1   
 21  10  12  ar  
 22  10  28  1   
 23  11  12  ar  
 24  11  29  1   
 25  12  13  1   
 26  13  14  1   
 27  14  15  1   
 28  14  30  1   
 29  14  31  1   
 30  15  16  1   
 31  15  32  1   
 32  15  33  1   
 33  16  17  1   
 34  16  34  1   
 35  16  35  1   
 36  17  36  1   
 37  17  37  1   
 38  17  38  1   
@<TRIPOS>SUBSTRUCTURE
  1 ****   8 GROUP 4 **** **** 0

# MOE 2024.06 (io_trps.svl 2023.06)
