@<TRIPOS>MOLECULE
NONAME
29 30 1 0 0 
SMALL
USER_CHARGES


@<TRIPOS>ATOM
  1 S        0.0900    -0.6690    -0.0450 S.3   1 <1>  -0.0800 
  2 C        1.5520     0.3290     0.0400 C.2   1 <1>  -0.0450 
  3 C       -0.9570     0.7240    -0.1200 C.2   1 <1>  -0.1100 
  4 C        2.8300    -0.3210     0.1250 C.2   1 <1>   0.4710 
  5 C        1.1720     1.6370     0.0030 C.2   1 <1>  -0.1500 
  6 C       -0.2310     1.8560    -0.0850 C.2   1 <1>  -0.1500 
  7 N        2.8500    -1.6340    -0.1390 N.2   1 <1>  -0.1460 
  8 C        3.9540     0.4260     0.4890 C.2   1 <1>  -0.1360 
  9 C        3.9540    -2.6140    -0.0080 C.3   1 <1>   0.1860 
 10 C        5.3070     0.1450     0.4690 C.2   1 <1>  -0.0380 
 11 C        5.2270    -2.1550    -0.7170 C.3   1 <1>   0.2090 
 12 N        5.8440    -0.9950    -0.0340 N.pl3 1 <1>  -0.8690 
 13 C        6.2780     1.2340     1.0400 C.3   1 <1>   0.8180 
 14 F        5.8110     1.6370     2.2230 F     1 <1>  -0.3400 
 15 F        7.4470     0.6630     1.3440 F     1 <1>  -0.3400 
 16 C        6.5260     2.4660     0.1310 C.3   1 <1>   0.6000 
 17 F        5.3900     3.1240    -0.1150 F     1 <1>  -0.3400 
 18 F        6.9610     2.1030    -1.0760 F     1 <1>  -0.3400 
 19 H       -2.0190     0.5580    -0.1830 H     1 <1>   0.1500 
 20 H        1.8370     2.4840     0.0290 H     1 <1>   0.1500 
 21 H       -0.6400     2.8520    -0.1180 H     1 <1>   0.1500 
 22 H        1.9540    -2.0640    -0.3900 H     1 <1>   0.4000 
 23 H        3.7030     1.4070     0.8530 H     1 <1>   0.1500 
 24 H        3.6370    -3.5460    -0.4420 H     1 <1>   0.0800 
 25 H        4.1650    -2.7840     1.0340 H     1 <1>   0.0800 
 26 H        5.0260    -1.9090    -1.7470 H     1 <1>   0.0800 
 27 H        5.9350    -2.9670    -0.7070 H     1 <1>   0.0800 
 28 H        6.8780    -1.0930     0.0080 H     1 <1>   0.4000 
 29 H        7.2320     3.1580     0.5490 H     1 <1>   0.0800 
@<TRIPOS>BOND
  1   1   2  1   
  2   1   3  1   
  3   2   4  1   
  4   2   5  2   
  5   3   6  2   
  6   3  19  1   
  7   4   7  2   
  8   4   8  1   
  9   5   6  1   
 10   5  20  1   
 11   6  21  1   
 12   7   9  1   
 13   7  22  1   
 14   8  10  2   
 15   8  23  1   
 16   9  11  1   
 17   9  24  1   
 18   9  25  1   
 19  10  12  1   
 20  10  13  1   
 21  11  12  1   
 22  11  26  1   
 23  11  27  1   
 24  12  28  1   
 25  13  14  1   
 26  13  15  1   
 27  13  16  1   
 28  16  17  1   
 29  16  18  1   
 30  16  29  1   
@<TRIPOS>SUBSTRUCTURE
  1 ****   8 GROUP 4 **** **** 0

# MOE 2024.06 (io_trps.svl 2023.06)
