@<TRIPOS>MOLECULE
NONAME
43 43 1 0 0 
SMALL
USER_CHARGES


@<TRIPOS>ATOM
  1 O        0.1620     0.0860     0.5680 O.2   1 <1>  -0.5700 
  2 C       -0.3110    -0.9040     0.0470 C.2   1 <1>   0.6900 
  3 N        0.4080    -2.0460    -0.1270 N.am  1 <1>  -0.5470 
  4 N       -1.5930    -0.9170    -0.3840 N.am  1 <1>  -0.7300 
  5 C        1.7390    -2.4080     0.1540 C.ar  1 <1>   0.1170 
  6 C       -2.5810     0.1630    -0.3340 C.3   1 <1>   0.5000 
  7 C        2.0840    -3.7620     0.0660 C.ar  1 <1>   0.0830 
  8 C        2.7240    -1.4890     0.5020 C.ar  1 <1>  -0.1500 
  9 C       -3.7600    -0.4150    -1.0510 C.1   1 <1>  -0.2000 
 10 C       -2.9420     0.4150     1.1500 C.3   1 <1>  -0.1600 
 11 C       -2.0200     1.4060    -1.0780 C.3   1 <1>  -0.1600 
 12 O        1.0940    -4.6370    -0.2890 O.3   1 <1>  -0.3630 
 13 C        3.3870    -4.1680     0.3340 C.ar  1 <1>  -0.1500 
 14 C        4.0190    -1.8960     0.7680 C.ar  1 <1>  -0.1500 
 15 C       -4.6950    -0.8860    -1.6180 C.1   1 <1>  -0.1770 
 16 C       -4.0380     1.4590     1.4280 C.3   1 <1>  -0.2400 
 17 C       -3.0370     2.3570    -1.7440 C.3   1 <1>  -0.2400 
 18 C        1.3430    -6.0240    -0.3650 C.3   1 <1>   0.0400 
 19 C        4.3550    -3.2430     0.6850 C.ar  1 <1>   0.0830 
 20 O        5.6010    -3.7290     0.9300 O.3   1 <1>  -0.3620 
 21 C        6.6510    -2.8680     1.3120 C.3   1 <1>   0.0400 
 22 H       -0.1370    -2.8480    -0.4350 H     1 <1>   0.3700 
 23 H       -1.9430    -1.7240    -0.8890 H     1 <1>   0.3700 
 24 H        2.4870    -0.4430     0.5670 H     1 <1>   0.1500 
 25 H       -2.0570     0.7240     1.6780 H     1 <1>   0.0800 
 26 H       -3.2600    -0.5190     1.5780 H     1 <1>   0.0800 
 27 H       -1.3590     1.0660    -1.8560 H     1 <1>   0.0800 
 28 H       -1.4250     1.9740    -0.3860 H     1 <1>   0.0800 
 29 H        3.6850    -5.1960     0.2780 H     1 <1>   0.1500 
 30 H        4.7440    -1.1510     1.0340 H     1 <1>   0.1500 
 31 H       -5.5440    -1.3040    -2.1290 H     1 <1>   0.1770 
 32 H       -3.6890     2.4470     1.1870 H     1 <1>   0.0800 
 33 H       -4.2920     1.4460     2.4730 H     1 <1>   0.0800 
 34 H       -4.9280     1.2480     0.8610 H     1 <1>   0.0800 
 35 H       -3.5470     1.8630    -2.5520 H     1 <1>   0.0800 
 36 H       -2.5200     3.2090    -2.1500 H     1 <1>   0.0800 
 37 H       -3.7690     2.7110    -1.0440 H     1 <1>   0.0800 
 38 H        0.4280    -6.5150    -0.6440 H     1 <1>   0.0800 
 39 H        1.6660    -6.3750     0.6000 H     1 <1>   0.0800 
 40 H        2.0960    -6.2040    -1.1120 H     1 <1>   0.0800 
 41 H        7.5340    -3.4630     1.4600 H     1 <1>   0.0800 
 42 H        6.3820    -2.3770     2.2310 H     1 <1>   0.0800 
 43 H        6.8190    -2.1530     0.5260 H     1 <1>   0.0800 
@<TRIPOS>BOND
  1   1   2  2   
  2   2   3  am  
  3   2   4  am  
  4   3   5  1   
  5   3  22  1   
  6   4   6  1   
  7   4  23  1   
  8   5   7  ar  
  9   5   8  ar  
 10   6   9  1   
 11   6  10  1   
 12   6  11  1   
 13   7  12  1   
 14   7  13  ar  
 15   8  14  ar  
 16   8  24  1   
 17   9  15  3   
 18  10  16  1   
 19  10  25  1   
 20  10  26  1   
 21  11  17  1   
 22  11  27  1   
 23  11  28  1   
 24  12  18  1   
 25  13  19  ar  
 26  13  29  1   
 27  14  19  ar  
 28  14  30  1   
 29  15  31  1   
 30  16  32  1   
 31  16  33  1   
 32  16  34  1   
 33  17  35  1   
 34  17  36  1   
 35  17  37  1   
 36  18  38  1   
 37  18  39  1   
 38  18  40  1   
 39  19  20  1   
 40  20  21  1   
 41  21  41  1   
 42  21  42  1   
 43  21  43  1   
@<TRIPOS>SUBSTRUCTURE
  1 ****   3 GROUP 4 **** **** 0

# MOE 2024.06 (io_trps.svl 2023.06)
