@<TRIPOS>MOLECULE
NONAME
46 47 1 0 0 
SMALL
USER_CHARGES


@<TRIPOS>ATOM
  1 O      -14.3790     7.0990     0.4400 O.3   1 <1>  -0.5600 
  2 C      -13.1990     6.6230    -0.0980 C.3   1 <1>   0.2000 
  3 C      -15.4750     6.4380    -0.1150 C.3   1 <1>   0.1200 
  4 C      -13.4630     5.1360    -0.3130 C.3   1 <1>  -0.1600 
  5 C      -12.0660     6.9550     0.8860 C.3   1 <1>   0.3430 
  6 C      -14.9470     5.1060    -0.6420 C.3   1 <1>  -0.1600 
  7 N      -10.7530     6.3850     0.4580 N.4   1 <1>  -0.9060 
  8 C       -9.6600     6.6570     1.4120 C.3   1 <1>   0.4860 
  9 C       -8.4340     5.9800     0.8460 C.ar  1 <1>  -0.1430 
 10 C       -8.2490     4.6210     1.0350 C.ar  1 <1>  -0.1500 
 11 C       -7.4930     6.6960     0.1250 C.ar  1 <1>  -0.1500 
 12 C       -7.1530     3.9600     0.5070 C.ar  1 <1>   0.0830 
 13 C       -6.3900     6.0540    -0.4100 C.ar  1 <1>  -0.1500 
 14 O       -7.1350     2.6250     0.7850 O.3   1 <1>  -0.3630 
 15 C       -6.2030     4.6840    -0.2350 C.ar  1 <1>   0.0830 
 16 C       -5.9930     1.8160     0.6140 C.3   1 <1>   0.1200 
 17 O       -5.1290     4.0460    -0.7810 O.3   1 <1>  -0.3630 
 18 C       -6.2720     0.4640     1.2630 C.3   1 <1>  -0.2400 
 19 C       -4.0800     4.7290    -1.4300 C.3   1 <1>   0.1200 
 20 C       -3.0250     3.6990    -1.8240 C.3   1 <1>  -0.2400 
 21 H      -13.0550     7.1270    -1.0390 H     1 <1>   0.0800 
 22 H      -15.8750     7.0460    -0.9090 H     1 <1>   0.0800 
 23 H      -16.2190     6.3040     0.6530 H     1 <1>   0.0800 
 24 H      -13.2850     4.5890     0.5970 H     1 <1>   0.0800 
 25 H      -12.8650     4.7230    -1.1070 H     1 <1>   0.0800 
 26 H      -12.3350     6.5570     1.8510 H     1 <1>   0.0800 
 27 H      -11.9910     8.0270     0.9690 H     1 <1>   0.0800 
 28 H      -15.1090     5.0520    -1.7050 H     1 <1>   0.0800 
 29 H      -15.4460     4.2750    -0.1740 H     1 <1>   0.0800 
 30 H      -10.4700     6.7510    -0.4590 H     1 <1>   0.4500 
 31 H      -10.8190     5.3660     0.3470 H     1 <1>   0.4500 
 32 H       -9.8900     6.2490     2.3830 H     1 <1>   0.0800 
 33 H       -9.4900     7.7180     1.5060 H     1 <1>   0.0800 
 34 H       -8.9510     4.0360     1.6040 H     1 <1>   0.1500 
 35 H       -7.6000     7.7570    -0.0320 H     1 <1>   0.1500 
 36 H       -5.6860     6.6440    -0.9650 H     1 <1>   0.1500 
 37 H       -5.1560     2.3000     1.0860 H     1 <1>   0.0800 
 38 H       -5.8120     1.7000    -0.4400 H     1 <1>   0.0800 
 39 H       -6.4660     0.5900     2.3130 H     1 <1>   0.0800 
 40 H       -5.4160    -0.1760     1.1460 H     1 <1>   0.0800 
 41 H       -7.1170    -0.0050     0.7920 H     1 <1>   0.0800 
 42 H       -3.6680     5.4510    -0.7470 H     1 <1>   0.0800 
 43 H       -4.4770     5.2170    -2.3030 H     1 <1>   0.0800 
 44 H       -2.6450     3.2050    -0.9480 H     1 <1>   0.0800 
 45 H       -2.2090     4.1880    -2.3240 H     1 <1>   0.0800 
 46 H       -3.4510     2.9710    -2.4920 H     1 <1>   0.0800 
@<TRIPOS>BOND
  1   1   2  1   
  2   1   3  1   
  3   2   4  1   
  4   2   5  1   
  5   2  21  1   
  6   3   6  1   
  7   3  22  1   
  8   3  23  1   
  9   4   6  1   
 10   4  24  1   
 11   4  25  1   
 12   5   7  1   
 13   5  26  1   
 14   5  27  1   
 15   6  28  1   
 16   6  29  1   
 17   7   8  1   
 18   7  30  1   
 19   7  31  1   
 20   8   9  1   
 21   8  32  1   
 22   8  33  1   
 23   9  10  ar  
 24   9  11  ar  
 25  10  12  ar  
 26  10  34  1   
 27  11  13  ar  
 28  11  35  1   
 29  12  14  1   
 30  12  15  ar  
 31  13  15  ar  
 32  13  36  1   
 33  14  16  1   
 34  15  17  1   
 35  16  18  1   
 36  16  37  1   
 37  16  38  1   
 38  17  19  1   
 39  18  39  1   
 40  18  40  1   
 41  18  41  1   
 42  19  20  1   
 43  19  42  1   
 44  19  43  1   
 45  20  44  1   
 46  20  45  1   
 47  20  46  1   
@<TRIPOS>SUBSTRUCTURE
  1 ****  10 GROUP 4 **** **** 0

# MOE 2024.06 (io_trps.svl 2023.06)
