@<TRIPOS>MOLECULE
NONAME
43 43 1 0 0 
SMALL
USER_CHARGES


@<TRIPOS>ATOM
  1 O        0.6610    -0.3300     0.0860 O.3   1 <1>  -0.3630 
  2 C       -0.5790    -0.8750     0.1740 C.ar  1 <1>   0.0820 
  3 C        1.8140    -1.1300     0.1100 C.3   1 <1>   0.1200 
  4 C       -1.6480     0.0060     0.1360 C.ar  1 <1>  -0.1500 
  5 C       -0.8210    -2.2410     0.2950 C.ar  1 <1>  -0.1500 
  6 C        3.0120    -0.1890    -0.0110 C.3   1 <1>  -0.1600 
  7 C       -2.9490    -0.4590     0.2180 C.ar  1 <1>  -0.1440 
  8 C       -2.1200    -2.7140     0.3780 C.ar  1 <1>  -0.1430 
  9 C        4.3200    -0.9680     0.0040 C.3   1 <1>   0.3430 
 10 C       -3.1780    -1.8200     0.3370 C.ar  1 <1>  -0.1500 
 11 C       -4.1200     0.5060     0.1750 C.3   1 <1>  -0.0960 
 12 C       -2.3930    -4.2020     0.5080 C.3   1 <1>  -0.0970 
 13 N        5.4490    -0.0080    -0.1160 N.4   1 <1>  -0.9060 
 14 C        6.8020    -0.5680    -0.1210 C.3   1 <1>   0.5030 
 15 C        6.9690    -1.5040    -1.3170 C.3   1 <1>  -0.2400 
 16 C        7.0620    -1.3020     1.1940 C.3   1 <1>  -0.2400 
 17 C        7.7540     0.6160    -0.2510 C.3   1 <1>  -0.2400 
 18 H        1.7650    -1.8130    -0.7220 H     1 <1>   0.0800 
 19 H        1.8290    -1.6690     1.0420 H     1 <1>   0.0800 
 20 H       -1.4500     1.0570     0.0420 H     1 <1>   0.1500 
 21 H       -0.0160    -2.9480     0.3250 H     1 <1>   0.1500 
 22 H        2.9870     0.4980     0.8170 H     1 <1>   0.0800 
 23 H        2.9220     0.3560    -0.9340 H     1 <1>   0.0800 
 24 H        4.3360    -1.6650    -0.8200 H     1 <1>   0.0800 
 25 H        4.4000    -1.5230     0.9250 H     1 <1>   0.0800 
 26 H       -4.1880    -2.1840     0.3980 H     1 <1>   0.1500 
 27 H       -3.7910     1.5140     0.3540 H     1 <1>   0.0800 
 28 H       -4.8410     0.2460     0.9280 H     1 <1>   0.0800 
 29 H       -4.5910     0.4630    -0.7900 H     1 <1>   0.0800 
 30 H       -1.5590    -4.7020     0.9660 H     1 <1>   0.0800 
 31 H       -2.5620    -4.6260    -0.4650 H     1 <1>   0.0800 
 32 H       -3.2630    -4.3700     1.1170 H     1 <1>   0.0800 
 33 H        5.3980     0.6650     0.6550 H     1 <1>   0.4500 
 34 H        5.3370     0.5330    -0.9790 H     1 <1>   0.4500 
 35 H        6.7390    -1.0020    -2.2390 H     1 <1>   0.0800 
 36 H        6.3550    -2.3810    -1.2250 H     1 <1>   0.0800 
 37 H        7.9910    -1.8380    -1.3730 H     1 <1>   0.0800 
 38 H        6.4480    -2.1790     1.2890 H     1 <1>   0.0800 
 39 H        6.8970    -0.6570     2.0390 H     1 <1>   0.0800 
 40 H        8.0870    -1.6290     1.2280 H     1 <1>   0.0800 
 41 H        7.5870     1.1520    -1.1690 H     1 <1>   0.0800 
 42 H        8.7720     0.2670    -0.2610 H     1 <1>   0.0800 
 43 H        7.6520     1.2930     0.5790 H     1 <1>   0.0800 
@<TRIPOS>BOND
  1   1   2  1   
  2   1   3  1   
  3   2   4  ar  
  4   2   5  ar  
  5   3   6  1   
  6   3  18  1   
  7   3  19  1   
  8   4   7  ar  
  9   4  20  1   
 10   5   8  ar  
 11   5  21  1   
 12   6   9  1   
 13   6  22  1   
 14   6  23  1   
 15   7  10  ar  
 16   7  11  1   
 17   8  10  ar  
 18   8  12  1   
 19   9  13  1   
 20   9  24  1   
 21   9  25  1   
 22  10  26  1   
 23  11  27  1   
 24  11  28  1   
 25  11  29  1   
 26  12  30  1   
 27  12  31  1   
 28  12  32  1   
 29  13  14  1   
 30  13  33  1   
 31  13  34  1   
 32  14  15  1   
 33  14  16  1   
 34  14  17  1   
 35  15  35  1   
 36  15  36  1   
 37  15  37  1   
 38  16  38  1   
 39  16  39  1   
 40  16  40  1   
 41  17  41  1   
 42  17  42  1   
 43  17  43  1   
@<TRIPOS>SUBSTRUCTURE
  1 ****   3 GROUP 4 **** **** 0

# MOE 2024.06 (io_trps.svl 2023.06)
