@<TRIPOS>MOLECULE
NONAME
43 44 1 0 0 
SMALL
USER_CHARGES


@<TRIPOS>ATOM
  1 S       -0.2510     0.1010    -0.1770 S.o2  1 <1>   1.3330 
  2 O       -0.5990     1.4580     0.1830 O.2   1 <1>  -0.6500 
  3 O        0.1010    -0.2090    -1.5450 O.2   1 <1>  -0.6500 
  4 N       -1.5510    -0.9000     0.2460 N.am  1 <1>  -0.8490 
  5 C        1.0510    -0.4620     0.9290 C.3   1 <1>  -0.0550 
  6 C       -2.8460    -0.1900     0.1730 C.3   1 <1>   0.1960 
  7 C       -1.5590    -2.1780    -0.4660 C.3   1 <1>   0.1960 
  8 C        2.3890     0.2810     0.7680 C.3   1 <1>  -0.2400 
  9 C       -4.0640    -1.1330     0.0920 C.3   1 <1>  -0.0190 
 10 C       -2.5390    -3.1510     0.2110 C.3   1 <1>  -0.1600 
 11 C       -5.3080    -0.4390     0.6320 C.2   1 <1>   0.5690 
 12 C       -3.7800    -2.4630     0.8120 C.3   1 <1>  -0.1600 
 13 O       -5.3030    -0.0450     1.7720 O.2   1 <1>  -0.5700 
 14 N       -6.3820    -0.3120    -0.2090 N.am  1 <1>  -0.5470 
 15 C       -7.6310     0.3030    -0.0230 C.ar  1 <1>   0.1170 
 16 C       -7.8630     1.2820     0.9380 C.ar  1 <1>  -0.1500 
 17 C       -8.6850    -0.0670    -0.8500 C.ar  1 <1>  -0.1500 
 18 C       -9.1100     1.8670     1.0690 C.ar  1 <1>  -0.1500 
 19 C       -9.9320     0.5180    -0.7220 C.ar  1 <1>  -0.1500 
 20 C      -10.1520     1.4900     0.2390 C.ar  1 <1>  -0.1440 
 21 C      -11.5200     2.1320     0.3860 C.3   1 <1>  -0.0970 
 22 H        1.2200    -1.5080     0.7640 H     1 <1>   0.0800 
 23 H        0.7140    -0.3450     1.9410 H     1 <1>   0.0800 
 24 H       -2.8610     0.4620    -0.6850 H     1 <1>   0.0800 
 25 H       -2.9250     0.4330     1.0500 H     1 <1>   0.0800 
 26 H       -0.5740    -2.6120    -0.4680 H     1 <1>   0.0800 
 27 H       -1.8480    -2.0110    -1.4920 H     1 <1>   0.0800 
 28 H        2.7620     0.1600    -0.2350 H     1 <1>   0.0800 
 29 H        3.1170    -0.1050     1.4590 H     1 <1>   0.0800 
 30 H        2.2520     1.3320     0.9580 H     1 <1>   0.0800 
 31 H       -4.2320    -1.3510    -0.9470 H     1 <1>   0.0800 
 32 H       -2.0230    -3.6820     0.9920 H     1 <1>   0.0800 
 33 H       -2.8450    -3.8800    -0.5180 H     1 <1>   0.0800 
 34 H       -4.6330    -3.1170     0.7580 H     1 <1>   0.0800 
 35 H       -3.5940    -2.2510     1.8520 H     1 <1>   0.0800 
 36 H       -6.2810    -0.7680    -1.1120 H     1 <1>   0.3700 
 37 H       -7.0710     1.5980     1.5900 H     1 <1>   0.1500 
 38 H       -8.5360    -0.8210    -1.6000 H     1 <1>   0.1500 
 39 H       -9.2610     2.6190     1.8230 H     1 <1>   0.1500 
 40 H      -10.7330     0.2120    -1.3710 H     1 <1>   0.1500 
 41 H      -11.4240     3.1440     0.7360 H     1 <1>   0.0800 
 42 H      -12.1090     1.5740     1.0920 H     1 <1>   0.0800 
 43 H      -12.0320     2.1480    -0.5590 H     1 <1>   0.0800 
@<TRIPOS>BOND
  1   1   2  2   
  2   1   3  2   
  3   1   4  am  
  4   1   5  1   
  5   4   6  1   
  6   4   7  1   
  7   5   8  1   
  8   5  22  1   
  9   5  23  1   
 10   6   9  1   
 11   6  24  1   
 12   6  25  1   
 13   7  10  1   
 14   7  26  1   
 15   7  27  1   
 16   8  28  1   
 17   8  29  1   
 18   8  30  1   
 19   9  11  1   
 20   9  12  1   
 21   9  31  1   
 22  10  12  1   
 23  10  32  1   
 24  10  33  1   
 25  11  13  2   
 26  11  14  am  
 27  12  34  1   
 28  12  35  1   
 29  14  15  1   
 30  14  36  1   
 31  15  16  ar  
 32  15  17  ar  
 33  16  18  ar  
 34  16  37  1   
 35  17  19  ar  
 36  17  38  1   
 37  18  20  ar  
 38  18  39  1   
 39  19  20  ar  
 40  19  40  1   
 41  20  21  1   
 42  21  41  1   
 43  21  42  1   
 44  21  43  1   
@<TRIPOS>SUBSTRUCTURE
  1 ****  11 GROUP 4 **** **** 0

# MOE 2024.06 (io_trps.svl 2023.06)
