@<TRIPOS>MOLECULE
NONAME
37 39 1 0 0 
SMALL
USER_CHARGES


@<TRIPOS>ATOM
  1 S        1.0730     0.6810    -0.8230 S.3   1 <1>  -0.4600 
  2 C        0.3820    -0.7970    -0.0140 C.3   1 <1>   0.0700 
  3 C        2.1910    -0.0410    -2.0610 C.3   1 <1>   0.0700 
  4 C        1.3950    -1.9580    -0.0460 C.3   1 <1>   0.3430 
  5 C        3.2440    -0.9270    -1.3680 C.3   1 <1>   0.3430 
  6 N        2.8060    -1.4520    -0.0190 N.4   1 <1>  -0.9590 
  7 C        3.7590    -2.4680     0.5200 C.3   1 <1>   0.4810 
  8 C        5.0930    -1.8330     0.8590 C.2   1 <1>  -0.1240 
  9 C        6.0880    -1.8520    -0.1610 C.2   1 <1>   0.4690 
 10 C        5.3640    -1.2910     2.0670 C.2   1 <1>  -0.0730 
 11 O        5.8200    -2.3020    -1.2610 O.2   1 <1>  -0.5700 
 12 C        7.3740    -1.2950     0.1660 C.ar  1 <1>   0.0860 
 13 O        6.5540    -0.7530     2.3450 O.3   1 <1>  -0.1590 
 14 C        7.5590    -0.7470     1.4420 C.ar  1 <1>   0.0830 
 15 C        8.4500    -1.2650    -0.7240 C.ar  1 <1>  -0.1500 
 16 C        8.7770    -0.1880     1.8030 C.ar  1 <1>  -0.1500 
 17 C        9.6640    -0.7100    -0.3650 C.ar  1 <1>  -0.1430 
 18 C        9.8230    -0.1700     0.9030 C.ar  1 <1>  -0.1500 
 19 C       10.8280    -0.6830    -1.3400 C.3   1 <1>  -0.0970 
 20 H       -0.5250    -1.0590    -0.5310 H     1 <1>   0.0800 
 21 H        0.1430    -0.5150     0.9960 H     1 <1>   0.0800 
 22 H        2.6540     0.7670    -2.6000 H     1 <1>   0.0800 
 23 H        1.5850    -0.6160    -2.7400 H     1 <1>   0.0800 
 24 H        1.2410    -2.5410    -0.9410 H     1 <1>   0.0800 
 25 H        1.2090    -2.5990     0.8000 H     1 <1>   0.0800 
 26 H        4.1410    -0.3440    -1.2400 H     1 <1>   0.0800 
 27 H        3.4940    -1.7480    -2.0210 H     1 <1>   0.0800 
 28 H        2.8080    -0.6320     0.6060 H     1 <1>   0.4500 
 29 H        3.9060    -3.2610    -0.1980 H     1 <1>   0.0800 
 30 H        3.3490    -2.9030     1.4170 H     1 <1>   0.0800 
 31 H        4.6760    -1.2460     2.8950 H     1 <1>   0.1500 
 32 H        8.3200    -1.6870    -1.7070 H     1 <1>   0.1500 
 33 H        8.9000     0.2290     2.7870 H     1 <1>   0.1500 
 34 H       10.7670     0.2640     1.1880 H     1 <1>   0.1500 
 35 H       10.5690    -1.1630    -2.2670 H     1 <1>   0.0800 
 36 H       11.6730    -1.1960    -0.9160 H     1 <1>   0.0800 
 37 H       11.1080     0.3340    -1.5480 H     1 <1>   0.0800 
@<TRIPOS>BOND
  1   1   2  1   
  2   1   3  1   
  3   2   4  1   
  4   2  20  1   
  5   2  21  1   
  6   3   5  1   
  7   3  22  1   
  8   3  23  1   
  9   4   6  1   
 10   4  24  1   
 11   4  25  1   
 12   5   6  1   
 13   5  26  1   
 14   5  27  1   
 15   6   7  1   
 16   6  28  1   
 17   7   8  1   
 18   7  29  1   
 19   7  30  1   
 20   8   9  1   
 21   8  10  2   
 22   9  11  2   
 23   9  12  1   
 24  10  13  1   
 25  10  31  1   
 26  12  14  ar  
 27  12  15  ar  
 28  13  14  1   
 29  14  16  ar  
 30  15  17  ar  
 31  15  32  1   
 32  16  18  ar  
 33  16  33  1   
 34  17  18  ar  
 35  17  19  1   
 36  18  34  1   
 37  19  35  1   
 38  19  36  1   
 39  19  37  1   
@<TRIPOS>SUBSTRUCTURE
  1 ****   9 GROUP 4 **** **** 0

# MOE 2024.06 (io_trps.svl 2023.06)
