@<TRIPOS>MOLECULE
NONAME
31 32 1 0 0 
SMALL
USER_CHARGES


@<TRIPOS>ATOM
  1 O       -0.5560     2.8940    -2.6330 O.2   1 <1>  -0.5700 
  2 C       -1.2280     3.1490    -1.6590 C.2   1 <1>   0.6900 
  3 N       -0.8500     3.9670    -0.6380 N.am  1 <1>  -0.4200 
  4 N       -2.4470     2.6220    -1.4370 N.am  1 <1>  -0.7300 
  5 C       -1.8060     3.9660     0.3310 C.2   1 <1>   0.5690 
  6 C        0.4490     4.6410    -0.5450 C.3   1 <1>   0.2780 
  7 C       -2.9430     3.0250    -0.1070 C.3   1 <1>   0.3610 
  8 O       -1.7760     4.6000     1.3610 O.2   1 <1>  -0.5700 
  9 C        1.4860     3.6550    -0.0400 C.2   1 <1>  -0.2880 
 10 C       -3.0650     1.7830     0.7940 C.3   1 <1>  -0.1600 
 11 C       -4.2950     3.7440    -0.2610 C.3   1 <1>  -0.1600 
 12 C        2.1180     3.7320     1.1350 C.2   1 <1>  -0.3000 
 13 C       -4.1970     0.8380     0.3540 C.3   1 <1>  -0.1600 
 14 C       -5.4230     2.7960    -0.7020 C.3   1 <1>  -0.1600 
 15 C       -5.5310     1.5870     0.2380 C.3   1 <1>  -0.1600 
 16 H       -2.8060     1.8140    -1.9420 H     1 <1>   0.3700 
 17 H        0.3690     5.4760     0.1310 H     1 <1>   0.0800 
 18 H        0.7330     5.0110    -1.5160 H     1 <1>   0.0800 
 19 H        1.6650     2.8600    -0.7460 H     1 <1>   0.1500 
 20 H       -3.2660     2.1160     1.7980 H     1 <1>   0.0800 
 21 H       -2.1280     1.2550     0.8150 H     1 <1>   0.0800 
 22 H       -4.1980     4.5530    -0.9640 H     1 <1>   0.0800 
 23 H       -4.5580     4.1750     0.6900 H     1 <1>   0.0800 
 24 H        2.8510     3.0180     1.4710 H     1 <1>   0.1500 
 25 H        1.9550     4.5100     1.8620 H     1 <1>   0.1500 
 26 H       -4.2950     0.0390     1.0700 H     1 <1>   0.0800 
 27 H       -3.9520     0.3940    -0.5960 H     1 <1>   0.0800 
 28 H       -5.2360     2.4530    -1.7050 H     1 <1>   0.0800 
 29 H       -6.3580     3.3290    -0.7090 H     1 <1>   0.0800 
 30 H       -5.8360     1.9230     1.2150 H     1 <1>   0.0800 
 31 H       -6.2900     0.9150    -0.1260 H     1 <1>   0.0800 
@<TRIPOS>BOND
  1   1   2  2   
  2   2   3  am  
  3   2   4  am  
  4   3   5  am  
  5   3   6  1   
  6   4   7  1   
  7   4  16  1   
  8   5   7  1   
  9   5   8  2   
 10   6   9  1   
 11   6  17  1   
 12   6  18  1   
 13   7  10  1   
 14   7  11  1   
 15   9  12  2   
 16   9  19  1   
 17  10  13  1   
 18  10  20  1   
 19  10  21  1   
 20  11  14  1   
 21  11  22  1   
 22  11  23  1   
 23  12  24  1   
 24  12  25  1   
 25  13  15  1   
 26  13  26  1   
 27  13  27  1   
 28  14  15  1   
 29  14  28  1   
 30  14  29  1   
 31  15  30  1   
 32  15  31  1   
@<TRIPOS>SUBSTRUCTURE
  1 ****   7 GROUP 4 **** **** 0

# MOE 2024.06 (io_trps.svl 2023.06)
