@<TRIPOS>MOLECULE
NONAME
45 45 1 0 0 
SMALL
USER_CHARGES


@<TRIPOS>ATOM
  1 O       -4.1420     4.3280    -0.4160 O.3   1 <1>  -0.3630 
  2 C       -3.2240     3.5200     0.1880 C.ar  1 <1>   0.0830 
  3 C       -5.4950     3.9790    -0.5890 C.3   1 <1>   0.1200 
  4 C       -3.4080     2.1910     0.6130 C.ar  1 <1>   0.0820 
  5 C       -1.9940     4.1270     0.3720 C.ar  1 <1>  -0.1500 
  6 C       -6.2190     5.1780    -1.1940 C.3   1 <1>  -0.2400 
  7 O       -4.6100     1.5700     0.4330 O.3   1 <1>  -0.3620 
  8 C       -2.3400     1.5250     1.2120 C.ar  1 <1>  -0.1500 
  9 C       -0.9350     3.4540     0.9600 C.ar  1 <1>  -0.1440 
 10 C       -4.8740     0.2640     0.8900 C.3   1 <1>   0.1200 
 11 C       -1.1160     2.1480     1.3830 C.ar  1 <1>  -0.1500 
 12 C        0.3990     4.1430     1.1110 C.3   1 <1>   0.4860 
 13 C       -6.3240    -0.0660     0.5500 C.3   1 <1>  -0.2400 
 14 N        1.0940     3.9750    -0.1780 N.4   1 <1>  -0.9060 
 15 C        2.3860     4.6370    -0.4040 C.3   1 <1>   0.5030 
 16 C        3.0300     3.9540    -1.6400 C.3   1 <1>   0.1200 
 17 C        3.2890     4.4470     0.8210 C.3   1 <1>  -0.2400 
 18 C        2.1370     6.1230    -0.6600 C.3   1 <1>  -0.2400 
 19 O        2.8070     2.5700    -1.5950 O.3   1 <1>  -0.6800 
 20 H       -5.9100     3.7290     0.3720 H     1 <1>   0.0800 
 21 H       -5.5470     3.1310    -1.2510 H     1 <1>   0.0800 
 22 H       -1.8890     5.1460     0.0430 H     1 <1>   0.1500 
 23 H       -6.1510     6.0230    -0.5330 H     1 <1>   0.0800 
 24 H       -7.2570     4.9380    -1.3390 H     1 <1>   0.0800 
 25 H       -5.7880     5.4280    -2.1470 H     1 <1>   0.0800 
 26 H       -2.4370     0.5120     1.5530 H     1 <1>   0.1500 
 27 H       -4.7180     0.2350     1.9540 H     1 <1>   0.0800 
 28 H       -4.2040    -0.4160     0.3920 H     1 <1>   0.0800 
 29 H       -0.3150     1.5990     1.8490 H     1 <1>   0.1500 
 30 H        0.9650     3.6940     1.9110 H     1 <1>   0.0800 
 31 H        0.2490     5.1890     1.3270 H     1 <1>   0.0800 
 32 H       -6.9860     0.6270     1.0390 H     1 <1>   0.0800 
 33 H       -6.5600    -1.0590     0.8850 H     1 <1>   0.0800 
 34 H       -6.4750    -0.0180    -0.5140 H     1 <1>   0.0800 
 35 H        0.4440     4.2160    -0.9290 H     1 <1>   0.4500 
 36 H        1.2970     2.9750    -0.3360 H     1 <1>   0.4500 
 37 H        4.0920     4.1330    -1.6670 H     1 <1>   0.0800 
 38 H        2.5960     4.3300    -2.5520 H     1 <1>   0.0800 
 39 H        2.9090     4.9620     1.6850 H     1 <1>   0.0800 
 40 H        3.4090     3.4020     1.0480 H     1 <1>   0.0800 
 41 H        4.2660     4.8490     0.6170 H     1 <1>   0.0800 
 42 H        3.0700     6.6170    -0.8700 H     1 <1>   0.0800 
 43 H        1.4900     6.2660    -1.5070 H     1 <1>   0.0800 
 44 H        1.7030     6.6000     0.2010 H     1 <1>   0.0800 
 45 H        3.2860     2.1110    -2.3210 H     1 <1>   0.4000 
@<TRIPOS>BOND
  1   1   2  1   
  2   1   3  1   
  3   2   4  ar  
  4   2   5  ar  
  5   3   6  1   
  6   3  20  1   
  7   3  21  1   
  8   4   7  1   
  9   4   8  ar  
 10   5   9  ar  
 11   5  22  1   
 12   6  23  1   
 13   6  24  1   
 14   6  25  1   
 15   7  10  1   
 16   8  11  ar  
 17   8  26  1   
 18   9  11  ar  
 19   9  12  1   
 20  10  13  1   
 21  10  27  1   
 22  10  28  1   
 23  11  29  1   
 24  12  14  1   
 25  12  30  1   
 26  12  31  1   
 27  13  32  1   
 28  13  33  1   
 29  13  34  1   
 30  14  15  1   
 31  14  35  1   
 32  14  36  1   
 33  15  16  1   
 34  15  17  1   
 35  15  18  1   
 36  16  19  1   
 37  16  37  1   
 38  16  38  1   
 39  17  39  1   
 40  17  40  1   
 41  17  41  1   
 42  18  42  1   
 43  18  43  1   
 44  18  44  1   
 45  19  45  1   
@<TRIPOS>SUBSTRUCTURE
  1 ****   5 GROUP 4 **** **** 0

# MOE 2024.06 (io_trps.svl 2023.06)
