@<TRIPOS>MOLECULE
NONAME
46 49 1 0 0 
SMALL
USER_CHARGES


@<TRIPOS>ATOM
  1 S       -0.1250    -1.1230    -1.8910 S.o   1 <1>   0.3680 
  2 O        0.0580     0.2120    -2.5580 O.2   1 <1>  -0.5000 
  3 N        1.1760    -1.3550    -0.7820 N.am  1 <1>  -0.6920 
  4 C       -1.6340    -1.0740    -0.8460 C.3   1 <1>   0.1940 
  5 C        1.8630    -0.1550    -0.3370 C.3   1 <1>   0.1900 
  6 C       -2.8790    -0.8750    -1.7410 C.3   1 <1>  -0.1600 
  7 C       -1.5920     0.0830     0.1810 C.3   1 <1>  -0.1600 
  8 C       -1.8060    -2.4010    -0.0700 C.3   1 <1>  -0.1600 
  9 C        3.0220     0.1670    -1.2920 C.3   1 <1>  -0.1600 
 10 C        2.3850    -0.3990     1.0830 C.3   1 <1>  -0.1600 
 11 C       -4.1710    -0.8490    -0.9040 C.3   1 <1>  -0.0800 
 12 C       -2.8760     0.1190     1.0310 C.3   1 <1>  -0.0800 
 13 C       -3.0910    -2.3830     0.7810 C.3   1 <1>  -0.0800 
 14 C        3.8320     1.3720    -0.7910 C.3   1 <1>  -0.1600 
 15 C        3.1910     0.8040     1.5940 C.3   1 <1>  -0.1600 
 16 C       -4.0910     0.3100     0.1060 C.3   1 <1>  -0.1600 
 17 C       -4.3060    -2.1800    -0.1420 C.3   1 <1>  -0.1600 
 18 C       -3.0160    -1.2170     1.7840 C.3   1 <1>  -0.1600 
 19 C        4.3430     1.1440     0.6380 C.3   1 <1>  -0.1600 
 20 H        1.8870    -1.9610    -1.1960 H     1 <1>   0.3600 
 21 H        1.1750     0.6740    -0.3150 H     1 <1>   0.0800 
 22 H       -2.9330    -1.6690    -2.4640 H     1 <1>   0.0800 
 23 H       -2.7810     0.0490    -2.2840 H     1 <1>   0.0800 
 24 H       -1.4700     1.0170    -0.3380 H     1 <1>   0.0800 
 25 H       -0.7460    -0.0420     0.8310 H     1 <1>   0.0800 
 26 H       -0.9550    -2.5560     0.5690 H     1 <1>   0.0800 
 27 H       -1.8440    -3.2210    -0.7640 H     1 <1>   0.0800 
 28 H        2.6350     0.3920    -2.2700 H     1 <1>   0.0800 
 29 H        3.6760    -0.6830    -1.3700 H     1 <1>   0.0800 
 30 H        3.0140    -1.2720     1.0900 H     1 <1>   0.0800 
 31 H        1.5540    -0.5750     1.7430 H     1 <1>   0.0800 
 32 H       -5.0220    -0.7100    -1.5500 H     1 <1>   0.0800 
 33 H       -2.8230     0.9310     1.7360 H     1 <1>   0.0800 
 34 H       -3.1880    -3.3150     1.3130 H     1 <1>   0.0800 
 35 H        3.2080     2.2500    -0.8110 H     1 <1>   0.0800 
 36 H        4.6650     1.5460    -1.4500 H     1 <1>   0.0800 
 37 H        3.5850     0.5860     2.5720 H     1 <1>   0.0800 
 38 H        2.5400     1.6560     1.6830 H     1 <1>   0.0800 
 39 H       -4.9930     0.3460     0.6920 H     1 <1>   0.0800 
 40 H       -4.0060     1.2460    -0.4180 H     1 <1>   0.0800 
 41 H       -4.3750    -2.9950    -0.8410 H     1 <1>   0.0800 
 42 H       -5.2100    -2.1740     0.4430 H     1 <1>   0.0800 
 43 H       -3.9050    -1.2020     2.3910 H     1 <1>   0.0800 
 44 H       -2.1750    -1.3550     2.4420 H     1 <1>   0.0800 
 45 H        4.8500     2.0270     0.9850 H     1 <1>   0.0800 
 46 H        5.0540     0.3350     0.6370 H     1 <1>   0.0800 
@<TRIPOS>BOND
  1   1   2  2   
  2   1   3  am  
  3   1   4  1   
  4   3   5  1   
  5   3  20  1   
  6   4   6  1   
  7   4   7  1   
  8   4   8  1   
  9   5   9  1   
 10   5  10  1   
 11   5  21  1   
 12   6  11  1   
 13   6  22  1   
 14   6  23  1   
 15   7  12  1   
 16   7  24  1   
 17   7  25  1   
 18   8  13  1   
 19   8  26  1   
 20   8  27  1   
 21   9  14  1   
 22   9  28  1   
 23   9  29  1   
 24  10  15  1   
 25  10  30  1   
 26  10  31  1   
 27  11  16  1   
 28  11  17  1   
 29  11  32  1   
 30  12  16  1   
 31  12  18  1   
 32  12  33  1   
 33  13  17  1   
 34  13  18  1   
 35  13  34  1   
 36  14  19  1   
 37  14  35  1   
 38  14  36  1   
 39  15  19  1   
 40  15  37  1   
 41  15  38  1   
 42  16  39  1   
 43  16  40  1   
 44  17  41  1   
 45  17  42  1   
 46  18  43  1   
 47  18  44  1   
 48  19  45  1   
 49  19  46  1   
@<TRIPOS>SUBSTRUCTURE
  1 ****   7 GROUP 4 **** **** 0

# MOE 2024.06 (io_trps.svl 2023.06)
