@<TRIPOS>MOLECULE
NONAME
47 49 1 0 0 
SMALL
USER_CHARGES


@<TRIPOS>ATOM
  1 O        0.4510    -0.6310    -3.2650 O.2   1 <1>  -0.5700 
  2 C       -0.0900    -0.4790    -2.1970 C.2   1 <1>   0.5690 
  3 N        0.5400    -0.6280    -0.9910 N.am  1 <1>  -0.5470 
  4 C       -1.5630    -0.1030    -2.1950 C.3   1 <1>   0.0450 
  5 C        1.8580    -0.9550    -0.6390 C.ar  1 <1>   0.1170 
  6 C       -2.1740    -0.1090    -0.7960 C.ar  1 <1>  -0.1430 
  7 C        2.1270    -1.2810     0.6820 C.ar  1 <1>  -0.1500 
  8 C        2.9170    -0.9570    -1.5390 C.ar  1 <1>  -0.1500 
  9 C       -2.1760     1.0460    -0.0280 C.ar  1 <1>  -0.1500 
 10 C       -2.7080    -1.2760    -0.2720 C.ar  1 <1>  -0.1500 
 11 C        3.4060    -1.6110     1.0920 C.ar  1 <1>  -0.1500 
 12 C        4.1970    -1.2860    -1.1330 C.ar  1 <1>  -0.1500 
 13 C       -2.7030     1.0290     1.2500 C.ar  1 <1>  -0.1500 
 14 C       -3.2360    -1.2940     1.0070 C.ar  1 <1>  -0.1500 
 15 C        4.4630    -1.6320     0.1890 C.ar  1 <1>  -0.1430 
 16 C       -3.2350    -0.1350     1.7780 C.ar  1 <1>   0.0830 
 17 C        5.8840    -2.0010     0.6580 C.3   1 <1>   0.3430 
 18 O       -3.7290    -0.0650     3.0390 O.3   1 <1>  -0.3630 
 19 C        6.5370    -0.7860     1.2580 C.1   1 <1>   0.3570 
 20 C        5.8890    -3.1560     1.6750 C.3   1 <1>  -0.1600 
 21 C        6.7740    -2.5800    -0.4560 C.3   1 <1>  -0.1600 
 22 C       -4.3540    -1.1740     3.6450 C.3   1 <1>   0.0400 
 23 N        7.0490     0.1190     1.7230 N.1   1 <1>  -0.5570 
 24 C        7.2800    -3.7970     1.6040 C.3   1 <1>  -0.1600 
 25 C        7.8630    -3.3980     0.2450 C.3   1 <1>  -0.1600 
 26 H       -0.0910    -0.5030    -0.1960 H     1 <1>   0.3700 
 27 H       -2.0900    -0.7960    -2.8250 H     1 <1>   0.0800 
 28 H       -1.6630     0.8720    -2.6350 H     1 <1>   0.0800 
 29 H        1.3290    -1.2760     1.4020 H     1 <1>   0.1500 
 30 H        2.7500    -0.6950    -2.5670 H     1 <1>   0.1500 
 31 H       -1.7680     1.9630    -0.4180 H     1 <1>   0.1500 
 32 H       -2.7140    -2.1810    -0.8570 H     1 <1>   0.1500 
 33 H        3.5640    -1.8470     2.1290 H     1 <1>   0.1500 
 34 H        4.9780    -1.2620    -1.8710 H     1 <1>   0.1500 
 35 H       -2.7060     1.9220     1.8500 H     1 <1>   0.1500 
 36 H       -3.6420    -2.2130     1.3850 H     1 <1>   0.1500 
 37 H        5.1580    -3.8870     1.3750 H     1 <1>   0.0800 
 38 H        5.6590    -2.8260     2.6730 H     1 <1>   0.0800 
 39 H        7.1950    -1.8140    -1.0840 H     1 <1>   0.0800 
 40 H        6.1870    -3.2470    -1.0640 H     1 <1>   0.0800 
 41 H       -4.6880    -0.8760     4.6220 H     1 <1>   0.0800 
 42 H       -3.6410    -1.9740     3.7310 H     1 <1>   0.0800 
 43 H       -5.1970    -1.4700     3.0460 H     1 <1>   0.0800 
 44 H        7.2150    -4.8670     1.7050 H     1 <1>   0.0800 
 45 H        7.9060    -3.4120     2.3920 H     1 <1>   0.0800 
 46 H        8.7400    -2.7900     0.3940 H     1 <1>   0.0800 
 47 H        8.1350    -4.2620    -0.3380 H     1 <1>   0.0800 
@<TRIPOS>BOND
  1   1   2  2   
  2   2   3  am  
  3   2   4  1   
  4   3   5  1   
  5   3  26  1   
  6   4   6  1   
  7   4  27  1   
  8   4  28  1   
  9   5   7  ar  
 10   5   8  ar  
 11   6   9  ar  
 12   6  10  ar  
 13   7  11  ar  
 14   7  29  1   
 15   8  12  ar  
 16   8  30  1   
 17   9  13  ar  
 18   9  31  1   
 19  10  14  ar  
 20  10  32  1   
 21  11  15  ar  
 22  11  33  1   
 23  12  15  ar  
 24  12  34  1   
 25  13  16  ar  
 26  13  35  1   
 27  14  16  ar  
 28  14  36  1   
 29  15  17  1   
 30  16  18  1   
 31  17  19  1   
 32  17  20  1   
 33  17  21  1   
 34  18  22  1   
 35  19  23  3   
 36  20  24  1   
 37  20  37  1   
 38  20  38  1   
 39  21  25  1   
 40  21  39  1   
 41  21  40  1   
 42  22  41  1   
 43  22  42  1   
 44  22  43  1   
 45  24  25  1   
 46  24  44  1   
 47  24  45  1   
 48  25  46  1   
 49  25  47  1   
@<TRIPOS>SUBSTRUCTURE
  1 ****   7 GROUP 4 **** **** 0

# MOE 2024.06 (io_trps.svl 2023.06)
