@<TRIPOS>MOLECULE
NONAME
51 53 1 0 0 
SMALL
USER_CHARGES


@<TRIPOS>ATOM
  1 S        1.3830    -1.4490     1.1880 S.o2  1 <1>   1.4470 
  2 O        1.4300    -0.4540     2.2330 O.2   1 <1>  -0.6500 
  3 O        2.0580    -2.7110     1.4110 O.2   1 <1>  -0.6500 
  4 N        2.1470    -0.8020    -0.2290 N.am  1 <1>  -0.6930 
  5 C       -0.3270    -1.7780     0.6930 C.ar  1 <1>  -0.0090 
  6 C        2.5010     0.5380    -0.3560 C.ar  1 <1>   0.1990 
  7 C        2.5350    -1.7590    -1.3100 C.3   1 <1>   0.2570 
  8 C       -1.1430    -0.7830     0.1650 C.ar  1 <1>   0.0830 
  9 C       -0.8780    -3.0460     0.8490 C.ar  1 <1>  -0.1500 
 10 C        1.9900     1.3120    -1.3910 C.ar  1 <1>  -0.1500 
 11 C        3.3880     1.1300     0.5350 C.ar  1 <1>  -0.1500 
 12 C        3.9880    -2.2380    -1.2270 C.2   1 <1>   0.5690 
 13 O       -0.6680     0.4610    -0.0280 O.3   1 <1>  -0.3620 
 14 C       -2.4530    -1.0480    -0.2050 C.ar  1 <1>  -0.1500 
 15 C       -2.1870    -3.3240     0.4870 C.ar  1 <1>  -0.1440 
 16 C        2.3530     2.6390    -1.5320 C.ar  1 <1>  -0.1500 
 17 C        3.7520     2.4570     0.3980 C.ar  1 <1>  -0.1500 
 18 O        4.6800    -2.1550    -2.2160 O.2   1 <1>  -0.5700 
 19 N        4.4490    -2.7640    -0.0600 N.am  1 <1>  -0.5790 
 20 C       -0.9700     1.4230     0.9580 C.3   1 <1>   0.0400 
 21 C       -2.9740    -2.3160    -0.0420 C.ar  1 <1>  -0.1500 
 22 C       -2.7610    -4.7180     0.6710 C.3   1 <1>  -0.0970 
 23 C        3.2360     3.2210    -0.6370 C.ar  1 <1>  -0.1430 
 24 C        5.8120    -3.2360     0.2050 C.3   1 <1>   0.0490 
 25 C        3.6400     4.6760    -0.7890 C.3   1 <1>  -0.0970 
 26 C        5.9840    -4.3860     1.1400 C.3   1 <1>  -0.2000 
 27 C        6.3740    -3.0020     1.5670 C.3   1 <1>  -0.2000 
 28 H        2.3980    -1.2840    -2.2640 H     1 <1>   0.0800 
 29 H        1.8910    -2.6180    -1.2820 H     1 <1>   0.0800 
 30 H       -0.2710    -3.8320     1.2660 H     1 <1>   0.1500 
 31 H        1.2950     0.8730    -2.0820 H     1 <1>   0.1500 
 32 H        3.7940     0.5450     1.3400 H     1 <1>   0.1500 
 33 H       -3.0560    -0.2610    -0.6210 H     1 <1>   0.1500 
 34 H        1.9440     3.2180    -2.3410 H     1 <1>   0.1500 
 35 H        4.4410     2.8920     1.1010 H     1 <1>   0.1500 
 36 H        3.7960    -2.8410     0.7320 H     1 <1>   0.3700 
 37 H       -0.4420     2.3280     0.7140 H     1 <1>   0.0800 
 38 H       -0.6440     1.0600     1.9170 H     1 <1>   0.0800 
 39 H       -2.0300     1.6000     0.9630 H     1 <1>   0.0800 
 40 H       -3.9930    -2.5160    -0.3280 H     1 <1>   0.1500 
 41 H       -1.9760    -5.4490     0.7440 H     1 <1>   0.0800 
 42 H       -3.3870    -4.9760    -0.1640 H     1 <1>   0.0800 
 43 H       -3.3500    -4.7530     1.5700 H     1 <1>   0.0800 
 44 H        6.4680    -3.1540    -0.6480 H     1 <1>   0.1000 
 45 H        2.8570     5.2360    -1.2680 H     1 <1>   0.0800 
 46 H        4.5320     4.7450    -1.3850 H     1 <1>   0.0800 
 47 H        3.8300     5.1150     0.1740 H     1 <1>   0.0800 
 48 H        6.7660    -5.0980     0.9450 H     1 <1>   0.1000 
 49 H        5.1070    -4.8380     1.5710 H     1 <1>   0.1000 
 50 H        5.7700    -2.4880     2.2940 H     1 <1>   0.1000 
 51 H        7.4210    -2.7730     1.6590 H     1 <1>   0.1000 
@<TRIPOS>BOND
  1   1   2  2   
  2   1   3  2   
  3   1   4  am  
  4   1   5  1   
  5   4   6  1   
  6   4   7  1   
  7   5   8  ar  
  8   5   9  ar  
  9   6  10  ar  
 10   6  11  ar  
 11   7  12  1   
 12   7  28  1   
 13   7  29  1   
 14   8  13  1   
 15   8  14  ar  
 16   9  15  ar  
 17   9  30  1   
 18  10  16  ar  
 19  10  31  1   
 20  11  17  ar  
 21  11  32  1   
 22  12  18  2   
 23  12  19  am  
 24  13  20  1   
 25  14  21  ar  
 26  14  33  1   
 27  15  21  ar  
 28  15  22  1   
 29  16  23  ar  
 30  16  34  1   
 31  17  23  ar  
 32  17  35  1   
 33  19  24  1   
 34  19  36  1   
 35  20  37  1   
 36  20  38  1   
 37  20  39  1   
 38  21  40  1   
 39  22  41  1   
 40  22  42  1   
 41  22  43  1   
 42  23  25  1   
 43  24  26  1   
 44  24  27  1   
 45  24  44  1   
 46  25  45  1   
 47  25  46  1   
 48  25  47  1   
 49  26  27  1   
 50  26  48  1   
 51  26  49  1   
 52  27  50  1   
 53  27  51  1   
@<TRIPOS>SUBSTRUCTURE
  1 ****   4 GROUP 4 **** **** 0

# MOE 2024.06 (io_trps.svl 2023.06)
