@<TRIPOS>MOLECULE
NONAME
53 56 1 0 0 
SMALL
USER_CHARGES


@<TRIPOS>ATOM
  1 O        0.6010    -1.3210     0.2960 O.2   1 <1>  -0.5700 
  2 C       -0.0190    -2.2740    -0.1330 C.2   1 <1>   0.7800 
  3 O        0.5370    -3.4850    -0.1220 O.3   1 <1>  -0.4300 
  4 N       -1.2980    -2.1600    -0.6220 N.am  1 <1>  -0.6600 
  5 C        1.8500    -3.6750     0.3560 C.3   1 <1>   0.1200 
  6 C       -2.0900    -3.3180    -1.1010 C.3   1 <1>   0.1400 
  7 C       -1.9840    -0.8490    -0.6890 C.3   1 <1>   0.1400 
  8 C        2.1860    -5.1580     0.2380 C.3   1 <1>  -0.2400 
  9 C       -3.3530    -3.4250    -0.2450 C.3   1 <1>  -0.1600 
 10 C       -3.2410    -0.9210     0.1790 C.3   1 <1>  -0.1600 
 11 C       -4.1250    -2.0980    -0.2370 C.3   1 <1>   0.4230 
 12 N       -5.2510    -2.1750     0.7170 N.4   1 <1>  -0.9060 
 13 C       -6.3500    -3.1040     0.3610 C.3   1 <1>   0.4230 
 14 C       -7.1100    -2.6180    -0.8970 C.3   1 <1>  -0.0800 
 15 C       -7.3330    -3.1980     1.5490 C.3   1 <1>  -0.0800 
 16 C       -7.7920    -1.2540    -0.6370 C.3   1 <1>  -0.1600 
 17 C       -8.2010    -3.6550    -1.2370 C.3   1 <1>  -0.1600 
 18 C       -8.0160    -1.8350     1.8120 C.3   1 <1>  -0.1600 
 19 C       -8.4220    -4.2330     1.2010 C.3   1 <1>  -0.1600 
 20 C       -8.7700    -1.3740     0.5490 C.3   1 <1>  -0.0800 
 21 C       -9.1860    -3.7900    -0.0610 C.3   1 <1>  -0.0800 
 22 C       -9.8440    -2.4220     0.2030 C.3   1 <1>  -0.1600 
 23 H        1.8920    -3.3480     1.3810 H     1 <1>   0.0800 
 24 H        2.5190    -3.0780    -0.2410 H     1 <1>   0.0800 
 25 H       -1.5240    -4.2320    -1.0300 H     1 <1>   0.0800 
 26 H       -2.3430    -3.1670    -2.1370 H     1 <1>   0.0800 
 27 H       -2.2370    -0.6330    -1.7130 H     1 <1>   0.0800 
 28 H       -1.3400    -0.0600    -0.3340 H     1 <1>   0.0800 
 29 H        1.5070    -5.7410     0.8330 H     1 <1>   0.0800 
 30 H        3.1860    -5.3300     0.5930 H     1 <1>   0.0800 
 31 H        2.1290    -5.4710    -0.7890 H     1 <1>   0.0800 
 32 H       -3.0570    -3.6950     0.7540 H     1 <1>   0.0800 
 33 H       -3.9610    -4.2130    -0.6490 H     1 <1>   0.0800 
 34 H       -3.7790     0.0040     0.0730 H     1 <1>   0.0800 
 35 H       -2.9290    -1.0230     1.2040 H     1 <1>   0.0800 
 36 H       -4.4980    -1.9060    -1.2300 H     1 <1>   0.0800 
 37 H       -5.6770    -1.2490     0.8180 H     1 <1>   0.4500 
 38 H       -4.8850    -2.4320     1.6390 H     1 <1>   0.4500 
 39 H       -5.9490    -4.0860     0.1730 H     1 <1>   0.0800 
 40 H       -6.4460    -2.5470    -1.7390 H     1 <1>   0.0800 
 41 H       -6.8160    -3.5310     2.4320 H     1 <1>   0.0800 
 42 H       -8.3380    -0.9520    -1.5150 H     1 <1>   0.0800 
 43 H       -7.0670    -0.4850    -0.4410 H     1 <1>   0.0800 
 44 H       -8.7360    -3.3480    -2.1200 H     1 <1>   0.0800 
 45 H       -7.7550    -4.6120    -1.4490 H     1 <1>   0.0800 
 46 H       -7.3020    -1.0880     2.1090 H     1 <1>   0.0800 
 47 H       -8.7170    -1.9360     2.6240 H     1 <1>   0.0800 
 48 H       -9.1110    -4.3310     2.0230 H     1 <1>   0.0800 
 49 H       -7.9800    -5.2020     1.0370 H     1 <1>   0.0800 
 50 H       -9.2440    -0.4230     0.7310 H     1 <1>   0.0800 
 51 H       -9.9460    -4.5150    -0.3020 H     1 <1>   0.0800 
 52 H      -10.3950    -2.1090    -0.6670 H     1 <1>   0.0800 
 53 H      -10.5480    -2.5070     1.0130 H     1 <1>   0.0800 
@<TRIPOS>BOND
  1   1   2  2   
  2   2   3  1   
  3   2   4  am  
  4   3   5  1   
  5   4   6  1   
  6   4   7  1   
  7   5   8  1   
  8   5  23  1   
  9   5  24  1   
 10   6   9  1   
 11   6  25  1   
 12   6  26  1   
 13   7  10  1   
 14   7  27  1   
 15   7  28  1   
 16   8  29  1   
 17   8  30  1   
 18   8  31  1   
 19   9  11  1   
 20   9  32  1   
 21   9  33  1   
 22  10  11  1   
 23  10  34  1   
 24  10  35  1   
 25  11  12  1   
 26  11  36  1   
 27  12  13  1   
 28  12  37  1   
 29  12  38  1   
 30  13  14  1   
 31  13  15  1   
 32  13  39  1   
 33  14  16  1   
 34  14  17  1   
 35  14  40  1   
 36  15  18  1   
 37  15  19  1   
 38  15  41  1   
 39  16  20  1   
 40  16  42  1   
 41  16  43  1   
 42  17  21  1   
 43  17  44  1   
 44  17  45  1   
 45  18  20  1   
 46  18  46  1   
 47  18  47  1   
 48  19  21  1   
 49  19  48  1   
 50  19  49  1   
 51  20  22  1   
 52  20  50  1   
 53  21  22  1   
 54  21  51  1   
 55  22  52  1   
 56  22  53  1   
@<TRIPOS>SUBSTRUCTURE
  1 ****  11 GROUP 4 **** **** 0

# MOE 2024.06 (io_trps.svl 2023.06)
