@<TRIPOS>MOLECULE
NONAME
53 55 1 0 0 
SMALL
USER_CHARGES


@<TRIPOS>ATOM
  1 S       -0.1490    -0.1190     0.2500 S.3   1 <1>  -0.3320 
  2 C       -0.4140    -1.8340    -0.2280 C.ar  1 <1>   0.1020 
  3 C        0.9020    -0.1360     1.7680 C.3   1 <1>  -0.0100 
  4 C       -1.1250    -2.0560    -1.3910 C.ar  1 <1>  -0.1500 
  5 C        0.0650    -2.8940     0.5230 C.ar  1 <1>  -0.1500 
  6 C       -1.3670    -3.3520    -1.8110 C.ar  1 <1>  -0.1500 
  7 C       -0.1800    -4.1910     0.1010 C.ar  1 <1>  -0.1500 
  8 C       -0.9030    -4.4260    -1.0630 C.ar  1 <1>  -0.1430 
  9 C       -1.1890    -5.8450    -1.5130 C.3   1 <1>   0.4860 
 10 N       -2.2830    -6.3980    -0.6680 N.4   1 <1>  -0.9590 
 11 C       -2.4840    -7.8690    -0.9080 C.3   1 <1>   0.3430 
 12 C       -3.5680    -5.6310    -0.8530 C.3   1 <1>   0.3430 
 13 C       -3.6180    -8.4610    -0.0450 C.3   1 <1>   0.1400 
 14 C       -4.6960    -6.1810     0.0350 C.3   1 <1>   0.1400 
 15 N       -4.8740    -7.6550    -0.1600 N.am  1 <1>  -0.6600 
 16 C       -6.1360    -8.1880    -0.3320 C.2   1 <1>   0.5690 
 17 O       -7.0760    -7.4650    -0.5600 O.2   1 <1>  -0.5700 
 18 C       -6.4130    -9.6910    -0.2820 C.3   1 <1>   0.1810 
 19 O       -5.7750   -10.3020     0.8300 O.3   1 <1>  -0.3630 
 20 C       -5.7910   -11.6480     0.9950 C.ar  1 <1>   0.0830 
 21 C       -6.4810   -12.5240     0.1600 C.ar  1 <1>  -0.1500 
 22 C       -5.0660   -12.1510     2.0620 C.ar  1 <1>  -0.1500 
 23 C       -6.4330   -13.8900     0.3880 C.ar  1 <1>  -0.1430 
 24 C       -5.0180   -13.5130     2.2930 C.ar  1 <1>  -0.1500 
 25 C       -5.6990   -14.3800     1.4560 C.ar  1 <1>  -0.1500 
 26 C       -7.1830   -14.8500    -0.5180 C.3   1 <1>  -0.0970 
 27 H        1.0900     0.8870     2.0430 H     1 <1>   0.0800 
 28 H        1.8220    -0.6400     1.5310 H     1 <1>   0.0800 
 29 H        0.3600    -0.6450     2.5450 H     1 <1>   0.0800 
 30 H       -1.4810    -1.2140    -1.9610 H     1 <1>   0.1500 
 31 H        0.6250    -2.7250     1.4230 H     1 <1>   0.1500 
 32 H       -1.9170    -3.5030    -2.7260 H     1 <1>   0.1500 
 33 H        0.2060    -5.0050     0.6900 H     1 <1>   0.1500 
 34 H       -0.2960    -6.4380    -1.4040 H     1 <1>   0.0800 
 35 H       -1.4780    -5.8510    -2.5520 H     1 <1>   0.0800 
 36 H       -1.9980    -6.2600     0.3090 H     1 <1>   0.4500 
 37 H       -1.5720    -8.4040    -0.7000 H     1 <1>   0.0800 
 38 H       -2.7320    -8.0330    -1.9440 H     1 <1>   0.0800 
 39 H       -3.8850    -5.6890    -1.8810 H     1 <1>   0.0800 
 40 H       -3.4140    -4.5910    -0.6120 H     1 <1>   0.0800 
 41 H       -3.3140    -8.4950     0.9870 H     1 <1>   0.0800 
 42 H       -3.7860    -9.4740    -0.3670 H     1 <1>   0.0800 
 43 H       -5.6050    -5.6520    -0.1980 H     1 <1>   0.0800 
 44 H       -4.4720    -5.9870     1.0700 H     1 <1>   0.0800 
 45 H       -6.0510   -10.1490    -1.1830 H     1 <1>   0.0800 
 46 H       -7.4710    -9.8560    -0.1890 H     1 <1>   0.0800 
 47 H       -7.0640   -12.1640    -0.6650 H     1 <1>   0.1500 
 48 H       -4.5440   -11.4740     2.7130 H     1 <1>   0.1500 
 49 H       -4.4530   -13.9000     3.1240 H     1 <1>   0.1500 
 50 H       -5.6580   -15.4390     1.6440 H     1 <1>   0.1500 
 51 H       -8.1400   -15.0830    -0.0860 H     1 <1>   0.0800 
 52 H       -6.6260   -15.7610    -0.6400 H     1 <1>   0.0800 
 53 H       -7.3370   -14.4160    -1.4890 H     1 <1>   0.0800 
@<TRIPOS>BOND
  1   1   2  1   
  2   1   3  1   
  3   2   4  ar  
  4   2   5  ar  
  5   3  27  1   
  6   3  28  1   
  7   3  29  1   
  8   4   6  ar  
  9   4  30  1   
 10   5   7  ar  
 11   5  31  1   
 12   6   8  ar  
 13   6  32  1   
 14   7   8  ar  
 15   7  33  1   
 16   8   9  1   
 17   9  10  1   
 18   9  34  1   
 19   9  35  1   
 20  10  11  1   
 21  10  12  1   
 22  10  36  1   
 23  11  13  1   
 24  11  37  1   
 25  11  38  1   
 26  12  14  1   
 27  12  39  1   
 28  12  40  1   
 29  13  15  1   
 30  13  41  1   
 31  13  42  1   
 32  14  15  1   
 33  14  43  1   
 34  14  44  1   
 35  15  16  am  
 36  16  17  2   
 37  16  18  1   
 38  18  19  1   
 39  18  45  1   
 40  18  46  1   
 41  19  20  1   
 42  20  21  ar  
 43  20  22  ar  
 44  21  23  ar  
 45  21  47  1   
 46  22  24  ar  
 47  22  48  1   
 48  23  25  ar  
 49  23  26  1   
 50  24  25  ar  
 51  24  49  1   
 52  25  50  1   
 53  26  51  1   
 54  26  52  1   
 55  26  53  1   
@<TRIPOS>SUBSTRUCTURE
  1 ****  13 GROUP 4 **** **** 0

# MOE 2024.06 (io_trps.svl 2023.06)
