@<TRIPOS>MOLECULE
NONAME
43 44 1 0 0 
SMALL
USER_CHARGES


@<TRIPOS>ATOM
  1 S       -0.0120     0.3180     0.2860 S.3   1 <1>  -0.3320 
  2 C       -1.5060    -0.6550     0.3020 C.ar  1 <1>   0.7220 
  3 C        1.3450    -0.9480     0.2180 C.3   1 <1>   0.1310 
  4 N       -2.6090     0.0260     0.3320 N.ar  1 <1>  -0.6200 
  5 N       -1.3470    -1.9430     0.2820 N.ar  1 <1>  -0.6200 
  6 C        2.7050    -0.2790     0.1780 C.2   1 <1>   0.6590 
  7 C       -3.6820    -0.7300     0.3410 C.ar  1 <1>   0.7200 
  8 C       -2.4910    -2.5770     0.2950 C.ar  1 <1>   0.7200 
  9 O        3.4870    -0.3830     1.0890 O.2   1 <1>  -0.5700 
 10 O        2.9970     0.4010    -0.9260 O.3   1 <1>  -0.4300 
 11 N       -3.6750    -2.0400     0.3240 N.ar  1 <1>  -0.6200 
 12 N       -4.9040    -0.0960     0.3710 N.pl3 1 <1>  -0.8380 
 13 N       -2.4820    -3.9260     0.2800 N.pl3 1 <1>  -0.8690 
 14 C        4.2310     1.0700    -1.0820 C.3   1 <1>   0.0400 
 15 C       -6.2140    -0.8220     0.4110 C.3   1 <1>   0.2090 
 16 C       -5.0640     1.3930     0.4410 C.3   1 <1>   0.2090 
 17 C       -1.3330    -4.8190     0.4260 C.3   1 <1>   0.2890 
 18 C       -7.2130    -0.2040    -0.5820 C.3   1 <1>   0.1200 
 19 C       -6.1360     1.8760    -0.5520 C.3   1 <1>   0.1200 
 20 C       -1.4230    -5.8780    -0.6650 C.3   1 <1>  -0.2400 
 21 C       -1.3960    -5.4430     1.8140 C.3   1 <1>  -0.2400 
 22 O       -7.3380     1.1770    -0.3800 O.3   1 <1>  -0.5600 
 23 H        1.1920    -1.5380    -0.6660 H     1 <1>   0.0800 
 24 H        1.2550    -1.5610     1.0950 H     1 <1>   0.0800 
 25 H       -3.4010    -4.3550     0.3550 H     1 <1>   0.4000 
 26 H        4.2410     1.5490    -2.0440 H     1 <1>   0.0800 
 27 H        5.0290     0.3500    -1.0170 H     1 <1>   0.0800 
 28 H        4.3290     1.8040    -0.3010 H     1 <1>   0.0800 
 29 H       -6.6200    -0.7600     1.4060 H     1 <1>   0.0800 
 30 H       -6.0930    -1.8630     0.1700 H     1 <1>   0.0800 
 31 H       -4.1420     1.8990     0.2200 H     1 <1>   0.0800 
 32 H       -5.3580     1.6680     1.4390 H     1 <1>   0.0800 
 33 H       -0.4110    -4.2700     0.3170 H     1 <1>   0.0800 
 34 H       -8.1850    -0.6440    -0.4500 H     1 <1>   0.0800 
 35 H       -6.8890    -0.3770    -1.5930 H     1 <1>   0.0800 
 36 H       -5.7970     1.7360    -1.5630 H     1 <1>   0.0800 
 37 H       -6.3390     2.9210    -0.3960 H     1 <1>   0.0800 
 38 H       -2.3310    -6.4450    -0.5720 H     1 <1>   0.0800 
 39 H       -0.5880    -6.5510    -0.5910 H     1 <1>   0.0800 
 40 H       -1.3940    -5.4070    -1.6310 H     1 <1>   0.0800 
 41 H       -2.3060    -6.0010     1.9410 H     1 <1>   0.0800 
 42 H       -1.3440    -4.6720     2.5620 H     1 <1>   0.0800 
 43 H       -0.5630    -6.1070     1.9550 H     1 <1>   0.0800 
@<TRIPOS>BOND
  1   1   2  1   
  2   1   3  1   
  3   2   4  ar  
  4   2   5  ar  
  5   3   6  1   
  6   3  23  1   
  7   3  24  1   
  8   4   7  ar  
  9   5   8  ar  
 10   6   9  2   
 11   6  10  1   
 12   7  11  ar  
 13   7  12  1   
 14   8  11  ar  
 15   8  13  1   
 16  10  14  1   
 17  12  15  1   
 18  12  16  1   
 19  13  17  1   
 20  13  25  1   
 21  14  26  1   
 22  14  27  1   
 23  14  28  1   
 24  15  18  1   
 25  15  29  1   
 26  15  30  1   
 27  16  19  1   
 28  16  31  1   
 29  16  32  1   
 30  17  20  1   
 31  17  21  1   
 32  17  33  1   
 33  18  22  1   
 34  18  34  1   
 35  18  35  1   
 36  19  22  1   
 37  19  36  1   
 38  19  37  1   
 39  20  38  1   
 40  20  39  1   
 41  20  40  1   
 42  21  41  1   
 43  21  42  1   
 44  21  43  1   
@<TRIPOS>SUBSTRUCTURE
  1 ****   2 GROUP 4 **** **** 0

# MOE 2024.06 (io_trps.svl 2023.06)
