@<TRIPOS>MOLECULE
NONAME
40 40 1 0 0 
SMALL
USER_CHARGES


@<TRIPOS>ATOM
  1 CL      -2.2330    -3.0700    -0.1670 Cl    1 <1>  -0.1770 
  2 C       -0.6470    -3.4880     0.4400 C.ar  1 <1>   0.1770 
  3 C       -0.4180    -3.6060     1.8020 C.ar  1 <1>   0.1770 
  4 C        0.3740    -3.7000    -0.4660 C.ar  1 <1>  -0.1500 
  5 CL      -1.7080    -3.3410     2.9550 Cl    1 <1>  -0.1770 
  6 C        0.8410    -3.9380     2.2680 C.ar  1 <1>  -0.1500 
  7 C        1.6430    -4.0380    -0.0110 C.ar  1 <1>   0.1990 
  8 C        1.8650    -4.1510     1.3600 C.ar  1 <1>  -0.1500 
  9 N        2.6680    -4.2460    -0.9250 N.am  1 <1>  -0.6930 
 10 S        3.2870    -5.8370    -1.2130 S.o2  1 <1>   1.3330 
 11 C        3.6340    -3.1190    -1.1220 C.3   1 <1>   0.2570 
 12 O        4.4380    -5.6800    -2.0710 O.2   1 <1>  -0.6500 
 13 O        3.4140    -6.4980     0.0610 O.2   1 <1>  -0.6500 
 14 C        1.9760    -6.5850    -2.1550 C.3   1 <1>  -0.1350 
 15 C        4.7880    -3.0960    -0.1130 C.2   1 <1>   0.5690 
 16 O        4.7440    -2.3090     0.8030 O.2   1 <1>  -0.5700 
 17 N        5.8290    -3.9570    -0.2680 N.am  1 <1>  -0.7300 
 18 C        6.9770    -4.0930     0.6470 C.3   1 <1>   0.1400 
 19 C        8.2630    -4.1600    -0.1720 C.3   1 <1>  -0.1600 
 20 C        9.4780    -4.2850     0.7440 C.3   1 <1>   0.1200 
 21 O       10.6090    -4.3550    -0.0580 O.3   1 <1>  -0.5600 
 22 C       11.7990    -4.4660     0.6510 C.3   1 <1>   0.0400 
 23 H        0.1870    -3.6000    -1.5180 H     1 <1>   0.1500 
 24 H        1.0160    -4.0260     3.3260 H     1 <1>   0.1500 
 25 H        2.8490    -4.4090     1.7140 H     1 <1>   0.1500 
 26 H        3.1050    -2.1860    -1.0400 H     1 <1>   0.0800 
 27 H        4.0450    -3.1690    -2.1140 H     1 <1>   0.0800 
 28 H        1.7950    -6.0230    -3.0500 H     1 <1>   0.0800 
 29 H        1.0740    -6.6160    -1.5750 H     1 <1>   0.0800 
 30 H        2.2440    -7.5870    -2.4260 H     1 <1>   0.0800 
 31 H        5.7710    -4.6690    -1.0130 H     1 <1>   0.3700 
 32 H        6.8570    -4.9920     1.2280 H     1 <1>   0.0800 
 33 H        7.0090    -3.2510     1.3190 H     1 <1>   0.0800 
 34 H        8.3590    -3.2630    -0.7570 H     1 <1>   0.0800 
 35 H        8.2300    -5.0130    -0.8260 H     1 <1>   0.0800 
 36 H        9.4190    -5.1820     1.3360 H     1 <1>   0.0800 
 37 H        9.5610    -3.4230     1.3850 H     1 <1>   0.0800 
 38 H       12.6060    -4.5130    -0.0590 H     1 <1>   0.0800 
 39 H       11.7810    -5.3680     1.2380 H     1 <1>   0.0800 
 40 H       11.9200    -3.6020     1.2810 H     1 <1>   0.0800 
@<TRIPOS>BOND
  1   1   2  1   
  2   2   3  ar  
  3   2   4  ar  
  4   3   5  1   
  5   3   6  ar  
  6   4   7  ar  
  7   4  23  1   
  8   6   8  ar  
  9   6  24  1   
 10   7   8  ar  
 11   7   9  1   
 12   8  25  1   
 13   9  10  am  
 14   9  11  1   
 15  10  12  2   
 16  10  13  2   
 17  10  14  1   
 18  11  15  1   
 19  11  26  1   
 20  11  27  1   
 21  14  28  1   
 22  14  29  1   
 23  14  30  1   
 24  15  16  2   
 25  15  17  am  
 26  17  18  1   
 27  17  31  1   
 28  18  19  1   
 29  18  32  1   
 30  18  33  1   
 31  19  20  1   
 32  19  34  1   
 33  19  35  1   
 34  20  21  1   
 35  20  36  1   
 36  20  37  1   
 37  21  22  1   
 38  22  38  1   
 39  22  39  1   
 40  22  40  1   
@<TRIPOS>SUBSTRUCTURE
  1 ****   9 GROUP 4 **** **** 0

# MOE 2024.06 (io_trps.svl 2023.06)
