@<TRIPOS>MOLECULE
NONAME
54 56 1 0 0 
SMALL
USER_CHARGES


@<TRIPOS>ATOM
  1 S        3.6480    -1.8640    -1.2320 S.3   1 <1>  -0.4100 
  2 C        2.4760    -1.3670     0.0700 C.3   1 <1>   0.1500 
  3 C        1.1360    -2.0580    -0.2020 C.3   1 <1>   0.1200 
  4 C        2.3760     0.1680     0.0650 C.3   1 <1>   0.3430 
  5 O        1.3470    -3.4290    -0.1360 O.3   1 <1>  -0.5600 
  6 N        3.7240     0.8140     0.0300 N.4   1 <1>  -0.9590 
  7 C        0.2430    -4.2150    -0.4630 C.3   1 <1>   0.2640 
  8 C        4.5640     0.6210     1.2590 C.3   1 <1>   0.3430 
  9 C        3.7150     2.2500    -0.4020 C.3   1 <1>   0.3430 
 10 C        0.6570    -5.6730    -0.3810 C.ar  1 <1>  -0.1440 
 11 C        6.0030     1.1470     1.0390 C.3   1 <1>   0.1100 
 12 C        5.1510     2.8190    -0.5220 C.3   1 <1>   0.1100 
 13 C        0.6310    -6.3400     0.8350 C.ar  1 <1>  -0.1500 
 14 C        1.0660    -6.3520    -1.5190 C.ar  1 <1>  -0.1500 
 15 N        6.1810     1.7830    -0.2920 N.3   1 <1>  -0.8100 
 16 C        1.0020    -7.6720     0.9110 C.ar  1 <1>  -0.1500 
 17 C        1.4380    -7.6840    -1.4440 C.ar  1 <1>  -0.1500 
 18 C        7.5480     2.3110    -0.4820 C.3   1 <1>   0.2530 
 19 C        1.4050    -8.3440    -0.2290 C.ar  1 <1>  -0.1500 
 20 C        8.5810     1.2020    -0.3350 C.ar  1 <1>  -0.1440 
 21 C        8.5460     0.1020    -1.1780 C.ar  1 <1>  -0.1500 
 22 C        9.5620     1.2770     0.6430 C.ar  1 <1>  -0.1500 
 23 C        9.4760    -0.9140    -1.0440 C.ar  1 <1>  -0.1500 
 24 C       10.4930     0.2610     0.7780 C.ar  1 <1>  -0.1500 
 25 C       10.4500    -0.8350    -0.0650 C.ar  1 <1>  -0.1500 
 26 H        3.4580    -3.2220    -1.2420 H     1 <1>   0.1800 
 27 H        2.8730    -1.7170     1.0060 H     1 <1>   0.0800 
 28 H        0.7700    -1.8080    -1.1840 H     1 <1>   0.0800 
 29 H        0.4060    -1.7920     0.5440 H     1 <1>   0.0800 
 30 H        1.8270     0.5000     0.9310 H     1 <1>   0.0800 
 31 H        1.8250     0.4620    -0.8130 H     1 <1>   0.0800 
 32 H        4.2820     0.3330    -0.7040 H     1 <1>   0.4500 
 33 H       -0.0780    -3.9710    -1.4610 H     1 <1>   0.0800 
 34 H       -0.5510    -4.0100     0.2350 H     1 <1>   0.0800 
 35 H        4.6200    -0.4260     1.5080 H     1 <1>   0.0800 
 36 H        4.1220     1.1370     2.0950 H     1 <1>   0.0800 
 37 H        3.1570     2.8460     0.3010 H     1 <1>   0.0800 
 38 H        3.2310     2.3360    -1.3610 H     1 <1>   0.0800 
 39 H        6.6790     0.3130     1.1330 H     1 <1>   0.0800 
 40 H        6.2490     1.8470     1.8190 H     1 <1>   0.0800 
 41 H        5.2750     3.6200     0.1870 H     1 <1>   0.0800 
 42 H        5.2770     3.2360    -1.5070 H     1 <1>   0.0800 
 43 H        0.3250    -5.8250     1.7280 H     1 <1>   0.1500 
 44 H        1.1000    -5.8480    -2.4680 H     1 <1>   0.1500 
 45 H        0.9790    -8.1840     1.8570 H     1 <1>   0.1500 
 46 H        1.7530    -8.2050    -2.3310 H     1 <1>   0.1500 
 47 H        7.7430     3.0940     0.2310 H     1 <1>   0.0800 
 48 H        7.6360     2.7290    -1.4700 H     1 <1>   0.0800 
 49 H        1.6940    -9.3790    -0.1700 H     1 <1>   0.1500 
 50 H        7.7880     0.0340    -1.9390 H     1 <1>   0.1500 
 51 H        9.6110     2.1230     1.3050 H     1 <1>   0.1500 
 52 H        9.4410    -1.7650    -1.7020 H     1 <1>   0.1500 
 53 H       11.2530     0.3230     1.5370 H     1 <1>   0.1500 
 54 H       11.1740    -1.6240     0.0380 H     1 <1>   0.1500 
@<TRIPOS>BOND
  1   1   2  1   
  2   1  26  1   
  3   2   3  1   
  4   2   4  1   
  5   2  27  1   
  6   3   5  1   
  7   3  28  1   
  8   3  29  1   
  9   4   6  1   
 10   4  30  1   
 11   4  31  1   
 12   5   7  1   
 13   6   8  1   
 14   6   9  1   
 15   6  32  1   
 16   7  10  1   
 17   7  33  1   
 18   7  34  1   
 19   8  11  1   
 20   8  35  1   
 21   8  36  1   
 22   9  12  1   
 23   9  37  1   
 24   9  38  1   
 25  10  13  ar  
 26  10  14  ar  
 27  11  15  1   
 28  11  39  1   
 29  11  40  1   
 30  12  15  1   
 31  12  41  1   
 32  12  42  1   
 33  13  16  ar  
 34  13  43  1   
 35  14  17  ar  
 36  14  44  1   
 37  15  18  1   
 38  16  19  ar  
 39  16  45  1   
 40  17  19  ar  
 41  17  46  1   
 42  18  20  1   
 43  18  47  1   
 44  18  48  1   
 45  19  49  1   
 46  20  21  ar  
 47  20  22  ar  
 48  21  23  ar  
 49  21  50  1   
 50  22  24  ar  
 51  22  51  1   
 52  23  25  ar  
 53  23  52  1   
 54  24  25  ar  
 55  24  53  1   
 56  25  54  1   
@<TRIPOS>SUBSTRUCTURE
  1 ****   1 GROUP 4 **** **** 0

# MOE 2024.06 (io_trps.svl 2023.06)
