@<TRIPOS>MOLECULE
NONAME
37 40 1 0 0 
SMALL
USER_CHARGES


@<TRIPOS>ATOM
  1 F       -1.0670    -0.9000    -0.2160 F     1 <1>  -0.3400 
  2 C       -0.3590    -1.6730     0.5990 C.3   1 <1>   1.1640 
  3 F       -0.7950    -2.9120     0.3980 F     1 <1>  -0.3400 
  4 F       -0.7220    -1.3490     1.8330 F     1 <1>  -0.3400 
  5 C        1.1580    -1.5350     0.3880 C.ar  1 <1>  -0.1440 
  6 C        1.7120    -0.3100     0.0330 C.ar  1 <1>  -0.1500 
  7 C        2.0070    -2.6250     0.5530 C.ar  1 <1>  -0.1500 
  8 C        3.0820    -0.1540    -0.1570 C.ar  1 <1>   0.1170 
  9 C        3.3700    -2.4890     0.3620 C.ar  1 <1>  -0.1500 
 10 N        3.6720     1.0650    -0.5210 N.am  1 <1>  -0.5470 
 11 C        3.9000    -1.2640     0.0080 C.ar  1 <1>  -0.1500 
 12 C        3.2430     2.3550    -0.3590 C.2   1 <1>   0.5690 
 13 O        2.1900     2.6460     0.1510 O.2   1 <1>  -0.5700 
 14 C        4.1770     3.4630    -0.8580 C.3   1 <1>  -0.0190 
 15 C        5.7000     3.4890    -0.0190 C.3   1 <1>  -0.0190 
 16 C        3.6330     5.1520    -0.6750 C.3   1 <1>  -0.0800 
 17 C        6.9370     4.3480    -0.5010 C.2   1 <1>   0.6590 
 18 C        5.4510     4.5560     1.0510 C.3   1 <1>  -0.0800 
 19 C        4.2710     6.6090     0.1320 C.3   1 <1>  -0.1600 
 20 C        4.3450     4.8320     0.2690 C.3   1 <1>  -0.1600 
 21 O        7.8300     3.8940    -1.1630 O.2   1 <1>  -0.5700 
 22 O        6.8840     5.6760    -0.1080 O.3   1 <1>  -0.4300 
 23 C        5.7690     6.0310     0.7870 C.3   1 <1>   0.2000 
 24 H        1.0650     0.5390    -0.1010 H     1 <1>   0.1500 
 25 H        1.6130    -3.5890     0.8330 H     1 <1>   0.1500 
 26 H        4.0170    -3.3410     0.4910 H     1 <1>   0.1500 
 27 H        4.5910     0.9690    -0.9480 H     1 <1>   0.3700 
 28 H        4.9620    -1.1730    -0.1350 H     1 <1>   0.1500 
 29 H        4.3520     3.2670    -1.9020 H     1 <1>   0.0800 
 30 H        6.0080     2.5470     0.3950 H     1 <1>   0.0800 
 31 H        2.5550     5.1490    -0.5590 H     1 <1>   0.0800 
 32 H        5.1640     4.2510     2.0450 H     1 <1>   0.0800 
 33 H        3.6160     6.9780     0.9120 H     1 <1>   0.0800 
 34 H        4.4430     7.4140    -0.5640 H     1 <1>   0.0800 
 35 H        4.9490     5.1730    -0.8590 H     1 <1>   0.0800 
 36 H        3.5280     4.6800     1.0020 H     1 <1>   0.0800 
 37 H        6.1390     6.5720     1.6420 H     1 <1>   0.0800 
@<TRIPOS>BOND
  1   1   2  1   
  2   2   3  1   
  3   2   4  1   
  4   2   5  1   
  5   5   6  ar  
  6   5   7  ar  
  7   6   8  ar  
  8   6  24  1   
  9   7   9  ar  
 10   7  25  1   
 11   8  10  1   
 12   8  11  ar  
 13   9  11  ar  
 14   9  26  1   
 15  10  12  am  
 16  10  27  1   
 17  11  28  1   
 18  12  13  2   
 19  12  14  1   
 20  14  15  1   
 21  14  16  1   
 22  14  29  1   
 23  15  17  1   
 24  15  18  1   
 25  15  30  1   
 26  16  19  1   
 27  16  20  1   
 28  16  31  1   
 29  17  21  2   
 30  17  22  1   
 31  18  20  1   
 32  18  23  1   
 33  18  32  1   
 34  19  23  1   
 35  19  33  1   
 36  19  34  1   
 37  20  35  1   
 38  20  36  1   
 39  22  23  1   
 40  23  37  1   
@<TRIPOS>SUBSTRUCTURE
  1 ****  12 GROUP 4 **** **** 0

# MOE 2024.06 (io_trps.svl 2023.06)
