@<TRIPOS>MOLECULE
NONAME
33 33 1 0 0 
SMALL
USER_CHARGES


@<TRIPOS>ATOM
  1 BR       2.1320     1.1830    -2.3610 Br    1 <1>  -0.1110 
  2 C        1.1570     2.2470    -1.0790 C.ar  1 <1>   0.1110 
  3 C        1.8010     2.6960     0.0670 C.ar  1 <1>   0.0820 
  4 C       -0.1680     2.5320    -1.3470 C.ar  1 <1>  -0.1500 
  5 O        3.1070     2.3640     0.2430 O.3   1 <1>  -0.3630 
  6 C        1.0680     3.4610     0.9690 C.ar  1 <1>  -0.1500 
  7 C       -0.8880     3.2940    -0.4400 C.ar  1 <1>  -0.1430 
  8 C        3.8330     2.7810     1.3920 C.3   1 <1>   0.1810 
  9 C       -0.2630     3.7540     0.7110 C.ar  1 <1>  -0.1500 
 10 C       -2.3460     3.6280    -0.7030 C.3   1 <1>  -0.0960 
 11 C        5.2720     2.2820     1.3440 C.2   1 <1>   0.5690 
 12 O        6.0430     2.6550     2.1960 O.2   1 <1>  -0.5700 
 13 N        5.6570     1.4410     0.3470 N.am  1 <1>  -0.7300 
 14 C        7.0120     0.8590     0.1840 C.3   1 <1>   0.1400 
 15 C        7.9180     1.8310    -0.5700 C.3   1 <1>   0.1200 
 16 O        9.1200     1.1870    -0.8540 O.3   1 <1>  -0.5600 
 17 C       10.0580     2.0010    -1.4810 C.3   1 <1>   0.0400 
 18 H       -0.6220     2.1630    -2.2490 H     1 <1>   0.1500 
 19 H        1.5080     3.8390     1.8730 H     1 <1>   0.1500 
 20 H        3.3490     2.3830     2.2650 H     1 <1>   0.0800 
 21 H        3.8320     3.8550     1.4250 H     1 <1>   0.0800 
 22 H       -0.8180     4.3480     1.4170 H     1 <1>   0.1500 
 23 H       -2.7850     2.9080    -1.3700 H     1 <1>   0.0800 
 24 H       -2.4210     4.6030    -1.1480 H     1 <1>   0.0800 
 25 H       -2.9030     3.6210     0.2170 H     1 <1>   0.0800 
 26 H        4.9590     1.1950    -0.3630 H     1 <1>   0.3700 
 27 H        6.9360    -0.0650    -0.3610 H     1 <1>   0.0800 
 28 H        7.4360     0.6610     1.1540 H     1 <1>   0.0800 
 29 H        8.1180     2.6940     0.0410 H     1 <1>   0.0800 
 30 H        7.4620     2.1250    -1.5000 H     1 <1>   0.0800 
 31 H       10.9420     1.4150    -1.6610 H     1 <1>   0.0800 
 32 H       10.2960     2.8290    -0.8360 H     1 <1>   0.0800 
 33 H        9.6570     2.3510    -2.4170 H     1 <1>   0.0800 
@<TRIPOS>BOND
  1   1   2  1   
  2   2   3  ar  
  3   2   4  ar  
  4   3   5  1   
  5   3   6  ar  
  6   4   7  ar  
  7   4  18  1   
  8   5   8  1   
  9   6   9  ar  
 10   6  19  1   
 11   7   9  ar  
 12   7  10  1   
 13   8  11  1   
 14   8  20  1   
 15   8  21  1   
 16   9  22  1   
 17  10  23  1   
 18  10  24  1   
 19  10  25  1   
 20  11  12  2   
 21  11  13  am  
 22  13  14  1   
 23  13  26  1   
 24  14  15  1   
 25  14  27  1   
 26  14  28  1   
 27  15  16  1   
 28  15  29  1   
 29  15  30  1   
 30  16  17  1   
 31  17  31  1   
 32  17  32  1   
 33  17  33  1   
@<TRIPOS>SUBSTRUCTURE
  1 ****   5 GROUP 4 **** **** 0

# MOE 2024.06 (io_trps.svl 2023.06)
