@<TRIPOS>MOLECULE
NONAME
41 42 1 0 0 
SMALL
USER_CHARGES


@<TRIPOS>ATOM
  1 O       -0.9310    -0.2520     0.1050 O.3   1 <1>  -0.3630 
  2 C       -2.0550    -0.8730    -0.3600 C.ar  1 <1>   0.0820 
  3 C       -0.3810     0.8840    -0.5200 C.3   1 <1>   0.1200 
  4 C       -2.6220    -1.9360     0.3650 C.ar  1 <1>   0.0820 
  5 C       -2.6720    -0.4610    -1.5400 C.ar  1 <1>  -0.1500 
  6 C        0.8240     1.3330     0.3010 C.3   1 <1>  -0.2400 
  7 O       -2.1400    -2.4630     1.5270 O.3   1 <1>  -0.3620 
  8 C       -3.7830    -2.5330    -0.0980 C.ar  1 <1>  -0.1500 
  9 C       -3.8290    -1.0760    -1.9880 C.ar  1 <1>  -0.1500 
 10 C       -0.7660    -2.4350     1.8410 C.3   1 <1>   0.0400 
 11 C       -4.3920    -2.1160    -1.2700 C.ar  1 <1>  -0.1430 
 12 C       -5.6680    -2.7860    -1.7460 C.3   1 <1>   0.3530 
 13 N       -6.8030    -2.0370    -1.1780 N.pl3 1 <1>  -0.8690 
 14 C       -7.6900    -2.7470    -0.3790 C.ar  1 <1>   0.1000 
 15 C       -7.8180    -2.4630     0.9820 C.ar  1 <1>  -0.1430 
 16 C       -8.4640    -3.7570    -0.9360 C.ar  1 <1>  -0.1500 
 17 C       -8.7020    -3.1990     1.7550 C.ar  1 <1>  -0.1500 
 18 C       -6.9980    -1.3570     1.6340 C.3   1 <1>  -0.0970 
 19 C       -9.3430    -4.4880    -0.1600 C.ar  1 <1>  -0.1500 
 20 C       -9.4610    -4.2100     1.1900 C.ar  1 <1>  -0.1500 
 21 H       -1.1310     1.6550    -0.5480 H     1 <1>   0.0800 
 22 H       -0.0800     0.6140    -1.5180 H     1 <1>   0.0800 
 23 H       -2.2740     0.3410    -2.1300 H     1 <1>   0.1500 
 24 H        0.5160     1.5830     1.3010 H     1 <1>   0.0800 
 25 H        1.2680     2.2020    -0.1490 H     1 <1>   0.0800 
 26 H        1.5600     0.5500     0.3370 H     1 <1>   0.0800 
 27 H       -4.2120    -3.3360     0.4760 H     1 <1>   0.1500 
 28 H       -4.2940    -0.7370    -2.8980 H     1 <1>   0.1500 
 29 H       -0.5810    -3.1690     2.6040 H     1 <1>   0.0800 
 30 H       -0.5140    -1.4570     2.2100 H     1 <1>   0.0800 
 31 H       -0.1980    -2.6690     0.9580 H     1 <1>   0.0800 
 32 H       -5.6930    -3.8130    -1.4210 H     1 <1>   0.0800 
 33 H       -5.7270    -2.7640    -2.8200 H     1 <1>   0.0800 
 34 H       -6.4220    -1.2220    -0.6900 H     1 <1>   0.4000 
 35 H       -8.3760    -3.9610    -1.9860 H     1 <1>   0.1500 
 36 H       -8.8060    -2.9920     2.8050 H     1 <1>   0.1500 
 37 H       -7.2090    -0.4160     1.1580 H     1 <1>   0.0800 
 38 H       -5.9490    -1.5710     1.5400 H     1 <1>   0.0800 
 39 H       -7.2320    -1.2670     2.6790 H     1 <1>   0.0800 
 40 H       -9.9360    -5.2680    -0.6040 H     1 <1>   0.1500 
 41 H      -10.1440    -4.7750     1.8000 H     1 <1>   0.1500 
@<TRIPOS>BOND
  1   1   2  1   
  2   1   3  1   
  3   2   4  ar  
  4   2   5  ar  
  5   3   6  1   
  6   3  21  1   
  7   3  22  1   
  8   4   7  1   
  9   4   8  ar  
 10   5   9  ar  
 11   5  23  1   
 12   6  24  1   
 13   6  25  1   
 14   6  26  1   
 15   7  10  1   
 16   8  11  ar  
 17   8  27  1   
 18   9  11  ar  
 19   9  28  1   
 20  10  29  1   
 21  10  30  1   
 22  10  31  1   
 23  11  12  1   
 24  12  13  1   
 25  12  32  1   
 26  12  33  1   
 27  13  14  1   
 28  13  34  1   
 29  14  15  ar  
 30  14  16  ar  
 31  15  17  ar  
 32  15  18  1   
 33  16  19  ar  
 34  16  35  1   
 35  17  20  ar  
 36  17  36  1   
 37  18  37  1   
 38  18  38  1   
 39  18  39  1   
 40  19  20  ar  
 41  19  40  1   
 42  20  41  1   
@<TRIPOS>SUBSTRUCTURE
  1 ****   8 GROUP 4 **** **** 0

# MOE 2024.06 (io_trps.svl 2023.06)
