@<TRIPOS>MOLECULE
NONAME
66 69 1 0 0 
SMALL
USER_CHARGES


@<TRIPOS>ATOM
  1 N        0.2190    -0.1900    -0.4500 N.4   1 <1>  -0.9590 
  2 C        1.4870     0.5970    -0.6580 C.3   1 <1>   0.4230 
  3 C       -0.9300     0.4230    -1.1940 C.3   1 <1>   0.3430 
  4 C       -0.1300    -0.4700     0.9850 C.3   1 <1>   0.3430 
  5 C        2.7100    -0.2370    -0.2660 C.3   1 <1>  -0.1600 
  6 C        1.5020     1.9350     0.0950 C.3   1 <1>  -0.1600 
  7 C       -2.1570    -0.4910    -1.1330 C.3   1 <1>  -0.1600 
  8 C       -1.3490    -1.3940     1.0650 C.3   1 <1>  -0.1600 
  9 C        4.0050     0.5360    -0.5350 C.3   1 <1>   0.3430 
 10 C        2.8070     2.6920    -0.1780 C.3   1 <1>   0.3430 
 11 C       -2.5440    -0.7910     0.3210 C.3   1 <1>   0.4230 
 12 N        3.9840     1.8470     0.1840 N.4   1 <1>  -0.9590 
 13 N       -3.7390    -1.6840     0.4330 N.4   1 <1>  -0.9590 
 14 C        5.2440     2.6300    -0.0690 C.3   1 <1>   0.3430 
 15 C       -3.6510    -2.9990    -0.2880 C.3   1 <1>   0.3430 
 16 C       -5.0060    -0.9690     0.0680 C.3   1 <1>   0.3430 
 17 C        6.4720     1.9950     0.5890 C.3   1 <1>  -0.0170 
 18 C       -4.8280    -3.8880     0.1150 C.3   1 <1>  -0.1600 
 19 C       -6.2130    -1.8140     0.4770 C.3   1 <1>  -0.1600 
 20 C        7.6550     2.9120     0.3590 C.ar  1 <1>  -0.1430 
 21 C       -6.1740    -3.2080    -0.1610 C.3   1 <1>  -0.1600 
 22 C        7.9470     3.9170     1.2690 C.ar  1 <1>  -0.1500 
 23 C        8.4480     2.7630    -0.7690 C.ar  1 <1>  -0.1500 
 24 C        9.0150     4.7690     1.0480 C.ar  1 <1>  -0.1500 
 25 C        9.5160     3.6150    -0.9890 C.ar  1 <1>  -0.1500 
 26 C        9.7990     4.6200    -0.0810 C.ar  1 <1>  -0.1500 
 27 H        0.3910    -1.1050    -0.8950 H     1 <1>   0.4500 
 28 H        1.5730     0.8140    -1.7120 H     1 <1>   0.0800 
 29 H       -0.6590     0.5800    -2.2270 H     1 <1>   0.0800 
 30 H       -1.1750     1.3830    -0.7660 H     1 <1>   0.0800 
 31 H       -0.3470     0.4540     1.4970 H     1 <1>   0.0800 
 32 H        0.7010    -0.9420     1.4850 H     1 <1>   0.0800 
 33 H        2.7360    -1.1410    -0.8480 H     1 <1>   0.0800 
 34 H        2.6850    -0.5060     0.7750 H     1 <1>   0.0800 
 35 H        1.4120     1.7910     1.1560 H     1 <1>   0.0800 
 36 H        0.6880     2.5560    -0.2340 H     1 <1>   0.0800 
 37 H       -1.9390    -1.3940    -1.6740 H     1 <1>   0.0800 
 38 H       -2.9690     0.0090    -1.6310 H     1 <1>   0.0800 
 39 H       -1.6030    -1.5260     2.1020 H     1 <1>   0.0800 
 40 H       -1.0810    -2.3540     0.6620 H     1 <1>   0.0800 
 41 H        4.1150     0.7050    -1.5950 H     1 <1>   0.0800 
 42 H        4.8460    -0.0540    -0.2050 H     1 <1>   0.0800 
 43 H        2.8210     3.6050     0.3980 H     1 <1>   0.0800 
 44 H        2.8610     2.9600    -1.2220 H     1 <1>   0.0800 
 45 H       -2.7850     0.1450     0.8010 H     1 <1>   0.0800 
 46 H        3.9590     1.6720     1.2000 H     1 <1>   0.4500 
 47 H       -3.8580    -1.9290     1.4260 H     1 <1>   0.4500 
 48 H        5.1370     3.6260     0.3300 H     1 <1>   0.0800 
 49 H        5.4210     2.7230    -1.1290 H     1 <1>   0.0800 
 50 H       -2.7320    -3.5040    -0.0410 H     1 <1>   0.0800 
 51 H       -3.6780    -2.8380    -1.3530 H     1 <1>   0.0800 
 52 H       -5.0380    -0.7950    -0.9960 H     1 <1>   0.0800 
 53 H       -5.0570    -0.0170     0.5720 H     1 <1>   0.0800 
 54 H        6.6890     1.0320     0.1620 H     1 <1>   0.0800 
 55 H        6.3160     1.8780     1.6470 H     1 <1>   0.0800 
 56 H       -4.7500    -4.1400     1.1590 H     1 <1>   0.0800 
 57 H       -4.7780    -4.8100    -0.4390 H     1 <1>   0.0800 
 58 H       -7.1140    -1.3110     0.1700 H     1 <1>   0.0800 
 59 H       -6.2470    -1.9010     1.5490 H     1 <1>   0.0800 
 60 H       -6.9760    -3.8120     0.2300 H     1 <1>   0.0800 
 61 H       -6.3220    -3.1220    -1.2250 H     1 <1>   0.0800 
 62 H        7.3550     4.0500     2.1580 H     1 <1>   0.1500 
 63 H        8.2520     1.9860    -1.4880 H     1 <1>   0.1500 
 64 H        9.2400     5.5490     1.7560 H     1 <1>   0.1500 
 65 H       10.1310     3.4980    -1.8650 H     1 <1>   0.1500 
 66 H       10.6300     5.2820    -0.2520 H     1 <1>   0.1500 
@<TRIPOS>BOND
  1   1   2  1   
  2   1   3  1   
  3   1   4  1   
  4   1  27  1   
  5   2   5  1   
  6   2   6  1   
  7   2  28  1   
  8   3   7  1   
  9   3  29  1   
 10   3  30  1   
 11   4   8  1   
 12   4  31  1   
 13   4  32  1   
 14   5   9  1   
 15   5  33  1   
 16   5  34  1   
 17   6  10  1   
 18   6  35  1   
 19   6  36  1   
 20   7  11  1   
 21   7  37  1   
 22   7  38  1   
 23   8  11  1   
 24   8  39  1   
 25   8  40  1   
 26   9  12  1   
 27   9  41  1   
 28   9  42  1   
 29  10  12  1   
 30  10  43  1   
 31  10  44  1   
 32  11  13  1   
 33  11  45  1   
 34  12  14  1   
 35  12  46  1   
 36  13  15  1   
 37  13  16  1   
 38  13  47  1   
 39  14  17  1   
 40  14  48  1   
 41  14  49  1   
 42  15  18  1   
 43  15  50  1   
 44  15  51  1   
 45  16  19  1   
 46  16  52  1   
 47  16  53  1   
 48  17  20  1   
 49  17  54  1   
 50  17  55  1   
 51  18  21  1   
 52  18  56  1   
 53  18  57  1   
 54  19  21  1   
 55  19  58  1   
 56  19  59  1   
 57  20  22  ar  
 58  20  23  ar  
 59  21  60  1   
 60  21  61  1   
 61  22  24  ar  
 62  22  62  1   
 63  23  25  ar  
 64  23  63  1   
 65  24  26  ar  
 66  24  64  1   
 67  25  26  ar  
 68  25  65  1   
 69  26  66  1   
@<TRIPOS>SUBSTRUCTURE
  1 ****   2 GROUP 4 **** **** 0

# MOE 2024.06 (io_trps.svl 2023.06)
