@<TRIPOS>MOLECULE
NONAME
47 49 1 0 0 
SMALL
USER_CHARGES


@<TRIPOS>ATOM
  1 O        0.2770     0.7700    -2.9440 O.2   1 <1>  -0.5700 
  2 C       -0.1130     1.1250    -1.8570 C.2   1 <1>   0.5690 
  3 N        0.6620     1.1950    -0.7350 N.am  1 <1>  -0.5470 
  4 C       -1.5770     1.5400    -1.6910 C.3   1 <1>   0.1710 
  5 C        2.0130     0.9130    -0.4740 C.ar  1 <1>   0.1170 
  6 N       -2.0930     1.3990    -0.2920 N.3   1 <1>  -0.8100 
  7 C        2.4520     0.9550     0.8440 C.ar  1 <1>  -0.1500 
  8 C        2.9350     0.5990    -1.4670 C.ar  1 <1>  -0.1500 
  9 C       -2.2250    -0.0360     0.0750 C.3   1 <1>   0.1100 
 10 C       -3.3080     2.2160    -0.0650 C.3   1 <1>   0.1100 
 11 C        3.7710     0.6890     1.1700 C.ar  1 <1>  -0.1500 
 12 C        4.2540     0.3320    -1.1480 C.ar  1 <1>  -0.1500 
 13 C       -3.2340    -0.2250     1.2050 C.3   1 <1>  -0.1600 
 14 C       -4.5800     1.3930    -0.2610 C.3   1 <1>  -0.1600 
 15 C        4.6840     0.3740     0.1680 C.ar  1 <1>   0.0830 
 16 C       -4.6180     0.2310     0.7420 C.3   1 <1>   0.5600 
 17 O        5.9960     0.0990     0.3930 O.3   1 <1>  -0.3630 
 18 O       -5.3620     0.5830     1.8610 O.3   1 <1>  -0.5600 
 19 O       -5.2840    -0.8470     0.1770 O.3   1 <1>  -0.5600 
 20 C        6.5270     0.1150     1.6970 C.3   1 <1>   0.1200 
 21 C       -6.6600     0.1250     1.7180 C.3   1 <1>   0.1200 
 22 C       -6.6270    -0.7430     0.4750 C.3   1 <1>   0.1200 
 23 C        8.0090    -0.2330     1.6070 C.3   1 <1>  -0.2400 
 24 H        0.0930     1.4550     0.0760 H     1 <1>   0.3700 
 25 H       -2.1830     0.9630    -2.3670 H     1 <1>   0.0800 
 26 H       -1.6390     2.5690    -1.9930 H     1 <1>   0.0800 
 27 H        1.7560     1.1960     1.6260 H     1 <1>   0.1500 
 28 H        2.6310     0.5620    -2.4960 H     1 <1>   0.1500 
 29 H       -1.2670    -0.4220     0.3780 H     1 <1>   0.0800 
 30 H       -2.5590    -0.6080    -0.7760 H     1 <1>   0.0800 
 31 H       -3.3160     3.0750    -0.7140 H     1 <1>   0.0800 
 32 H       -3.2890     2.5820     0.9480 H     1 <1>   0.0800 
 33 H        4.0670     0.7320     2.2000 H     1 <1>   0.1500 
 34 H        4.9600     0.0900    -1.9220 H     1 <1>   0.1500 
 35 H       -2.9160     0.3600     2.0480 H     1 <1>   0.0800 
 36 H       -3.2740    -1.2560     1.5010 H     1 <1>   0.0800 
 37 H       -4.5850     1.0090    -1.2640 H     1 <1>   0.0800 
 38 H       -5.4410     2.0210    -0.1310 H     1 <1>   0.0800 
 39 H        6.0000    -0.6130     2.2880 H     1 <1>   0.0800 
 40 H        6.3920     1.1010     2.1070 H     1 <1>   0.0800 
 41 H       -7.3240     0.9630     1.6050 H     1 <1>   0.0800 
 42 H       -6.9220    -0.4440     2.5920 H     1 <1>   0.0800 
 43 H       -7.0310    -1.7240     0.6480 H     1 <1>   0.0800 
 44 H       -7.1320    -0.2690    -0.3490 H     1 <1>   0.0800 
 45 H        8.1320    -1.2120     1.1790 H     1 <1>   0.0800 
 46 H        8.4450    -0.2290     2.5890 H     1 <1>   0.0800 
 47 H        8.5220     0.4910     0.9990 H     1 <1>   0.0800 
@<TRIPOS>BOND
  1   1   2  2   
  2   2   3  am  
  3   2   4  1   
  4   3   5  1   
  5   3  24  1   
  6   4   6  1   
  7   4  25  1   
  8   4  26  1   
  9   5   7  ar  
 10   5   8  ar  
 11   6   9  1   
 12   6  10  1   
 13   7  11  ar  
 14   7  27  1   
 15   8  12  ar  
 16   8  28  1   
 17   9  13  1   
 18   9  29  1   
 19   9  30  1   
 20  10  14  1   
 21  10  31  1   
 22  10  32  1   
 23  11  15  ar  
 24  11  33  1   
 25  12  15  ar  
 26  12  34  1   
 27  13  16  1   
 28  13  35  1   
 29  13  36  1   
 30  14  16  1   
 31  14  37  1   
 32  14  38  1   
 33  15  17  1   
 34  16  18  1   
 35  16  19  1   
 36  17  20  1   
 37  18  21  1   
 38  19  22  1   
 39  20  23  1   
 40  20  39  1   
 41  20  40  1   
 42  21  22  1   
 43  21  41  1   
 44  21  42  1   
 45  22  43  1   
 46  22  44  1   
 47  23  45  1   
 48  23  46  1   
 49  23  47  1   
@<TRIPOS>SUBSTRUCTURE
  1 ****   3 GROUP 4 **** **** 0

# MOE 2024.06 (io_trps.svl 2023.06)
