@<TRIPOS>MOLECULE
NONAME
44 46 1 0 0 
SMALL
USER_CHARGES


@<TRIPOS>ATOM
  1 O       -1.0120     0.8400    -0.1450 O.2   1 <1>  -0.5700 
  2 C       -0.5400     1.8880    -0.5540 C.2   1 <1>   0.4690 
  3 C        0.7470     2.3610    -0.1110 C.ar  1 <1>   0.0860 
  4 C       -1.2240     2.7000    -1.5140 C.2   1 <1>  -0.1240 
  5 C        1.2610     3.5420    -0.6620 C.ar  1 <1>   0.0830 
  6 C        1.5190     1.6980     0.8460 C.ar  1 <1>  -0.1500 
  7 C       -0.6440     3.8210    -1.9950 C.2   1 <1>  -0.0730 
  8 C       -2.6020     2.2500    -1.9630 C.3   1 <1>   0.2480 
  9 O        0.5610     4.2290    -1.5910 O.3   1 <1>  -0.1590 
 10 C        2.4970     4.0330    -0.2650 C.ar  1 <1>  -0.1500 
 11 C        2.7500     2.1850     1.2450 C.ar  1 <1>  -0.1440 
 12 N       -3.5860     2.5590    -0.9100 N.3   1 <1>  -0.8100 
 13 C        3.2370     3.3580     0.6840 C.ar  1 <1>  -0.1500 
 14 C        3.5760     1.4540     2.2870 C.3   1 <1>  -0.0970 
 15 C       -4.7350     1.6390    -0.9210 C.3   1 <1>   0.1100 
 16 C       -3.9900     3.9750    -0.8570 C.3   1 <1>   0.1100 
 17 C       -5.6430     1.8850     0.3000 C.3   1 <1>   0.3430 
 18 C       -4.8970     4.2370     0.3630 C.3   1 <1>   0.3430 
 19 N       -6.0930     3.3220     0.3860 N.4   1 <1>  -0.9590 
 20 C       -6.9260     3.5790     1.5880 C.3   1 <1>   0.3430 
 21 C       -8.2950     2.9320     1.4140 C.3   1 <1>  -0.2400 
 22 H        1.1330     0.7890     1.2740 H     1 <1>   0.1500 
 23 H       -1.0920     4.4720    -2.7260 H     1 <1>   0.1500 
 24 H       -2.5700     1.1880    -2.1430 H     1 <1>   0.0800 
 25 H       -2.8800     2.7340    -2.8840 H     1 <1>   0.0800 
 26 H        2.8710     4.9410    -0.7030 H     1 <1>   0.1500 
 27 H        4.1950     3.7420     0.9900 H     1 <1>   0.1500 
 28 H        3.0870     0.5490     2.6020 H     1 <1>   0.0800 
 29 H        3.7180     2.0820     3.1480 H     1 <1>   0.0800 
 30 H        4.5370     1.1980     1.8800 H     1 <1>   0.0800 
 31 H       -4.3740     0.6250    -0.8770 H     1 <1>   0.0800 
 32 H       -5.2980     1.7560    -1.8310 H     1 <1>   0.0800 
 33 H       -4.5040     4.2480    -1.7630 H     1 <1>   0.0800 
 34 H       -3.1130     4.5940    -0.7700 H     1 <1>   0.0800 
 35 H       -5.0880     1.6250     1.1870 H     1 <1>   0.0800 
 36 H       -6.4970     1.2310     0.2380 H     1 <1>   0.0800 
 37 H       -5.2200     5.2650     0.3490 H     1 <1>   0.0800 
 38 H       -4.3100     4.0850     1.2540 H     1 <1>   0.0800 
 39 H       -6.6540     3.5230    -0.4500 H     1 <1>   0.4500 
 40 H       -7.0580     4.6420     1.7170 H     1 <1>   0.0800 
 41 H       -6.4390     3.1910     2.4690 H     1 <1>   0.0800 
 42 H       -8.7830     3.2980     0.5280 H     1 <1>   0.0800 
 43 H       -8.9110     3.1860     2.2580 H     1 <1>   0.0800 
 44 H       -8.2230     1.8610     1.3750 H     1 <1>   0.0800 
@<TRIPOS>BOND
  1   1   2  2   
  2   2   3  1   
  3   2   4  1   
  4   3   5  ar  
  5   3   6  ar  
  6   4   7  2   
  7   4   8  1   
  8   5   9  1   
  9   5  10  ar  
 10   6  11  ar  
 11   6  22  1   
 12   7   9  1   
 13   7  23  1   
 14   8  12  1   
 15   8  24  1   
 16   8  25  1   
 17  10  13  ar  
 18  10  26  1   
 19  11  13  ar  
 20  11  14  1   
 21  12  15  1   
 22  12  16  1   
 23  13  27  1   
 24  14  28  1   
 25  14  29  1   
 26  14  30  1   
 27  15  17  1   
 28  15  31  1   
 29  15  32  1   
 30  16  18  1   
 31  16  33  1   
 32  16  34  1   
 33  17  19  1   
 34  17  35  1   
 35  17  36  1   
 36  18  19  1   
 37  18  37  1   
 38  18  38  1   
 39  19  20  1   
 40  19  39  1   
 41  20  21  1   
 42  20  40  1   
 43  20  41  1   
 44  21  42  1   
 45  21  43  1   
 46  21  44  1   
@<TRIPOS>SUBSTRUCTURE
  1 ****   4 GROUP 4 **** **** 0

# MOE 2024.06 (io_trps.svl 2023.06)
