@<TRIPOS>MOLECULE
NONAME
34 34 1 0 0 
SMALL
USER_CHARGES


@<TRIPOS>ATOM
  1 CL      -6.2270     8.1020    -1.3360 Cl    1 <1>  -0.1770 
  2 C       -6.8360     6.6010    -0.6680 C.ar  1 <1>   0.1770 
  3 C       -6.1800     5.3970    -0.9060 C.ar  1 <1>   0.0820 
  4 C       -7.9890     6.6410     0.0950 C.ar  1 <1>  -0.1500 
  5 O       -5.0600     5.3270    -1.6610 O.3   1 <1>  -0.3630 
  6 C       -6.6980     4.2280    -0.3730 C.ar  1 <1>  -0.1500 
  7 C       -8.4990     5.4670     0.6260 C.ar  1 <1>  -0.1500 
  8 C       -3.8490     5.7840    -1.0820 C.3   1 <1>   0.1200 
  9 C       -7.8530     4.2630     0.3910 C.ar  1 <1>  -0.1500 
 10 C       -3.0620     4.6400    -0.4220 C.3   1 <1>   0.2000 
 11 O       -3.7390     4.2110     0.7170 O.3   1 <1>  -0.6800 
 12 C       -1.6500     5.1080     0.0000 C.3   1 <1>   0.1960 
 13 N       -0.5730     4.1010    -0.0540 N.am  1 <1>  -0.8490 
 14 S       -0.9340     2.5940     0.6830 S.o2  1 <1>   1.5880 
 15 C        0.6800     4.6750     0.4240 C.3   1 <1>   0.1960 
 16 O       -1.6830     3.0050     1.8950 O.co2 1 <1>  -0.8170 
 17 O        0.3750     1.9560     0.9490 O.co2 1 <1>  -0.8170 
 18 O       -1.7660     1.9000    -0.3270 O.co2 1 <1>  -0.8170 
 19 C        1.7770     4.3690    -0.5900 C.3   1 <1>  -0.2400 
 20 H       -8.4790     7.5810     0.2680 H     1 <1>   0.1500 
 21 H       -6.1790     3.3010    -0.5500 H     1 <1>   0.1500 
 22 H       -9.3950     5.4880     1.2220 H     1 <1>   0.1500 
 23 H       -4.0590     6.5590    -0.3670 H     1 <1>   0.0800 
 24 H       -3.2680     6.2000    -1.8850 H     1 <1>   0.0800 
 25 H       -8.2410     3.3490     0.8070 H     1 <1>   0.1500 
 26 H       -2.9880     3.8230    -1.1180 H     1 <1>   0.0800 
 27 H       -3.1240     3.6060     1.2280 H     1 <1>   0.4000 
 28 H       -1.7120     5.5140     0.9970 H     1 <1>   0.0800 
 29 H       -1.3580     5.9070    -0.6570 H     1 <1>   0.0800 
 30 H        0.9350     4.2780     1.3940 H     1 <1>   0.0800 
 31 H        0.5990     5.7430     0.5230 H     1 <1>   0.0800 
 32 H        1.9030     3.3040    -0.6840 H     1 <1>   0.0800 
 33 H        2.7070     4.7940    -0.2610 H     1 <1>   0.0800 
 34 H        1.5200     4.7800    -1.5480 H     1 <1>   0.0800 
@<TRIPOS>BOND
  1   1   2  1   
  2   2   3  ar  
  3   2   4  ar  
  4   3   5  1   
  5   3   6  ar  
  6   4   7  ar  
  7   4  20  1   
  8   5   8  1   
  9   6   9  ar  
 10   6  21  1   
 11   7   9  ar  
 12   7  22  1   
 13   8  10  1   
 14   8  23  1   
 15   8  24  1   
 16   9  25  1   
 17  10  11  1   
 18  10  12  1   
 19  10  26  1   
 20  11  27  1   
 21  12  13  1   
 22  12  28  1   
 23  12  29  1   
 24  13  14  am  
 25  13  15  1   
 26  14  16  ar  
 27  14  17  ar  
 28  14  18  ar  
 29  15  19  1   
 30  15  30  1   
 31  15  31  1   
 32  19  32  1   
 33  19  33  1   
 34  19  34  1   
@<TRIPOS>SUBSTRUCTURE
  1 ****  10 GROUP 4 **** **** 0

# MOE 2024.06 (io_trps.svl 2023.06)
