@<TRIPOS>MOLECULE
NONAME
41 42 1 0 0 
SMALL
USER_CHARGES


@<TRIPOS>ATOM
  1 CL       1.7360     1.0020     2.1500 Cl    1 <1>  -0.1770 
  2 C        2.5880     1.5910     0.7400 C.ar  1 <1>   0.1770 
  3 C        2.2770     2.8270     0.1870 C.ar  1 <1>   0.0820 
  4 C        3.5770     0.7830     0.2070 C.ar  1 <1>  -0.1500 
  5 O        1.2870     3.5700     0.7430 O.3   1 <1>  -0.3630 
  6 C        3.0060     3.2640    -0.9280 C.ar  1 <1>   0.0820 
  7 C        4.2880     1.2090    -0.9050 C.ar  1 <1>  -0.1440 
  8 C       -0.0210     3.2810     0.3070 C.3   1 <1>   0.1200 
  9 O        2.8500     4.4570    -1.5650 O.3   1 <1>  -0.3630 
 10 C        3.9870     2.4430    -1.4640 C.ar  1 <1>  -0.1500 
 11 C        5.3880     0.3460    -1.4960 C.3   1 <1>   0.4860 
 12 C       -0.9790     4.2210     1.0310 C.3   1 <1>  -0.2400 
 13 C        2.3950     5.6070    -0.8820 C.3   1 <1>   0.0400 
 14 N        6.6920     0.9690    -1.1820 N.4   1 <1>  -0.9060 
 15 C        6.9760     1.1320     0.2700 C.3   1 <1>   0.4860 
 16 C        8.4880     1.2160     0.4490 C.ar  1 <1>   0.1670 
 17 N        9.2140     0.4780    -0.3870 N.ar  1 <1>  -0.6200 
 18 C        9.0250     2.0320     1.4350 C.ar  1 <1>  -0.1500 
 19 C       10.5280     0.5530    -0.2220 C.ar  1 <1>   0.1600 
 20 C       10.3930     2.1010     1.5880 C.ar  1 <1>  -0.1500 
 21 C       11.1550     1.3360     0.7320 C.ar  1 <1>  -0.1500 
 22 H        3.7660    -0.1690     0.6740 H     1 <1>   0.1500 
 23 H       -0.2460     2.2540     0.5410 H     1 <1>   0.0800 
 24 H       -0.0670     3.4310    -0.7590 H     1 <1>   0.0800 
 25 H        4.5080     2.8010    -2.3360 H     1 <1>   0.1500 
 26 H        5.2580     0.2750    -2.5650 H     1 <1>   0.0800 
 27 H        5.3400    -0.6470    -1.0800 H     1 <1>   0.0800 
 28 H       -0.9130     4.0670     2.0940 H     1 <1>   0.0800 
 29 H       -1.9880     4.0230     0.7190 H     1 <1>   0.0800 
 30 H       -0.7420     5.2440     0.8010 H     1 <1>   0.0800 
 31 H        2.6730     6.4710    -1.4580 H     1 <1>   0.0800 
 32 H        2.8550     5.6490     0.0900 H     1 <1>   0.0800 
 33 H        1.3250     5.5620    -0.7940 H     1 <1>   0.0800 
 34 H        6.7830     1.8800    -1.6390 H     1 <1>   0.4500 
 35 H        7.4880     0.4000    -1.5230 H     1 <1>   0.4500 
 36 H        6.6190     0.2730     0.8130 H     1 <1>   0.0800 
 37 H        6.4950     2.0150     0.6570 H     1 <1>   0.0800 
 38 H        8.3930     2.6120     2.0860 H     1 <1>   0.1500 
 39 H       11.1440    -0.0390    -0.8800 H     1 <1>   0.1500 
 40 H       10.8500     2.7210     2.3410 H     1 <1>   0.1500 
 41 H       12.2280     1.3440     0.8030 H     1 <1>   0.1500 
@<TRIPOS>BOND
  1   1   2  1   
  2   2   3  ar  
  3   2   4  ar  
  4   3   5  1   
  5   3   6  ar  
  6   4   7  ar  
  7   4  22  1   
  8   5   8  1   
  9   6   9  1   
 10   6  10  ar  
 11   7  10  ar  
 12   7  11  1   
 13   8  12  1   
 14   8  23  1   
 15   8  24  1   
 16   9  13  1   
 17  10  25  1   
 18  11  14  1   
 19  11  26  1   
 20  11  27  1   
 21  12  28  1   
 22  12  29  1   
 23  12  30  1   
 24  13  31  1   
 25  13  32  1   
 26  13  33  1   
 27  14  15  1   
 28  14  34  1   
 29  14  35  1   
 30  15  16  1   
 31  15  36  1   
 32  15  37  1   
 33  16  17  ar  
 34  16  18  ar  
 35  17  19  ar  
 36  18  20  ar  
 37  18  38  1   
 38  19  21  ar  
 39  19  39  1   
 40  20  21  ar  
 41  20  40  1   
 42  21  41  1   
@<TRIPOS>SUBSTRUCTURE
  1 ****   7 GROUP 4 **** **** 0

# MOE 2024.06 (io_trps.svl 2023.06)
