@<TRIPOS>MOLECULE
NONAME
47 49 1 0 0 
SMALL
USER_CHARGES


@<TRIPOS>ATOM
  1 O       -1.5140     1.4830    -1.9680 O.2   1 <1>  -0.5700 
  2 C       -1.0360     1.8530    -0.9260 C.2   1 <1>   0.5690 
  3 N       -1.6860     1.7880     0.2730 N.am  1 <1>  -0.5470 
  4 C        0.3540     2.4380    -0.9340 C.3   1 <1>  -0.1790 
  5 C       -2.9540     1.2710     0.5680 C.ar  1 <1>   0.1170 
  6 C       -3.4990     0.2000    -0.1310 C.ar  1 <1>  -0.1500 
  7 C       -3.6970     1.8290     1.6010 C.ar  1 <1>  -0.1500 
  8 C       -4.7550    -0.2880     0.1770 C.ar  1 <1>  -0.1500 
  9 C       -4.9560     1.3470     1.9140 C.ar  1 <1>  -0.1500 
 10 C       -5.4980     0.2900     1.1960 C.ar  1 <1>  -0.1430 
 11 C       -6.8910    -0.2200     1.5140 C.3   1 <1>   0.4860 
 12 N       -7.8020     0.1610     0.4010 N.4   1 <1>  -0.9590 
 13 C       -7.8770     1.6610     0.2240 C.3   1 <1>   0.3430 
 14 C       -9.1770    -0.4340     0.5720 C.3   1 <1>   0.3430 
 15 C       -8.8250     2.0840    -0.9190 C.3   1 <1>   0.2090 
 16 C      -10.1320    -0.0650    -0.5820 C.3   1 <1>   0.2090 
 17 N      -10.1550     1.4090    -0.8110 N.pl3 1 <1>  -0.8380 
 18 C      -11.2770     2.1180    -0.3830 C.ar  1 <1>   0.1000 
 19 C      -11.2250     3.0120     0.6840 C.ar  1 <1>  -0.1500 
 20 C      -12.4930     1.9250    -1.0260 C.ar  1 <1>  -0.1500 
 21 C      -12.3600     3.6880     1.0960 C.ar  1 <1>  -0.1500 
 22 C      -13.6300     2.5970    -0.6160 C.ar  1 <1>  -0.1500 
 23 C      -13.5650     3.4800     0.4470 C.ar  1 <1>  -0.1500 
 24 H       -1.1920     2.2120     1.0560 H     1 <1>   0.3700 
 25 H        0.3190     3.4670    -0.6330 H     1 <1>   0.0800 
 26 H        0.7640     2.3810    -1.9260 H     1 <1>   0.0800 
 27 H        0.9880     1.8850    -0.2670 H     1 <1>   0.0800 
 28 H       -2.9320    -0.2570    -0.9240 H     1 <1>   0.1500 
 29 H       -3.2870     2.6500     2.1610 H     1 <1>   0.1500 
 30 H       -5.1330    -1.1230    -0.3890 H     1 <1>   0.1500 
 31 H       -5.5010     1.8070     2.7210 H     1 <1>   0.1500 
 32 H       -7.2360     0.2060     2.4410 H     1 <1>   0.0800 
 33 H       -6.8600    -1.2930     1.6200 H     1 <1>   0.0800 
 34 H       -7.3920    -0.2110    -0.4650 H     1 <1>   0.4500 
 35 H       -6.8940     2.0570     0.0220 H     1 <1>   0.0800 
 36 H       -8.2300     2.1110     1.1350 H     1 <1>   0.0800 
 37 H       -9.6140    -0.0730     1.4890 H     1 <1>   0.0800 
 38 H       -9.1090    -1.5070     0.6380 H     1 <1>   0.0800 
 39 H       -8.3820     1.8330    -1.8680 H     1 <1>   0.0800 
 40 H       -8.9580     3.1530    -0.9020 H     1 <1>   0.0800 
 41 H      -11.1240    -0.4100    -0.3440 H     1 <1>   0.0800 
 42 H       -9.8230    -0.5580    -1.4870 H     1 <1>   0.0800 
 43 H      -10.3030     3.1830     1.2010 H     1 <1>   0.1500 
 44 H      -12.5430     1.2480    -1.8590 H     1 <1>   0.1500 
 45 H      -12.3110     4.3770     1.9210 H     1 <1>   0.1500 
 46 H      -14.5640     2.4380    -1.1260 H     1 <1>   0.1500 
 47 H      -14.4490     4.0060     0.7670 H     1 <1>   0.1500 
@<TRIPOS>BOND
  1   1   2  2   
  2   2   3  am  
  3   2   4  1   
  4   3   5  1   
  5   3  24  1   
  6   4  25  1   
  7   4  26  1   
  8   4  27  1   
  9   5   6  ar  
 10   5   7  ar  
 11   6   8  ar  
 12   6  28  1   
 13   7   9  ar  
 14   7  29  1   
 15   8  10  ar  
 16   8  30  1   
 17   9  10  ar  
 18   9  31  1   
 19  10  11  1   
 20  11  12  1   
 21  11  32  1   
 22  11  33  1   
 23  12  13  1   
 24  12  14  1   
 25  12  34  1   
 26  13  15  1   
 27  13  35  1   
 28  13  36  1   
 29  14  16  1   
 30  14  37  1   
 31  14  38  1   
 32  15  17  1   
 33  15  39  1   
 34  15  40  1   
 35  16  17  1   
 36  16  41  1   
 37  16  42  1   
 38  17  18  1   
 39  18  19  ar  
 40  18  20  ar  
 41  19  21  ar  
 42  19  43  1   
 43  20  22  ar  
 44  20  44  1   
 45  21  23  ar  
 46  21  45  1   
 47  22  23  ar  
 48  22  46  1   
 49  23  47  1   
@<TRIPOS>SUBSTRUCTURE
  1 ****  13 GROUP 4 **** **** 0

# MOE 2024.06 (io_trps.svl 2023.06)
