@<TRIPOS>MOLECULE
NONAME
52 54 1 0 0 
SMALL
USER_CHARGES


@<TRIPOS>ATOM
  1 CL      -1.3570     2.4590    -0.2010 Cl    1 <1>  -0.1770 
  2 C       -2.8100     2.0370     0.6690 C.ar  1 <1>   0.1770 
  3 C       -3.7290     1.1890     0.0850 C.ar  1 <1>  -0.1500 
  4 C       -3.0140     2.5610     1.9330 C.ar  1 <1>  -0.1500 
  5 C       -4.8860     0.8490     0.7700 C.ar  1 <1>   0.1000 
  6 C       -4.1680     2.2250     2.6230 C.ar  1 <1>  -0.1500 
  7 N       -5.8050    -0.0040     0.1750 N.pl3 1 <1>  -0.8380 
  8 C       -5.0940     1.3750     2.0430 C.ar  1 <1>  -0.1500 
  9 C       -5.9580    -1.3500     0.8030 C.3   1 <1>   0.2090 
 10 C       -7.1260     0.5940    -0.1800 C.3   1 <1>   0.2090 
 11 C       -6.8230    -2.2780    -0.0730 C.3   1 <1>   0.1100 
 12 C       -7.9670    -0.3770    -1.0310 C.3   1 <1>   0.1100 
 13 N       -8.1510    -1.6910    -0.3640 N.3   1 <1>  -0.8100 
 14 C       -8.9580    -2.6110    -1.2220 C.3   1 <1>   0.1710 
 15 C      -10.4380    -2.2320    -1.3390 C.2   1 <1>   0.5690 
 16 O      -11.0570    -2.5500    -2.3260 O.2   1 <1>  -0.5700 
 17 N      -10.9990    -1.5430    -0.3150 N.am  1 <1>  -0.7300 
 18 C      -12.3840    -1.0580    -0.2350 C.3   1 <1>   0.2200 
 19 C      -12.3440     0.4770    -0.2210 C.3   1 <1>  -0.1600 
 20 C      -13.0300    -1.7000     0.9980 C.3   1 <1>  -0.1600 
 21 C      -13.7260     1.1010    -0.4650 C.3   1 <1>  -0.1600 
 22 C      -14.4650    -1.2370     1.2990 C.3   1 <1>  -0.1600 
 23 C      -14.5790     1.3020     0.7980 C.3   1 <1>  -0.1600 
 24 C      -14.5150     0.1920     1.8590 C.3   1 <1>  -0.1600 
 25 H       -3.5580     0.7900    -0.8960 H     1 <1>   0.1500 
 26 H       -2.2820     3.2190     2.3640 H     1 <1>   0.1500 
 27 H       -4.3420     2.6240     3.6080 H     1 <1>   0.1500 
 28 H       -5.9890     1.1130     2.5760 H     1 <1>   0.1500 
 29 H       -6.4180    -1.2480     1.7700 H     1 <1>   0.0800 
 30 H       -4.9850    -1.7890     0.9370 H     1 <1>   0.0800 
 31 H       -6.9640     1.5040    -0.7320 H     1 <1>   0.0800 
 32 H       -7.6670     0.8360     0.7170 H     1 <1>   0.0800 
 33 H       -6.9520    -3.2140     0.4420 H     1 <1>   0.0800 
 34 H       -6.2970    -2.4700    -0.9920 H     1 <1>   0.0800 
 35 H       -7.4740    -0.5130    -1.9790 H     1 <1>   0.0800 
 36 H       -8.9260     0.0740    -1.2180 H     1 <1>   0.0800 
 37 H       -8.9220    -3.6010    -0.8060 H     1 <1>   0.0800 
 38 H       -8.5350    -2.6540    -2.2100 H     1 <1>   0.0800 
 39 H      -10.3700    -1.2780     0.4480 H     1 <1>   0.3700 
 40 H      -12.9150    -1.3840    -1.1150 H     1 <1>   0.0800 
 41 H      -11.7050     0.7910    -1.0280 H     1 <1>   0.0800 
 42 H      -11.9210     0.8400     0.6980 H     1 <1>   0.0800 
 43 H      -12.4140    -1.5200     1.8610 H     1 <1>   0.0800 
 44 H      -13.0530    -2.7630     0.8320 H     1 <1>   0.0800 
 45 H      -14.2700     0.4960    -1.1700 H     1 <1>   0.0800 
 46 H      -13.5930     2.0640    -0.9260 H     1 <1>   0.0800 
 47 H      -14.8680    -1.8980     2.0460 H     1 <1>   0.0800 
 48 H      -15.0880    -1.3280     0.4250 H     1 <1>   0.0800 
 49 H      -15.6020     1.4230     0.4880 H     1 <1>   0.0800 
 50 H      -14.2850     2.2240     1.2690 H     1 <1>   0.0800 
 51 H      -13.6640     0.3560     2.4980 H     1 <1>   0.0800 
 52 H      -15.3880     0.2850     2.4820 H     1 <1>   0.0800 
@<TRIPOS>BOND
  1   1   2  1   
  2   2   3  ar  
  3   2   4  ar  
  4   3   5  ar  
  5   3  25  1   
  6   4   6  ar  
  7   4  26  1   
  8   5   7  1   
  9   5   8  ar  
 10   6   8  ar  
 11   6  27  1   
 12   7   9  1   
 13   7  10  1   
 14   8  28  1   
 15   9  11  1   
 16   9  29  1   
 17   9  30  1   
 18  10  12  1   
 19  10  31  1   
 20  10  32  1   
 21  11  13  1   
 22  11  33  1   
 23  11  34  1   
 24  12  13  1   
 25  12  35  1   
 26  12  36  1   
 27  13  14  1   
 28  14  15  1   
 29  14  37  1   
 30  14  38  1   
 31  15  16  2   
 32  15  17  am  
 33  17  18  1   
 34  17  39  1   
 35  18  19  1   
 36  18  20  1   
 37  18  40  1   
 38  19  21  1   
 39  19  41  1   
 40  19  42  1   
 41  20  22  1   
 42  20  43  1   
 43  20  44  1   
 44  21  23  1   
 45  21  45  1   
 46  21  46  1   
 47  22  24  1   
 48  22  47  1   
 49  22  48  1   
 50  23  24  1   
 51  23  49  1   
 52  23  50  1   
 53  24  51  1   
 54  24  52  1   
@<TRIPOS>SUBSTRUCTURE
  1 ****  12 GROUP 4 **** **** 0

# MOE 2024.06 (io_trps.svl 2023.06)
