@<TRIPOS>MOLECULE
NONAME
35 36 1 0 0 
SMALL
USER_CHARGES


@<TRIPOS>ATOM
  1 CL       0.1610     0.2790    -0.3370 Cl    1 <1>  -0.1770 
  2 C        1.7920     0.8880    -0.2010 C.ar  1 <1>   0.1770 
  3 C        2.0000     2.1690     0.2760 C.ar  1 <1>  -0.1500 
  4 C        2.8500     0.0800    -0.5730 C.ar  1 <1>  -0.1500 
  5 C        3.2950     2.6470     0.3820 C.ar  1 <1>  -0.1500 
  6 C        4.1450     0.5600    -0.4660 C.ar  1 <1>  -0.1500 
  7 C        4.3710     1.8500     0.0140 C.ar  1 <1>   0.0830 
  8 O        5.6040     2.3990     0.1510 O.3   1 <1>  -0.3630 
  9 C        6.7700     1.6810    -0.1700 C.3   1 <1>   0.1200 
 10 C        7.9590     2.6080     0.1040 C.3   1 <1>   0.3430 
 11 N        9.2820     1.9820    -0.2320 N.4   1 <1>  -0.9590 
 12 C        9.6210     0.8440     0.6780 C.3   1 <1>   0.3430 
 13 C       10.3540     3.0210    -0.2140 C.3   1 <1>   0.3430 
 14 C       10.9220     0.1850     0.2150 C.3   1 <1>  -0.1600 
 15 C       11.6720     2.4120    -0.6970 C.3   1 <1>  -0.1600 
 16 C       12.0760     1.1930     0.1420 C.3   1 <1>  -0.1600 
 17 H        1.1590     2.7780     0.5580 H     1 <1>   0.1500 
 18 H        2.6540    -0.9120    -0.9400 H     1 <1>   0.1500 
 19 H        3.4730     3.6410     0.7510 H     1 <1>   0.1500 
 20 H        4.9510    -0.0850    -0.7610 H     1 <1>   0.1500 
 21 H        6.7210     1.4160    -1.2110 H     1 <1>   0.0800 
 22 H        6.8000     0.8060     0.4540 H     1 <1>   0.0800 
 23 H        7.9480     2.8900     1.1440 H     1 <1>   0.0800 
 24 H        7.8280     3.4980    -0.4880 H     1 <1>   0.0800 
 25 H        9.2460     1.6150    -1.1920 H     1 <1>   0.4500 
 26 H        8.8320     0.1110     0.6730 H     1 <1>   0.0800 
 27 H        9.7420     1.2060     1.6870 H     1 <1>   0.0800 
 28 H       10.4800     3.4000     0.7880 H     1 <1>   0.0800 
 29 H       10.0850     3.8450    -0.8570 H     1 <1>   0.0800 
 30 H       10.7710    -0.2710    -0.7480 H     1 <1>   0.0800 
 31 H       11.1820    -0.6010     0.9040 H     1 <1>   0.0800 
 32 H       12.4470     3.1570    -0.6360 H     1 <1>   0.0800 
 33 H       11.5790     2.1320    -1.7320 H     1 <1>   0.0800 
 34 H       12.9460     0.7250    -0.2870 H     1 <1>   0.0800 
 35 H       12.3360     1.5140     1.1380 H     1 <1>   0.0800 
@<TRIPOS>BOND
  1   1   2  1   
  2   2   3  ar  
  3   2   4  ar  
  4   3   5  ar  
  5   3  17  1   
  6   4   6  ar  
  7   4  18  1   
  8   5   7  ar  
  9   5  19  1   
 10   6   7  ar  
 11   6  20  1   
 12   7   8  1   
 13   8   9  1   
 14   9  10  1   
 15   9  21  1   
 16   9  22  1   
 17  10  11  1   
 18  10  23  1   
 19  10  24  1   
 20  11  12  1   
 21  11  13  1   
 22  11  25  1   
 23  12  14  1   
 24  12  26  1   
 25  12  27  1   
 26  13  15  1   
 27  13  28  1   
 28  13  29  1   
 29  14  16  1   
 30  14  30  1   
 31  14  31  1   
 32  15  16  1   
 33  15  32  1   
 34  15  33  1   
 35  16  34  1   
 36  16  35  1   
@<TRIPOS>SUBSTRUCTURE
  1 ****   9 GROUP 4 **** **** 0

# MOE 2024.06 (io_trps.svl 2023.06)
