@<TRIPOS>MOLECULE
NONAME
35 36 1 0 0 
SMALL
USER_CHARGES


@<TRIPOS>ATOM
  1 S        0.1470    -0.3860    -1.9200 S.o2  1 <1>   1.4470 
  2 O        0.4870     0.6940    -2.8220 O.2   1 <1>  -0.6500 
  3 O        0.3620    -1.7550    -2.3340 O.2   1 <1>  -0.6500 
  4 N        1.0660    -0.1420    -0.5150 N.am  1 <1>  -0.8490 
  5 C       -1.5600    -0.2090    -1.3310 C.ar  1 <1>  -0.0090 
  6 C        1.0030     1.2630    -0.0660 C.3   1 <1>   0.1960 
  7 C        2.4630    -0.5690    -0.7250 C.3   1 <1>   0.1960 
  8 C       -2.1140    -1.1390    -0.4580 C.ar  1 <1>  -0.1500 
  9 C       -2.3530     0.8660    -1.7140 C.ar  1 <1>  -0.1500 
 10 C        1.5730     1.4520     1.3450 C.3   1 <1>   0.0700 
 11 C        3.2590    -0.6410     0.5840 C.3   1 <1>   0.0700 
 12 C       -3.4050    -0.9990     0.0180 C.ar  1 <1>  -0.1500 
 13 C       -3.6440     1.0110    -1.2390 C.ar  1 <1>  -0.1500 
 14 S        3.3270     1.0030     1.3430 S.3   1 <1>  -0.4600 
 15 C       -4.1900     0.0830    -0.3600 C.ar  1 <1>   0.1170 
 16 N       -5.4950     0.1880     0.1410 N.am  1 <1>  -0.5470 
 17 C       -6.2760     1.2900     0.3400 C.2   1 <1>   0.5690 
 18 O       -5.9160     2.4200     0.1270 O.2   1 <1>  -0.5700 
 19 C       -7.6690     1.0660     0.8730 C.3   1 <1>  -0.1790 
 20 H       -0.0230     1.5890    -0.0470 H     1 <1>   0.0800 
 21 H        1.5350     1.8980    -0.7560 H     1 <1>   0.0800 
 22 H        2.9530     0.1000    -1.4140 H     1 <1>   0.0800 
 23 H        2.4780    -1.5540    -1.1610 H     1 <1>   0.0800 
 24 H       -1.5190    -1.9820    -0.1490 H     1 <1>   0.1500 
 25 H       -1.9570     1.6030    -2.3940 H     1 <1>   0.1500 
 26 H        1.0710     0.8190     2.0550 H     1 <1>   0.0800 
 27 H        1.5090     2.4780     1.6590 H     1 <1>   0.0800 
 28 H        4.2730    -0.9510     0.4070 H     1 <1>   0.0800 
 29 H        2.7890    -1.3080     1.2850 H     1 <1>   0.0800 
 30 H       -3.8010    -1.7350     0.6930 H     1 <1>   0.1500 
 31 H       -4.2300     1.8540    -1.5600 H     1 <1>   0.1500 
 32 H       -5.9110    -0.6910     0.4410 H     1 <1>   0.3700 
 33 H       -7.6190     0.6340     1.8540 H     1 <1>   0.0800 
 34 H       -8.2130     0.4150     0.2150 H     1 <1>   0.0800 
 35 H       -8.1870     2.0060     0.9350 H     1 <1>   0.0800 
@<TRIPOS>BOND
  1   1   2  2   
  2   1   3  2   
  3   1   4  am  
  4   1   5  1   
  5   4   6  1   
  6   4   7  1   
  7   5   8  ar  
  8   5   9  ar  
  9   6  10  1   
 10   6  20  1   
 11   6  21  1   
 12   7  11  1   
 13   7  22  1   
 14   7  23  1   
 15   8  12  ar  
 16   8  24  1   
 17   9  13  ar  
 18   9  25  1   
 19  10  14  1   
 20  10  26  1   
 21  10  27  1   
 22  11  14  1   
 23  11  28  1   
 24  11  29  1   
 25  12  15  ar  
 26  12  30  1   
 27  13  15  ar  
 28  13  31  1   
 29  15  16  1   
 30  16  17  am  
 31  16  32  1   
 32  17  18  2   
 33  17  19  1   
 34  19  33  1   
 35  19  34  1   
 36  19  35  1   
@<TRIPOS>SUBSTRUCTURE
  1 ****   5 GROUP 4 **** **** 0

# MOE 2024.06 (io_trps.svl 2023.06)
