@<TRIPOS>MOLECULE
NONAME
46 48 1 0 0 
SMALL
USER_CHARGES


@<TRIPOS>ATOM
  1 O        2.4320     0.2070     0.6110 O.2   1 <1>  -0.5700 
  2 C        2.8930     1.2970     0.3690 C.2   1 <1>   0.4950 
  3 C        2.0860     2.4490     0.0920 C.2   1 <1>   0.0290 
  4 C        4.4120     1.3770     0.3870 C.3   1 <1>  -0.0990 
  5 C        2.7430     3.7060    -0.1470 C.2   1 <1>   0.4950 
  6 C        0.7140     2.3190     0.0640 C.2   1 <1>  -0.0500 
  7 C        4.9460     2.4980    -0.5050 C.3   1 <1>  -0.1600 
  8 O        2.1620     4.7470    -0.3570 O.2   1 <1>  -0.5700 
  9 C        4.2610     3.8140    -0.1350 C.3   1 <1>  -0.0990 
 10 N       -0.1830     3.3130    -0.1870 N.pl3 1 <1>  -0.6000 
 11 C       -1.5850     3.2820    -0.2420 C.ar  1 <1>   0.1000 
 12 C       -2.2790     4.4820    -0.3140 C.ar  1 <1>  -0.1500 
 13 C       -2.3130     2.0970    -0.2330 C.ar  1 <1>  -0.1500 
 14 C       -3.6600     4.5000    -0.3710 C.ar  1 <1>  -0.1500 
 15 C       -3.6950     2.1150    -0.2890 C.ar  1 <1>  -0.1500 
 16 C       -4.3890     3.3190    -0.3560 C.ar  1 <1>   0.1000 
 17 N       -5.7880     3.3870    -0.4160 N.pl3 1 <1>  -0.6000 
 18 C       -6.7290     2.4170    -0.2430 C.2   1 <1>  -0.0500 
 19 C       -8.0950     2.5840    -0.3270 C.2   1 <1>   0.0290 
 20 C       -8.9530     1.4530    -0.1200 C.2   1 <1>   0.4950 
 21 C       -8.6970     3.8580    -0.6140 C.2   1 <1>   0.4950 
 22 O       -8.5410     0.3510     0.1540 O.2   1 <1>  -0.5700 
 23 C      -10.4650     1.5740    -0.2270 C.3   1 <1>  -0.0990 
 24 O       -8.0730     4.8840    -0.7730 O.2   1 <1>  -0.5700 
 25 C      -10.2070     4.0060    -0.7250 C.3   1 <1>  -0.0990 
 26 C      -10.8950     2.7100    -1.1550 C.3   1 <1>  -0.1600 
 27 H        4.7310     1.5290     1.4030 H     1 <1>   0.0800 
 28 H        4.8160     0.4360     0.0550 H     1 <1>   0.0800 
 29 H        0.2920     1.3470     0.2620 H     1 <1>   0.1500 
 30 H        4.7420     2.2640    -1.5380 H     1 <1>   0.0800 
 31 H        6.0130     2.5890    -0.3880 H     1 <1>   0.0800 
 32 H        4.5620     4.5770    -0.8310 H     1 <1>   0.0800 
 33 H        4.5700     4.1270     0.8460 H     1 <1>   0.0800 
 34 H        0.2310     4.2480    -0.3510 H     1 <1>   0.4000 
 35 H       -1.7340     5.4080    -0.3240 H     1 <1>   0.1500 
 36 H       -1.8060     1.1530    -0.1870 H     1 <1>   0.1500 
 37 H       -4.1770     5.4400    -0.4240 H     1 <1>   0.1500 
 38 H       -4.2290     1.1850    -0.2860 H     1 <1>   0.1500 
 39 H       -6.1630     4.3330    -0.6110 H     1 <1>   0.4000 
 40 H       -6.3510     1.4340    -0.0150 H     1 <1>   0.1500 
 41 H      -10.8650     0.6450    -0.5940 H     1 <1>   0.0800 
 42 H      -10.8620     1.7330     0.7600 H     1 <1>   0.0800 
 43 H      -10.5870     4.3270     0.2290 H     1 <1>   0.0800 
 44 H      -10.4300     4.7790    -1.4410 H     1 <1>   0.0800 
 45 H      -11.9650     2.8290    -1.1250 H     1 <1>   0.0800 
 46 H      -10.6140     2.4720    -2.1680 H     1 <1>   0.0800 
@<TRIPOS>BOND
  1   1   2  2   
  2   2   3  1   
  3   2   4  1   
  4   3   5  1   
  5   3   6  2   
  6   4   7  1   
  7   4  27  1   
  8   4  28  1   
  9   5   8  2   
 10   5   9  1   
 11   6  10  1   
 12   6  29  1   
 13   7   9  1   
 14   7  30  1   
 15   7  31  1   
 16   9  32  1   
 17   9  33  1   
 18  10  11  1   
 19  10  34  1   
 20  11  12  ar  
 21  11  13  ar  
 22  12  14  ar  
 23  12  35  1   
 24  13  15  ar  
 25  13  36  1   
 26  14  16  ar  
 27  14  37  1   
 28  15  16  ar  
 29  15  38  1   
 30  16  17  1   
 31  17  18  1   
 32  17  39  1   
 33  18  19  2   
 34  18  40  1   
 35  19  20  1   
 36  19  21  1   
 37  20  22  2   
 38  20  23  1   
 39  21  24  2   
 40  21  25  1   
 41  23  26  1   
 42  23  41  1   
 43  23  42  1   
 44  25  26  1   
 45  25  43  1   
 46  25  44  1   
 47  26  45  1   
 48  26  46  1   
@<TRIPOS>SUBSTRUCTURE
  1 ****  13 GROUP 4 **** **** 0

# MOE 2024.06 (io_trps.svl 2023.06)
