@<TRIPOS>MOLECULE
NONAME
52 54 1 0 0 
SMALL
USER_CHARGES


@<TRIPOS>ATOM
  1 O       -0.1100     1.0460    -0.4410 O.2   1 <1>  -0.5700 
  2 C       -0.1040     2.1840    -0.0130 C.2   1 <1>   0.5440 
  3 N        1.0590     2.6880     0.5410 N.am  1 <1>  -0.6600 
  4 C       -1.3190     2.9700    -0.1000 C.ar  1 <1>   0.0860 
  5 C        2.2250     1.8080     0.8360 C.3   1 <1>   0.1400 
  6 C        1.3080     4.1400     0.7530 C.3   1 <1>   0.1400 
  7 C       -1.9040     3.5400     1.0320 C.ar  1 <1>  -0.1500 
  8 C       -1.9520     3.1750    -1.3250 C.ar  1 <1>  -0.1500 
  9 C        3.4250     2.2390    -0.0080 C.3   1 <1>  -0.1600 
 10 C        2.5090     4.5870    -0.0850 C.3   1 <1>  -0.1600 
 11 C       -3.0620     4.2930     0.9480 C.ar  1 <1>  -0.1500 
 12 C       -3.1080     3.9270    -1.4190 C.ar  1 <1>  -0.1500 
 13 C        3.7590     3.7310     0.1990 C.3   1 <1>  -0.0190 
 14 C       -3.6730     4.4930    -0.2870 C.ar  1 <1>   0.0820 
 15 C        4.9510     4.1980    -0.6360 C.2   1 <1>   0.6590 
 16 O       -4.8040     5.2100    -0.4640 O.3   1 <1>  -0.3630 
 17 O        5.4100     3.5500    -1.5420 O.2   1 <1>  -0.5700 
 18 O        5.4540     5.3770    -0.2940 O.3   1 <1>  -0.4300 
 19 C       -5.5080     5.7720     0.6220 C.3   1 <1>   0.2630 
 20 C        6.5520     5.9330    -0.9790 C.3   1 <1>   0.1200 
 21 C       -6.7730     6.4390     0.1040 C.ar  1 <1>  -0.1430 
 22 C        6.8680     7.2850    -0.3480 C.3   1 <1>  -0.2400 
 23 C       -6.9960     7.7920     0.3140 C.ar  1 <1>  -0.1500 
 24 C       -7.7210     5.6940    -0.5800 C.ar  1 <1>  -0.1500 
 25 C       -8.1550     8.3900    -0.1500 C.ar  1 <1>  -0.1500 
 26 C       -8.8810     6.2900    -1.0440 C.ar  1 <1>  -0.1500 
 27 C       -9.0990     7.6390    -0.8290 C.ar  1 <1>  -0.1500 
 28 H        1.9910     0.7770     0.6280 H     1 <1>   0.0800 
 29 H        2.4640     1.8850     1.8830 H     1 <1>   0.0800 
 30 H        1.5040     4.3120     1.7980 H     1 <1>   0.0800 
 31 H        0.4500     4.7250     0.4720 H     1 <1>   0.0800 
 32 H       -1.4390     3.3800     1.9880 H     1 <1>   0.1500 
 33 H       -1.5260     2.7310    -2.2080 H     1 <1>   0.1500 
 34 H        3.2010     2.0530    -1.0450 H     1 <1>   0.0800 
 35 H        4.2770     1.6360     0.2530 H     1 <1>   0.0800 
 36 H        2.7210     5.6200     0.1280 H     1 <1>   0.0800 
 37 H        2.2520     4.5150    -1.1280 H     1 <1>   0.0800 
 38 H       -3.4720     4.7100     1.8480 H     1 <1>   0.1500 
 39 H       -3.5860     4.0770    -2.3710 H     1 <1>   0.1500 
 40 H        4.0330     3.8670     1.2300 H     1 <1>   0.0800 
 41 H       -4.8670     6.4870     1.1050 H     1 <1>   0.0800 
 42 H       -5.7640     4.9820     1.3070 H     1 <1>   0.0800 
 43 H        6.2860     6.0430    -2.0170 H     1 <1>   0.0800 
 44 H        7.3870     5.2580    -0.8900 H     1 <1>   0.0800 
 45 H        6.0230     7.9430    -0.4360 H     1 <1>   0.0800 
 46 H        7.7050     7.7330    -0.8530 H     1 <1>   0.0800 
 47 H        7.1230     7.1600     0.6890 H     1 <1>   0.0800 
 48 H       -6.2710     8.3900     0.8390 H     1 <1>   0.1500 
 49 H       -7.5540     4.6450    -0.7550 H     1 <1>   0.1500 
 50 H       -8.3230     9.4400     0.0160 H     1 <1>   0.1500 
 51 H       -9.6110     5.7050    -1.5750 H     1 <1>   0.1500 
 52 H       -9.9990     8.1040    -1.1900 H     1 <1>   0.1500 
@<TRIPOS>BOND
  1   1   2  2   
  2   2   3  am  
  3   2   4  1   
  4   3   5  1   
  5   3   6  1   
  6   4   7  ar  
  7   4   8  ar  
  8   5   9  1   
  9   5  28  1   
 10   5  29  1   
 11   6  10  1   
 12   6  30  1   
 13   6  31  1   
 14   7  11  ar  
 15   7  32  1   
 16   8  12  ar  
 17   8  33  1   
 18   9  13  1   
 19   9  34  1   
 20   9  35  1   
 21  10  13  1   
 22  10  36  1   
 23  10  37  1   
 24  11  14  ar  
 25  11  38  1   
 26  12  14  ar  
 27  12  39  1   
 28  13  15  1   
 29  13  40  1   
 30  14  16  1   
 31  15  17  2   
 32  15  18  1   
 33  16  19  1   
 34  18  20  1   
 35  19  21  1   
 36  19  41  1   
 37  19  42  1   
 38  20  22  1   
 39  20  43  1   
 40  20  44  1   
 41  21  23  ar  
 42  21  24  ar  
 43  22  45  1   
 44  22  46  1   
 45  22  47  1   
 46  23  25  ar  
 47  23  48  1   
 48  24  26  ar  
 49  24  49  1   
 50  25  27  ar  
 51  25  50  1   
 52  26  27  ar  
 53  26  51  1   
 54  27  52  1   
@<TRIPOS>SUBSTRUCTURE
  1 ****   4 GROUP 4 **** **** 0

# MOE 2024.06 (io_trps.svl 2023.06)
