@<TRIPOS>MOLECULE
NONAME
57 59 1 0 0 
SMALL
USER_CHARGES


@<TRIPOS>ATOM
  1 O        0.2480    -0.2560    -0.4420 O.2   1 <1>  -0.5700 
  2 C        0.7500    -1.3440    -0.2360 C.2   1 <1>   0.6340 
  3 O        2.0640    -1.4070     0.0090 O.3   1 <1>  -0.4300 
  4 C       -0.0040    -2.5800    -0.2470 C.ar  1 <1>   0.0860 
  5 C        2.8720    -0.2470     0.0390 C.3   1 <1>   0.0400 
  6 C       -1.3880    -2.5770    -0.4270 C.ar  1 <1>  -0.1500 
  7 C        0.6000    -3.8260    -0.0840 C.ar  1 <1>  -0.1500 
  8 C       -2.1540    -3.7310    -0.4470 C.ar  1 <1>   0.1170 
  9 C       -0.1390    -4.9900    -0.1060 C.ar  1 <1>  -0.1500 
 10 N       -3.5390    -3.5520    -0.6450 N.am  1 <1>  -0.5470 
 11 C       -1.5170    -4.9820    -0.2880 C.ar  1 <1>   0.1000 
 12 C       -4.5790    -3.8650     0.1920 C.2   1 <1>   0.5440 
 13 N       -2.1570    -6.2260    -0.3020 N.pl3 1 <1>  -0.8380 
 14 O       -4.3780    -4.5230     1.1970 O.2   1 <1>  -0.5700 
 15 C       -5.9260    -3.4440    -0.1410 C.ar  1 <1>   0.0860 
 16 C       -3.0680    -6.6440    -1.4150 C.3   1 <1>   0.2090 
 17 C       -2.1010    -7.0780     0.9320 C.3   1 <1>   0.2090 
 18 C       -6.8660    -3.1950     0.8620 C.ar  1 <1>  -0.1500 
 19 C       -6.3460    -3.2850    -1.4650 C.ar  1 <1>  -0.1500 
 20 C       -4.4640    -7.1120    -0.9260 C.3   1 <1>   0.3430 
 21 C       -3.3830    -7.9130     1.1510 C.3   1 <1>   0.3430 
 22 C       -8.1610    -2.8100     0.5670 C.ar  1 <1>  -0.1500 
 23 C       -7.6390    -2.9010    -1.7660 C.ar  1 <1>  -0.1500 
 24 N       -4.5750    -7.2210     0.5690 N.4   1 <1>  -0.9590 
 25 C       -8.5570    -2.6610    -0.7580 C.ar  1 <1>   0.0830 
 26 C       -5.8810    -7.7590     1.0380 C.3   1 <1>   0.2630 
 27 O       -9.7990    -2.2920    -1.1380 O.3   1 <1>  -0.3620 
 28 C      -10.8060    -1.9800    -0.2030 C.3   1 <1>   0.1200 
 29 C      -12.0610    -1.5850    -0.9750 C.3   1 <1>  -0.2400 
 30 H        3.8840    -0.5420     0.2550 H     1 <1>   0.0800 
 31 H        2.5060     0.4120     0.8070 H     1 <1>   0.0800 
 32 H        2.8230     0.2360    -0.9210 H     1 <1>   0.0800 
 33 H       -1.8750    -1.6250    -0.5460 H     1 <1>   0.1500 
 34 H        1.6660    -3.8840     0.0590 H     1 <1>   0.1500 
 35 H        0.3640    -5.9320     0.0110 H     1 <1>   0.1500 
 36 H       -3.7590    -2.8230    -1.3230 H     1 <1>   0.3700 
 37 H       -2.6000    -7.4520    -1.9510 H     1 <1>   0.0800 
 38 H       -3.1850    -5.8340    -2.1140 H     1 <1>   0.0800 
 39 H       -1.9620    -6.4350     1.7850 H     1 <1>   0.0800 
 40 H       -1.2510    -7.7350     0.8790 H     1 <1>   0.0800 
 41 H       -6.5710    -3.3020     1.8930 H     1 <1>   0.1500 
 42 H       -5.6650    -3.4670    -2.2770 H     1 <1>   0.1500 
 43 H       -4.6820    -8.0640    -1.3790 H     1 <1>   0.0800 
 44 H       -5.2000    -6.4110    -1.2830 H     1 <1>   0.0800 
 45 H       -3.5190    -8.0670     2.2090 H     1 <1>   0.0800 
 46 H       -3.2610    -8.8760     0.6860 H     1 <1>   0.0800 
 47 H       -8.8450    -2.6280     1.3750 H     1 <1>   0.1500 
 48 H       -7.9530    -2.7800    -2.7880 H     1 <1>   0.1500 
 49 H       -4.4670    -6.2350     0.9060 H     1 <1>   0.4500 
 50 H       -6.0080    -8.7770     0.7080 H     1 <1>   0.0800 
 51 H       -6.6890    -7.1630     0.6480 H     1 <1>   0.0800 
 52 H       -5.9270    -7.7330     2.1140 H     1 <1>   0.0800 
 53 H      -10.4630    -1.1630     0.4080 H     1 <1>   0.0800 
 54 H      -10.9910    -2.8500     0.4040 H     1 <1>   0.0800 
 55 H      -11.8620    -0.7260    -1.5900 H     1 <1>   0.0800 
 56 H      -12.8500    -1.3400    -0.2880 H     1 <1>   0.0800 
 57 H      -12.3870    -2.4020    -1.5940 H     1 <1>   0.0800 
@<TRIPOS>BOND
  1   1   2  2   
  2   2   3  1   
  3   2   4  1   
  4   3   5  1   
  5   4   6  ar  
  6   4   7  ar  
  7   5  30  1   
  8   5  31  1   
  9   5  32  1   
 10   6   8  ar  
 11   6  33  1   
 12   7   9  ar  
 13   7  34  1   
 14   8  10  1   
 15   8  11  ar  
 16   9  11  ar  
 17   9  35  1   
 18  10  12  am  
 19  10  36  1   
 20  11  13  1   
 21  12  14  2   
 22  12  15  1   
 23  13  16  1   
 24  13  17  1   
 25  15  18  ar  
 26  15  19  ar  
 27  16  20  1   
 28  16  37  1   
 29  16  38  1   
 30  17  21  1   
 31  17  39  1   
 32  17  40  1   
 33  18  22  ar  
 34  18  41  1   
 35  19  23  ar  
 36  19  42  1   
 37  20  24  1   
 38  20  43  1   
 39  20  44  1   
 40  21  24  1   
 41  21  45  1   
 42  21  46  1   
 43  22  25  ar  
 44  22  47  1   
 45  23  25  ar  
 46  23  48  1   
 47  24  26  1   
 48  24  49  1   
 49  25  27  1   
 50  26  50  1   
 51  26  51  1   
 52  26  52  1   
 53  27  28  1   
 54  28  29  1   
 55  28  53  1   
 56  28  54  1   
 57  29  55  1   
 58  29  56  1   
 59  29  57  1   
@<TRIPOS>SUBSTRUCTURE
  1 ****  10 GROUP 4 **** **** 0

# MOE 2024.06 (io_trps.svl 2023.06)
