@<TRIPOS>MOLECULE
NONAME
30 31 1 0 0 
SMALL
USER_CHARGES


@<TRIPOS>ATOM
  1 O        0.5580    -0.4450    -0.4510 O.2   1 <1>  -0.5700 
  2 C        0.5170    -1.5470     0.0400 C.2   1 <1>   0.5690 
  3 N        1.3580    -2.5530    -0.3540 N.am  1 <1>  -0.6600 
  4 C       -0.5110    -1.7830     1.1220 C.3   1 <1>  -0.1790 
  5 C        1.4080    -3.9320     0.2320 C.3   1 <1>   0.1400 
  6 C        2.3920    -2.3310    -1.4140 C.3   1 <1>   0.1400 
  7 C        2.8240    -4.2850     0.7190 C.3   1 <1>   0.2090 
  8 C        3.8000    -2.6940    -0.9110 C.3   1 <1>   0.2090 
  9 N        3.8380    -4.0800    -0.3600 N.pl3 1 <1>  -0.8380 
 10 C        5.0880    -4.6420    -0.1870 C.ar  1 <1>   0.4100 
 11 N        5.5380    -4.7610     1.0570 N.ar  1 <1>  -0.6200 
 12 C        5.8170    -5.0460    -1.3030 C.ar  1 <1>  -0.1500 
 13 C        6.7440    -5.2890     1.1880 C.ar  1 <1>   0.1600 
 14 C        7.0700    -5.5940    -1.1530 C.ar  1 <1>  -0.1500 
 15 C        7.5390    -5.7150     0.1390 C.ar  1 <1>  -0.1500 
 16 H       -0.0180    -2.0150     2.0470 H     1 <1>   0.0800 
 17 H       -1.1610    -2.5880     0.8390 H     1 <1>   0.0800 
 18 H       -1.1010    -0.8960     1.2600 H     1 <1>   0.0800 
 19 H        1.1190    -4.6410    -0.5240 H     1 <1>   0.0800 
 20 H        0.7250    -4.0310     1.0540 H     1 <1>   0.0800 
 21 H        2.3900    -1.3050    -1.7370 H     1 <1>   0.0800 
 22 H        2.1570    -2.9430    -2.2660 H     1 <1>   0.0800 
 23 H        2.8490    -5.3120     1.0390 H     1 <1>   0.0800 
 24 H        3.0760    -3.6680     1.5650 H     1 <1>   0.0800 
 25 H        4.0920    -1.9980    -0.1420 H     1 <1>   0.0800 
 26 H        4.5020    -2.6040    -1.7220 H     1 <1>   0.0800 
 27 H        5.3800    -4.9260    -2.2750 H     1 <1>   0.1500 
 28 H        7.1200    -5.3890     2.1910 H     1 <1>   0.1500 
 29 H        7.6540    -5.9150    -1.9980 H     1 <1>   0.1500 
 30 H        8.5100    -6.1340     0.3300 H     1 <1>   0.1500 
@<TRIPOS>BOND
  1   1   2  2   
  2   2   3  am  
  3   2   4  1   
  4   3   5  1   
  5   3   6  1   
  6   4  16  1   
  7   4  17  1   
  8   4  18  1   
  9   5   7  1   
 10   5  19  1   
 11   5  20  1   
 12   6   8  1   
 13   6  21  1   
 14   6  22  1   
 15   7   9  1   
 16   7  23  1   
 17   7  24  1   
 18   8   9  1   
 19   8  25  1   
 20   8  26  1   
 21   9  10  1   
 22  10  11  ar  
 23  10  12  ar  
 24  11  13  ar  
 25  12  14  ar  
 26  12  27  1   
 27  13  15  ar  
 28  13  28  1   
 29  14  15  ar  
 30  14  29  1   
 31  15  30  1   
@<TRIPOS>SUBSTRUCTURE
  1 ****   9 GROUP 4 **** **** 0

# MOE 2024.06 (io_trps.svl 2023.06)
