@<TRIPOS>MOLECULE
NONAME
29 30 1 0 0 
SMALL
USER_CHARGES


@<TRIPOS>ATOM
  1 CL      -1.8800     0.2880    -3.1990 Cl    1 <1>  -0.1770 
  2 C       -2.3890     0.9370    -1.6600 C.ar  1 <1>   0.1770 
  3 C       -1.6530     1.9210    -1.0230 C.ar  1 <1>   0.1770 
  4 C       -3.5500     0.4480    -1.0870 C.ar  1 <1>  -0.1500 
  5 CL      -0.1870     2.5490    -1.7360 Cl    1 <1>  -0.1770 
  6 C       -2.0730     2.4230     0.1950 C.ar  1 <1>  -0.1500 
  7 C       -3.9840     0.9520     0.1340 C.ar  1 <1>  -0.1440 
  8 C       -3.2370     1.9370     0.7720 C.ar  1 <1>  -0.1500 
  9 C       -5.2630     0.4300     0.7690 C.3   1 <1>   0.4870 
 10 N       -6.4300     0.9430     0.0040 N.4   1 <1>  -0.9590 
 11 C       -6.5160     2.4430    -0.0500 C.3   1 <1>   0.3430 
 12 C       -7.7400     0.3520     0.4410 C.3   1 <1>   0.3430 
 13 C       -7.7260     2.9040    -0.8950 C.3   1 <1>   0.1200 
 14 C       -8.9240     0.9490    -0.3550 C.3   1 <1>   0.1200 
 15 O       -8.4690     1.8100    -1.3640 O.3   1 <1>  -0.5600 
 16 H       -4.0920    -0.3230    -1.6090 H     1 <1>   0.1500 
 17 H       -1.4870     3.1850     0.6830 H     1 <1>   0.1500 
 18 H       -3.5440     2.3360     1.7250 H     1 <1>   0.1500 
 19 H       -5.3210     0.7520     1.7960 H     1 <1>   0.0800 
 20 H       -5.2540    -0.6480     0.7510 H     1 <1>   0.0800 
 21 H       -6.3210     0.6620    -0.9820 H     1 <1>   0.4500 
 22 H       -5.6150     2.8520    -0.4790 H     1 <1>   0.0800 
 23 H       -6.6110     2.8440     0.9460 H     1 <1>   0.0800 
 24 H       -7.9000     0.5350     1.4910 H     1 <1>   0.0800 
 25 H       -7.7280    -0.7170     0.2970 H     1 <1>   0.0800 
 26 H       -7.3880     3.4600    -1.7530 H     1 <1>   0.0800 
 27 H       -8.3750     3.5410    -0.3190 H     1 <1>   0.0800 
 28 H       -9.5850     1.4980     0.2940 H     1 <1>   0.0800 
 29 H       -9.4920     0.1630    -0.8240 H     1 <1>   0.0800 
@<TRIPOS>BOND
  1   1   2  1   
  2   2   3  ar  
  3   2   4  ar  
  4   3   5  1   
  5   3   6  ar  
  6   4   7  ar  
  7   4  16  1   
  8   6   8  ar  
  9   6  17  1   
 10   7   8  ar  
 11   7   9  1   
 12   8  18  1   
 13   9  10  1   
 14   9  19  1   
 15   9  20  1   
 16  10  11  1   
 17  10  12  1   
 18  10  21  1   
 19  11  13  1   
 20  11  22  1   
 21  11  23  1   
 22  12  14  1   
 23  12  24  1   
 24  12  25  1   
 25  13  15  1   
 26  13  26  1   
 27  13  27  1   
 28  14  15  1   
 29  14  28  1   
 30  14  29  1   
@<TRIPOS>SUBSTRUCTURE
  1 ****   7 GROUP 4 **** **** 0

# MOE 2024.06 (io_trps.svl 2023.06)
