@<TRIPOS>MOLECULE
NONAME
42 43 1 0 0 
SMALL
USER_CHARGES


@<TRIPOS>ATOM
  1 F       -0.3550    -0.6210     0.0640 F     1 <1>  -0.3400 
  2 C       -1.2940    -0.4060    -0.8510 C.3   1 <1>   1.1640 
  3 F       -1.0290    -1.2380    -1.8520 F     1 <1>  -0.3400 
  4 F       -1.0830     0.8180    -1.3190 F     1 <1>  -0.3400 
  5 C       -2.7160    -0.5710    -0.2950 C.ar  1 <1>  -0.1440 
  6 C       -3.7540    -1.0080    -1.1120 C.ar  1 <1>  -0.1500 
  7 C       -3.0000    -0.2760     1.0350 C.ar  1 <1>  -0.1500 
  8 C       -5.0350    -1.1510    -0.6100 C.ar  1 <1>  -0.1500 
  9 C       -4.2830    -0.4200     1.5350 C.ar  1 <1>  -0.1500 
 10 C       -5.3090    -0.8580     0.7160 C.ar  1 <1>  -0.1430 
 11 C       -6.7250    -1.0240     1.2550 C.3   1 <1>   0.2540 
 12 N       -7.7040    -0.2920     0.4230 N.3   1 <1>  -0.8100 
 13 C       -9.1150    -0.6340     0.7960 C.3   1 <1>   0.2510 
 14 C       -7.4600     1.1600     0.4830 C.3   1 <1>   0.1100 
 15 C       -9.4310    -2.1450     0.8320 C.2   1 <1>   0.6590 
 16 C      -10.0850     0.0840    -0.1620 C.3   1 <1>  -0.1600 
 17 C       -8.3890     1.8970    -0.4840 C.3   1 <1>  -0.1600 
 18 O       -9.7400    -2.6910     1.8630 O.2   1 <1>  -0.5700 
 19 O       -9.3160    -2.8160    -0.3130 O.3   1 <1>  -0.4300 
 20 C       -9.8590     1.6000    -0.1790 C.3   1 <1>  -0.1600 
 21 C       -9.4710    -4.2140    -0.4040 C.3   1 <1>   0.1200 
 22 C       -8.1340    -4.8750    -0.0730 C.3   1 <1>  -0.2400 
 23 H       -3.5760    -1.2400    -2.1490 H     1 <1>   0.1500 
 24 H       -2.2210     0.0690     1.6950 H     1 <1>   0.1500 
 25 H       -5.8330    -1.4840    -1.2530 H     1 <1>   0.1500 
 26 H       -4.4770    -0.1870     2.5680 H     1 <1>   0.1500 
 27 H       -6.7820    -0.6790     2.2730 H     1 <1>   0.0800 
 28 H       -6.9440    -2.0770     1.2470 H     1 <1>   0.0800 
 29 H       -9.2960    -0.2620     1.7890 H     1 <1>   0.0800 
 30 H       -6.4420     1.3750     0.2030 H     1 <1>   0.0800 
 31 H       -7.6170     1.5180     1.4870 H     1 <1>   0.0800 
 32 H      -11.0980    -0.1220     0.1360 H     1 <1>   0.0800 
 33 H       -9.9480    -0.3100    -1.1540 H     1 <1>   0.0800 
 34 H       -8.1530     1.5910    -1.4880 H     1 <1>   0.0800 
 35 H       -8.2100     2.9550    -0.4120 H     1 <1>   0.0800 
 36 H      -10.1190     2.0150     0.7790 H     1 <1>   0.0800 
 37 H      -10.4870     2.0570    -0.9250 H     1 <1>   0.0800 
 38 H       -9.7640    -4.4430    -1.4130 H     1 <1>   0.0800 
 39 H      -10.2490    -4.5310     0.2710 H     1 <1>   0.0800 
 40 H       -7.3690    -4.5190    -0.7380 H     1 <1>   0.0800 
 41 H       -8.2200    -5.9400    -0.1860 H     1 <1>   0.0800 
 42 H       -7.8560    -4.6640     0.9450 H     1 <1>   0.0800 
@<TRIPOS>BOND
  1   1   2  1   
  2   2   3  1   
  3   2   4  1   
  4   2   5  1   
  5   5   6  ar  
  6   5   7  ar  
  7   6   8  ar  
  8   6  23  1   
  9   7   9  ar  
 10   7  24  1   
 11   8  10  ar  
 12   8  25  1   
 13   9  10  ar  
 14   9  26  1   
 15  10  11  1   
 16  11  12  1   
 17  11  27  1   
 18  11  28  1   
 19  12  13  1   
 20  12  14  1   
 21  13  15  1   
 22  13  16  1   
 23  13  29  1   
 24  14  17  1   
 25  14  30  1   
 26  14  31  1   
 27  15  18  2   
 28  15  19  1   
 29  16  20  1   
 30  16  32  1   
 31  16  33  1   
 32  17  20  1   
 33  17  34  1   
 34  17  35  1   
 35  19  21  1   
 36  20  36  1   
 37  20  37  1   
 38  21  22  1   
 39  21  38  1   
 40  21  39  1   
 41  22  40  1   
 42  22  41  1   
 43  22  42  1   
@<TRIPOS>SUBSTRUCTURE
  1 ****  10 GROUP 4 **** **** 0

# MOE 2024.06 (io_trps.svl 2023.06)
