@<TRIPOS>MOLECULE
NONAME
27 28 1 0 0 
SMALL
USER_CHARGES


@<TRIPOS>ATOM
  1 S        0.0580    -0.2260     0.4260 S.3   1 <1>  -0.0800 
  2 C        1.4970     0.6920     0.0000 C.ar  1 <1>   0.2970 
  3 C       -0.9730     1.1890     0.2190 C.2   1 <1>  -0.1400 
  4 N        2.6890     0.1390    -0.0660 N.ar  1 <1>  -0.5670 
  5 C        1.1810     2.0080    -0.2450 C.ar  1 <1>   0.0000 
  6 C       -0.2440     2.2640    -0.1410 C.2   1 <1>  -0.1810 
  7 C       -2.4520     0.9470     0.4610 C.3   1 <1>  -0.0600 
  8 C        3.6220     1.0010    -0.4150 C.ar  1 <1>   0.4700 
  9 C        2.2930     2.8030    -0.5550 C.ar  1 <1>   0.4100 
 10 C       -0.8230     3.6360    -0.4500 C.3   1 <1>  -0.0590 
 11 N        3.5030     2.2970    -0.6680 N.ar  1 <1>  -0.6200 
 12 N        2.2560     4.1500    -0.7530 N.pl3 1 <1>  -0.8690 
 13 C        2.2010     5.0410     0.4160 C.3   1 <1>   0.2090 
 14 C        1.7500     6.4180    -0.0520 C.3   1 <1>  -0.2400 
 15 H       -2.5990     0.5690     1.4570 H     1 <1>   0.0800 
 16 H       -2.8210     0.2240    -0.2420 H     1 <1>   0.0800 
 17 H       -3.0170     1.8540     0.3530 H     1 <1>   0.0800 
 18 H        4.6180     0.6000    -0.5040 H     1 <1>   0.1500 
 19 H       -1.8890     3.5930    -0.5580 H     1 <1>   0.0800 
 20 H       -0.4110     4.0080    -1.3710 H     1 <1>   0.0800 
 21 H       -0.5910     4.3220     0.3420 H     1 <1>   0.0800 
 22 H        3.0110     4.4380    -1.3800 H     1 <1>   0.4000 
 23 H        1.5170     4.6480     1.1490 H     1 <1>   0.0800 
 24 H        3.1790     5.1030     0.8640 H     1 <1>   0.0800 
 25 H        1.6880     7.0840     0.7900 H     1 <1>   0.0800 
 26 H        0.7820     6.3560    -0.5130 H     1 <1>   0.0800 
 27 H        2.4560     6.8220    -0.7560 H     1 <1>   0.0800 
@<TRIPOS>BOND
  1   1   2  1   
  2   1   3  1   
  3   2   4  ar  
  4   2   5  ar  
  5   3   6  2   
  6   3   7  1   
  7   4   8  ar  
  8   5   6  1   
  9   5   9  ar  
 10   6  10  1   
 11   7  15  1   
 12   7  16  1   
 13   7  17  1   
 14   8  11  ar  
 15   8  18  1   
 16   9  11  ar  
 17   9  12  1   
 18  10  19  1   
 19  10  20  1   
 20  10  21  1   
 21  12  13  1   
 22  12  22  1   
 23  13  14  1   
 24  13  23  1   
 25  13  24  1   
 26  14  25  1   
 27  14  26  1   
 28  14  27  1   
@<TRIPOS>SUBSTRUCTURE
  1 ****   5 GROUP 4 **** **** 0

# MOE 2024.06 (io_trps.svl 2023.06)
