@<TRIPOS>MOLECULE
NONAME
50 52 1 0 0 
SMALL
USER_CHARGES


@<TRIPOS>ATOM
  1 O       -1.2480    -0.9880    -1.4980 O.2   1 <1>  -0.5700 
  2 C       -0.6780    -1.8340    -0.8630 C.2   1 <1>   0.6590 
  3 O       -1.2740    -2.9960    -0.6720 O.3   1 <1>  -0.4300 
  4 C        0.7490    -1.6600    -0.3600 C.3   1 <1>   0.1220 
  5 C       -1.1810    -3.6960     0.5320 C.3   1 <1>   0.5600 
  6 C        0.7020    -2.3490     1.0010 C.2   1 <1>   0.6590 
  7 C        1.0750    -0.1310    -0.2470 C.3   1 <1>  -0.0160 
  8 C        1.6850    -2.3880    -1.3740 C.3   1 <1>  -0.0160 
  9 O        0.0850    -3.5120     1.0780 O.3   1 <1>  -0.4300 
 10 C       -2.2320    -3.1640     1.5030 C.3   1 <1>  -0.2400 
 11 C       -1.3650    -5.1780     0.2400 C.3   1 <1>  -0.2400 
 12 O        1.1750    -1.8800     2.0000 O.2   1 <1>  -0.5700 
 13 C        2.5360     0.2690    -0.0340 C.ar  1 <1>  -0.1430 
 14 C        2.6260    -3.4210    -0.7660 C.ar  1 <1>  -0.1430 
 15 C        3.0780     0.3630     1.2390 C.ar  1 <1>  -0.1500 
 16 C        3.3410     0.5810    -1.1210 C.ar  1 <1>  -0.1500 
 17 C        3.7500    -3.0280    -0.0570 C.ar  1 <1>  -0.1500 
 18 C        2.3680    -4.7750    -0.9210 C.ar  1 <1>  -0.1500 
 19 C        4.4020     0.7230     1.4190 C.ar  1 <1>  -0.1500 
 20 C        4.6650     0.9410    -0.9420 C.ar  1 <1>  -0.1500 
 21 C        4.5930    -3.9730     0.5010 C.ar  1 <1>  -0.1500 
 22 C        3.2130    -5.7190    -0.3640 C.ar  1 <1>  -0.1500 
 23 C        5.2060     1.0080     0.3300 C.ar  1 <1>  -0.1430 
 24 C        4.3290    -5.3240     0.3530 C.ar  1 <1>  -0.1430 
 25 C        6.6590     1.3990     0.5270 C.3   1 <1>  -0.0970 
 26 C        5.2560    -6.3550     0.9690 C.3   1 <1>  -0.0970 
 27 H        0.4840     0.2960     0.5450 H     1 <1>   0.0800 
 28 H        0.7590     0.3630    -1.1500 H     1 <1>   0.0800 
 29 H        2.2730    -1.6820    -1.9260 H     1 <1>   0.0800 
 30 H        1.0910    -2.8910    -2.1180 H     1 <1>   0.0800 
 31 H       -2.0850    -2.1170     1.6950 H     1 <1>   0.0800 
 32 H       -2.1700    -3.6990     2.4340 H     1 <1>   0.0800 
 33 H       -3.2150    -3.3100     1.0950 H     1 <1>   0.0800 
 34 H       -0.6150    -5.5180    -0.4490 H     1 <1>   0.0800 
 35 H       -2.3380    -5.3520    -0.1840 H     1 <1>   0.0800 
 36 H       -1.2860    -5.7430     1.1510 H     1 <1>   0.0800 
 37 H        2.4780     0.1590     2.1080 H     1 <1>   0.1500 
 38 H        2.9450     0.5480    -2.1210 H     1 <1>   0.1500 
 39 H        3.9810    -1.9860     0.0720 H     1 <1>   0.1500 
 40 H        1.5110    -5.1070    -1.4780 H     1 <1>   0.1500 
 41 H        4.8010     0.7800     2.4170 H     1 <1>   0.1500 
 42 H        5.2730     1.1720    -1.7990 H     1 <1>   0.1500 
 43 H        5.4570    -3.6460     1.0520 H     1 <1>   0.1500 
 44 H        2.9970    -6.7650    -0.4930 H     1 <1>   0.1500 
 45 H        7.0470     0.9620     1.4300 H     1 <1>   0.0800 
 46 H        6.7420     2.4680     0.5940 H     1 <1>   0.0800 
 47 H        7.2550     1.0540    -0.2990 H     1 <1>   0.0800 
 48 H        5.6520    -5.9910     1.9000 H     1 <1>   0.0800 
 49 H        6.0730    -6.5550     0.2980 H     1 <1>   0.0800 
 50 H        4.7290    -7.2720     1.1600 H     1 <1>   0.0800 
@<TRIPOS>BOND
  1   1   2  2   
  2   2   3  1   
  3   2   4  1   
  4   3   5  1   
  5   4   6  1   
  6   4   7  1   
  7   4   8  1   
  8   5   9  1   
  9   5  10  1   
 10   5  11  1   
 11   6   9  1   
 12   6  12  2   
 13   7  13  1   
 14   7  27  1   
 15   7  28  1   
 16   8  14  1   
 17   8  29  1   
 18   8  30  1   
 19  10  31  1   
 20  10  32  1   
 21  10  33  1   
 22  11  34  1   
 23  11  35  1   
 24  11  36  1   
 25  13  15  ar  
 26  13  16  ar  
 27  14  17  ar  
 28  14  18  ar  
 29  15  19  ar  
 30  15  37  1   
 31  16  20  ar  
 32  16  38  1   
 33  17  21  ar  
 34  17  39  1   
 35  18  22  ar  
 36  18  40  1   
 37  19  23  ar  
 38  19  41  1   
 39  20  23  ar  
 40  20  42  1   
 41  21  24  ar  
 42  21  43  1   
 43  22  24  ar  
 44  22  44  1   
 45  23  25  1   
 46  24  26  1   
 47  25  45  1   
 48  25  46  1   
 49  25  47  1   
 50  26  48  1   
 51  26  49  1   
 52  26  50  1   
@<TRIPOS>SUBSTRUCTURE
  1 ****   4 GROUP 4 **** **** 0

# MOE 2024.06 (io_trps.svl 2023.06)
