@<TRIPOS>MOLECULE
NONAME
47 49 1 0 0 
SMALL
USER_CHARGES


@<TRIPOS>ATOM
  1 CL       1.9820    -3.6320    -4.4840 Cl    1 <1>  -0.1770 
  2 C        1.4190    -3.5080    -2.8380 C.ar  1 <1>   0.1770 
  3 C        0.1860    -2.9370    -2.5880 C.ar  1 <1>  -0.1500 
  4 C        2.2160    -3.9830    -1.8150 C.ar  1 <1>  -0.1500 
  5 C       -0.2350    -2.8520    -1.2740 C.ar  1 <1>   0.1770 
  6 C        1.7820    -3.8920    -0.4960 C.ar  1 <1>   0.1990 
  7 CL      -1.7890    -2.1410    -0.9240 Cl    1 <1>  -0.1770 
  8 C        0.5450    -3.3180    -0.2340 C.ar  1 <1>  -0.1500 
  9 N        2.5610    -4.3600     0.5540 N.am  1 <1>  -0.6930 
 10 S        2.8760    -6.0530     0.7390 S.o2  1 <1>   1.4470 
 11 C        3.5110    -3.3990     1.2080 C.3   1 <1>   0.2570 
 12 O        3.5430    -6.4730    -0.4720 O.2   1 <1>  -0.6500 
 13 O        3.5480    -6.1940     2.0110 O.2   1 <1>  -0.6500 
 14 C        1.2000    -6.7350     0.8400 C.ar  1 <1>  -0.0090 
 15 C        4.3010    -2.5310     0.2190 C.2   1 <1>   0.5690 
 16 C        0.5200    -7.1360    -0.3050 C.ar  1 <1>  -0.1500 
 17 C        0.5370    -6.8380     2.0580 C.ar  1 <1>  -0.1500 
 18 O        3.9230    -1.3880     0.0850 O.2   1 <1>  -0.5700 
 19 N        5.3710    -3.0220    -0.4960 N.am  1 <1>  -0.6600 
 20 C       -0.7730    -7.6250    -0.2400 C.ar  1 <1>  -0.1500 
 21 C       -0.7560    -7.3270     2.1330 C.ar  1 <1>  -0.1500 
 22 C        5.9510    -4.3900    -0.3480 C.3   1 <1>   0.1400 
 23 C        6.0260    -2.2030    -1.5560 C.3   1 <1>   0.1400 
 24 C       -1.4130    -7.7210     0.9820 C.ar  1 <1>  -0.1500 
 25 C        7.4540    -4.2940    -0.0660 C.3   1 <1>  -0.1600 
 26 C        7.5270    -2.0860    -1.2750 C.3   1 <1>  -0.1600 
 27 C        8.1820    -3.4660    -1.1320 C.3   1 <1>  -0.1600 
 28 H       -0.4260    -2.5700    -3.3900 H     1 <1>   0.1500 
 29 H        3.1730    -4.4160    -2.0420 H     1 <1>   0.1500 
 30 H        0.1920    -3.2370     0.7770 H     1 <1>   0.1500 
 31 H        4.2060    -3.9090     1.8470 H     1 <1>   0.0800 
 32 H        2.9380    -2.7410     1.8350 H     1 <1>   0.0800 
 33 H        1.0090    -7.0640    -1.2630 H     1 <1>   0.1500 
 34 H        1.0390    -6.5330     2.9610 H     1 <1>   0.1500 
 35 H       -1.2810    -7.9310    -1.1390 H     1 <1>   0.1500 
 36 H       -1.2510    -7.4020     3.0870 H     1 <1>   0.1500 
 37 H        5.7840    -4.9420    -1.2570 H     1 <1>   0.0800 
 38 H        5.4880    -4.9290     0.4560 H     1 <1>   0.0800 
 39 H        5.5930    -1.2180    -1.6040 H     1 <1>   0.0800 
 40 H        5.8690    -2.6790    -2.5090 H     1 <1>   0.0800 
 41 H       -2.4180    -8.1030     1.0370 H     1 <1>   0.1500 
 42 H        7.8700    -5.2850    -0.0320 H     1 <1>   0.0800 
 43 H        7.5980    -3.8460     0.9020 H     1 <1>   0.0800 
 44 H        7.6660    -1.5190    -0.3710 H     1 <1>   0.0800 
 45 H        7.9960    -1.5440    -2.0760 H     1 <1>   0.0800 
 46 H        8.1390    -3.9820    -2.0760 H     1 <1>   0.0800 
 47 H        9.2180    -3.3510    -0.8610 H     1 <1>   0.0800 
@<TRIPOS>BOND
  1   1   2  1   
  2   2   3  ar  
  3   2   4  ar  
  4   3   5  ar  
  5   3  28  1   
  6   4   6  ar  
  7   4  29  1   
  8   5   7  1   
  9   5   8  ar  
 10   6   8  ar  
 11   6   9  1   
 12   8  30  1   
 13   9  10  am  
 14   9  11  1   
 15  10  12  2   
 16  10  13  2   
 17  10  14  1   
 18  11  15  1   
 19  11  31  1   
 20  11  32  1   
 21  14  16  ar  
 22  14  17  ar  
 23  15  18  2   
 24  15  19  am  
 25  16  20  ar  
 26  16  33  1   
 27  17  21  ar  
 28  17  34  1   
 29  19  22  1   
 30  19  23  1   
 31  20  24  ar  
 32  20  35  1   
 33  21  24  ar  
 34  21  36  1   
 35  22  25  1   
 36  22  37  1   
 37  22  38  1   
 38  23  26  1   
 39  23  39  1   
 40  23  40  1   
 41  24  41  1   
 42  25  27  1   
 43  25  42  1   
 44  25  43  1   
 45  26  27  1   
 46  26  44  1   
 47  26  45  1   
 48  27  46  1   
 49  27  47  1   
@<TRIPOS>SUBSTRUCTURE
  1 ****   9 GROUP 4 **** **** 0

# MOE 2024.06 (io_trps.svl 2023.06)
