@<TRIPOS>MOLECULE
NONAME
54 56 1 0 0 
SMALL
USER_CHARGES


@<TRIPOS>ATOM
  1 O       -0.6730    -3.7080    -1.6280 O.2   1 <1>  -0.5700 
  2 C       -0.2890    -3.2290    -0.5790 C.2   1 <1>   0.6900 
  3 N        0.8920    -3.6370    -0.0250 N.am  1 <1>  -0.6600 
  4 N       -1.0240    -2.3140     0.0950 N.am  1 <1>  -0.7300 
  5 C        1.7950    -2.7120     0.7350 C.3   1 <1>   0.1400 
  6 C        1.5890    -4.8650    -0.5290 C.3   1 <1>   0.1400 
  7 C       -2.3360    -1.7340    -0.2350 C.3   1 <1>   0.4440 
  8 C        3.0520    -2.3710    -0.0840 C.3   1 <1>   0.2090 
  9 C        2.8480    -4.5050    -1.3340 C.3   1 <1>   0.2090 
 10 C       -3.5040    -2.7020     0.0520 C.ar  1 <1>  -0.1440 
 11 C       -2.3490    -1.2490    -1.6900 C.3   1 <1>  -0.2400 
 12 C       -2.4540    -0.5190     0.6880 C.3   1 <1>  -0.2400 
 13 N        3.7450    -3.6220    -0.5210 N.pl3 1 <1>  -0.8380 
 14 C       -4.8120    -2.2750    -0.1550 C.ar  1 <1>  -0.1500 
 15 C       -3.3140    -4.0000     0.5180 C.ar  1 <1>  -0.1500 
 16 C        4.8670    -4.1100     0.1180 C.ar  1 <1>   0.7200 
 17 C       -5.9160    -3.0850     0.0940 C.ar  1 <1>   0.0280 
 18 C       -4.3920    -4.8280     0.7680 C.ar  1 <1>  -0.1500 
 19 N        5.4130    -5.2190    -0.3800 N.ar  1 <1>  -0.6200 
 20 N        5.3050    -3.4380     1.1830 N.ar  1 <1>  -0.6200 
 21 C       -7.2740    -2.6250    -0.1180 C.2   1 <1>  -0.1670 
 22 C       -5.6790    -4.3730     0.5590 C.ar  1 <1>  -0.1500 
 23 C        6.4820    -5.6690     0.2300 C.ar  1 <1>   0.1600 
 24 C        6.3750    -3.9120     1.7740 C.ar  1 <1>   0.1600 
 25 C       -8.2180    -3.3400    -0.7500 C.2   1 <1>  -0.3000 
 26 C       -7.6110    -1.2510     0.4420 C.3   1 <1>  -0.1020 
 27 C        7.0140    -5.0420     1.3290 C.ar  1 <1>  -0.1500 
 28 H       -0.8090    -2.2480     1.0820 H     1 <1>   0.3700 
 29 H        2.0950    -3.1850     1.6530 H     1 <1>   0.0800 
 30 H        1.2870    -1.7970     0.9800 H     1 <1>   0.0800 
 31 H        0.9270    -5.4470    -1.1470 H     1 <1>   0.0800 
 32 H        1.8740    -5.4760     0.3090 H     1 <1>   0.0800 
 33 H        3.7050    -1.7430     0.4960 H     1 <1>   0.0800 
 34 H        2.7630    -1.8100    -0.9560 H     1 <1>   0.0800 
 35 H        2.5570    -3.9850    -2.2300 H     1 <1>   0.0800 
 36 H        3.3480    -5.4080    -1.6340 H     1 <1>   0.0800 
 37 H       -1.4540    -0.6970    -1.9110 H     1 <1>   0.0800 
 38 H       -3.1950    -0.6160    -1.8730 H     1 <1>   0.0800 
 39 H       -2.4220    -2.0870    -2.3590 H     1 <1>   0.0800 
 40 H       -2.4880    -0.8360     1.7150 H     1 <1>   0.0800 
 41 H       -3.3540     0.0290     0.4810 H     1 <1>   0.0800 
 42 H       -1.6210     0.1450     0.5450 H     1 <1>   0.0800 
 43 H       -4.9920    -1.2870    -0.5310 H     1 <1>   0.1500 
 44 H       -2.3290    -4.3940     0.6880 H     1 <1>   0.1500 
 45 H       -4.2270    -5.8290     1.1250 H     1 <1>   0.1500 
 46 H       -6.5120    -5.0210     0.7590 H     1 <1>   0.1500 
 47 H        6.9450    -6.5600    -0.1580 H     1 <1>   0.1500 
 48 H        6.7510    -3.3840     2.6330 H     1 <1>   0.1500 
 49 H       -9.2300    -3.0100    -0.9050 H     1 <1>   0.1500 
 50 H       -8.0440    -4.3160    -1.1670 H     1 <1>   0.1500 
 51 H       -7.3100    -1.1930     1.4730 H     1 <1>   0.0800 
 52 H       -8.6680    -1.0650     0.3870 H     1 <1>   0.0800 
 53 H       -7.1050    -0.4830    -0.1130 H     1 <1>   0.0800 
 54 H        7.8900    -5.4200     1.8200 H     1 <1>   0.1500 
@<TRIPOS>BOND
  1   1   2  2   
  2   2   3  am  
  3   2   4  am  
  4   3   5  1   
  5   3   6  1   
  6   4   7  1   
  7   4  28  1   
  8   5   8  1   
  9   5  29  1   
 10   5  30  1   
 11   6   9  1   
 12   6  31  1   
 13   6  32  1   
 14   7  10  1   
 15   7  11  1   
 16   7  12  1   
 17   8  13  1   
 18   8  33  1   
 19   8  34  1   
 20   9  13  1   
 21   9  35  1   
 22   9  36  1   
 23  10  14  ar  
 24  10  15  ar  
 25  11  37  1   
 26  11  38  1   
 27  11  39  1   
 28  12  40  1   
 29  12  41  1   
 30  12  42  1   
 31  13  16  1   
 32  14  17  ar  
 33  14  43  1   
 34  15  18  ar  
 35  15  44  1   
 36  16  19  ar  
 37  16  20  ar  
 38  17  21  1   
 39  17  22  ar  
 40  18  22  ar  
 41  18  45  1   
 42  19  23  ar  
 43  20  24  ar  
 44  21  25  2   
 45  21  26  1   
 46  22  46  1   
 47  23  27  ar  
 48  23  47  1   
 49  24  27  ar  
 50  24  48  1   
 51  25  49  1   
 52  25  50  1   
 53  26  51  1   
 54  26  52  1   
 55  26  53  1   
 56  27  54  1   
@<TRIPOS>SUBSTRUCTURE
  1 ****   2 GROUP 4 **** **** 0

# MOE 2024.06 (io_trps.svl 2023.06)
