@<TRIPOS>MOLECULE
NONAME
41 42 1 0 0 
SMALL
USER_CHARGES


@<TRIPOS>ATOM
  1 O       -0.2600    -0.9390     0.2930 O.2   1 <1>  -0.5700 
  2 C       -0.9280    -1.8870    -0.0780 C.2   1 <1>   0.5440 
  3 N       -0.2890    -2.9670    -0.6550 N.am  1 <1>  -0.6600 
  4 C       -2.3650    -1.8560     0.1130 C.ar  1 <1>   0.0860 
  5 C        1.1310    -2.8860    -1.0940 C.3   1 <1>   0.1400 
  6 C       -0.8470    -4.3460    -0.6500 C.3   1 <1>   0.1400 
  7 C       -2.9160    -1.5430     1.3550 C.ar  1 <1>  -0.1500 
  8 C       -3.2490    -2.1300    -0.9320 C.ar  1 <1>  -0.1500 
  9 C        1.9960    -3.7330    -0.1580 C.3   1 <1>  -0.1600 
 10 C       -0.0090    -5.2220     0.2860 C.3   1 <1>  -0.1600 
 11 C       -4.2840    -1.5230     1.5500 C.ar  1 <1>  -0.1500 
 12 C       -4.6200    -2.1110    -0.7470 C.ar  1 <1>  -0.1500 
 13 C        1.4880    -5.1870    -0.0820 C.3   1 <1>  -0.0190 
 14 C       -5.1480    -1.8090     0.5060 C.ar  1 <1>   0.0820 
 15 C        2.3190    -6.0330     0.8770 C.2   1 <1>   0.5690 
 16 O       -6.4710    -1.7700     0.7790 O.3   1 <1>  -0.3630 
 17 O        2.8500    -7.0370     0.4800 O.2   1 <1>  -0.5700 
 18 N        2.4550    -5.6650     2.1650 N.am  1 <1>  -0.8000 
 19 C       -7.4420    -2.0040    -0.2130 C.3   1 <1>   0.2580 
 20 C       -8.8100    -1.8670     0.4270 C.2   1 <1>  -0.2880 
 21 C       -9.7610    -2.8070     0.4370 C.2   1 <1>  -0.3000 
 22 H        1.4750    -1.8650    -1.0860 H     1 <1>   0.0800 
 23 H        1.2090    -3.2530    -2.1030 H     1 <1>   0.0800 
 24 H       -0.8180    -4.7410    -1.6510 H     1 <1>   0.0800 
 25 H       -1.8690    -4.3490    -0.3150 H     1 <1>   0.0800 
 26 H       -2.2530    -1.3100     2.1710 H     1 <1>   0.1500 
 27 H       -2.8450    -2.3560    -1.9040 H     1 <1>   0.1500 
 28 H        1.9820    -3.2770     0.8160 H     1 <1>   0.0800 
 29 H        3.0130    -3.7240    -0.5110 H     1 <1>   0.0800 
 30 H       -0.3650    -6.2360     0.2350 H     1 <1>   0.0800 
 31 H       -0.1490    -4.8770     1.2950 H     1 <1>   0.0800 
 32 H       -4.6940    -1.2820     2.5150 H     1 <1>   0.1500 
 33 H       -5.2570    -2.3290    -1.5830 H     1 <1>   0.1500 
 34 H        1.5960    -5.6220    -1.0610 H     1 <1>   0.0800 
 35 H        3.0170    -6.2400     2.7930 H     1 <1>   0.3700 
 36 H        2.0420    -4.8190     2.5560 H     1 <1>   0.3700 
 37 H       -7.3000    -2.9950    -0.6050 H     1 <1>   0.0800 
 38 H       -7.3160    -1.2720    -0.9910 H     1 <1>   0.0800 
 39 H       -8.9400    -0.9040     0.8920 H     1 <1>   0.1500 
 40 H      -10.7230    -2.6790     0.9030 H     1 <1>   0.1500 
 41 H       -9.6630    -3.7790    -0.0140 H     1 <1>   0.1500 
@<TRIPOS>BOND
  1   1   2  2   
  2   2   3  am  
  3   2   4  1   
  4   3   5  1   
  5   3   6  1   
  6   4   7  ar  
  7   4   8  ar  
  8   5   9  1   
  9   5  22  1   
 10   5  23  1   
 11   6  10  1   
 12   6  24  1   
 13   6  25  1   
 14   7  11  ar  
 15   7  26  1   
 16   8  12  ar  
 17   8  27  1   
 18   9  13  1   
 19   9  28  1   
 20   9  29  1   
 21  10  13  1   
 22  10  30  1   
 23  10  31  1   
 24  11  14  ar  
 25  11  32  1   
 26  12  14  ar  
 27  12  33  1   
 28  13  15  1   
 29  13  34  1   
 30  14  16  1   
 31  15  17  2   
 32  15  18  am  
 33  16  19  1   
 34  18  35  1   
 35  18  36  1   
 36  19  20  1   
 37  19  37  1   
 38  19  38  1   
 39  20  21  2   
 40  20  39  1   
 41  21  40  1   
 42  21  41  1   
@<TRIPOS>SUBSTRUCTURE
  1 ****   4 GROUP 4 **** **** 0

# MOE 2024.06 (io_trps.svl 2023.06)
