@<TRIPOS>MOLECULE
NONAME
53 55 1 0 0 
SMALL
USER_CHARGES


@<TRIPOS>ATOM
  1 O       -1.1030     0.3990     0.6650 O.2   1 <1>  -0.5700 
  2 C       -2.1620     0.9570     0.4720 C.2   1 <1>   0.5690 
  3 N       -3.1870     0.2970    -0.1700 N.am  1 <1>  -0.6600 
  4 C       -2.3430     2.4110     0.9870 C.3   1 <1>   0.2610 
  5 C       -3.0290    -1.0900    -0.6960 C.3   1 <1>   0.1400 
  6 C       -4.5310     0.8700    -0.4780 C.3   1 <1>   0.1400 
  7 O       -2.6630     3.2920    -0.0570 O.3   1 <1>  -0.5600 
  8 C       -1.1010     3.0570     1.6030 C.3   1 <1>  -0.1600 
  9 C       -4.1680    -1.9920    -0.1950 C.3   1 <1>   0.1100 
 10 C       -5.6520    -0.0680     0.0050 C.3   1 <1>   0.1100 
 11 C       -1.4950     3.7440    -0.6670 C.3   1 <1>   0.1200 
 12 C       -0.4110     3.6970     0.4080 C.3   1 <1>  -0.1600 
 13 N       -5.5020    -1.4410    -0.5260 N.3   1 <1>  -0.8100 
 14 C       -6.5750    -2.3830    -0.0920 C.3   1 <1>   0.1710 
 15 C       -8.0100    -2.0370    -0.5170 C.2   1 <1>   0.5690 
 16 O       -8.4950    -2.6270    -1.4530 O.2   1 <1>  -0.5700 
 17 N       -8.6970    -1.1120     0.2280 N.am  1 <1>  -0.5470 
 18 C       -9.9960    -0.5930     0.0940 C.ar  1 <1>   0.1170 
 19 C      -10.5930    -0.0020     1.2020 C.ar  1 <1>  -0.1500 
 20 C      -10.7090    -0.6260    -1.1010 C.ar  1 <1>  -0.1500 
 21 C      -11.8650     0.5350     1.1210 C.ar  1 <1>  -0.1500 
 22 C      -11.9830    -0.0920    -1.1880 C.ar  1 <1>  -0.1500 
 23 C      -12.5700     0.4950    -0.0700 C.ar  1 <1>   0.0820 
 24 O      -13.8130     1.0430    -0.0630 O.3   1 <1>  -0.3620 
 25 C      -14.6210     1.0210    -1.2170 C.3   1 <1>   0.1200 
 26 C      -15.9470     1.6940    -0.8780 C.3   1 <1>  -0.2400 
 27 H       -3.1540     2.4220     1.6920 H     1 <1>   0.0800 
 28 H       -2.0860    -1.5090    -0.3900 H     1 <1>   0.0800 
 29 H       -3.0450    -1.0640    -1.7710 H     1 <1>   0.0800 
 30 H       -4.6170     1.0020    -1.5430 H     1 <1>   0.0800 
 31 H       -4.6600     1.8320    -0.0180 H     1 <1>   0.0800 
 32 H       -0.4740     2.3550     2.1220 H     1 <1>   0.0800 
 33 H       -1.4160     3.8180     2.2950 H     1 <1>   0.0800 
 34 H       -4.0730    -2.1110     0.8710 H     1 <1>   0.0800 
 35 H       -4.0600    -2.9610    -0.6520 H     1 <1>   0.0800 
 36 H       -6.5870     0.3460    -0.3290 H     1 <1>   0.0800 
 37 H       -5.6500    -0.0880     1.0810 H     1 <1>   0.0800 
 38 H       -1.6620     4.7410    -1.0360 H     1 <1>   0.0800 
 39 H       -1.2630     3.0800    -1.4820 H     1 <1>   0.0800 
 40 H        0.4070     3.0870     0.0660 H     1 <1>   0.0800 
 41 H       -0.0440     4.6810     0.6390 H     1 <1>   0.0800 
 42 H       -6.5500    -2.4820     0.9780 H     1 <1>   0.0800 
 43 H       -6.3590    -3.3520    -0.5060 H     1 <1>   0.0800 
 44 H       -8.1860    -0.7510     1.0280 H     1 <1>   0.3700 
 45 H      -10.0670     0.0380     2.1370 H     1 <1>   0.1500 
 46 H      -10.2710    -1.0690    -1.9760 H     1 <1>   0.1500 
 47 H      -12.3240     0.9890     1.9810 H     1 <1>   0.1500 
 48 H      -12.4960    -0.1430    -2.1290 H     1 <1>   0.1500 
 49 H      -14.7770    -0.0050    -1.5040 H     1 <1>   0.0800 
 50 H      -14.1120     1.5560    -2.0000 H     1 <1>   0.0800 
 51 H      -16.4380     1.1610    -0.0830 H     1 <1>   0.0800 
 52 H      -16.5870     1.6930    -1.7410 H     1 <1>   0.0800 
 53 H      -15.7770     2.7120    -0.5760 H     1 <1>   0.0800 
@<TRIPOS>BOND
  1   1   2  2   
  2   2   3  am  
  3   2   4  1   
  4   3   5  1   
  5   3   6  1   
  6   4   7  1   
  7   4   8  1   
  8   4  27  1   
  9   5   9  1   
 10   5  28  1   
 11   5  29  1   
 12   6  10  1   
 13   6  30  1   
 14   6  31  1   
 15   7  11  1   
 16   8  12  1   
 17   8  32  1   
 18   8  33  1   
 19   9  13  1   
 20   9  34  1   
 21   9  35  1   
 22  10  13  1   
 23  10  36  1   
 24  10  37  1   
 25  11  12  1   
 26  11  38  1   
 27  11  39  1   
 28  12  40  1   
 29  12  41  1   
 30  13  14  1   
 31  14  15  1   
 32  14  42  1   
 33  14  43  1   
 34  15  16  2   
 35  15  17  am  
 36  17  18  1   
 37  17  44  1   
 38  18  19  ar  
 39  18  20  ar  
 40  19  21  ar  
 41  19  45  1   
 42  20  22  ar  
 43  20  46  1   
 44  21  23  ar  
 45  21  47  1   
 46  22  23  ar  
 47  22  48  1   
 48  23  24  1   
 49  24  25  1   
 50  25  26  1   
 51  25  49  1   
 52  25  50  1   
 53  26  51  1   
 54  26  52  1   
 55  26  53  1   
@<TRIPOS>SUBSTRUCTURE
  1 ****  10 GROUP 4 **** **** 0

# MOE 2024.06 (io_trps.svl 2023.06)
