@<TRIPOS>MOLECULE
NONAME
47 48 1 0 0 
SMALL
USER_CHARGES


@<TRIPOS>ATOM
  1 S        3.3870    -6.4140     0.2950 S.3   1 <1>  -0.3320 
  2 C        4.8750    -5.4050     0.1790 C.ar  1 <1>   0.1020 
  3 C        1.9650    -5.3100    -0.0890 C.3   1 <1>   0.0700 
  4 C        6.0720    -6.0170     0.5000 C.ar  1 <1>  -0.1500 
  5 C        4.8420    -4.0750    -0.2130 C.ar  1 <1>  -0.1500 
  6 C        0.7030    -6.1650     0.0510 C.3   1 <1>   0.3430 
  7 C        7.2500    -5.2930     0.4330 C.ar  1 <1>  -0.1500 
  8 C        6.0250    -3.3590    -0.2770 C.ar  1 <1>  -0.1500 
  9 N       -0.5500    -5.3940    -0.2340 N.4   1 <1>  -0.9590 
 10 C        7.2310    -3.9630     0.0440 C.ar  1 <1>  -0.1430 
 11 C       -0.8240    -4.3570     0.8070 C.3   1 <1>   0.3430 
 12 C       -1.7020    -6.3300    -0.3810 C.3   1 <1>   0.3430 
 13 C        8.5250    -3.1720    -0.0270 C.3   1 <1>  -0.0970 
 14 C       -2.0370    -3.5280     0.3930 C.3   1 <1>  -0.1600 
 15 C       -2.9390    -5.5510    -0.8270 C.3   1 <1>  -0.1600 
 16 C       -3.2800    -4.4030     0.1410 C.3   1 <1>  -0.0190 
 17 C       -4.4400    -3.5690    -0.3950 C.2   1 <1>   0.6590 
 18 O       -4.3270    -2.9240    -1.4040 O.2   1 <1>  -0.5700 
 19 O       -5.5580    -3.6080     0.3120 O.3   1 <1>  -0.4300 
 20 C       -6.7010    -2.8820    -0.0820 C.3   1 <1>   0.1200 
 21 C       -7.8030    -3.1450     0.9390 C.3   1 <1>  -0.2400 
 22 H        2.1030    -4.9570    -1.0950 H     1 <1>   0.0800 
 23 H        1.9990    -4.5050     0.6220 H     1 <1>   0.0800 
 24 H        6.0840    -7.0490     0.8010 H     1 <1>   0.1500 
 25 H        3.9270    -3.5830    -0.4700 H     1 <1>   0.1500 
 26 H        0.6630    -6.5710     1.0490 H     1 <1>   0.0800 
 27 H        0.7820    -6.9900    -0.6390 H     1 <1>   0.0800 
 28 H        8.1810    -5.7710     0.6860 H     1 <1>   0.1500 
 29 H        6.0070    -2.3260    -0.5790 H     1 <1>   0.1500 
 30 H       -0.4410    -4.9110    -1.1380 H     1 <1>   0.4500 
 31 H        0.0270    -3.7050     0.9200 H     1 <1>   0.0800 
 32 H       -1.0160    -4.8320     1.7560 H     1 <1>   0.0800 
 33 H       -1.9010    -6.8190     0.5590 H     1 <1>   0.0800 
 34 H       -1.4740    -7.0870    -1.1150 H     1 <1>   0.0800 
 35 H        9.3490    -3.8190    -0.2700 H     1 <1>   0.0800 
 36 H        8.7180    -2.7050     0.9220 H     1 <1>   0.0800 
 37 H        8.4600    -2.4100    -0.7830 H     1 <1>   0.0800 
 38 H       -1.7950    -2.9670    -0.4940 H     1 <1>   0.0800 
 39 H       -2.2570    -2.8150     1.1690 H     1 <1>   0.0800 
 40 H       -3.7760    -6.2260    -0.8860 H     1 <1>   0.0800 
 41 H       -2.7740    -5.1620    -1.8180 H     1 <1>   0.0800 
 42 H       -3.5910    -4.8300     1.0800 H     1 <1>   0.0800 
 43 H       -6.9960    -3.2140    -1.0640 H     1 <1>   0.0800 
 44 H       -6.4470    -1.8360    -0.1160 H     1 <1>   0.0800 
 45 H       -8.0410    -4.1930     0.9680 H     1 <1>   0.0800 
 46 H       -8.6890    -2.6020     0.6620 H     1 <1>   0.0800 
 47 H       -7.4930    -2.8170     1.9150 H     1 <1>   0.0800 
@<TRIPOS>BOND
  1   1   2  1   
  2   1   3  1   
  3   2   4  ar  
  4   2   5  ar  
  5   3   6  1   
  6   3  22  1   
  7   3  23  1   
  8   4   7  ar  
  9   4  24  1   
 10   5   8  ar  
 11   5  25  1   
 12   6   9  1   
 13   6  26  1   
 14   6  27  1   
 15   7  10  ar  
 16   7  28  1   
 17   8  10  ar  
 18   8  29  1   
 19   9  11  1   
 20   9  12  1   
 21   9  30  1   
 22  10  13  1   
 23  11  14  1   
 24  11  31  1   
 25  11  32  1   
 26  12  15  1   
 27  12  33  1   
 28  12  34  1   
 29  13  35  1   
 30  13  36  1   
 31  13  37  1   
 32  14  16  1   
 33  14  38  1   
 34  14  39  1   
 35  15  16  1   
 36  15  40  1   
 37  15  41  1   
 38  16  17  1   
 39  16  42  1   
 40  17  18  2   
 41  17  19  1   
 42  19  20  1   
 43  20  21  1   
 44  20  43  1   
 45  20  44  1   
 46  21  45  1   
 47  21  46  1   
 48  21  47  1   
@<TRIPOS>SUBSTRUCTURE
  1 ****   9 GROUP 4 **** **** 0

# MOE 2024.06 (io_trps.svl 2023.06)
