@<TRIPOS>MOLECULE
NONAME
36 37 1 0 0 
SMALL
USER_CHARGES


@<TRIPOS>ATOM
  1 S       -0.5290     0.2830    -0.6640 S.3   1 <1>  -0.0800 
  2 C        0.8080    -0.8550    -0.5510 C.2   1 <1>   0.1040 
  3 C        0.5100     1.6260    -0.2540 C.2   1 <1>  -0.1400 
  4 N        0.5870    -2.2020    -0.8090 N.am  1 <1>  -0.4940 
  5 C        1.9760    -0.2070    -0.2300 C.2   1 <1>  -0.0860 
  6 C        1.7750     1.2200    -0.0750 C.2   1 <1>  -0.1810 
  7 C       -0.0640     3.0220    -0.1480 C.3   1 <1>   0.0200 
  8 C       -0.5020    -3.0280    -0.8790 C.2   1 <1>   0.5690 
  9 C        3.2500    -0.8620    -0.0550 C.2   1 <1>   0.8060 
 10 C        2.8630     2.2340     0.2670 C.3   1 <1>   0.0210 
 11 C        0.9640     3.9340     0.5430 C.3   1 <1>  -0.1600 
 12 O       -0.3370    -4.1550    -1.2770 O.2   1 <1>  -0.5700 
 13 C       -1.9160    -2.6060    -0.4740 C.3   1 <1>   0.1810 
 14 O        4.2290    -0.3420     0.4460 O.2   1 <1>  -0.5700 
 15 O        3.3680    -2.1320    -0.4760 O.3   1 <1>  -0.4300 
 16 C        2.3920     3.6820     0.0190 C.3   1 <1>  -0.1600 
 17 O       -1.9830    -2.2350     0.8800 O.3   1 <1>  -0.5600 
 18 C        4.5730    -2.8610    -0.3340 C.3   1 <1>   0.0400 
 19 C       -3.2300    -1.7680     1.2790 C.3   1 <1>   0.0400 
 20 H        1.4430    -2.7440    -0.9510 H     1 <1>   0.3700 
 21 H       -0.9770     3.0040     0.4200 H     1 <1>   0.0800 
 22 H       -0.2790     3.3860    -1.1360 H     1 <1>   0.0800 
 23 H        3.7380     2.0540    -0.3330 H     1 <1>   0.0800 
 24 H        3.1340     2.1120     1.3010 H     1 <1>   0.0800 
 25 H        0.9450     3.7400     1.6010 H     1 <1>   0.0800 
 26 H        0.6910     4.9640     0.3900 H     1 <1>   0.0800 
 27 H       -2.5810    -3.4370    -0.6230 H     1 <1>   0.0800 
 28 H       -2.2420    -1.7850    -1.0840 H     1 <1>   0.0800 
 29 H        2.4110     3.8760    -1.0400 H     1 <1>   0.0800 
 30 H        3.0790     4.3640     0.4890 H     1 <1>   0.0800 
 31 H        5.3530    -2.3540    -0.8750 H     1 <1>   0.0800 
 32 H        4.4250    -3.8470    -0.7370 H     1 <1>   0.0800 
 33 H        4.8230    -2.9220     0.7110 H     1 <1>   0.0800 
 34 H       -3.1750    -1.5240     2.3250 H     1 <1>   0.0800 
 35 H       -3.9650    -2.5390     1.1240 H     1 <1>   0.0800 
 36 H       -3.4760    -0.8860     0.7140 H     1 <1>   0.0800 
@<TRIPOS>BOND
  1   1   2  1   
  2   1   3  1   
  3   2   4  1   
  4   2   5  2   
  5   3   6  2   
  6   3   7  1   
  7   4   8  am  
  8   4  20  1   
  9   5   6  1   
 10   5   9  1   
 11   6  10  1   
 12   7  11  1   
 13   7  21  1   
 14   7  22  1   
 15   8  12  2   
 16   8  13  1   
 17   9  14  2   
 18   9  15  1   
 19  10  16  1   
 20  10  23  1   
 21  10  24  1   
 22  11  16  1   
 23  11  25  1   
 24  11  26  1   
 25  13  17  1   
 26  13  27  1   
 27  13  28  1   
 28  15  18  1   
 29  16  29  1   
 30  16  30  1   
 31  17  19  1   
 32  18  31  1   
 33  18  32  1   
 34  18  33  1   
 35  19  34  1   
 36  19  35  1   
 37  19  36  1   
@<TRIPOS>SUBSTRUCTURE
  1 ****   2 GROUP 4 **** **** 0

# MOE 2024.06 (io_trps.svl 2023.06)
