@<TRIPOS>MOLECULE
NONAME
49 51 1 0 0 
SMALL
USER_CHARGES


@<TRIPOS>ATOM
  1 BR       1.8120     0.3210    -3.2840 Br    1 <1>  -0.1110 
  2 C        1.8860    -0.8040    -1.7250 C.ar  1 <1>   0.1110 
  3 C        3.0500    -1.5020    -1.4650 C.ar  1 <1>  -0.1500 
  4 C        0.7780    -0.8820    -0.9050 C.ar  1 <1>  -0.1500 
  5 C        3.1130    -2.3080    -0.3380 C.ar  1 <1>  -0.1440 
  6 C        0.8430    -1.6920     0.2160 C.ar  1 <1>  -0.1500 
  7 C        2.0040    -2.3990     0.4950 C.ar  1 <1>  -0.1500 
  8 C        4.3880    -3.0760    -0.0240 C.3   1 <1>   0.2540 
  9 N        5.5210    -2.1450     0.1500 N.3   1 <1>  -0.8100 
 10 C        5.3080    -1.2080     1.2810 C.3   1 <1>   0.1100 
 11 C        6.8040    -2.8590     0.3110 C.3   1 <1>   0.1100 
 12 C        6.5060    -0.2500     1.4880 C.3   1 <1>   0.3430 
 13 C        8.0020    -1.8830     0.4300 C.3   1 <1>   0.3430 
 14 N        7.5550    -0.4440     0.4270 N.4   1 <1>  -0.9590 
 15 C        8.6590     0.5630     0.4380 C.3   1 <1>   0.4230 
 16 C        8.0790     1.9850     0.3270 C.3   1 <1>  -0.1600 
 17 C        9.6350     0.2950    -0.7230 C.3   1 <1>  -0.1600 
 18 C        9.1780     3.0540     0.2240 C.3   1 <1>  -0.1600 
 19 C       10.7280     1.3690    -0.8220 C.3   1 <1>  -0.1600 
 20 C       10.1270     2.7740    -0.9480 C.3   1 <1>  -0.0800 
 21 C       11.2380     3.8280    -0.9980 C.3   1 <1>  -0.2400 
 22 H        3.8900    -1.4130    -2.1300 H     1 <1>   0.1500 
 23 H       -0.1120    -0.3260    -1.1400 H     1 <1>   0.1500 
 24 H       -0.0080    -1.7730     0.8700 H     1 <1>   0.1500 
 25 H        2.0340    -3.0240     1.3710 H     1 <1>   0.1500 
 26 H        4.5940    -3.7440    -0.8440 H     1 <1>   0.0800 
 27 H        4.2570    -3.6700     0.8650 H     1 <1>   0.0800 
 28 H        5.1330    -1.7580     2.1900 H     1 <1>   0.0800 
 29 H        4.4310    -0.6110     1.0950 H     1 <1>   0.0800 
 30 H        6.9660    -3.5020    -0.5380 H     1 <1>   0.0800 
 31 H        6.7690    -3.4850     1.1880 H     1 <1>   0.0800 
 32 H        6.9330    -0.4190     2.4620 H     1 <1>   0.0800 
 33 H        6.1310     0.7590     1.4650 H     1 <1>   0.0800 
 34 H        8.6610    -2.0650    -0.4010 H     1 <1>   0.0800 
 35 H        8.5470    -2.0980     1.3340 H     1 <1>   0.0800 
 36 H        7.0290    -0.3500    -0.4550 H     1 <1>   0.4500 
 37 H        9.2040     0.4880     1.3660 H     1 <1>   0.0800 
 38 H        7.4900     2.2230     1.1920 H     1 <1>   0.0800 
 39 H        7.4530     2.0530    -0.5470 H     1 <1>   0.0800 
 40 H        9.0920     0.2730    -1.6520 H     1 <1>   0.0800 
 41 H       10.1310    -0.6480    -0.5890 H     1 <1>   0.0800 
 42 H        9.7390     3.0820     1.1430 H     1 <1>   0.0800 
 43 H        8.7220     4.0210     0.0920 H     1 <1>   0.0800 
 44 H       11.3490     1.1670    -1.6790 H     1 <1>   0.0800 
 45 H       11.3570     1.3240     0.0520 H     1 <1>   0.0800 
 46 H        9.5690     2.8320    -1.8690 H     1 <1>   0.0800 
 47 H       11.8260     3.8100    -0.0980 H     1 <1>   0.0800 
 48 H       10.8150     4.8110    -1.1120 H     1 <1>   0.0800 
 49 H       11.8890     3.6450    -1.8360 H     1 <1>   0.0800 
@<TRIPOS>BOND
  1   1   2  1   
  2   2   3  ar  
  3   2   4  ar  
  4   3   5  ar  
  5   3  22  1   
  6   4   6  ar  
  7   4  23  1   
  8   5   7  ar  
  9   5   8  1   
 10   6   7  ar  
 11   6  24  1   
 12   7  25  1   
 13   8   9  1   
 14   8  26  1   
 15   8  27  1   
 16   9  10  1   
 17   9  11  1   
 18  10  12  1   
 19  10  28  1   
 20  10  29  1   
 21  11  13  1   
 22  11  30  1   
 23  11  31  1   
 24  12  14  1   
 25  12  32  1   
 26  12  33  1   
 27  13  14  1   
 28  13  34  1   
 29  13  35  1   
 30  14  15  1   
 31  14  36  1   
 32  15  16  1   
 33  15  17  1   
 34  15  37  1   
 35  16  18  1   
 36  16  38  1   
 37  16  39  1   
 38  17  19  1   
 39  17  40  1   
 40  17  41  1   
 41  18  20  1   
 42  18  42  1   
 43  18  43  1   
 44  19  20  1   
 45  19  44  1   
 46  19  45  1   
 47  20  21  1   
 48  20  46  1   
 49  21  47  1   
 50  21  48  1   
 51  21  49  1   
@<TRIPOS>SUBSTRUCTURE
  1 ****  14 GROUP 4 **** **** 0

# MOE 2024.06 (io_trps.svl 2023.06)
