@<TRIPOS>MOLECULE
NONAME
25 25 1 0 0 
SMALL
USER_CHARGES


@<TRIPOS>ATOM
  1 O       -2.8360    -0.4260     0.8300 O.3   1 <1>  -0.6800 
  2 C       -3.7520    -0.0240    -0.1290 C.3   1 <1>   0.2000 
  3 C       -3.7640     1.5280    -0.2610 C.3   1 <1>  -0.0800 
  4 C       -5.1090    -0.6360     0.2460 C.3   1 <1>  -0.1600 
  5 C       -4.9960     2.1410     0.4330 C.3   1 <1>  -0.1600 
  6 C       -2.5010     2.2410     0.2570 C.3   1 <1>   0.3430 
  7 C       -6.2470     0.0830    -0.4890 C.3   1 <1>  -0.1600 
  8 C       -6.3170     1.5750    -0.1200 C.3   1 <1>  -0.1600 
  9 N       -1.2710     1.5800    -0.2330 N.4   1 <1>  -0.8530 
 10 H       -3.0880    -1.3160     1.1650 H     1 <1>   0.4000 
 11 H       -3.4340    -0.4500    -1.0670 H     1 <1>   0.0800 
 12 H       -3.8680     1.7580    -1.3080 H     1 <1>   0.0800 
 13 H       -5.1230    -1.6800    -0.0180 H     1 <1>   0.0800 
 14 H       -5.2820    -0.5500     1.3060 H     1 <1>   0.0800 
 15 H       -4.9470     1.9290     1.4890 H     1 <1>   0.0800 
 16 H       -5.0060     3.2120     0.3200 H     1 <1>   0.0800 
 17 H       -2.5110     2.2050     1.3350 H     1 <1>   0.0800 
 18 H       -2.5170     3.2770    -0.0450 H     1 <1>   0.0800 
 19 H       -6.0930    -0.0150    -1.5510 H     1 <1>   0.0800 
 20 H       -7.1880    -0.3880    -0.2580 H     1 <1>   0.0800 
 21 H       -7.0860     1.7220     0.6190 H     1 <1>   0.0800 
 22 H       -6.6110     2.1310    -0.9950 H     1 <1>   0.0800 
 23 H       -1.3570     0.5940     0.0760 H     1 <1>   0.4500 
 24 H       -0.4260     1.9760     0.1910 H     1 <1>   0.4500 
 25 H       -1.1960     1.5980    -1.2530 H     1 <1>   0.4500 
@<TRIPOS>BOND
  1   1   2  1   
  2   1  10  1   
  3   2   3  1   
  4   2   4  1   
  5   2  11  1   
  6   3   5  1   
  7   3   6  1   
  8   3  12  1   
  9   4   7  1   
 10   4  13  1   
 11   4  14  1   
 12   5   8  1   
 13   5  15  1   
 14   5  16  1   
 15   6   9  1   
 16   6  17  1   
 17   6  18  1   
 18   7   8  1   
 19   7  19  1   
 20   7  20  1   
 21   8  21  1   
 22   8  22  1   
 23   9  23  1   
 24   9  24  1   
 25   9  25  1   
@<TRIPOS>SUBSTRUCTURE
  1 ****   3 GROUP 4 **** **** 0

# MOE 2024.06 (io_trps.svl 2023.06)
