@<TRIPOS>MOLECULE
NONAME
41 42 1 0 0 
SMALL
USER_CHARGES


@<TRIPOS>ATOM
  1 S       -0.0440    -1.1290    -1.5910 S.3   1 <1>  -0.4600 
  2 C        1.5230    -0.2590    -1.8560 C.3   1 <1>   0.0700 
  3 C        0.4970    -2.7040    -0.8760 C.3   1 <1>   0.0700 
  4 C        2.3170    -0.2450    -0.5430 C.3   1 <1>   0.3430 
  5 C        1.4020    -2.4220     0.3310 C.3   1 <1>   0.3430 
  6 N        2.6200    -1.6300    -0.0420 N.4   1 <1>  -0.9590 
  7 C        3.6110    -1.6040     1.0630 C.3   1 <1>   0.4860 
  8 C        4.9280    -1.0900     0.5150 C.ar  1 <1>  -0.1430 
  9 C        5.5720    -1.7610    -0.5220 C.ar  1 <1>   0.0830 
 10 C        5.4920     0.0590     1.0490 C.ar  1 <1>  -0.1500 
 11 O        4.9650    -2.8730    -1.0260 O.3   1 <1>  -0.3630 
 12 C        6.7860    -1.2810    -1.0030 C.ar  1 <1>  -0.1500 
 13 C        6.6900     0.5490     0.5600 C.ar  1 <1>   0.0830 
 14 C        5.6570    -3.7310    -1.9140 C.3   1 <1>   0.0400 
 15 C        7.3550    -0.1430    -0.4570 C.ar  1 <1>   0.0830 
 16 O        7.1500     1.6980     1.1190 O.3   1 <1>  -0.3630 
 17 O        8.5560     0.2440    -0.9470 O.3   1 <1>  -0.3630 
 18 C        7.4060     2.7890     0.2570 C.3   1 <1>   0.0400 
 19 C        9.6590     0.0900    -0.0790 C.3   1 <1>   0.0400 
 20 H        1.2790     0.7400    -2.1730 H     1 <1>   0.0800 
 21 H        2.0570    -0.7650    -2.6400 H     1 <1>   0.0800 
 22 H        1.0110    -3.2560    -1.6430 H     1 <1>   0.0800 
 23 H       -0.3900    -3.2370    -0.5810 H     1 <1>   0.0800 
 24 H        1.7530     0.2960     0.1990 H     1 <1>   0.0800 
 25 H        3.2390     0.2890    -0.7110 H     1 <1>   0.0800 
 26 H        1.7020    -3.3650     0.7580 H     1 <1>   0.0800 
 27 H        0.8330    -1.8870     1.0730 H     1 <1>   0.0800 
 28 H        3.1260    -2.1290    -0.7950 H     1 <1>   0.4500 
 29 H        3.7630    -2.6010     1.4460 H     1 <1>   0.0800 
 30 H        3.2660    -0.9730     1.8650 H     1 <1>   0.0800 
 31 H        5.0180     0.5970     1.8510 H     1 <1>   0.1500 
 32 H        7.3190    -1.7670    -1.7970 H     1 <1>   0.1500 
 33 H        5.8550    -3.2060    -2.8320 H     1 <1>   0.0800 
 34 H        5.0380    -4.5870    -2.1130 H     1 <1>   0.0800 
 35 H        6.5760    -4.0490    -1.4510 H     1 <1>   0.0800 
 36 H        7.5100     3.6740     0.8580 H     1 <1>   0.0800 
 37 H        6.5810     2.9010    -0.4240 H     1 <1>   0.0800 
 38 H        8.3170     2.6130    -0.2850 H     1 <1>   0.0800 
 39 H       10.5440     0.4070    -0.6010 H     1 <1>   0.0800 
 40 H        9.7440    -0.9460     0.1950 H     1 <1>   0.0800 
 41 H        9.5130     0.6970     0.7960 H     1 <1>   0.0800 
@<TRIPOS>BOND
  1   1   2  1   
  2   1   3  1   
  3   2   4  1   
  4   2  20  1   
  5   2  21  1   
  6   3   5  1   
  7   3  22  1   
  8   3  23  1   
  9   4   6  1   
 10   4  24  1   
 11   4  25  1   
 12   5   6  1   
 13   5  26  1   
 14   5  27  1   
 15   6   7  1   
 16   6  28  1   
 17   7   8  1   
 18   7  29  1   
 19   7  30  1   
 20   8   9  ar  
 21   8  10  ar  
 22   9  11  1   
 23   9  12  ar  
 24  10  13  ar  
 25  10  31  1   
 26  11  14  1   
 27  12  15  ar  
 28  12  32  1   
 29  13  15  ar  
 30  13  16  1   
 31  14  33  1   
 32  14  34  1   
 33  14  35  1   
 34  15  17  1   
 35  16  18  1   
 36  17  19  1   
 37  18  36  1   
 38  18  37  1   
 39  18  38  1   
 40  19  39  1   
 41  19  40  1   
 42  19  41  1   
@<TRIPOS>SUBSTRUCTURE
  1 ****   8 GROUP 4 **** **** 0

# MOE 2024.06 (io_trps.svl 2023.06)
