@<TRIPOS>MOLECULE
NONAME
43 45 1 0 0 
SMALL
USER_CHARGES


@<TRIPOS>ATOM
  1 O       -0.3300     0.5030    -1.8690 O.2   1 <1>  -0.5700 
  2 C       -0.5810     1.5960    -1.4160 C.2   1 <1>   0.5690 
  3 N       -1.7850     1.9900    -0.8980 N.am  1 <1>  -0.2370 
  4 C        0.4210     2.7620    -1.4460 C.3   1 <1>   0.2510 
  5 C       -2.8750     1.1380    -0.6030 C.ar  1 <1>   0.1170 
  6 C       -1.7780     3.3470    -0.7220 C.2   1 <1>   0.5690 
  7 N        1.5140     2.7340    -0.4280 N.3   1 <1>  -0.8100 
  8 C       -0.4810     3.9700    -1.1640 C.3   1 <1>  -0.0990 
  9 C       -3.5200     1.2150     0.6270 C.ar  1 <1>  -0.1500 
 10 C       -3.3290     0.2050    -1.5300 C.ar  1 <1>  -0.1500 
 11 O       -2.6810     4.0200    -0.2940 O.2   1 <1>  -0.5700 
 12 C        2.1110     1.3900    -0.2600 C.3   1 <1>   0.1100 
 13 C        2.5620     3.7200    -0.7620 C.3   1 <1>   0.1100 
 14 C       -4.5890     0.3890     0.9310 C.ar  1 <1>  -0.1430 
 15 C       -4.3940    -0.6250    -1.2350 C.ar  1 <1>  -0.1500 
 16 C        3.1530     1.3860     0.8710 C.3   1 <1>  -0.0800 
 17 C        3.5920     3.8040     0.3670 C.3   1 <1>  -0.1600 
 18 C       -5.0230    -0.5340    -0.0060 C.ar  1 <1>  -0.1500 
 19 C       -5.2790     0.4930     2.2790 C.3   1 <1>  -0.0970 
 20 C        4.2390     2.4400     0.6240 C.3   1 <1>  -0.1600 
 21 C        3.7820    -0.0040     1.0250 C.3   1 <1>  -0.2400 
 22 H        0.8430     2.8180    -2.4340 H     1 <1>   0.0800 
 23 H       -0.6530     4.5380    -2.0590 H     1 <1>   0.0800 
 24 H       -0.1030     4.6080    -0.3860 H     1 <1>   0.0800 
 25 H       -3.1810     1.9350     1.3510 H     1 <1>   0.1500 
 26 H       -2.8450     0.1240    -2.4870 H     1 <1>   0.1500 
 27 H        2.5660     1.0720    -1.1830 H     1 <1>   0.0800 
 28 H        1.3480     0.6780     0.0030 H     1 <1>   0.0800 
 29 H        2.1270     4.6940    -0.9010 H     1 <1>   0.0800 
 30 H        3.0530     3.4350    -1.6780 H     1 <1>   0.0800 
 31 H       -4.7330    -1.3450    -1.9600 H     1 <1>   0.1500 
 32 H        2.6400     1.6260     1.7880 H     1 <1>   0.0800 
 33 H        3.1010     4.1510     1.2600 H     1 <1>   0.0800 
 34 H        4.3500     4.5210     0.1070 H     1 <1>   0.0800 
 35 H       -5.8500    -1.1850     0.2180 H     1 <1>   0.1500 
 36 H       -5.1710     1.4840     2.6820 H     1 <1>   0.0800 
 37 H       -4.8440    -0.2110     2.9650 H     1 <1>   0.0800 
 38 H       -6.3280     0.2810     2.1790 H     1 <1>   0.0800 
 39 H        4.8270     2.1600    -0.2330 H     1 <1>   0.0800 
 40 H        4.8940     2.5030     1.4760 H     1 <1>   0.0800 
 41 H        4.2960    -0.2900     0.1240 H     1 <1>   0.0800 
 42 H        3.0210    -0.7360     1.2330 H     1 <1>   0.0800 
 43 H        4.4850    -0.0070     1.8390 H     1 <1>   0.0800 
@<TRIPOS>BOND
  1   1   2  2   
  2   2   3  am  
  3   2   4  1   
  4   3   5  1   
  5   3   6  am  
  6   4   7  1   
  7   4   8  1   
  8   4  22  1   
  9   5   9  ar  
 10   5  10  ar  
 11   6   8  1   
 12   6  11  2   
 13   7  12  1   
 14   7  13  1   
 15   8  23  1   
 16   8  24  1   
 17   9  14  ar  
 18   9  25  1   
 19  10  15  ar  
 20  10  26  1   
 21  12  16  1   
 22  12  27  1   
 23  12  28  1   
 24  13  17  1   
 25  13  29  1   
 26  13  30  1   
 27  14  18  ar  
 28  14  19  1   
 29  15  18  ar  
 30  15  31  1   
 31  16  20  1   
 32  16  21  1   
 33  16  32  1   
 34  17  20  1   
 35  17  33  1   
 36  17  34  1   
 37  18  35  1   
 38  19  36  1   
 39  19  37  1   
 40  19  38  1   
 41  20  39  1   
 42  20  40  1   
 43  21  41  1   
 44  21  42  1   
 45  21  43  1   
@<TRIPOS>SUBSTRUCTURE
  1 ****   2 GROUP 4 **** **** 0

# MOE 2024.06 (io_trps.svl 2023.06)
