@<TRIPOS>MOLECULE
NONAME
31 31 1 0 0 
SMALL
USER_CHARGES


@<TRIPOS>ATOM
  1 S       -0.1820    -0.2860    -0.1020 S.o2  1 <1>   1.4470 
  2 O       -0.6250    -1.1130    -1.2000 O.2   1 <1>  -0.6500 
  3 O       -0.5910    -0.5910     1.2510 O.2   1 <1>  -0.6500 
  4 N       -0.8010     1.2300    -0.4760 N.am  1 <1>  -0.9140 
  5 C        1.6120    -0.0410    -0.1770 C.ar  1 <1>  -0.0090 
  6 C       -2.1760     1.4230    -0.0240 C.3   1 <1>   0.1160 
  7 C        2.4230    -0.8620    -0.9520 C.ar  1 <1>  -0.1500 
  8 C        2.2300     0.9710     0.5470 C.ar  1 <1>  -0.1500 
  9 C        3.7930    -0.6740    -1.0070 C.ar  1 <1>  -0.1500 
 10 C        3.5990     1.1630     0.4960 C.ar  1 <1>  -0.1500 
 11 C        4.4050     0.3430    -0.2870 C.ar  1 <1>   0.1170 
 12 N        5.7950     0.4870    -0.3760 N.am  1 <1>  -0.5470 
 13 C        6.6320     1.5060    -0.0390 C.2   1 <1>   0.7800 
 14 O        6.2780     2.5690     0.4260 O.2   1 <1>  -0.5700 
 15 O        7.9200     1.2670    -0.2660 O.3   1 <1>  -0.4300 
 16 C        8.8970     2.2390     0.0300 C.3   1 <1>   0.1200 
 17 C       10.2620     1.6680    -0.3400 C.3   1 <1>  -0.2400 
 18 H       -0.8080     1.2340    -1.4950 H     1 <1>   0.4200 
 19 H       -2.2180     1.3990     1.0530 H     1 <1>   0.0800 
 20 H       -2.8130     0.6460    -0.4160 H     1 <1>   0.0800 
 21 H       -2.5400     2.3790    -0.3600 H     1 <1>   0.0800 
 22 H        1.9740    -1.6590    -1.5220 H     1 <1>   0.1500 
 23 H        1.6270     1.6200     1.1610 H     1 <1>   0.1500 
 24 H        4.3890    -1.3260    -1.6200 H     1 <1>   0.1500 
 25 H        4.0340     1.9560     1.0760 H     1 <1>   0.1500 
 26 H        6.2990    -0.2880    -0.7970 H     1 <1>   0.3700 
 27 H        8.8450     2.4670     1.0820 H     1 <1>   0.0800 
 28 H        8.6810     3.1260    -0.5430 H     1 <1>   0.0800 
 29 H       10.4590     0.7790     0.2320 H     1 <1>   0.0800 
 30 H       11.0280     2.3900    -0.1240 H     1 <1>   0.0800 
 31 H       10.2960     1.4370    -1.3900 H     1 <1>   0.0800 
@<TRIPOS>BOND
  1   1   2  2   
  2   1   3  2   
  3   1   4  am  
  4   1   5  1   
  5   4   6  1   
  6   4  18  1   
  7   5   7  ar  
  8   5   8  ar  
  9   6  19  1   
 10   6  20  1   
 11   6  21  1   
 12   7   9  ar  
 13   7  22  1   
 14   8  10  ar  
 15   8  23  1   
 16   9  11  ar  
 17   9  24  1   
 18  10  11  ar  
 19  10  25  1   
 20  11  12  1   
 21  12  13  am  
 22  12  26  1   
 23  13  14  2   
 24  13  15  1   
 25  15  16  1   
 26  16  17  1   
 27  16  27  1   
 28  16  28  1   
 29  17  29  1   
 30  17  30  1   
 31  17  31  1   
@<TRIPOS>SUBSTRUCTURE
  1 ****  10 GROUP 4 **** **** 0

# MOE 2024.06 (io_trps.svl 2023.06)
