@<TRIPOS>MOLECULE
NONAME
50 52 1 0 0 
SMALL
USER_CHARGES


@<TRIPOS>ATOM
  1 O       -3.8910    -2.5410     2.0650 O.2   1 <1>  -0.5700 
  2 C       -3.6440    -1.8340     1.1020 C.2   1 <1>   0.5440 
  3 N       -3.7680    -0.4680     1.2320 N.am  1 <1>  -0.6600 
  4 C       -3.2610    -2.4450    -0.1520 C.ar  1 <1>   0.0860 
  5 C       -3.8540     0.1830     2.5660 C.3   1 <1>   0.1400 
  6 C       -4.1270     0.4160     0.0900 C.3   1 <1>   0.1400 
  7 C       -4.0740    -3.4150    -0.7580 C.ar  1 <1>   0.1170 
  8 C       -2.0770    -2.0720    -0.7890 C.ar  1 <1>  -0.1500 
  9 C       -2.9600     1.4280     2.5920 C.3   1 <1>  -0.1600 
 10 C       -3.2270     1.6560     0.0930 C.3   1 <1>  -0.1600 
 11 N       -5.2640    -3.7940    -0.1230 N.am  1 <1>  -0.5470 
 12 C       -3.6800    -3.9750    -1.9700 C.ar  1 <1>  -0.1500 
 13 C       -1.6990    -2.6320    -1.9930 C.ar  1 <1>  -0.1500 
 14 C       -3.2890     2.3900     1.4400 C.3   1 <1>  -0.1600 
 15 C       -6.4630    -4.2400    -0.6090 C.2   1 <1>   0.5690 
 16 C       -2.5060    -3.5880    -2.5860 C.ar  1 <1>  -0.1500 
 17 O       -6.6500    -4.5160    -1.7710 O.2   1 <1>  -0.5700 
 18 C       -7.6350    -4.3610     0.3740 C.3   1 <1>   0.2610 
 19 O       -7.5740    -3.3440     1.3640 O.3   1 <1>  -0.3630 
 20 C       -7.6330    -5.7030     1.1120 C.3   1 <1>  -0.2400 
 21 C       -7.7110    -2.0260     1.0630 C.ar  1 <1>   0.0820 
 22 C       -8.0830    -1.5460    -0.1910 C.ar  1 <1>  -0.1500 
 23 C       -7.4580    -1.1280     2.0870 C.ar  1 <1>  -0.1500 
 24 C       -8.1990    -0.1830    -0.4030 C.ar  1 <1>  -0.1500 
 25 C       -7.5810     0.2340     1.8740 C.ar  1 <1>  -0.1500 
 26 C       -7.9520     0.7070     0.6280 C.ar  1 <1>  -0.1500 
 27 H       -3.5400    -0.5000     3.3380 H     1 <1>   0.0800 
 28 H       -4.8760     0.4580     2.7560 H     1 <1>   0.0800 
 29 H       -5.1560     0.7150     0.1970 H     1 <1>   0.0800 
 30 H       -4.0330    -0.1020    -0.8480 H     1 <1>   0.0800 
 31 H       -1.4500    -1.3310    -0.3230 H     1 <1>   0.1500 
 32 H       -1.9330     1.1150     2.5210 H     1 <1>   0.0800 
 33 H       -3.0840     1.9340     3.5330 H     1 <1>   0.0800 
 34 H       -3.5360     2.3200    -0.6950 H     1 <1>   0.0800 
 35 H       -2.2150     1.3520    -0.1110 H     1 <1>   0.0800 
 36 H       -5.2970    -3.5270     0.8730 H     1 <1>   0.3700 
 37 H       -4.2950    -4.7220    -2.4370 H     1 <1>   0.1500 
 38 H       -0.7820    -2.3310    -2.4700 H     1 <1>   0.1500 
 39 H       -2.5930     3.2110     1.4410 H     1 <1>   0.0800 
 40 H       -4.2780     2.7900     1.5830 H     1 <1>   0.0800 
 41 H       -2.2180    -4.0300    -3.5240 H     1 <1>   0.1500 
 42 H       -8.5630    -4.2520    -0.1580 H     1 <1>   0.0800 
 43 H       -6.7240    -5.8190     1.6750 H     1 <1>   0.0800 
 44 H       -7.7020    -6.5070     0.4020 H     1 <1>   0.0800 
 45 H       -8.4770    -5.7590     1.7770 H     1 <1>   0.0800 
 46 H       -8.2860    -2.2070    -1.0130 H     1 <1>   0.1500 
 47 H       -7.1620    -1.5040     3.0500 H     1 <1>   0.1500 
 48 H       -8.4870     0.1850    -1.3730 H     1 <1>   0.1500 
 49 H       -7.3880     0.9230     2.6780 H     1 <1>   0.1500 
 50 H       -8.0490     1.7660     0.4600 H     1 <1>   0.1500 
@<TRIPOS>BOND
  1   1   2  2   
  2   2   3  am  
  3   2   4  1   
  4   3   5  1   
  5   3   6  1   
  6   4   7  ar  
  7   4   8  ar  
  8   5   9  1   
  9   5  27  1   
 10   5  28  1   
 11   6  10  1   
 12   6  29  1   
 13   6  30  1   
 14   7  11  1   
 15   7  12  ar  
 16   8  13  ar  
 17   8  31  1   
 18   9  14  1   
 19   9  32  1   
 20   9  33  1   
 21  10  14  1   
 22  10  34  1   
 23  10  35  1   
 24  11  15  am  
 25  11  36  1   
 26  12  16  ar  
 27  12  37  1   
 28  13  16  ar  
 29  13  38  1   
 30  14  39  1   
 31  14  40  1   
 32  15  17  2   
 33  15  18  1   
 34  16  41  1   
 35  18  19  1   
 36  18  20  1   
 37  18  42  1   
 38  19  21  1   
 39  20  43  1   
 40  20  44  1   
 41  20  45  1   
 42  21  22  ar  
 43  21  23  ar  
 44  22  24  ar  
 45  22  46  1   
 46  23  25  ar  
 47  23  47  1   
 48  24  26  ar  
 49  24  48  1   
 50  25  26  ar  
 51  25  49  1   
 52  26  50  1   
@<TRIPOS>SUBSTRUCTURE
  1 ****   2 GROUP 4 **** **** 0

# MOE 2024.06 (io_trps.svl 2023.06)
