@<TRIPOS>MOLECULE
NONAME
41 42 1 0 0 
SMALL
USER_CHARGES


@<TRIPOS>ATOM
  1 BR      -0.1330     0.3420     0.3220 Br    1 <1>  -0.0580 
  2 C       -1.6490     1.4970     0.0740 C.2   1 <1>   0.1980 
  3 O       -2.8430     0.9670     0.1370 O.3   1 <1>  -0.2800 
  4 C       -1.6700     2.8210    -0.1650 C.2   1 <1>  -0.1500 
  5 C       -3.7210     1.9520    -0.0630 C.2   1 <1>   0.0550 
  6 C       -3.0310     3.1200    -0.2550 C.2   1 <1>  -0.1500 
  7 C       -5.1450     1.6970    -0.0540 C.2   1 <1>   0.7150 
  8 O       -5.6130     0.5870     0.1260 O.2   1 <1>  -0.5700 
  9 N       -6.0230     2.7220    -0.2470 N.am  1 <1>  -0.7300 
 10 C       -7.5050     2.6110    -0.1400 C.3   1 <1>   0.2010 
 11 C       -8.1970     3.9750    -0.0010 C.2   1 <1>   0.5690 
 12 O       -7.5100     4.9680    -0.1130 O.2   1 <1>  -0.5700 
 13 N       -9.5470     4.0600     0.2390 N.am  1 <1>  -0.6600 
 14 C      -10.4870     2.8970     0.3360 C.3   1 <1>   0.1400 
 15 C      -10.2250     5.3860     0.4090 C.3   1 <1>   0.1400 
 16 C      -11.6580     3.0480    -0.6500 C.3   1 <1>   0.1400 
 17 C      -11.3920     5.5420    -0.5780 C.3   1 <1>   0.1400 
 18 N      -12.3200     4.3750    -0.4870 N.am  1 <1>  -0.6600 
 19 C      -13.6510     4.5310    -0.2050 C.2   1 <1>   0.7800 
 20 O      -14.1610     5.6210    -0.0330 O.2   1 <1>  -0.5700 
 21 O      -14.3990     3.4300    -0.1140 O.3   1 <1>  -0.4300 
 22 C      -15.7760     3.5150     0.1710 C.3   1 <1>   0.1200 
 23 C      -16.3380     2.0970     0.2130 C.3   1 <1>  -0.2400 
 24 H       -0.8450     3.5030    -0.2660 H     1 <1>   0.1500 
 25 H       -3.4320     4.1010    -0.4430 H     1 <1>   0.1500 
 26 H       -5.6960     3.6910    -0.3130 H     1 <1>   0.3700 
 27 H       -7.7460     2.0080     0.7170 H     1 <1>   0.0800 
 28 H       -7.8780     2.1210    -1.0210 H     1 <1>   0.0800 
 29 H      -10.8800     2.8480     1.3380 H     1 <1>   0.0800 
 30 H       -9.9840     1.9690     0.1370 H     1 <1>   0.0800 
 31 H       -9.5290     6.1940     0.2570 H     1 <1>   0.0800 
 32 H      -10.6010     5.4650     1.4140 H     1 <1>   0.0800 
 33 H      -12.3590     2.2480    -0.4890 H     1 <1>   0.0800 
 34 H      -11.2890     2.9630    -1.6570 H     1 <1>   0.0800 
 35 H      -11.0040     5.6080    -1.5790 H     1 <1>   0.0800 
 36 H      -11.9140     6.4590    -0.3660 H     1 <1>   0.0800 
 37 H      -16.2490     4.0960    -0.6030 H     1 <1>   0.0800 
 38 H      -15.8990     4.0090     1.1200 H     1 <1>   0.0800 
 39 H      -16.2010     1.6160    -0.7380 H     1 <1>   0.0800 
 40 H      -17.3900     2.1330     0.4310 H     1 <1>   0.0800 
 41 H      -15.8490     1.5270     0.9820 H     1 <1>   0.0800 
@<TRIPOS>BOND
  1   1   2  1   
  2   2   3  1   
  3   2   4  2   
  4   3   5  1   
  5   4   6  1   
  6   4  24  1   
  7   5   6  2   
  8   5   7  1   
  9   6  25  1   
 10   7   8  2   
 11   7   9  am  
 12   9  10  1   
 13   9  26  1   
 14  10  11  1   
 15  10  27  1   
 16  10  28  1   
 17  11  12  2   
 18  11  13  am  
 19  13  14  1   
 20  13  15  1   
 21  14  16  1   
 22  14  29  1   
 23  14  30  1   
 24  15  17  1   
 25  15  31  1   
 26  15  32  1   
 27  16  18  1   
 28  16  33  1   
 29  16  34  1   
 30  17  18  1   
 31  17  35  1   
 32  17  36  1   
 33  18  19  am  
 34  19  20  2   
 35  19  21  1   
 36  21  22  1   
 37  22  23  1   
 38  22  37  1   
 39  22  38  1   
 40  23  39  1   
 41  23  40  1   
 42  23  41  1   
@<TRIPOS>SUBSTRUCTURE
  1 ****  11 GROUP 4 **** **** 0

# MOE 2024.06 (io_trps.svl 2023.06)
