@<TRIPOS>MOLECULE
NONAME
55 57 1 0 0 
SMALL
USER_CHARGES


@<TRIPOS>ATOM
  1 S        3.2390    -2.9140    -0.7470 S.3   1 <1>  -0.4100 
  2 C        1.8990    -1.9800     0.0590 C.3   1 <1>   0.1500 
  3 C        0.5580    -2.5700    -0.3950 C.3   1 <1>   0.1200 
  4 C        2.0630    -0.4940    -0.3050 C.3   1 <1>   0.3430 
  5 O        0.5250    -3.8980     0.0080 O.3   1 <1>  -0.5600 
  6 N        3.4860    -0.0430    -0.1780 N.4   1 <1>  -0.9590 
  7 C       -0.6020    -4.6140    -0.3960 C.3   1 <1>   0.2640 
  8 C        3.9710     0.0050     1.2540 C.3   1 <1>   0.3430 
  9 C        3.7370     1.2720    -0.8750 C.3   1 <1>   0.3430 
 10 C       -0.4530    -6.0450     0.0890 C.ar  1 <1>  -0.1440 
 11 C        5.4400     0.4560     1.3640 C.3   1 <1>   0.2090 
 12 C        5.2050     1.7290    -0.7670 C.3   1 <1>   0.2090 
 13 C        0.0850    -7.0150    -0.7430 C.ar  1 <1>  -0.1500 
 14 C       -0.8550    -6.3950     1.3690 C.ar  1 <1>  -0.1500 
 15 N        5.6540     1.7530     0.6560 N.pl3 1 <1>  -0.8380 
 16 C        0.2150    -8.3210    -0.3020 C.ar  1 <1>  -0.1500 
 17 C       -0.7270    -7.7000     1.8110 C.ar  1 <1>  -0.1500 
 18 C        6.9190     2.3230     0.8570 C.ar  1 <1>   0.1000 
 19 C       -0.1920    -8.6640     0.9750 C.ar  1 <1>  -0.1500 
 20 C        8.1200     1.7590     0.3870 C.ar  1 <1>   0.0820 
 21 C        6.9730     3.5160     1.5640 C.ar  1 <1>  -0.1500 
 22 O        8.0570     0.5810    -0.3110 O.3   1 <1>  -0.3630 
 23 C        9.3270     2.4060     0.6390 C.ar  1 <1>  -0.1500 
 24 C        8.1760     4.1510     1.8100 C.ar  1 <1>  -0.1500 
 25 C        9.2250    -0.0470    -0.7950 C.3   1 <1>   0.0400 
 26 C        9.3540     3.5950     1.3480 C.ar  1 <1>  -0.1500 
 27 H        2.8120    -4.2020    -0.5390 H     1 <1>   0.1800 
 28 H        2.0070    -2.1220     1.1200 H     1 <1>   0.0800 
 29 H        0.4670    -2.5290    -1.4670 H     1 <1>   0.0800 
 30 H       -0.2660    -2.0540     0.0670 H     1 <1>   0.0800 
 31 H        1.4250     0.1090     0.3200 H     1 <1>   0.0800 
 32 H        1.7470    -0.3660    -1.3270 H     1 <1>   0.0800 
 33 H        4.0620    -0.7620    -0.6510 H     1 <1>   0.4500 
 34 H       -0.6690    -4.5860    -1.4700 H     1 <1>   0.0800 
 35 H       -1.4780    -4.1600     0.0340 H     1 <1>   0.0800 
 36 H        3.8750    -0.9680     1.7060 H     1 <1>   0.0800 
 37 H        3.3670     0.6960     1.8170 H     1 <1>   0.0800 
 38 H        3.1190     2.0370    -0.4350 H     1 <1>   0.0800 
 39 H        3.4740     1.1910    -1.9170 H     1 <1>   0.0800 
 40 H        6.0820    -0.3010     0.9490 H     1 <1>   0.0800 
 41 H        5.7020     0.5760     2.4020 H     1 <1>   0.0800 
 42 H        5.3050     2.7180    -1.1830 H     1 <1>   0.0800 
 43 H        5.8320     1.0680    -1.3400 H     1 <1>   0.0800 
 44 H        0.4090    -6.7590    -1.7360 H     1 <1>   0.1500 
 45 H       -1.2670    -5.6510     2.0280 H     1 <1>   0.1500 
 46 H        0.6330    -9.0700    -0.9520 H     1 <1>   0.1500 
 47 H       -1.0410    -7.9660     2.8050 H     1 <1>   0.1500 
 48 H       -0.0910    -9.6790     1.3180 H     1 <1>   0.1500 
 49 H        6.0580     3.9480     1.9230 H     1 <1>   0.1500 
 50 H       10.2620     2.0070     0.2970 H     1 <1>   0.1500 
 51 H        8.1950     5.0750     2.3610 H     1 <1>   0.1500 
 52 H        9.8670    -0.2810     0.0360 H     1 <1>   0.0800 
 53 H        9.7170     0.6140    -1.4870 H     1 <1>   0.0800 
 54 H        8.9370    -0.9520    -1.2990 H     1 <1>   0.0800 
 55 H       10.2920     4.0880     1.5390 H     1 <1>   0.1500 
@<TRIPOS>BOND
  1   1   2  1   
  2   1  27  1   
  3   2   3  1   
  4   2   4  1   
  5   2  28  1   
  6   3   5  1   
  7   3  29  1   
  8   3  30  1   
  9   4   6  1   
 10   4  31  1   
 11   4  32  1   
 12   5   7  1   
 13   6   8  1   
 14   6   9  1   
 15   6  33  1   
 16   7  10  1   
 17   7  34  1   
 18   7  35  1   
 19   8  11  1   
 20   8  36  1   
 21   8  37  1   
 22   9  12  1   
 23   9  38  1   
 24   9  39  1   
 25  10  13  ar  
 26  10  14  ar  
 27  11  15  1   
 28  11  40  1   
 29  11  41  1   
 30  12  15  1   
 31  12  42  1   
 32  12  43  1   
 33  13  16  ar  
 34  13  44  1   
 35  14  17  ar  
 36  14  45  1   
 37  15  18  1   
 38  16  19  ar  
 39  16  46  1   
 40  17  19  ar  
 41  17  47  1   
 42  18  20  ar  
 43  18  21  ar  
 44  19  48  1   
 45  20  22  1   
 46  20  23  ar  
 47  21  24  ar  
 48  21  49  1   
 49  22  25  1   
 50  23  26  ar  
 51  23  50  1   
 52  24  26  ar  
 53  24  51  1   
 54  25  52  1   
 55  25  53  1   
 56  25  54  1   
 57  26  55  1   
@<TRIPOS>SUBSTRUCTURE
  1 ****   6 GROUP 4 **** **** 0

# MOE 2024.06 (io_trps.svl 2023.06)
