@<TRIPOS>MOLECULE
NONAME
34 35 1 0 0 
SMALL
USER_CHARGES


@<TRIPOS>ATOM
  1 O        0.1960    -0.1120    -0.0410 O.3   1 <1>  -0.5600 
  2 C        0.7720    -1.3070    -0.4750 C.3   1 <1>   0.6240 
  3 C       -1.1620     0.0060    -0.3230 C.3   1 <1>   0.1200 
  4 O        0.1560    -2.3360     0.2410 O.3   1 <1>  -0.5600 
  5 C        2.2830    -1.3010    -0.2110 C.ar  1 <1>  -0.1440 
  6 C       -1.9170    -1.1590     0.3330 C.3   1 <1>  -0.0800 
  7 C       -1.2050    -2.4720    -0.0150 C.3   1 <1>   0.1200 
  8 C        2.9640    -2.4820     0.0550 C.ar  1 <1>  -0.1500 
  9 C        3.0070    -0.1160    -0.2480 C.ar  1 <1>  -0.1500 
 10 C       -3.3940    -1.2200    -0.1000 C.3   1 <1>  -0.1600 
 11 C        4.3300    -2.4770     0.2790 C.ar  1 <1>  -0.1500 
 12 C        4.3730    -0.1130    -0.0240 C.ar  1 <1>  -0.1500 
 13 C       -4.1960     0.0180     0.3290 C.3   1 <1>  -0.1600 
 14 C        5.0560    -1.2930     0.2430 C.ar  1 <1>   0.0730 
 15 C       -5.6740    -0.1330    -0.0390 C.3   1 <1>  -0.2400 
 16 C        6.4720    -1.2890     0.4760 C.1   1 <1>   0.4840 
 17 N        7.5990    -1.2860     0.6570 N.1   1 <1>  -0.5570 
 18 H        0.5780    -1.4370    -1.5260 H     1 <1>   0.0800 
 19 H       -1.2900     0.0050    -1.3920 H     1 <1>   0.0800 
 20 H       -1.4950     0.9500     0.0720 H     1 <1>   0.0800 
 21 H       -1.8790    -1.0310     1.4010 H     1 <1>   0.0800 
 22 H       -1.5760    -3.2780     0.5940 H     1 <1>   0.0800 
 23 H       -1.3330    -2.7260    -1.0530 H     1 <1>   0.0800 
 24 H        2.4270    -3.4150     0.0930 H     1 <1>   0.1500 
 25 H        2.5030     0.8140    -0.4490 H     1 <1>   0.1500 
 26 H       -3.8460    -2.0910     0.3450 H     1 <1>   0.0800 
 27 H       -3.4550    -1.3310    -1.1700 H     1 <1>   0.0800 
 28 H        4.8340    -3.4060     0.4860 H     1 <1>   0.1500 
 29 H        4.9110     0.8190    -0.0550 H     1 <1>   0.1500 
 30 H       -3.8090     0.8990    -0.1520 H     1 <1>   0.0800 
 31 H       -4.1110     0.1540     1.3940 H     1 <1>   0.0800 
 32 H       -5.7890    -0.2520    -1.1030 H     1 <1>   0.0800 
 33 H       -6.2210     0.7420     0.2670 H     1 <1>   0.0800 
 34 H       -6.1010    -0.9890     0.4530 H     1 <1>   0.0800 
@<TRIPOS>BOND
  1   1   2  1   
  2   1   3  1   
  3   2   4  1   
  4   2   5  1   
  5   2  18  1   
  6   3   6  1   
  7   3  19  1   
  8   3  20  1   
  9   4   7  1   
 10   5   8  ar  
 11   5   9  ar  
 12   6   7  1   
 13   6  10  1   
 14   6  21  1   
 15   7  22  1   
 16   7  23  1   
 17   8  11  ar  
 18   8  24  1   
 19   9  12  ar  
 20   9  25  1   
 21  10  13  1   
 22  10  26  1   
 23  10  27  1   
 24  11  14  ar  
 25  11  28  1   
 26  12  14  ar  
 27  12  29  1   
 28  13  15  1   
 29  13  30  1   
 30  13  31  1   
 31  14  16  1   
 32  15  32  1   
 33  15  33  1   
 34  15  34  1   
 35  16  17  3   
@<TRIPOS>SUBSTRUCTURE
  1 ****   2 GROUP 4 **** **** 0

# MOE 2024.06 (io_trps.svl 2023.06)
