@<TRIPOS>MOLECULE
NONAME
57 60 1 0 0 
SMALL
USER_CHARGES


@<TRIPOS>ATOM
  1 N      -11.8060     3.2280    -0.5180 N.pl3 1 <1>  -0.7030 
  2 C      -10.9200     4.2030    -0.2820 C.cat 1 <1>   1.0690 
  3 C      -13.0450     3.7080    -0.1150 C.ar  1 <1>   0.3040 
  4 N      -11.4980     5.2700     0.2450 N.pl3 1 <1>  -0.6320 
  5 N       -9.5960     4.3790    -0.4580 N.pl3 1 <1>  -0.5710 
  6 C      -12.8560     4.9960     0.3670 C.ar  1 <1>   0.3040 
  7 C      -14.3130     3.1380    -0.1300 C.ar  1 <1>  -0.1150 
  8 C      -10.5170     6.2220     0.4010 C.2   1 <1>   0.2230 
  9 C       -9.3430     5.7000    -0.0260 C.2   1 <1>   0.1590 
 10 C       -8.6990     3.3870    -1.1330 C.3   1 <1>   0.1610 
 11 C      -13.9210     5.7450     0.8460 C.ar  1 <1>  -0.1150 
 12 C      -15.3750     3.8820     0.3470 C.ar  1 <1>  -0.1560 
 13 C       -7.9950     6.4670    -0.0070 C.3   1 <1>   0.1320 
 14 C       -7.6300     2.8000    -0.1860 C.3   1 <1>   0.3380 
 15 C      -15.1820     5.1770     0.8320 C.ar  1 <1>  -0.1560 
 16 C       -8.2530     7.9860    -0.0520 C.3   1 <1>  -0.2460 
 17 C       -7.2480     6.1730     1.3030 C.3   1 <1>  -0.2460 
 18 C       -7.0830     6.1480    -1.2050 C.3   1 <1>  -0.2460 
 19 N       -6.6680     1.9000    -0.8940 N.4   1 <1>  -0.9080 
 20 C       -5.5820     1.4130    -0.0190 C.3   1 <1>   0.4180 
 21 C       -4.6060     2.5560     0.2900 C.3   1 <1>  -0.1660 
 22 C       -4.8780     0.2640    -0.7440 C.3   1 <1>  -0.1660 
 23 C       -3.4060     2.0490     1.1020 C.3   1 <1>  -0.1660 
 24 C       -3.6820    -0.2500     0.0690 C.3   1 <1>  -0.1660 
 25 C       -2.7040     0.8870     0.3890 C.3   1 <1>  -0.1660 
 26 H      -11.6460     2.3230    -0.9520 H     1 <1>   0.4460 
 27 H      -14.4630     2.1400    -0.5040 H     1 <1>   0.1440 
 28 H      -10.7400     7.1970     0.8060 H     1 <1>   0.1440 
 29 H       -8.2270     3.8640    -1.9740 H     1 <1>   0.0730 
 30 H       -9.2960     2.5790    -1.5180 H     1 <1>   0.0730 
 31 H      -13.7640     6.7430     1.2180 H     1 <1>   0.1440 
 32 H      -16.3710     3.4650     0.3480 H     1 <1>   0.1440 
 33 H       -8.1140     2.2530     0.6080 H     1 <1>   0.0730 
 34 H       -7.0790     3.6110     0.2510 H     1 <1>   0.0730 
 35 H      -16.0300     5.7350     1.1980 H     1 <1>   0.1440 
 36 H       -8.7860     8.3260     0.8180 H     1 <1>   0.0730 
 37 H       -8.8160     8.2530    -0.9300 H     1 <1>   0.0730 
 38 H       -7.3240     8.5300    -0.0800 H     1 <1>   0.0730 
 39 H       -7.0370     5.1310     1.4270 H     1 <1>   0.0730 
 40 H       -7.8320     6.4930     2.1490 H     1 <1>   0.0730 
 41 H       -6.3130     6.7080     1.3300 H     1 <1>   0.0730 
 42 H       -7.6320     6.2220    -2.1280 H     1 <1>   0.0730 
 43 H       -6.6360     5.1790    -1.1270 H     1 <1>   0.0730 
 44 H       -6.2690     6.8530    -1.2530 H     1 <1>   0.0730 
 45 H       -6.2080     2.3780    -1.6800 H     1 <1>   0.4460 
 46 H       -7.1340     1.0700    -1.2790 H     1 <1>   0.4460 
 47 H       -5.9910     1.0350     0.9050 H     1 <1>   0.0730 
 48 H       -5.0890     3.3270     0.8630 H     1 <1>   0.0730 
 49 H       -4.2370     2.9850    -0.6260 H     1 <1>   0.0730 
 50 H       -4.5170     0.5950    -1.7030 H     1 <1>   0.0730 
 51 H       -5.5610    -0.5540    -0.8960 H     1 <1>   0.0730 
 52 H       -3.7360     1.7200     2.0740 H     1 <1>   0.0730 
 53 H       -2.7020     2.8510     1.2520 H     1 <1>   0.0730 
 54 H       -3.1680    -1.0160    -0.4860 H     1 <1>   0.0730 
 55 H       -4.0280    -0.6910     0.9890 H     1 <1>   0.0730 
 56 H       -1.9100     0.5110     1.0130 H     1 <1>   0.0730 
 57 H       -2.2560     1.2430    -0.5240 H     1 <1>   0.0730 
@<TRIPOS>BOND
  1   1   2  ar  
  2   1   3  1   
  3   1  26  1   
  4   2   4  ar  
  5   2   5  ar  
  6   3   6  ar  
  7   3   7  ar  
  8   4   6  1   
  9   4   8  1   
 10   5   9  1   
 11   5  10  1   
 12   6  11  ar  
 13   7  12  ar  
 14   7  27  1   
 15   8   9  2   
 16   8  28  1   
 17   9  13  1   
 18  10  14  1   
 19  10  29  1   
 20  10  30  1   
 21  11  15  ar  
 22  11  31  1   
 23  12  15  ar  
 24  12  32  1   
 25  13  16  1   
 26  13  17  1   
 27  13  18  1   
 28  14  19  1   
 29  14  33  1   
 30  14  34  1   
 31  15  35  1   
 32  16  36  1   
 33  16  37  1   
 34  16  38  1   
 35  17  39  1   
 36  17  40  1   
 37  17  41  1   
 38  18  42  1   
 39  18  43  1   
 40  18  44  1   
 41  19  20  1   
 42  19  45  1   
 43  19  46  1   
 44  20  21  1   
 45  20  22  1   
 46  20  47  1   
 47  21  23  1   
 48  21  48  1   
 49  21  49  1   
 50  22  24  1   
 51  22  50  1   
 52  22  51  1   
 53  23  25  1   
 54  23  52  1   
 55  23  53  1   
 56  24  25  1   
 57  24  54  1   
 58  24  55  1   
 59  25  56  1   
 60  25  57  1   
@<TRIPOS>SUBSTRUCTURE
  1 ****   5 GROUP 4 **** **** 0

# MOE 2024.06 (io_trps.svl 2023.06)
