@<TRIPOS>MOLECULE
NONAME
39 41 1 0 0 
SMALL
USER_CHARGES


@<TRIPOS>ATOM
  1 BR       2.7200    -0.4830    -2.4280 Br    1 <1>  -0.1110 
  2 C        2.2800    -2.0400    -1.3840 C.ar  1 <1>   0.1110 
  3 C        1.1860    -2.8010    -1.7590 C.ar  1 <1>  -0.1500 
  4 C        3.0700    -2.3510    -0.2880 C.ar  1 <1>  -0.1500 
  5 C        0.8860    -3.9120    -0.9890 C.ar  1 <1>  -0.1440 
  6 C        2.7610    -3.4720     0.4670 C.ar  1 <1>  -0.1500 
  7 C        1.6660    -4.2490     0.1070 C.ar  1 <1>   0.1170 
  8 C       -0.2420    -4.9220    -1.1400 C.3   1 <1>   0.4850 
  9 N        1.1860    -5.4080     0.7120 N.am  1 <1>  -0.4770 
 10 O       -0.1230    -5.5220    -2.3910 O.3   1 <1>  -0.6800 
 11 C        0.0930    -5.8750     0.0330 C.2   1 <1>   0.5690 
 12 C       -1.6140    -4.2570    -1.0170 C.3   1 <1>  -0.0990 
 13 C        1.8140    -6.0790     1.8740 C.3   1 <1>   0.0600 
 14 O       -0.5410    -6.8650     0.3270 O.2   1 <1>  -0.5700 
 15 C       -2.7310    -5.2790    -1.0090 C.2   1 <1>   0.5950 
 16 O       -2.7750    -6.0670    -1.9210 O.2   1 <1>  -0.5700 
 17 C       -3.6760    -5.2700     0.0770 C.2   1 <1>  -0.0860 
 18 C       -4.1150    -6.3220     0.8230 C.2   1 <1>  -0.0400 
 19 C       -4.3720    -4.1790     0.6210 C.2   1 <1>  -0.1810 
 20 O       -4.9810    -6.0020     1.7640 O.3   1 <1>  -0.2800 
 21 C       -3.7310    -7.7850     0.7210 C.3   1 <1>  -0.0600 
 22 C       -5.1200    -4.6940     1.6140 C.2   1 <1>  -0.0100 
 23 C       -4.3300    -2.7300     0.1680 C.3   1 <1>  -0.0590 
 24 H        0.6010    -2.5380    -2.6220 H     1 <1>   0.1500 
 25 H        3.9110    -1.7280    -0.0380 H     1 <1>   0.1500 
 26 H        3.3600    -3.7390     1.3180 H     1 <1>   0.1500 
 27 H       -0.8800    -6.1440    -2.5000 H     1 <1>   0.4000 
 28 H       -1.7610    -3.5700    -1.8280 H     1 <1>   0.0800 
 29 H       -1.6310    -3.7060    -0.0970 H     1 <1>   0.0800 
 30 H        1.8270    -5.4100     2.7160 H     1 <1>   0.0800 
 31 H        2.8210    -6.3640     1.6250 H     1 <1>   0.0800 
 32 H        1.2570    -6.9620     2.1380 H     1 <1>   0.0800 
 33 H       -3.0380    -7.9490    -0.0840 H     1 <1>   0.0800 
 34 H       -4.6090    -8.3780     0.5460 H     1 <1>   0.0800 
 35 H       -3.2710    -8.1020     1.6390 H     1 <1>   0.0800 
 36 H       -5.8030    -4.1910     2.2760 H     1 <1>   0.1500 
 37 H       -3.3930    -2.2760     0.4330 H     1 <1>   0.0800 
 38 H       -5.1190    -2.1750     0.6420 H     1 <1>   0.0800 
 39 H       -4.4670    -2.6710    -0.8970 H     1 <1>   0.0800 
@<TRIPOS>BOND
  1   1   2  1   
  2   2   3  ar  
  3   2   4  ar  
  4   3   5  ar  
  5   3  24  1   
  6   4   6  ar  
  7   4  25  1   
  8   5   7  ar  
  9   5   8  1   
 10   6   7  ar  
 11   6  26  1   
 12   7   9  1   
 13   8  10  1   
 14   8  11  1   
 15   8  12  1   
 16   9  11  am  
 17   9  13  1   
 18  10  27  1   
 19  11  14  2   
 20  12  15  1   
 21  12  28  1   
 22  12  29  1   
 23  13  30  1   
 24  13  31  1   
 25  13  32  1   
 26  15  16  2   
 27  15  17  1   
 28  17  18  2   
 29  17  19  1   
 30  18  20  1   
 31  18  21  1   
 32  19  22  2   
 33  19  23  1   
 34  20  22  1   
 35  21  33  1   
 36  21  34  1   
 37  21  35  1   
 38  22  36  1   
 39  23  37  1   
 40  23  38  1   
 41  23  39  1   
@<TRIPOS>SUBSTRUCTURE
  1 ****  12 GROUP 4 **** **** 0

# MOE 2024.06 (io_trps.svl 2023.06)
