@<TRIPOS>MOLECULE
NONAME
41 41 1 0 0 
SMALL
USER_CHARGES


@<TRIPOS>ATOM
  1 O        0.8540    -4.7260     0.0600 O.3   1 <1>  -0.3630 
  2 C        2.0530    -5.3350    -0.1280 C.ar  1 <1>   0.0830 
  3 C       -0.3540    -5.4310    -0.0790 C.3   1 <1>   0.1200 
  4 C        3.1820    -4.5590     0.0700 C.ar  1 <1>  -0.1500 
  5 C        2.1960    -6.6700    -0.5000 C.ar  1 <1>  -0.1500 
  6 C       -1.4890    -4.4460     0.2190 C.3   1 <1>   0.3430 
  7 C        4.4480    -5.0920    -0.0960 C.ar  1 <1>   0.0830 
  8 C        3.4600    -7.2080    -0.6670 C.ar  1 <1>  -0.1500 
  9 N       -2.8580    -5.0460     0.0560 N.4   1 <1>  -0.9590 
 10 O        5.4950    -4.2570     0.1190 O.3   1 <1>  -0.3630 
 11 C        4.5850    -6.4270    -0.4670 C.ar  1 <1>  -0.1500 
 12 C       -3.8820    -3.9680     0.1140 C.3   1 <1>   0.3430 
 13 C       -3.1280    -6.1130     1.0610 C.3   1 <1>   0.3430 
 14 C        6.8260    -4.6960    -0.0240 C.3   1 <1>   0.1200 
 15 C       -5.1900    -4.4710    -0.4860 C.3   1 <1>  -0.2400 
 16 C       -3.1600    -7.4550     0.3420 C.3   1 <1>  -0.2400 
 17 C        7.7460    -3.5200     0.2880 C.3   1 <1>  -0.2400 
 18 H       -0.3440    -6.2430     0.6260 H     1 <1>   0.0800 
 19 H       -0.4130    -5.7930    -1.0900 H     1 <1>   0.0800 
 20 H        3.0820    -3.5280     0.3560 H     1 <1>   0.1500 
 21 H        1.3480    -7.3060    -0.6650 H     1 <1>   0.1500 
 22 H       -1.3860    -3.6120    -0.4570 H     1 <1>   0.0800 
 23 H       -1.3730    -4.0790     1.2250 H     1 <1>   0.0800 
 24 H        3.5720    -8.2400    -0.9550 H     1 <1>   0.1500 
 25 H       -2.9210    -5.4690    -0.8790 H     1 <1>   0.4500 
 26 H        5.5520    -6.8720    -0.6050 H     1 <1>   0.1500 
 27 H       -3.5460    -3.1160    -0.4570 H     1 <1>   0.0800 
 28 H       -4.0360    -3.6510     1.1330 H     1 <1>   0.0800 
 29 H       -4.0790    -5.9450     1.5400 H     1 <1>   0.0800 
 30 H       -2.3650    -6.1180     1.8230 H     1 <1>   0.0800 
 31 H        6.9670    -5.0320    -1.0360 H     1 <1>   0.0800 
 32 H        6.9950    -5.5040     0.6670 H     1 <1>   0.0800 
 33 H       -5.0480    -4.7880    -1.5040 H     1 <1>   0.0800 
 34 H       -5.9070    -3.6690    -0.4880 H     1 <1>   0.0800 
 35 H       -5.6060    -5.2780     0.0890 H     1 <1>   0.0800 
 36 H       -3.9470    -7.4760    -0.3920 H     1 <1>   0.0800 
 37 H       -3.3590    -8.2330     1.0580 H     1 <1>   0.0800 
 38 H       -2.2190    -7.6730    -0.1290 H     1 <1>   0.0800 
 39 H        7.5570    -2.7120    -0.3970 H     1 <1>   0.0800 
 40 H        8.7720    -3.8230     0.1870 H     1 <1>   0.0800 
 41 H        7.5840    -3.1810     1.2950 H     1 <1>   0.0800 
@<TRIPOS>BOND
  1   1   2  1   
  2   1   3  1   
  3   2   4  ar  
  4   2   5  ar  
  5   3   6  1   
  6   3  18  1   
  7   3  19  1   
  8   4   7  ar  
  9   4  20  1   
 10   5   8  ar  
 11   5  21  1   
 12   6   9  1   
 13   6  22  1   
 14   6  23  1   
 15   7  10  1   
 16   7  11  ar  
 17   8  11  ar  
 18   8  24  1   
 19   9  12  1   
 20   9  13  1   
 21   9  25  1   
 22  10  14  1   
 23  11  26  1   
 24  12  15  1   
 25  12  27  1   
 26  12  28  1   
 27  13  16  1   
 28  13  29  1   
 29  13  30  1   
 30  14  17  1   
 31  14  31  1   
 32  14  32  1   
 33  15  33  1   
 34  15  34  1   
 35  15  35  1   
 36  16  36  1   
 37  16  37  1   
 38  16  38  1   
 39  17  39  1   
 40  17  40  1   
 41  17  41  1   
@<TRIPOS>SUBSTRUCTURE
  1 ****   1 GROUP 4 **** **** 0

# MOE 2024.06 (io_trps.svl 2023.06)
