@<TRIPOS>MOLECULE
NONAME
39 40 1 0 0 
SMALL
USER_CHARGES


@<TRIPOS>ATOM
  1 O       -1.4890     0.8670     0.3520 O.3   1 <1>  -0.3630 
  2 C       -0.8110     1.9430    -0.1350 C.ar  1 <1>   0.0830 
  3 C       -0.8580    -0.0770     1.1950 C.3   1 <1>   0.0400 
  4 C       -1.4330     2.6930    -1.1300 C.ar  1 <1>  -0.1440 
  5 C        0.4490     2.3140     0.3250 C.ar  1 <1>  -0.1500 
  6 C       -0.7940     3.8040    -1.6590 C.ar  1 <1>  -0.1500 
  7 C       -2.8080     2.3010    -1.6360 C.3   1 <1>   0.4870 
  8 C        1.0840     3.4310    -0.2080 C.ar  1 <1>   0.0820 
  9 C        0.4570     4.1680    -1.1980 C.ar  1 <1>  -0.1500 
 10 N       -3.7640     2.3580    -0.5020 N.4   1 <1>  -0.9590 
 11 O        2.3080     3.8650     0.1820 O.3   1 <1>  -0.3620 
 12 C       -5.0620     1.7120    -0.8280 C.3   1 <1>   0.3430 
 13 C       -3.9150     3.7380     0.0410 C.3   1 <1>   0.3430 
 14 C        3.0710     3.1730     1.1450 C.3   1 <1>   0.0400 
 15 C       -5.9280     1.6400     0.4310 C.3   1 <1>  -0.1600 
 16 C       -4.7650     3.6960     1.3120 C.3   1 <1>  -0.1600 
 17 C       -6.1220     3.0220     1.0700 C.3   1 <1>  -0.1600 
 18 H       -0.6030     0.3970     2.1270 H     1 <1>   0.0800 
 19 H        0.0220    -0.4540     0.7040 H     1 <1>   0.0800 
 20 H       -1.5460    -0.8840     1.3750 H     1 <1>   0.0800 
 21 H        0.9350     1.7480     1.0930 H     1 <1>   0.1500 
 22 H       -1.2530     4.3960    -2.4340 H     1 <1>   0.1500 
 23 H       -2.7590     1.2970    -2.0260 H     1 <1>   0.0800 
 24 H       -3.1210     2.9650    -2.4250 H     1 <1>   0.0800 
 25 H        0.9620     5.0280    -1.6030 H     1 <1>   0.1500 
 26 H       -3.2980     1.7980     0.2310 H     1 <1>   0.4500 
 27 H       -4.8970     0.7150    -1.2060 H     1 <1>   0.0800 
 28 H       -5.5750     2.2840    -1.5840 H     1 <1>   0.0800 
 29 H       -4.3920     4.3690    -0.6920 H     1 <1>   0.0800 
 30 H       -2.9470     4.1550     0.2720 H     1 <1>   0.0800 
 31 H        4.0030     3.6960     1.2700 H     1 <1>   0.0800 
 32 H        3.2590     2.1750     0.7930 H     1 <1>   0.0800 
 33 H        2.5340     3.1620     2.0770 H     1 <1>   0.0800 
 34 H       -5.4710     0.9710     1.1390 H     1 <1>   0.0800 
 35 H       -6.8890     1.2280     0.1750 H     1 <1>   0.0800 
 36 H       -4.9230     4.7020     1.6620 H     1 <1>   0.0800 
 37 H       -4.2250     3.1710     2.0810 H     1 <1>   0.0800 
 38 H       -6.6520     2.9230     2.0030 H     1 <1>   0.0800 
 39 H       -6.7190     3.6390     0.4190 H     1 <1>   0.0800 
@<TRIPOS>BOND
  1   1   2  1   
  2   1   3  1   
  3   2   4  ar  
  4   2   5  ar  
  5   3  18  1   
  6   3  19  1   
  7   3  20  1   
  8   4   6  ar  
  9   4   7  1   
 10   5   8  ar  
 11   5  21  1   
 12   6   9  ar  
 13   6  22  1   
 14   7  10  1   
 15   7  23  1   
 16   7  24  1   
 17   8   9  ar  
 18   8  11  1   
 19   9  25  1   
 20  10  12  1   
 21  10  13  1   
 22  10  26  1   
 23  11  14  1   
 24  12  15  1   
 25  12  27  1   
 26  12  28  1   
 27  13  16  1   
 28  13  29  1   
 29  13  30  1   
 30  14  31  1   
 31  14  32  1   
 32  14  33  1   
 33  15  17  1   
 34  15  34  1   
 35  15  35  1   
 36  16  17  1   
 37  16  36  1   
 38  16  37  1   
 39  17  38  1   
 40  17  39  1   
@<TRIPOS>SUBSTRUCTURE
  1 ****   4 GROUP 4 **** **** 0

# MOE 2024.06 (io_trps.svl 2023.06)
