@<TRIPOS>MOLECULE
NONAME
45 47 1 0 0 
SMALL
USER_CHARGES


@<TRIPOS>ATOM
  1 S        0.3600    -1.0550    -1.2980 S.3   1 <1>  -0.2860 
  2 C       -1.1180    -0.0470    -1.1320 C.2   1 <1>   0.2420 
  3 C        1.6370     0.0940    -2.0140 C.3   1 <1>   0.1310 
  4 N       -1.1910     1.1930    -1.4650 N.2   1 <1>  -0.3380 
  5 N       -2.2490    -0.5290    -0.6300 N.pl3 1 <1>   0.0480 
  6 C        2.8460     0.1970    -1.0950 C.2   1 <1>   0.5690 
  7 N       -2.4310     1.5760    -1.1670 N.2   1 <1>  -0.3380 
  8 C       -3.0640     0.5440    -0.6770 C.2   1 <1>   0.1330 
  9 C       -2.5100    -1.8830    -0.0970 C.3   1 <1>   0.0160 
 10 O        3.8140    -0.4660    -1.3920 O.2   1 <1>  -0.5700 
 11 N        2.8510     1.0280     0.0010 N.am  1 <1>  -0.6600 
 12 C       -4.4370     0.5480    -0.2320 C.ar  1 <1>   0.0530 
 13 C        1.6950     1.8430     0.4580 C.3   1 <1>   0.1400 
 14 C        4.0640     1.1750     0.8490 C.3   1 <1>   0.1400 
 15 C       -5.3660    -0.3730    -0.7130 C.ar  1 <1>  -0.1500 
 16 C       -4.8740     1.4830     0.7020 C.ar  1 <1>  -0.1500 
 17 C        1.6350     3.2060    -0.2440 C.3   1 <1>  -0.1600 
 18 C        4.8430     2.4440     0.4850 C.3   1 <1>  -0.1600 
 19 C       -6.6740    -0.3740    -0.2620 C.ar  1 <1>  -0.1500 
 20 C       -6.1800     1.4880     1.1570 C.ar  1 <1>  -0.1500 
 21 C        2.9870     3.8690    -0.5650 C.3   1 <1>  -0.1600 
 22 C        4.0380     3.7570     0.5520 C.3   1 <1>  -0.1600 
 23 C       -7.0820     0.5560     0.6770 C.ar  1 <1>  -0.1500 
 24 H        1.1950     1.0550    -2.1800 H     1 <1>   0.0800 
 25 H        1.9310    -0.3260    -2.9580 H     1 <1>   0.0800 
 26 H       -1.6240    -2.2600     0.3810 H     1 <1>   0.0800 
 27 H       -2.7850    -2.5360    -0.9050 H     1 <1>   0.0800 
 28 H       -3.3060    -1.8440     0.6240 H     1 <1>   0.0800 
 29 H        1.7800     2.0050     1.5190 H     1 <1>   0.0800 
 30 H        0.7760     1.3100     0.3030 H     1 <1>   0.0800 
 31 H        4.7050     0.3190     0.7210 H     1 <1>   0.0800 
 32 H        3.7770     1.2060     1.8860 H     1 <1>   0.0800 
 33 H       -5.0640    -1.0900    -1.4560 H     1 <1>   0.1500 
 34 H       -4.1750     2.2140     1.0710 H     1 <1>   0.1500 
 35 H        1.0640     3.8670     0.3850 H     1 <1>   0.0800 
 36 H        1.0750     3.1050    -1.1570 H     1 <1>   0.0800 
 37 H        5.2560     2.3200    -0.5010 H     1 <1>   0.0800 
 38 H        5.6740     2.5200     1.1630 H     1 <1>   0.0800 
 39 H       -7.3770    -1.0940    -0.6440 H     1 <1>   0.1500 
 40 H       -6.4950     2.2190     1.8820 H     1 <1>   0.1500 
 41 H        2.8040     4.9110    -0.7670 H     1 <1>   0.0800 
 42 H        3.3850     3.4420    -1.4700 H     1 <1>   0.0800 
 43 H        4.7340     4.5680     0.4320 H     1 <1>   0.0800 
 44 H        3.5770     3.8720     1.5180 H     1 <1>   0.0800 
 45 H       -8.0990     0.5580     1.0300 H     1 <1>   0.1500 
@<TRIPOS>BOND
  1   1   2  1   
  2   1   3  1   
  3   2   4  2   
  4   2   5  1   
  5   3   6  1   
  6   3  24  1   
  7   3  25  1   
  8   4   7  1   
  9   5   8  1   
 10   5   9  1   
 11   6  10  2   
 12   6  11  am  
 13   7   8  2   
 14   8  12  1   
 15   9  26  1   
 16   9  27  1   
 17   9  28  1   
 18  11  13  1   
 19  11  14  1   
 20  12  15  ar  
 21  12  16  ar  
 22  13  17  1   
 23  13  29  1   
 24  13  30  1   
 25  14  18  1   
 26  14  31  1   
 27  14  32  1   
 28  15  19  ar  
 29  15  33  1   
 30  16  20  ar  
 31  16  34  1   
 32  17  21  1   
 33  17  35  1   
 34  17  36  1   
 35  18  22  1   
 36  18  37  1   
 37  18  38  1   
 38  19  23  ar  
 39  19  39  1   
 40  20  23  ar  
 41  20  40  1   
 42  21  22  1   
 43  21  41  1   
 44  21  42  1   
 45  22  43  1   
 46  22  44  1   
 47  23  45  1   
@<TRIPOS>SUBSTRUCTURE
  1 ****   4 GROUP 4 **** **** 0

# MOE 2024.06 (io_trps.svl 2023.06)
