@<TRIPOS>MOLECULE
NONAME
45 47 1 0 0 
SMALL
USER_CHARGES


@<TRIPOS>ATOM
  1 I        1.1870    -1.0430     3.1020 I     1 <1>  -0.0810 
  2 C        0.3910    -2.3320     1.5930 C.ar  1 <1>   0.0810 
  3 C        1.0520    -2.5050     0.3860 C.ar  1 <1>   0.0820 
  4 C       -0.8010    -2.9730     1.8770 C.ar  1 <1>  -0.1500 
  5 O        2.2120    -1.8780     0.1050 O.3   1 <1>  -0.5330 
  6 C        0.5000    -3.3570    -0.5670 C.ar  1 <1>   0.0830 
  7 C       -1.3610    -3.8090     0.9200 C.ar  1 <1>  -0.1430 
  8 O        1.1860    -3.5090    -1.7360 O.3   1 <1>  -0.3630 
  9 C       -0.7050    -4.0030    -0.2930 C.ar  1 <1>  -0.1500 
 10 C       -2.6830    -4.4980     1.2030 C.3   1 <1>   0.4860 
 11 C        0.8520    -4.5140    -2.6690 C.3   1 <1>   0.0400 
 12 N       -3.7680    -3.7650     0.4970 N.4   1 <1>  -0.9590 
 13 C       -3.9150    -2.3470     1.0030 C.3   1 <1>   0.3430 
 14 C       -5.0830    -4.5000     0.5790 C.3   1 <1>   0.3430 
 15 C       -5.0500    -1.5800     0.2950 C.3   1 <1>   0.2090 
 16 C       -6.2260    -3.7500    -0.1360 C.3   1 <1>   0.2090 
 17 N       -6.3340    -2.3430     0.3540 N.pl3 1 <1>  -0.8380 
 18 C       -7.4600    -1.6420    -0.1030 C.ar  1 <1>   0.1000 
 19 C       -7.6760    -1.2660    -1.4350 C.ar  1 <1>   0.1900 
 20 C       -8.4400    -1.2870     0.8150 C.ar  1 <1>  -0.1500 
 21 F       -6.7820    -1.5750    -2.3460 F     1 <1>  -0.1900 
 22 C       -8.7980    -0.5760    -1.8470 C.ar  1 <1>  -0.1500 
 23 C       -9.5740    -0.5940     0.4210 C.ar  1 <1>  -0.1500 
 24 C       -9.7570    -0.2380    -0.9060 C.ar  1 <1>  -0.1500 
 25 H       -1.2690    -2.8110     2.8330 H     1 <1>   0.1500 
 26 H        2.5290    -2.1390    -0.7840 H     1 <1>   0.4500 
 27 H       -1.1340    -4.6610    -1.0260 H     1 <1>   0.1500 
 28 H       -2.8720    -4.5110     2.2650 H     1 <1>   0.0800 
 29 H       -2.6350    -5.5170     0.8540 H     1 <1>   0.0800 
 30 H        1.5890    -4.4990    -3.4530 H     1 <1>   0.0800 
 31 H       -0.1180    -4.3020    -3.0830 H     1 <1>   0.0800 
 32 H        0.8660    -5.4700    -2.1770 H     1 <1>   0.0800 
 33 H       -3.5000    -3.6940    -0.4920 H     1 <1>   0.4500 
 34 H       -2.9930    -1.8070     0.8610 H     1 <1>   0.0800 
 35 H       -4.1300    -2.3600     2.0580 H     1 <1>   0.0800 
 36 H       -5.3640    -4.6220     1.6120 H     1 <1>   0.0800 
 37 H       -4.9860    -5.4810     0.1450 H     1 <1>   0.0800 
 38 H       -4.7790    -1.3960    -0.7300 H     1 <1>   0.0800 
 39 H       -5.1870    -0.6250     0.7740 H     1 <1>   0.0800 
 40 H       -7.1570    -4.2580     0.0500 H     1 <1>   0.0800 
 41 H       -6.0550    -3.7560    -1.1990 H     1 <1>   0.0800 
 42 H       -8.3100    -1.5580     1.8470 H     1 <1>   0.1500 
 43 H       -8.9210    -0.3090    -2.8810 H     1 <1>   0.1500 
 44 H      -10.3200    -0.3310     1.1520 H     1 <1>   0.1500 
 45 H      -10.6410     0.3010    -1.2040 H     1 <1>   0.1500 
@<TRIPOS>BOND
  1   1   2  1   
  2   2   3  ar  
  3   2   4  ar  
  4   3   5  1   
  5   3   6  ar  
  6   4   7  ar  
  7   4  25  1   
  8   5  26  1   
  9   6   8  1   
 10   6   9  ar  
 11   7   9  ar  
 12   7  10  1   
 13   8  11  1   
 14   9  27  1   
 15  10  12  1   
 16  10  28  1   
 17  10  29  1   
 18  11  30  1   
 19  11  31  1   
 20  11  32  1   
 21  12  13  1   
 22  12  14  1   
 23  12  33  1   
 24  13  15  1   
 25  13  34  1   
 26  13  35  1   
 27  14  16  1   
 28  14  36  1   
 29  14  37  1   
 30  15  17  1   
 31  15  38  1   
 32  15  39  1   
 33  16  17  1   
 34  16  40  1   
 35  16  41  1   
 36  17  18  1   
 37  18  19  ar  
 38  18  20  ar  
 39  19  21  1   
 40  19  22  ar  
 41  20  23  ar  
 42  20  42  1   
 43  22  24  ar  
 44  22  43  1   
 45  23  24  ar  
 46  23  44  1   
 47  24  45  1   
@<TRIPOS>SUBSTRUCTURE
  1 ****  13 GROUP 4 **** **** 0

# MOE 2024.06 (io_trps.svl 2023.06)
