@<TRIPOS>MOLECULE
NONAME
35 36 1 0 0 
SMALL
USER_CHARGES


@<TRIPOS>ATOM
  1 CL      -1.6270     0.9130     1.6860 Cl    1 <1>  -0.1770 
  2 C       -0.8240     2.1150     0.7050 C.ar  1 <1>   0.1770 
  3 C       -1.4080     2.5220    -0.4820 C.ar  1 <1>  -0.1440 
  4 C        0.3760     2.6460     1.1450 C.ar  1 <1>  -0.1500 
  5 C       -0.7560     3.4940    -1.2210 C.ar  1 <1>   0.1770 
  6 C       -2.7110     1.9130    -0.9560 C.3   1 <1>   0.4870 
  7 C        1.0140     3.6140     0.3860 C.ar  1 <1>  -0.1500 
  8 CL      -1.4670     4.0640    -2.7100 Cl    1 <1>  -0.1770 
  9 C        0.4440     4.0410    -0.8030 C.ar  1 <1>  -0.1500 
 10 N       -3.8330     2.4370    -0.1290 N.4   1 <1>  -0.9590 
 11 C       -5.0970     1.6540    -0.3660 C.3   1 <1>   0.3430 
 12 C       -4.0470     3.9150    -0.3540 C.3   1 <1>   0.3430 
 13 C       -6.2850     2.1880     0.4630 C.3   1 <1>   0.1400 
 14 C       -5.2130     4.4580     0.4880 C.3   1 <1>   0.1400 
 15 N       -6.4540     3.6560     0.2480 N.am  1 <1>  -0.6600 
 16 C       -7.5910     4.2620    -0.2230 C.2   1 <1>   0.5690 
 17 O       -7.5880     5.4140    -0.5740 O.2   1 <1>  -0.5700 
 18 C       -8.8910     3.5000    -0.3360 C.3   1 <1>  -0.1790 
 19 H        0.8090     2.3060     2.0710 H     1 <1>   0.1500 
 20 H       -2.6500     0.8420    -0.8530 H     1 <1>   0.0800 
 21 H       -2.8780     2.1400    -1.9970 H     1 <1>   0.0800 
 22 H        1.9510     4.0320     0.7190 H     1 <1>   0.1500 
 23 H        0.9300     4.7940    -1.4010 H     1 <1>   0.1500 
 24 H       -3.5600     2.3060     0.8560 H     1 <1>   0.4500 
 25 H       -4.9360     0.6160    -0.1190 H     1 <1>   0.0800 
 26 H       -5.3640     1.7080    -1.4090 H     1 <1>   0.0800 
 27 H       -4.2650     4.1000    -1.3940 H     1 <1>   0.0800 
 28 H       -3.1520     4.4610    -0.1040 H     1 <1>   0.0800 
 29 H       -6.1130     2.0000     1.5090 H     1 <1>   0.0800 
 30 H       -7.1730     1.6530     0.1790 H     1 <1>   0.0800 
 31 H       -5.3710     5.4940     0.2360 H     1 <1>   0.0800 
 32 H       -4.9600     4.4190     1.5330 H     1 <1>   0.0800 
 33 H       -8.8290     2.7800    -1.1300 H     1 <1>   0.0800 
 34 H       -9.6890     4.1840    -0.5580 H     1 <1>   0.0800 
 35 H       -9.1150     3.0090     0.5920 H     1 <1>   0.0800 
@<TRIPOS>BOND
  1   1   2  1   
  2   2   3  ar  
  3   2   4  ar  
  4   3   5  ar  
  5   3   6  1   
  6   4   7  ar  
  7   4  19  1   
  8   5   8  1   
  9   5   9  ar  
 10   6  10  1   
 11   6  20  1   
 12   6  21  1   
 13   7   9  ar  
 14   7  22  1   
 15   9  23  1   
 16  10  11  1   
 17  10  12  1   
 18  10  24  1   
 19  11  13  1   
 20  11  25  1   
 21  11  26  1   
 22  12  14  1   
 23  12  27  1   
 24  12  28  1   
 25  13  15  1   
 26  13  29  1   
 27  13  30  1   
 28  14  15  1   
 29  14  31  1   
 30  14  32  1   
 31  15  16  am  
 32  16  17  2   
 33  16  18  1   
 34  18  33  1   
 35  18  34  1   
 36  18  35  1   
@<TRIPOS>SUBSTRUCTURE
  1 ****  10 GROUP 4 **** **** 0

# MOE 2024.06 (io_trps.svl 2023.06)
