@<TRIPOS>MOLECULE
NONAME
47 48 1 0 0 
SMALL
USER_CHARGES


@<TRIPOS>ATOM
  1 CL      -0.8550     0.1000     0.9330 Cl    1 <1>  -0.1770 
  2 C       -0.5460     1.7830     0.5610 C.ar  1 <1>   0.1770 
  3 C       -1.6000     2.6280     0.2320 C.ar  1 <1>   0.0830 
  4 C        0.7560     2.2410     0.6060 C.ar  1 <1>  -0.1500 
  5 O       -2.8550     2.1040     0.2130 O.3   1 <1>  -0.3630 
  6 C       -1.3210     3.9620    -0.0580 C.ar  1 <1>  -0.1500 
  7 C        1.0200     3.5680     0.3160 C.ar  1 <1>  -0.1500 
  8 C       -3.9910     2.8900    -0.0380 C.3   1 <1>   0.1200 
  9 C       -0.0150     4.4300    -0.0180 C.ar  1 <1>  -0.1440 
 10 C       -5.2010     1.9540     0.0520 C.3   1 <1>   0.3430 
 11 C        0.2890     5.8840    -0.3340 C.3   1 <1>  -0.0960 
 12 N       -6.5050     2.6510    -0.2060 N.4   1 <1>  -0.9590 
 13 C       -6.8570     3.6150     0.8800 C.3   1 <1>   0.3430 
 14 C       -7.5860     1.6420    -0.4020 C.3   1 <1>   0.3430 
 15 C       -8.1260     4.3730     0.4980 C.3   1 <1>  -0.1600 
 16 C       -8.8750     2.3480    -0.8190 C.3   1 <1>  -0.1600 
 17 C       -9.3020     3.4230     0.1990 C.3   1 <1>  -0.0190 
 18 C      -10.5170     4.1950    -0.3060 C.2   1 <1>   0.6590 
 19 O      -10.4460     4.8970    -1.2800 O.2   1 <1>  -0.5700 
 20 O      -11.6340     4.0390     0.3870 O.3   1 <1>  -0.4300 
 21 C      -12.8250     4.6970     0.0190 C.3   1 <1>   0.1200 
 22 C      -13.9110     4.3030     1.0150 C.3   1 <1>  -0.2400 
 23 H        1.5520     1.5650     0.8640 H     1 <1>   0.1500 
 24 H       -2.1000     4.6520    -0.3190 H     1 <1>   0.1500 
 25 H        2.0340     3.9280     0.3510 H     1 <1>   0.1500 
 26 H       -3.8970     3.3080    -1.0250 H     1 <1>   0.0800 
 27 H       -4.0300     3.6610     0.7110 H     1 <1>   0.0800 
 28 H       -5.2190     1.5020     1.0300 H     1 <1>   0.0800 
 29 H       -5.0650     1.1710    -0.6770 H     1 <1>   0.0800 
 30 H       -0.4390     6.2870    -1.0140 H     1 <1>   0.0800 
 31 H        1.2590     5.9740    -0.7890 H     1 <1>   0.0800 
 32 H        0.2770     6.4640     0.5720 H     1 <1>   0.0800 
 33 H       -6.4290     3.1800    -1.0870 H     1 <1>   0.4500 
 34 H       -6.0550     4.3200     1.0290 H     1 <1>   0.0800 
 35 H       -7.0160     3.0830     1.8050 H     1 <1>   0.0800 
 36 H       -7.7510     1.0970     0.5140 H     1 <1>   0.0800 
 37 H       -7.3020     0.9380    -1.1690 H     1 <1>   0.0800 
 38 H       -7.9220     4.9910    -0.3610 H     1 <1>   0.0800 
 39 H       -8.3990     5.0320     1.3050 H     1 <1>   0.0800 
 40 H       -9.6610     1.6180    -0.9140 H     1 <1>   0.0800 
 41 H       -8.7370     2.7940    -1.7900 H     1 <1>   0.0800 
 42 H       -9.5840     2.9320     1.1150 H     1 <1>   0.0800 
 43 H      -13.0890     4.3940    -0.9800 H     1 <1>   0.0800 
 44 H      -12.6490     5.7600     0.0390 H     1 <1>   0.0800 
 45 H      -14.0700     3.2400     0.9910 H     1 <1>   0.0800 
 46 H      -14.8320     4.7920     0.7570 H     1 <1>   0.0800 
 47 H      -13.6310     4.6040     2.0090 H     1 <1>   0.0800 
@<TRIPOS>BOND
  1   1   2  1   
  2   2   3  ar  
  3   2   4  ar  
  4   3   5  1   
  5   3   6  ar  
  6   4   7  ar  
  7   4  23  1   
  8   5   8  1   
  9   6   9  ar  
 10   6  24  1   
 11   7   9  ar  
 12   7  25  1   
 13   8  10  1   
 14   8  26  1   
 15   8  27  1   
 16   9  11  1   
 17  10  12  1   
 18  10  28  1   
 19  10  29  1   
 20  11  30  1   
 21  11  31  1   
 22  11  32  1   
 23  12  13  1   
 24  12  14  1   
 25  12  33  1   
 26  13  15  1   
 27  13  34  1   
 28  13  35  1   
 29  14  16  1   
 30  14  36  1   
 31  14  37  1   
 32  15  17  1   
 33  15  38  1   
 34  15  39  1   
 35  16  17  1   
 36  16  40  1   
 37  16  41  1   
 38  17  18  1   
 39  17  42  1   
 40  18  19  2   
 41  18  20  1   
 42  20  21  1   
 43  21  22  1   
 44  21  43  1   
 45  21  44  1   
 46  22  45  1   
 47  22  46  1   
 48  22  47  1   
@<TRIPOS>SUBSTRUCTURE
  1 ****  12 GROUP 4 **** **** 0

# MOE 2024.06 (io_trps.svl 2023.06)
