@<TRIPOS>MOLECULE
NONAME
39 40 1 0 0 
SMALL
USER_CHARGES


@<TRIPOS>ATOM
  1 O       -0.0810    -0.1420     0.7780 O.2   1 <1>  -0.5700 
  2 C       -0.1270     0.8700     0.1080 C.2   1 <1>   0.6900 
  3 N        0.9860     1.4530    -0.4160 N.am  1 <1>  -0.5470 
  4 N       -1.3130     1.4730    -0.1410 N.am  1 <1>  -0.7300 
  5 C        2.3510     1.1140    -0.4140 C.ar  1 <1>   0.1170 
  6 C       -2.6240     1.0000     0.3320 C.3   1 <1>   0.2200 
  7 C        3.2670     2.0830    -0.8410 C.ar  1 <1>   0.0830 
  8 C        2.8290    -0.1310    -0.0230 C.ar  1 <1>  -0.1500 
  9 C       -3.4960     0.6820    -0.8760 C.3   1 <1>  -0.1600 
 10 C       -3.3530     2.1610     0.9950 C.3   1 <1>  -0.1600 
 11 O        2.7590     3.2960    -1.2290 O.3   1 <1>  -0.3630 
 12 C        4.6290     1.7960    -0.8600 C.ar  1 <1>  -0.1500 
 13 C        4.1830    -0.4190    -0.0430 C.ar  1 <1>   0.0830 
 14 C       -4.0600     2.0270    -1.3500 C.3   1 <1>  -0.1600 
 15 C       -3.9700     2.9760    -0.1480 C.3   1 <1>  -0.1600 
 16 C        3.6130     4.3530    -1.6100 C.3   1 <1>   0.0400 
 17 C        5.0860     0.5510    -0.4630 C.ar  1 <1>  -0.1500 
 18 O        4.5490    -1.6650     0.3590 O.3   1 <1>  -0.3630 
 19 C        5.9040    -2.0490     0.4080 C.3   1 <1>   0.0400 
 20 H        0.8290     2.3770    -0.8080 H     1 <1>   0.3700 
 21 H       -1.3570     2.2620    -0.7770 H     1 <1>   0.3700 
 22 H       -2.5140     0.1550     0.9930 H     1 <1>   0.0800 
 23 H        2.1520    -0.8980     0.3010 H     1 <1>   0.1500 
 24 H       -4.3090     0.0570    -0.5500 H     1 <1>   0.0800 
 25 H       -2.9510     0.1610    -1.6440 H     1 <1>   0.0800 
 26 H       -2.7010     2.7450     1.6220 H     1 <1>   0.0800 
 27 H       -4.1440     1.7610     1.6040 H     1 <1>   0.0800 
 28 H        5.3510     2.5210    -1.1810 H     1 <1>   0.1500 
 29 H       -5.0750     1.9170    -1.6900 H     1 <1>   0.0800 
 30 H       -3.4620     2.4090    -2.1600 H     1 <1>   0.0800 
 31 H       -3.3320     3.8090    -0.3900 H     1 <1>   0.0800 
 32 H       -4.9390     3.3520     0.1300 H     1 <1>   0.0800 
 33 H        3.0030     5.2080    -1.8440 H     1 <1>   0.0800 
 34 H        4.1720     4.0560    -2.4790 H     1 <1>   0.0800 
 35 H        4.2670     4.5880    -0.7890 H     1 <1>   0.0800 
 36 H        6.1410     0.3570    -0.4880 H     1 <1>   0.1500 
 37 H        5.9500    -3.0620     0.7640 H     1 <1>   0.0800 
 38 H        6.4270    -1.3990     1.0870 H     1 <1>   0.0800 
 39 H        6.3190    -1.9910    -0.5830 H     1 <1>   0.0800 
@<TRIPOS>BOND
  1   1   2  2   
  2   2   3  am  
  3   2   4  am  
  4   3   5  1   
  5   3  20  1   
  6   4   6  1   
  7   4  21  1   
  8   5   7  ar  
  9   5   8  ar  
 10   6   9  1   
 11   6  10  1   
 12   6  22  1   
 13   7  11  1   
 14   7  12  ar  
 15   8  13  ar  
 16   8  23  1   
 17   9  14  1   
 18   9  24  1   
 19   9  25  1   
 20  10  15  1   
 21  10  26  1   
 22  10  27  1   
 23  11  16  1   
 24  12  17  ar  
 25  12  28  1   
 26  13  17  ar  
 27  13  18  1   
 28  14  15  1   
 29  14  29  1   
 30  14  30  1   
 31  15  31  1   
 32  15  32  1   
 33  16  33  1   
 34  16  34  1   
 35  16  35  1   
 36  17  36  1   
 37  18  19  1   
 38  19  37  1   
 39  19  38  1   
 40  19  39  1   
@<TRIPOS>SUBSTRUCTURE
  1 ****   3 GROUP 4 **** **** 0

# MOE 2024.06 (io_trps.svl 2023.06)
