@<TRIPOS>MOLECULE
NONAME
42 43 1 0 0 
SMALL
USER_CHARGES


@<TRIPOS>ATOM
  1 O       -1.3590     5.1770     2.4160 O.2   1 <1>  -0.5700 
  2 C       -1.4220     4.3060     1.5840 C.2   1 <1>   0.6590 
  3 O       -0.3320     3.9320     0.9150 O.3   1 <1>  -0.4300 
  4 C       -2.7210     3.5760     1.2480 C.3   1 <1>   0.2610 
  5 C        0.9060     4.5770     1.1160 C.3   1 <1>   0.1200 
  6 O       -2.9210     3.5630    -0.1630 O.3   1 <1>  -0.3630 
  7 C       -3.9400     4.2090     1.9380 C.3   1 <1>   0.1200 
  8 C        1.9150     4.0060     0.1130 C.3   1 <1>   0.3430 
  9 C       -4.1570     3.2180    -0.6060 C.ar  1 <1>   0.0820 
 10 O       -5.1240     3.5280     1.5670 O.3   1 <1>  -0.3630 
 11 N        3.2390     4.7180     0.1500 N.4   1 <1>  -0.9590 
 12 C       -5.2520     3.1860     0.2600 C.ar  1 <1>   0.0820 
 13 C       -4.3210     2.8870    -1.9400 C.ar  1 <1>  -0.1500 
 14 C        4.0600     4.3520    -1.0400 C.3   1 <1>   0.4230 
 15 C        3.9470     4.5240     1.4630 C.3   1 <1>   0.2630 
 16 C       -6.4960     2.8060    -0.2130 C.ar  1 <1>  -0.1500 
 17 C       -5.5700     2.5130    -2.4100 C.ar  1 <1>  -0.1500 
 18 C        4.6100     2.9270    -0.9450 C.3   1 <1>  -0.2400 
 19 C        5.1900     5.3650    -1.1980 C.3   1 <1>  -0.2400 
 20 C       -6.6540     2.4700    -1.5480 C.ar  1 <1>  -0.1500 
 21 H       -2.6270     2.5550     1.5680 H     1 <1>   0.0800 
 22 H        1.2110     4.3950     2.1320 H     1 <1>   0.0800 
 23 H        0.7590     5.6310     0.9540 H     1 <1>   0.0800 
 24 H       -4.0430     5.2410     1.6510 H     1 <1>   0.0800 
 25 H       -3.8480     4.1520     3.0080 H     1 <1>   0.0800 
 26 H        1.4920     4.0980    -0.8740 H     1 <1>   0.0800 
 27 H        2.0610     2.9590     0.3210 H     1 <1>   0.0800 
 28 H        3.0490     5.7250     0.0470 H     1 <1>   0.4500 
 29 H       -3.4770     2.9200    -2.6040 H     1 <1>   0.1500 
 30 H        3.4380     4.4150    -1.9200 H     1 <1>   0.0800 
 31 H        4.1420     3.4780     1.6340 H     1 <1>   0.0800 
 32 H        3.3470     4.9000     2.2750 H     1 <1>   0.0800 
 33 H        4.8860     5.0530     1.4660 H     1 <1>   0.0800 
 34 H       -7.3320     2.7790     0.4620 H     1 <1>   0.1500 
 35 H       -5.6990     2.2540    -3.4470 H     1 <1>   0.1500 
 36 H        5.3170     2.8220    -0.1430 H     1 <1>   0.0800 
 37 H        5.1240     2.6880    -1.8600 H     1 <1>   0.0800 
 38 H        3.8200     2.2090    -0.8260 H     1 <1>   0.0800 
 39 H        5.8990     5.3030    -0.3930 H     1 <1>   0.0800 
 40 H        4.8000     6.3650    -1.2600 H     1 <1>   0.0800 
 41 H        5.7190     5.1660    -2.1130 H     1 <1>   0.0800 
 42 H       -7.6220     2.1770    -1.9150 H     1 <1>   0.1500 
@<TRIPOS>BOND
  1   1   2  2   
  2   2   3  1   
  3   2   4  1   
  4   3   5  1   
  5   4   6  1   
  6   4   7  1   
  7   4  21  1   
  8   5   8  1   
  9   5  22  1   
 10   5  23  1   
 11   6   9  1   
 12   7  10  1   
 13   7  24  1   
 14   7  25  1   
 15   8  11  1   
 16   8  26  1   
 17   8  27  1   
 18   9  12  ar  
 19   9  13  ar  
 20  10  12  1   
 21  11  14  1   
 22  11  15  1   
 23  11  28  1   
 24  12  16  ar  
 25  13  17  ar  
 26  13  29  1   
 27  14  18  1   
 28  14  19  1   
 29  14  30  1   
 30  15  31  1   
 31  15  32  1   
 32  15  33  1   
 33  16  20  ar  
 34  16  34  1   
 35  17  20  ar  
 36  17  35  1   
 37  18  36  1   
 38  18  37  1   
 39  18  38  1   
 40  19  39  1   
 41  19  40  1   
 42  19  41  1   
 43  20  42  1   
@<TRIPOS>SUBSTRUCTURE
  1 ****   3 GROUP 4 **** **** 0

# MOE 2024.06 (io_trps.svl 2023.06)
