@<TRIPOS>MOLECULE
NONAME
41 42 1 0 0 
SMALL
USER_CHARGES


@<TRIPOS>ATOM
  1 CL       0.5260    -1.2430    -1.7200 Cl    1 <1>  -0.1770 
  2 C       -1.0420    -1.5680    -1.0100 C.ar  1 <1>   0.1770 
  3 C       -2.0000    -0.5680    -1.0480 C.ar  1 <1>   0.1770 
  4 C       -1.3090    -2.8000    -0.4270 C.ar  1 <1>  -0.0090 
  5 CL      -1.6180     0.9740    -1.7930 Cl    1 <1>  -0.1770 
  6 C       -3.2620    -0.7680    -0.5010 C.ar  1 <1>   0.0830 
  7 S       -0.0680    -4.1120    -0.3630 S.o2  1 <1>   1.4470 
  8 C       -2.5770    -2.9910     0.1170 C.ar  1 <1>  -0.1500 
  9 O       -4.1630     0.2460    -0.5640 O.3   1 <1>  -0.3630 
 10 C       -3.5430    -1.9990     0.0850 C.ar  1 <1>  -0.1500 
 11 O        0.4790    -4.3820    -1.6720 O.2   1 <1>  -0.6500 
 12 O       -0.5750    -5.2100     0.4260 O.2   1 <1>  -0.6500 
 13 N        1.1420    -3.4970     0.6190 N.am  1 <1>  -0.9140 
 14 C       -5.4650     0.1270    -0.0340 C.3   1 <1>   0.0400 
 15 C        2.4800    -3.5840     0.0450 C.3   1 <1>   0.1960 
 16 C        3.5040    -3.0300     1.0370 C.3   1 <1>  -0.0220 
 17 C        4.9140    -3.0640     0.4620 C.2   1 <1>  -0.2760 
 18 C        5.5370    -1.9630     0.0290 C.2   1 <1>  -0.2880 
 19 C        5.5700    -4.4440     0.4320 C.3   1 <1>  -0.0220 
 20 C        6.9530    -1.9360    -0.5230 C.3   1 <1>  -0.0220 
 21 C        6.8210    -4.4610    -0.4590 C.3   1 <1>  -0.1600 
 22 C        7.7050    -3.2350    -0.2010 C.3   1 <1>  -0.1600 
 23 H       -2.8160    -3.9380     0.5770 H     1 <1>   0.1500 
 24 H       -4.5040    -2.2030     0.5210 H     1 <1>   0.1500 
 25 H        1.1090    -4.1120     1.4300 H     1 <1>   0.4200 
 26 H       -5.9800     1.0550    -0.2060 H     1 <1>   0.0800 
 27 H       -5.3980    -0.0620     1.0230 H     1 <1>   0.0800 
 28 H       -5.9780    -0.6720    -0.5390 H     1 <1>   0.0800 
 29 H        2.5290    -3.0070    -0.8650 H     1 <1>   0.0800 
 30 H        2.7090    -4.6090    -0.1940 H     1 <1>   0.0800 
 31 H        3.4770    -3.5900     1.9550 H     1 <1>   0.0800 
 32 H        3.2400    -2.0100     1.2580 H     1 <1>   0.0800 
 33 H        5.0770    -0.9890     0.0330 H     1 <1>   0.1500 
 34 H        4.8830    -5.1840     0.0640 H     1 <1>   0.0800 
 35 H        5.8420    -4.7160     1.4370 H     1 <1>   0.0800 
 36 H        7.4900    -1.1050    -0.1000 H     1 <1>   0.0800 
 37 H        6.9050    -1.7970    -1.5890 H     1 <1>   0.0800 
 38 H        6.5160    -4.4610    -1.4910 H     1 <1>   0.0800 
 39 H        7.3790    -5.3630    -0.2770 H     1 <1>   0.0800 
 40 H        7.9950    -3.2240     0.8360 H     1 <1>   0.0800 
 41 H        8.5990    -3.2910    -0.7960 H     1 <1>   0.0800 
@<TRIPOS>BOND
  1   1   2  1   
  2   2   3  ar  
  3   2   4  ar  
  4   3   5  1   
  5   3   6  ar  
  6   4   7  1   
  7   4   8  ar  
  8   6   9  1   
  9   6  10  ar  
 10   7  11  2   
 11   7  12  2   
 12   7  13  am  
 13   8  10  ar  
 14   8  23  1   
 15   9  14  1   
 16  10  24  1   
 17  13  15  1   
 18  13  25  1   
 19  14  26  1   
 20  14  27  1   
 21  14  28  1   
 22  15  16  1   
 23  15  29  1   
 24  15  30  1   
 25  16  17  1   
 26  16  31  1   
 27  16  32  1   
 28  17  18  2   
 29  17  19  1   
 30  18  20  1   
 31  18  33  1   
 32  19  21  1   
 33  19  34  1   
 34  19  35  1   
 35  20  22  1   
 36  20  36  1   
 37  20  37  1   
 38  21  22  1   
 39  21  38  1   
 40  21  39  1   
 41  22  40  1   
 42  22  41  1   
@<TRIPOS>SUBSTRUCTURE
  1 ****  13 GROUP 4 **** **** 0

# MOE 2024.06 (io_trps.svl 2023.06)
