@<TRIPOS>MOLECULE
NONAME
39 39 1 0 0 
SMALL
USER_CHARGES


@<TRIPOS>ATOM
  1 CL      -0.7100     0.3560     0.7970 Cl    1 <1>  -0.1770 
  2 C       -2.2420    -0.4660     0.6430 C.ar  1 <1>   0.1770 
  3 C       -3.2140    -0.2750     1.6070 C.ar  1 <1>  -0.1500 
  4 C       -2.4600    -1.2950    -0.4420 C.ar  1 <1>  -0.1500 
  5 C       -4.4280    -0.9280     1.4800 C.ar  1 <1>  -0.1500 
  6 C       -3.6750    -1.9480    -0.5680 C.ar  1 <1>  -0.1500 
  7 C       -4.6660    -1.7640     0.3970 C.ar  1 <1>   0.0830 
  8 O       -5.8820    -2.3620     0.3500 O.3   1 <1>  -0.3630 
  9 C       -6.2490    -3.1970    -0.7420 C.3   1 <1>   0.1810 
 10 C       -7.6770    -3.7010    -0.5940 C.2   1 <1>   0.5690 
 11 O       -8.0480    -4.6010    -1.3190 O.2   1 <1>  -0.5700 
 12 N       -8.4870    -3.1400     0.3430 N.am  1 <1>  -0.4300 
 13 N       -9.9400    -3.3250     0.4290 N.am  1 <1>  -0.4300 
 14 C      -10.8580    -2.5050    -0.1500 C.2   1 <1>   0.5690 
 15 O      -10.5470    -1.4370    -0.6350 O.2   1 <1>  -0.5700 
 16 C      -12.3250    -2.9450    -0.1770 C.3   1 <1>  -0.0190 
 17 C      -12.7870    -3.1590    -1.6400 C.3   1 <1>  -0.1600 
 18 C      -13.1840    -1.9190     0.5990 C.3   1 <1>  -0.1600 
 19 C      -13.7530    -4.3410    -1.8170 C.3   1 <1>  -0.2400 
 20 C      -14.6570    -2.3100     0.7700 C.3   1 <1>  -0.2400 
 21 H       -3.0200     0.3750     2.4410 H     1 <1>   0.1500 
 22 H       -1.6850    -1.4240    -1.1760 H     1 <1>   0.1500 
 23 H       -5.1960    -0.7910     2.2200 H     1 <1>   0.1500 
 24 H       -3.8250    -2.5880    -1.4160 H     1 <1>   0.1500 
 25 H       -5.5770    -4.0350    -0.7710 H     1 <1>   0.0800 
 26 H       -6.1710    -2.6280    -1.6500 H     1 <1>   0.0800 
 27 H       -8.0880    -2.3880     0.9200 H     1 <1>   0.3700 
 28 H      -10.2470    -4.2220     0.8160 H     1 <1>   0.3700 
 29 H      -12.3850    -3.8870     0.3380 H     1 <1>   0.0800 
 30 H      -11.9230    -3.3590    -2.2530 H     1 <1>   0.0800 
 31 H      -13.2320    -2.2550    -2.0180 H     1 <1>   0.0800 
 32 H      -13.1310    -0.9640     0.1040 H     1 <1>   0.0800 
 33 H      -12.7560    -1.7900     1.5780 H     1 <1>   0.0800 
 34 H      -13.2840    -5.2570    -1.5040 H     1 <1>   0.0800 
 35 H      -14.0180    -4.4370    -2.8550 H     1 <1>   0.0800 
 36 H      -14.6550    -4.2050    -1.2520 H     1 <1>   0.0800 
 37 H      -15.1710    -2.2700    -0.1740 H     1 <1>   0.0800 
 38 H      -15.1410    -1.6180     1.4370 H     1 <1>   0.0800 
 39 H      -14.7450    -3.2990     1.1820 H     1 <1>   0.0800 
@<TRIPOS>BOND
  1   1   2  1   
  2   2   3  ar  
  3   2   4  ar  
  4   3   5  ar  
  5   3  21  1   
  6   4   6  ar  
  7   4  22  1   
  8   5   7  ar  
  9   5  23  1   
 10   6   7  ar  
 11   6  24  1   
 12   7   8  1   
 13   8   9  1   
 14   9  10  1   
 15   9  25  1   
 16   9  26  1   
 17  10  11  2   
 18  10  12  am  
 19  12  13  1   
 20  12  27  1   
 21  13  14  am  
 22  13  28  1   
 23  14  15  2   
 24  14  16  1   
 25  16  17  1   
 26  16  18  1   
 27  16  29  1   
 28  17  19  1   
 29  17  30  1   
 30  17  31  1   
 31  18  20  1   
 32  18  32  1   
 33  18  33  1   
 34  19  34  1   
 35  19  35  1   
 36  19  36  1   
 37  20  37  1   
 38  20  38  1   
 39  20  39  1   
@<TRIPOS>SUBSTRUCTURE
  1 ****  12 GROUP 4 **** **** 0

# MOE 2024.06 (io_trps.svl 2023.06)
