@<TRIPOS>MOLECULE
NONAME
45 45 1 0 0 
SMALL
USER_CHARGES


@<TRIPOS>ATOM
  1 O       -0.0930     1.1970     1.7950 O.2   1 <1>  -0.5700 
  2 C       -0.1900     1.8220     0.7570 C.2   1 <1>   0.5440 
  3 N        0.8670     1.8370    -0.1090 N.am  1 <1>  -0.7300 
  4 C       -1.4130     2.5310     0.4290 C.ar  1 <1>   0.0860 
  5 C        2.1640     1.1440     0.0890 C.3   1 <1>   0.2200 
  6 C       -2.6530     2.0640     0.8580 C.ar  1 <1>  -0.1500 
  7 C       -1.4050     3.7020    -0.3300 C.ar  1 <1>  -0.1500 
  8 C        3.2970     2.2090     0.0660 C.3   1 <1>  -0.0800 
  9 C        2.3480     0.0020    -0.9610 C.3   1 <1>  -0.0800 
 10 C       -3.8380     2.7040     0.5420 C.ar  1 <1>   0.0830 
 11 C       -2.5740     4.3660    -0.6490 C.ar  1 <1>  -0.1500 
 12 C        4.6950     1.6120     0.3030 C.3   1 <1>  -0.2400 
 13 C        3.0700     3.3090     1.1210 C.3   1 <1>  -0.2400 
 14 C        1.0600    -0.4390    -1.6880 C.3   1 <1>  -0.2400 
 15 C        2.9490    -1.2500    -0.2960 C.3   1 <1>  -0.2400 
 16 O       -4.9610     2.1010     1.0250 O.3   1 <1>  -0.3630 
 17 C       -3.8080     3.8850    -0.2180 C.ar  1 <1>   0.0830 
 18 C       -6.1840     2.1550     0.3250 C.3   1 <1>   0.0400 
 19 O       -4.9630     4.5470    -0.5030 O.3   1 <1>  -0.3630 
 20 C       -4.9840     5.8160    -1.1180 C.3   1 <1>   0.0400 
 21 H        0.7420     2.2380    -1.0360 H     1 <1>   0.3700 
 22 H        2.1540     0.6980     1.0700 H     1 <1>   0.0800 
 23 H       -2.6920     1.1690     1.4540 H     1 <1>   0.1500 
 24 H       -0.4660     4.1050    -0.6660 H     1 <1>   0.1500 
 25 H        3.3020     2.6720    -0.9050 H     1 <1>   0.0800 
 26 H        3.0370     0.3380    -1.7160 H     1 <1>   0.0800 
 27 H       -2.5000     5.2630    -1.2340 H     1 <1>   0.1500 
 28 H        4.7250     1.0850     1.2410 H     1 <1>   0.0800 
 29 H        5.4350     2.3920     0.3280 H     1 <1>   0.0800 
 30 H        4.9670     0.9360    -0.4870 H     1 <1>   0.0800 
 31 H        2.9970     2.8750     2.1030 H     1 <1>   0.0800 
 32 H        2.1630     3.8530     0.9250 H     1 <1>   0.0800 
 33 H        3.8820     4.0150     1.1160 H     1 <1>   0.0800 
 34 H        0.3150    -0.7500    -0.9760 H     1 <1>   0.0800 
 35 H        1.2640    -1.2630    -2.3480 H     1 <1>   0.0800 
 36 H        0.6610     0.3630    -2.2820 H     1 <1>   0.0800 
 37 H        2.2630    -1.6500     0.4310 H     1 <1>   0.0800 
 38 H        3.8730    -1.0260     0.2030 H     1 <1>   0.0800 
 39 H        3.1450    -2.0090    -1.0330 H     1 <1>   0.0800 
 40 H       -6.8030     1.3480     0.6700 H     1 <1>   0.0800 
 41 H       -5.9920     2.0500    -0.7280 H     1 <1>   0.0800 
 42 H       -6.6620     3.0950     0.5350 H     1 <1>   0.0800 
 43 H       -6.0060     6.1450    -1.1700 H     1 <1>   0.0800 
 44 H       -4.5780     5.7310    -2.1110 H     1 <1>   0.0800 
 45 H       -4.4100     6.5030    -0.5220 H     1 <1>   0.0800 
@<TRIPOS>BOND
  1   1   2  2   
  2   2   3  am  
  3   2   4  1   
  4   3   5  1   
  5   3  21  1   
  6   4   6  ar  
  7   4   7  ar  
  8   5   8  1   
  9   5   9  1   
 10   5  22  1   
 11   6  10  ar  
 12   6  23  1   
 13   7  11  ar  
 14   7  24  1   
 15   8  12  1   
 16   8  13  1   
 17   8  25  1   
 18   9  14  1   
 19   9  15  1   
 20   9  26  1   
 21  10  16  1   
 22  10  17  ar  
 23  11  17  ar  
 24  11  27  1   
 25  12  28  1   
 26  12  29  1   
 27  12  30  1   
 28  13  31  1   
 29  13  32  1   
 30  13  33  1   
 31  14  34  1   
 32  14  35  1   
 33  14  36  1   
 34  15  37  1   
 35  15  38  1   
 36  15  39  1   
 37  16  18  1   
 38  17  19  1   
 39  18  40  1   
 40  18  41  1   
 41  18  42  1   
 42  19  20  1   
 43  20  43  1   
 44  20  44  1   
 45  20  45  1   
@<TRIPOS>SUBSTRUCTURE
  1 ****   4 GROUP 4 **** **** 0

# MOE 2024.06 (io_trps.svl 2023.06)
