@<TRIPOS>MOLECULE
NONAME
44 45 1 0 0 
SMALL
USER_CHARGES


@<TRIPOS>ATOM
  1 O       -0.5260    -0.3700     0.2150 O.3   1 <1>  -0.3630 
  2 C       -1.6810    -1.0030    -0.1020 C.ar  1 <1>   0.0830 
  3 C        0.2430    -0.7450     1.3340 C.3   1 <1>   0.1200 
  4 C       -2.2840    -0.6350    -1.2920 C.ar  1 <1>  -0.1500 
  5 C       -2.2740    -1.9830     0.6880 C.ar  1 <1>  -0.1500 
  6 C        1.4970     0.1240     1.3570 C.3   1 <1>  -0.2400 
  7 C       -3.4670    -1.2260    -1.6950 C.ar  1 <1>  -0.1500 
  8 C       -3.4600    -2.5730     0.2880 C.ar  1 <1>  -0.1500 
  9 C       -4.0700    -2.1910    -0.9000 C.ar  1 <1>  -0.1430 
 10 C       -5.3840    -2.8160    -1.3230 C.3   1 <1>   0.4860 
 11 N       -6.4640    -2.2230    -0.4710 N.4   1 <1>  -0.9590 
 12 C       -7.7230    -3.0510    -0.5690 C.3   1 <1>   0.3430 
 13 C       -6.6830    -0.7970    -0.8530 C.3   1 <1>   0.3430 
 14 C       -8.8420    -2.7320     0.4680 C.3   1 <1>   0.3430 
 15 C       -7.0800     0.0630     0.3480 C.3   1 <1>  -0.1600 
 16 N       -9.1790    -1.2720     0.6830 N.4   1 <1>  -0.9590 
 17 C       -8.0760    -0.5220     1.3520 C.3   1 <1>   0.3430 
 18 C      -10.4160    -1.1730     1.5330 C.3   1 <1>   0.2630 
 19 H        0.5040    -1.7850     1.2360 H     1 <1>   0.0800 
 20 H       -0.3440    -0.5870     2.2220 H     1 <1>   0.0800 
 21 H       -1.8090     0.1160    -1.9010 H     1 <1>   0.1500 
 22 H       -1.8190    -2.2950     1.6110 H     1 <1>   0.1500 
 23 H        2.0680    -0.0290     0.4590 H     1 <1>   0.0800 
 24 H        2.1070    -0.1390     2.2010 H     1 <1>   0.0800 
 25 H        1.2260     1.1610     1.4370 H     1 <1>   0.0800 
 26 H       -3.8970    -0.9210    -2.6350 H     1 <1>   0.1500 
 27 H       -3.8860    -3.3380     0.9150 H     1 <1>   0.1500 
 28 H       -5.3250    -3.8820    -1.1740 H     1 <1>   0.0800 
 29 H       -5.5690    -2.6250    -2.3680 H     1 <1>   0.0800 
 30 H       -6.0570    -2.2460     0.4750 H     1 <1>   0.4500 
 31 H       -7.4670    -4.0930    -0.4590 H     1 <1>   0.0800 
 32 H       -8.1380    -2.9390    -1.5570 H     1 <1>   0.0800 
 33 H       -7.4440    -0.7390    -1.6140 H     1 <1>   0.0800 
 34 H       -5.7800    -0.3790    -1.2710 H     1 <1>   0.0800 
 35 H       -8.5560    -3.1640     1.4140 H     1 <1>   0.0800 
 36 H       -9.7330    -3.2520     0.1530 H     1 <1>   0.0800 
 37 H       -7.4780     0.9900    -0.0260 H     1 <1>   0.0800 
 38 H       -6.1850     0.3270     0.8850 H     1 <1>   0.0800 
 39 H       -9.4120    -0.8110    -0.2110 H     1 <1>   0.4500 
 40 H       -8.4850     0.2930     1.9300 H     1 <1>   0.0800 
 41 H       -7.5620    -1.1740     2.0400 H     1 <1>   0.0800 
 42 H      -10.2500    -1.6210     2.5000 H     1 <1>   0.0800 
 43 H      -11.2430    -1.6780     1.0590 H     1 <1>   0.0800 
 44 H      -10.6910    -0.1400     1.6790 H     1 <1>   0.0800 
@<TRIPOS>BOND
  1   1   2  1   
  2   1   3  1   
  3   2   4  ar  
  4   2   5  ar  
  5   3   6  1   
  6   3  19  1   
  7   3  20  1   
  8   4   7  ar  
  9   4  21  1   
 10   5   8  ar  
 11   5  22  1   
 12   6  23  1   
 13   6  24  1   
 14   6  25  1   
 15   7   9  ar  
 16   7  26  1   
 17   8   9  ar  
 18   8  27  1   
 19   9  10  1   
 20  10  11  1   
 21  10  28  1   
 22  10  29  1   
 23  11  12  1   
 24  11  13  1   
 25  11  30  1   
 26  12  14  1   
 27  12  31  1   
 28  12  32  1   
 29  13  15  1   
 30  13  33  1   
 31  13  34  1   
 32  14  16  1   
 33  14  35  1   
 34  14  36  1   
 35  15  17  1   
 36  15  37  1   
 37  15  38  1   
 38  16  17  1   
 39  16  18  1   
 40  16  39  1   
 41  17  40  1   
 42  17  41  1   
 43  18  42  1   
 44  18  43  1   
 45  18  44  1   
@<TRIPOS>SUBSTRUCTURE
  1 ****   9 GROUP 4 **** **** 0

# MOE 2024.06 (io_trps.svl 2023.06)
