@<TRIPOS>MOLECULE
NONAME
50 52 1 0 0 
SMALL
USER_CHARGES


@<TRIPOS>ATOM
  1 S       -0.2280    -0.6360     1.2270 S.o2  1 <1>   1.4470 
  2 O       -0.8490    -1.8940     1.5830 O.2   1 <1>  -0.6500 
  3 O       -0.1260     0.3940     2.2390 O.2   1 <1>  -0.6500 
  4 N       -1.1550     0.0250    -0.0270 N.am  1 <1>  -0.8490 
  5 C        1.3960    -0.9200     0.4440 C.ar  1 <1>  -0.0090 
  6 C       -0.7710     1.3680    -0.4250 C.3   1 <1>   0.1960 
  7 C       -2.5660     0.1060     0.3010 C.3   1 <1>   0.1960 
  8 C        1.6050    -1.8610    -0.5680 C.ar  1 <1>  -0.1440 
  9 C        2.4840    -0.1560     0.8500 C.ar  1 <1>  -0.1500 
 10 C       -1.9530     1.8640    -1.2490 C.3   1 <1>  -0.1600 
 11 C       -3.1480     1.0570    -0.7400 C.3   1 <1>  -0.1600 
 12 C        2.8650    -2.0130    -1.1250 C.ar  1 <1>  -0.1500 
 13 C        0.4790    -2.7470    -1.0880 C.3   1 <1>  -0.0970 
 14 C        3.7570    -0.2800     0.2980 C.ar  1 <1>   0.0860 
 15 C        3.9240    -1.2380    -0.6980 C.ar  1 <1>  -0.1500 
 16 C        4.8530     0.5620     0.7490 C.2   1 <1>   0.5440 
 17 O        4.8680     1.0040     1.8800 O.2   1 <1>  -0.5700 
 18 N        5.8730     0.8880    -0.1000 N.am  1 <1>  -0.7300 
 19 C        7.0310     1.7330     0.2370 C.3   1 <1>   0.2200 
 20 C        6.9260     3.0480    -0.5420 C.3   1 <1>  -0.1600 
 21 C        8.3150     0.9770    -0.1170 C.3   1 <1>  -0.1600 
 22 C        8.1640     3.9280    -0.3140 C.3   1 <1>  -0.1600 
 23 C        9.5560     1.8530     0.1130 C.3   1 <1>  -0.1600 
 24 C        9.4540     3.1730    -0.6640 C.3   1 <1>  -0.1600 
 25 H        0.1430     1.3610    -0.9950 H     1 <1>   0.0800 
 26 H       -0.6510     1.9980     0.4430 H     1 <1>   0.0800 
 27 H       -2.6890     0.5240     1.2880 H     1 <1>   0.0800 
 28 H       -3.0270    -0.8670     0.2640 H     1 <1>   0.0800 
 29 H        2.3470     0.5740     1.6320 H     1 <1>   0.1500 
 30 H       -1.7780     1.6540    -2.2890 H     1 <1>   0.0800 
 31 H       -2.0930     2.9230    -1.1210 H     1 <1>   0.0800 
 32 H       -3.9020     1.6840    -0.2990 H     1 <1>   0.0800 
 33 H       -3.5870     0.4910    -1.5440 H     1 <1>   0.0800 
 34 H        3.0300    -2.7450    -1.8980 H     1 <1>   0.1500 
 35 H       -0.3510    -2.1500    -1.4210 H     1 <1>   0.0800 
 36 H        0.1400    -3.4110    -0.3110 H     1 <1>   0.0800 
 37 H        0.8060    -3.3470    -1.9170 H     1 <1>   0.0800 
 38 H        4.8930    -1.3870    -1.1390 H     1 <1>   0.1500 
 39 H        5.8170     0.6140    -1.0790 H     1 <1>   0.3700 
 40 H        7.0320     1.9500     1.2930 H     1 <1>   0.0800 
 41 H        6.0490     3.5800    -0.2200 H     1 <1>   0.0800 
 42 H        6.8350     2.8400    -1.5940 H     1 <1>   0.0800 
 43 H        8.2870     0.6770    -1.1500 H     1 <1>   0.0800 
 44 H        8.3870     0.0950     0.4950 H     1 <1>   0.0800 
 45 H        8.1980     4.2310     0.7190 H     1 <1>   0.0800 
 46 H        8.0910     4.8180    -0.9150 H     1 <1>   0.0800 
 47 H       10.4380     1.3190    -0.1960 H     1 <1>   0.0800 
 48 H        9.6510     2.0660     1.1640 H     1 <1>   0.0800 
 49 H       10.3060     3.7910    -0.4350 H     1 <1>   0.0800 
 50 H        9.4720     2.9680    -1.7200 H     1 <1>   0.0800 
@<TRIPOS>BOND
  1   1   2  2   
  2   1   3  2   
  3   1   4  am  
  4   1   5  1   
  5   4   6  1   
  6   4   7  1   
  7   5   8  ar  
  8   5   9  ar  
  9   6  10  1   
 10   6  25  1   
 11   6  26  1   
 12   7  11  1   
 13   7  27  1   
 14   7  28  1   
 15   8  12  ar  
 16   8  13  1   
 17   9  14  ar  
 18   9  29  1   
 19  10  11  1   
 20  10  30  1   
 21  10  31  1   
 22  11  32  1   
 23  11  33  1   
 24  12  15  ar  
 25  12  34  1   
 26  13  35  1   
 27  13  36  1   
 28  13  37  1   
 29  14  15  ar  
 30  14  16  1   
 31  15  38  1   
 32  16  17  2   
 33  16  18  am  
 34  18  19  1   
 35  18  39  1   
 36  19  20  1   
 37  19  21  1   
 38  19  40  1   
 39  20  22  1   
 40  20  41  1   
 41  20  42  1   
 42  21  23  1   
 43  21  43  1   
 44  21  44  1   
 45  22  24  1   
 46  22  45  1   
 47  22  46  1   
 48  23  24  1   
 49  23  47  1   
 50  23  48  1   
 51  24  49  1   
 52  24  50  1   
@<TRIPOS>SUBSTRUCTURE
  1 ****   9 GROUP 4 **** **** 0

# MOE 2024.06 (io_trps.svl 2023.06)
