@<TRIPOS>MOLECULE
NONAME
31 31 1 0 0 
SMALL
USER_CHARGES


@<TRIPOS>ATOM
  1 CL      -0.4740    -0.0150    -1.9800 Cl    1 <1>  -0.1770 
  2 C       -1.7540    -0.8480    -1.1280 C.ar  1 <1>   0.1770 
  3 C       -1.5000    -2.0290    -0.4500 C.ar  1 <1>   0.1770 
  4 C       -3.0250    -0.3060    -1.1450 C.ar  1 <1>  -0.1500 
  5 CL       0.1050    -2.7240    -0.4230 Cl    1 <1>  -0.1770 
  6 C       -2.5230    -2.6780     0.2160 C.ar  1 <1>  -0.1500 
  7 C       -4.0660    -0.9430    -0.4770 C.ar  1 <1>   0.1170 
  8 C       -3.7970    -2.1350     0.1980 C.ar  1 <1>  -0.1500 
  9 N       -5.3450    -0.3690    -0.5230 N.am  1 <1>  -0.5470 
 10 C       -6.4000    -0.4780     0.3430 C.2   1 <1>   0.5690 
 11 O       -6.3500    -1.1150     1.3680 O.2   1 <1>  -0.5700 
 12 C       -7.6940     0.2620    -0.0130 C.3   1 <1>  -0.0190 
 13 C       -7.9940     1.3520     1.0460 C.3   1 <1>  -0.1600 
 14 C       -8.8390    -0.7640    -0.1830 C.3   1 <1>  -0.1600 
 15 C       -8.5930     2.6370     0.4560 C.3   1 <1>  -0.2400 
 16 C      -10.1640    -0.1730    -0.6800 C.3   1 <1>  -0.2400 
 17 H       -3.1950     0.6120    -1.6740 H     1 <1>   0.1500 
 18 H       -2.3240    -3.5960     0.7410 H     1 <1>   0.1500 
 19 H       -4.5890    -2.6490     0.7140 H     1 <1>   0.1500 
 20 H       -5.5000     0.2690    -1.3000 H     1 <1>   0.3700 
 21 H       -7.5390     0.7450    -0.9610 H     1 <1>   0.0800 
 22 H       -7.0760     1.6240     1.5410 H     1 <1>   0.0800 
 23 H       -8.6470     0.9530     1.8040 H     1 <1>   0.0800 
 24 H       -9.0100    -1.2660     0.7540 H     1 <1>   0.0800 
 25 H       -8.5200    -1.5130    -0.8880 H     1 <1>   0.0800 
 26 H       -7.9150     3.0780    -0.2530 H     1 <1>   0.0800 
 27 H       -8.7660     3.3500     1.2430 H     1 <1>   0.0800 
 28 H       -9.5290     2.4500    -0.0350 H     1 <1>   0.0800 
 29 H      -10.6100     0.4470     0.0770 H     1 <1>   0.0800 
 30 H      -10.8540    -0.9680    -0.9040 H     1 <1>   0.0800 
 31 H      -10.0130     0.4080    -1.5730 H     1 <1>   0.0800 
@<TRIPOS>BOND
  1   1   2  1   
  2   2   3  ar  
  3   2   4  ar  
  4   3   5  1   
  5   3   6  ar  
  6   4   7  ar  
  7   4  17  1   
  8   6   8  ar  
  9   6  18  1   
 10   7   8  ar  
 11   7   9  1   
 12   8  19  1   
 13   9  10  am  
 14   9  20  1   
 15  10  11  2   
 16  10  12  1   
 17  12  13  1   
 18  12  14  1   
 19  12  21  1   
 20  13  15  1   
 21  13  22  1   
 22  13  23  1   
 23  14  16  1   
 24  14  24  1   
 25  14  25  1   
 26  15  26  1   
 27  15  27  1   
 28  15  28  1   
 29  16  29  1   
 30  16  30  1   
 31  16  31  1   
@<TRIPOS>SUBSTRUCTURE
  1 ****   9 GROUP 4 **** **** 0

# MOE 2024.06 (io_trps.svl 2023.06)
