@<TRIPOS>MOLECULE
NONAME
44 45 1 0 0 
SMALL
USER_CHARGES


@<TRIPOS>ATOM
  1 O        1.1040    -0.4940     1.5070 O.2   1 <1>  -0.5700 
  2 C        1.2240    -1.2590     0.6010 C.2   1 <1>   0.4480 
  3 C        2.2630    -1.0530    -0.4760 C.3   1 <1>  -0.0380 
  4 C        0.3440    -2.4860     0.4670 C.3   1 <1>  -0.0990 
  5 C        3.0680    -2.3330    -0.6350 C.2   1 <1>   0.3280 
  6 C        1.1960    -3.7470     0.2540 C.3   1 <1>   0.0640 
  7 N        4.3270    -2.4470    -0.5650 N.2   1 <1>  -0.5120 
  8 C        2.2040    -3.5560    -0.8910 C.3   1 <1>  -0.0990 
  9 C        0.3150    -4.9700     0.0160 C.ar  1 <1>  -0.1440 
 10 N        5.1820    -1.3760    -0.3020 N.am  1 <1>  -0.3680 
 11 C        0.3430    -6.0230     0.9200 C.ar  1 <1>  -0.1500 
 12 C       -0.5220    -5.0570    -1.0890 C.ar  1 <1>  -0.1500 
 13 C        6.5540    -1.3700    -0.2460 C.2   1 <1>   0.7800 
 14 C       -0.4490    -7.1410     0.7250 C.ar  1 <1>  -0.1500 
 15 C       -1.3140    -6.1750    -1.2860 C.ar  1 <1>  -0.1500 
 16 O        7.2470    -2.3450    -0.4550 O.2   1 <1>  -0.5700 
 17 O        7.0850    -0.1850     0.0600 O.3   1 <1>  -0.4300 
 18 C       -1.2790    -7.2180    -0.3790 C.ar  1 <1>  -0.1500 
 19 C        8.4560     0.1250     0.1930 C.3   1 <1>   0.2800 
 20 C        8.4960     1.6110     0.5530 C.3   1 <1>  -0.2400 
 21 C        9.0760    -0.6870     1.3360 C.3   1 <1>  -0.2400 
 22 C        9.1820    -0.0910    -1.1400 C.3   1 <1>  -0.2400 
 23 H        2.8790    -0.2170    -0.2080 H     1 <1>   0.0800 
 24 H        1.7710    -0.8220    -1.4020 H     1 <1>   0.0800 
 25 H       -0.3250    -2.3390    -0.3600 H     1 <1>   0.0800 
 26 H       -0.2490    -2.5990     1.3570 H     1 <1>   0.0800 
 27 H        1.7660    -3.9060     1.1550 H     1 <1>   0.0800 
 28 H        2.8280    -4.4300    -0.9630 H     1 <1>   0.0800 
 29 H        1.6960    -3.4370    -1.8300 H     1 <1>   0.0800 
 30 H        4.7840    -0.4640    -0.0810 H     1 <1>   0.3700 
 31 H        0.9830    -5.9830     1.7850 H     1 <1>   0.1500 
 32 H       -0.5660    -4.2600    -1.8090 H     1 <1>   0.1500 
 33 H       -0.4190    -7.9510     1.4320 H     1 <1>   0.1500 
 34 H       -1.9590    -6.2340    -2.1450 H     1 <1>   0.1500 
 35 H       -1.8950    -8.0870    -0.5310 H     1 <1>   0.1500 
 36 H        7.9710     1.7870     1.4740 H     1 <1>   0.0800 
 37 H        8.0450     2.1970    -0.2270 H     1 <1>   0.0800 
 38 H        9.5130     1.9380     0.6760 H     1 <1>   0.0800 
 39 H        8.5020    -0.5660     2.2370 H     1 <1>   0.0800 
 40 H       10.0790    -0.3510     1.5240 H     1 <1>   0.0800 
 41 H        9.1270    -1.7310     1.0880 H     1 <1>   0.0800 
 42 H        8.6810     0.4360    -1.9300 H     1 <1>   0.0800 
 43 H        9.2340    -1.1350    -1.3890 H     1 <1>   0.0800 
 44 H       10.1900     0.2750    -1.0720 H     1 <1>   0.0800 
@<TRIPOS>BOND
  1   1   2  2   
  2   2   3  1   
  3   2   4  1   
  4   3   5  1   
  5   3  23  1   
  6   3  24  1   
  7   4   6  1   
  8   4  25  1   
  9   4  26  1   
 10   5   7  2   
 11   5   8  1   
 12   6   8  1   
 13   6   9  1   
 14   6  27  1   
 15   7  10  1   
 16   8  28  1   
 17   8  29  1   
 18   9  11  ar  
 19   9  12  ar  
 20  10  13  am  
 21  10  30  1   
 22  11  14  ar  
 23  11  31  1   
 24  12  15  ar  
 25  12  32  1   
 26  13  16  2   
 27  13  17  1   
 28  14  18  ar  
 29  14  33  1   
 30  15  18  ar  
 31  15  34  1   
 32  17  19  1   
 33  18  35  1   
 34  19  20  1   
 35  19  21  1   
 36  19  22  1   
 37  20  36  1   
 38  20  37  1   
 39  20  38  1   
 40  21  39  1   
 41  21  40  1   
 42  21  41  1   
 43  22  42  1   
 44  22  43  1   
 45  22  44  1   
@<TRIPOS>SUBSTRUCTURE
  1 ****   5 GROUP 4 **** **** 0

# MOE 2024.06 (io_trps.svl 2023.06)
