@<TRIPOS>MOLECULE
NONAME
36 37 1 0 0 
SMALL
USER_CHARGES


@<TRIPOS>ATOM
  1 BR      -0.1880    -0.1370     0.7720 Br    1 <1>  -0.1110 
  2 C       -1.9670    -0.8100     0.4700 C.ar  1 <1>   0.1110 
  3 C       -2.7440    -1.1500     1.5610 C.ar  1 <1>  -0.1500 
  4 C       -2.4200    -0.9360    -0.8300 C.ar  1 <1>  -0.1500 
  5 C       -4.0220    -1.6330     1.3350 C.ar  1 <1>  -0.1500 
  6 C       -3.6990    -1.4200    -1.0460 C.ar  1 <1>  -0.1500 
  7 C       -4.5060    -1.7680     0.0400 C.ar  1 <1>   0.0830 
  8 O       -5.7710    -2.2420    -0.0840 O.3   1 <1>  -0.3630 
  9 C       -6.3560    -2.4500    -1.3630 C.3   1 <1>   0.1810 
 10 C       -7.7790    -2.9980    -1.2500 C.2   1 <1>   0.5690 
 11 O       -8.0650    -3.9240    -1.9710 O.2   1 <1>  -0.5700 
 12 N       -8.7220    -2.4640    -0.3960 N.am  1 <1>  -0.6600 
 13 C       -8.5260    -1.2250     0.4230 C.3   1 <1>   0.1400 
 14 C      -10.0150    -3.1820    -0.1550 C.3   1 <1>   0.1400 
 15 C       -9.7630    -0.3050     0.3700 C.3   1 <1>   0.3430 
 16 C      -11.2150    -2.2220    -0.2300 C.3   1 <1>   0.3430 
 17 N      -11.0420    -1.0360     0.6820 N.4   1 <1>  -0.9590 
 18 C      -12.2220    -0.1210     0.6010 C.3   1 <1>   0.2630 
 19 H       -2.3560    -1.0410     2.5580 H     1 <1>   0.1500 
 20 H       -1.7810    -0.6630    -1.6510 H     1 <1>   0.1500 
 21 H       -4.6470    -1.9110     2.1640 H     1 <1>   0.1500 
 22 H       -4.0410    -1.5180    -2.0590 H     1 <1>   0.1500 
 23 H       -5.7470    -3.1580    -1.8960 H     1 <1>   0.0800 
 24 H       -6.3720    -1.5150    -1.8900 H     1 <1>   0.0800 
 25 H       -7.6790    -0.6660     0.0650 H     1 <1>   0.0800 
 26 H       -8.3220    -1.5060     1.4420 H     1 <1>   0.0800 
 27 H       -9.9830    -3.6480     0.8140 H     1 <1>   0.0800 
 28 H      -10.1570    -3.9640    -0.8810 H     1 <1>   0.0800 
 29 H       -9.8260     0.1200    -0.6190 H     1 <1>   0.0800 
 30 H       -9.6260     0.5060     1.0660 H     1 <1>   0.0800 
 31 H      -12.1110    -2.7610     0.0320 H     1 <1>   0.0800 
 32 H      -11.3180    -1.8870    -1.2490 H     1 <1>   0.0800 
 33 H      -10.9680    -1.3970     1.6450 H     1 <1>   0.4500 
 34 H      -12.3260     0.2690    -0.3990 H     1 <1>   0.0800 
 35 H      -12.1030     0.7060     1.2830 H     1 <1>   0.0800 
 36 H      -13.1250    -0.6500     0.8600 H     1 <1>   0.0800 
@<TRIPOS>BOND
  1   1   2  1   
  2   2   3  ar  
  3   2   4  ar  
  4   3   5  ar  
  5   3  19  1   
  6   4   6  ar  
  7   4  20  1   
  8   5   7  ar  
  9   5  21  1   
 10   6   7  ar  
 11   6  22  1   
 12   7   8  1   
 13   8   9  1   
 14   9  10  1   
 15   9  23  1   
 16   9  24  1   
 17  10  11  2   
 18  10  12  am  
 19  12  13  1   
 20  12  14  1   
 21  13  15  1   
 22  13  25  1   
 23  13  26  1   
 24  14  16  1   
 25  14  27  1   
 26  14  28  1   
 27  15  17  1   
 28  15  29  1   
 29  15  30  1   
 30  16  17  1   
 31  16  31  1   
 32  16  32  1   
 33  17  18  1   
 34  17  33  1   
 35  18  34  1   
 36  18  35  1   
 37  18  36  1   
@<TRIPOS>SUBSTRUCTURE
  1 ****   8 GROUP 4 **** **** 0

# MOE 2024.06 (io_trps.svl 2023.06)
