@<TRIPOS>MOLECULE
NONAME
40 43 1 0 0 
SMALL
USER_CHARGES


@<TRIPOS>ATOM
  1 F       -1.6640    -0.2980    -1.5200 F     1 <1>  -0.1900 
  2 C       -2.2370     0.4530    -0.6100 C.ar  1 <1>   0.1900 
  3 C       -3.1650    -0.1290     0.2530 C.ar  1 <1>   0.1170 
  4 C       -1.8850     1.7880    -0.5600 C.ar  1 <1>  -0.1500 
  5 N       -3.4620    -1.5030     0.1260 N.am  1 <1>  -0.5470 
  6 C       -3.7460     0.7100     1.2010 C.ar  1 <1>  -0.1500 
  7 C       -2.4800     2.5960     0.3940 C.ar  1 <1>  -0.1500 
  8 C       -4.3030    -2.3490     0.8010 C.2   1 <1>   0.5690 
  9 C       -3.4080     2.0530     1.2700 C.ar  1 <1>  -0.1500 
 10 O       -4.9970    -1.9810     1.7180 O.2   1 <1>  -0.5700 
 11 C       -4.3410    -3.8250     0.3450 C.3   1 <1>   0.0610 
 12 C       -5.3330    -4.6650     1.1950 C.3   1 <1>  -0.1600 
 13 C       -4.7870    -3.9230    -1.1380 C.3   1 <1>  -0.1600 
 14 C       -2.9370    -4.4710     0.4800 C.3   1 <1>  -0.1600 
 15 C       -5.3630    -6.1330     0.7310 C.3   1 <1>  -0.0800 
 16 C       -4.8100    -5.3880    -1.6130 C.3   1 <1>  -0.0800 
 17 C       -2.9550    -5.9370     0.0090 C.3   1 <1>  -0.0800 
 18 C       -5.7970    -6.1870    -0.7440 C.3   1 <1>  -0.1600 
 19 C       -3.9530    -6.7340     0.8690 C.3   1 <1>  -0.1600 
 20 C       -3.4000    -5.9910    -1.4650 C.3   1 <1>  -0.1600 
 21 H       -1.1630     2.1840    -1.2500 H     1 <1>   0.1500 
 22 H       -2.9380    -1.9530    -0.6240 H     1 <1>   0.3700 
 23 H       -4.4690     0.3260     1.8970 H     1 <1>   0.1500 
 24 H       -2.2250     3.6400     0.4560 H     1 <1>   0.1500 
 25 H       -3.8720     2.6800     2.0130 H     1 <1>   0.1500 
 26 H       -6.3210    -4.2450     1.1180 H     1 <1>   0.0800 
 27 H       -5.0480    -4.6220     2.2320 H     1 <1>   0.0800 
 28 H       -4.1200    -3.3630    -1.7690 H     1 <1>   0.0800 
 29 H       -5.7680    -3.4940    -1.2460 H     1 <1>   0.0800 
 30 H       -2.6200    -4.4270     1.5080 H     1 <1>   0.0800 
 31 H       -2.2150    -3.9280    -0.1040 H     1 <1>   0.0800 
 32 H       -6.0570    -6.6910     1.3360 H     1 <1>   0.0800 
 33 H       -5.1170    -5.4320    -2.6440 H     1 <1>   0.0800 
 34 H       -1.9710    -6.3640     0.1070 H     1 <1>   0.0800 
 35 H       -6.7880    -5.7790    -0.8470 H     1 <1>   0.0800 
 36 H       -5.8300    -7.2100    -1.0770 H     1 <1>   0.0800 
 37 H       -3.9640    -7.7630     0.5560 H     1 <1>   0.0800 
 38 H       -3.6460    -6.7100     1.9000 H     1 <1>   0.0800 
 39 H       -3.4050    -7.0120    -1.8050 H     1 <1>   0.0800 
 40 H       -2.7030    -5.4470    -2.0780 H     1 <1>   0.0800 
@<TRIPOS>BOND
  1   1   2  1   
  2   2   3  ar  
  3   2   4  ar  
  4   3   5  1   
  5   3   6  ar  
  6   4   7  ar  
  7   4  21  1   
  8   5   8  am  
  9   5  22  1   
 10   6   9  ar  
 11   6  23  1   
 12   7   9  ar  
 13   7  24  1   
 14   8  10  2   
 15   8  11  1   
 16   9  25  1   
 17  11  12  1   
 18  11  13  1   
 19  11  14  1   
 20  12  15  1   
 21  12  26  1   
 22  12  27  1   
 23  13  16  1   
 24  13  28  1   
 25  13  29  1   
 26  14  17  1   
 27  14  30  1   
 28  14  31  1   
 29  15  18  1   
 30  15  19  1   
 31  15  32  1   
 32  16  18  1   
 33  16  20  1   
 34  16  33  1   
 35  17  19  1   
 36  17  20  1   
 37  17  34  1   
 38  18  35  1   
 39  18  36  1   
 40  19  37  1   
 41  19  38  1   
 42  20  39  1   
 43  20  40  1   
@<TRIPOS>SUBSTRUCTURE
  1 ****   8 GROUP 4 **** **** 0

# MOE 2024.06 (io_trps.svl 2023.06)
