@<TRIPOS>MOLECULE
NONAME
33 33 1 0 0 
SMALL
USER_CHARGES


@<TRIPOS>ATOM
  1 O        0.0370     0.3120     0.5950 O.2   1 <1>  -0.5700 
  2 C        0.0200     1.5040     0.3440 C.2   1 <1>   0.6900 
  3 N        1.1430     2.2730     0.4950 N.am  1 <1>  -0.6600 
  4 N       -1.1200     2.0770    -0.1130 N.am  1 <1>  -0.7300 
  5 C        1.1300     3.7510     0.6630 C.3   1 <1>   0.1400 
  6 C        2.4790     1.6470     0.6880 C.3   1 <1>   0.1400 
  7 C       -2.3880     1.3630    -0.3520 C.3   1 <1>   0.1400 
  8 C        2.1120     4.3890    -0.3250 C.3   1 <1>  -0.1600 
  9 C        3.4850     2.2710    -0.2860 C.3   1 <1>  -0.1600 
 10 C       -3.5560     2.3070    -0.0670 C.3   1 <1>  -0.1600 
 11 C        3.5230     3.8020    -0.1690 C.3   1 <1>  -0.1600 
 12 C       -4.9020     1.6080    -0.2960 C.3   1 <1>  -0.1600 
 13 C       -6.0700     2.5550    -0.0090 C.3   1 <1>  -0.2400 
 14 H       -1.0270     2.9930    -0.5400 H     1 <1>   0.3700 
 15 H        1.4280     3.9850     1.6710 H     1 <1>   0.0800 
 16 H        0.1440     4.1520     0.5120 H     1 <1>   0.0800 
 17 H        2.4280     0.5850     0.5180 H     1 <1>   0.0800 
 18 H        2.7970     1.8090     1.7040 H     1 <1>   0.0800 
 19 H       -2.4450     0.5010     0.2920 H     1 <1>   0.0800 
 20 H       -2.4170     1.0270    -1.3750 H     1 <1>   0.0800 
 21 H        2.1440     5.4510    -0.1600 H     1 <1>   0.0800 
 22 H        1.7580     4.2200    -1.3270 H     1 <1>   0.0800 
 23 H        3.2100     1.9900    -1.2880 H     1 <1>   0.0800 
 24 H        4.4630     1.8680    -0.0920 H     1 <1>   0.0800 
 25 H       -3.4860     3.1650    -0.7130 H     1 <1>   0.0800 
 26 H       -3.4960     2.6370     0.9560 H     1 <1>   0.0800 
 27 H        3.9190     4.0750     0.7940 H     1 <1>   0.0800 
 28 H        4.1730     4.2090    -0.9240 H     1 <1>   0.0800 
 29 H       -4.9760     0.7490     0.3500 H     1 <1>   0.0800 
 30 H       -4.9650     1.2660    -1.3150 H     1 <1>   0.0800 
 31 H       -6.0400     2.8920     1.0120 H     1 <1>   0.0800 
 32 H       -7.0040     2.0470    -0.1730 H     1 <1>   0.0800 
 33 H       -6.0300     3.4120    -0.6580 H     1 <1>   0.0800 
@<TRIPOS>BOND
  1   1   2  2   
  2   2   3  am  
  3   2   4  am  
  4   3   5  1   
  5   3   6  1   
  6   4   7  1   
  7   4  14  1   
  8   5   8  1   
  9   5  15  1   
 10   5  16  1   
 11   6   9  1   
 12   6  17  1   
 13   6  18  1   
 14   7  10  1   
 15   7  19  1   
 16   7  20  1   
 17   8  11  1   
 18   8  21  1   
 19   8  22  1   
 20   9  11  1   
 21   9  23  1   
 22   9  24  1   
 23  10  12  1   
 24  10  25  1   
 25  10  26  1   
 26  11  27  1   
 27  11  28  1   
 28  12  13  1   
 29  12  29  1   
 30  12  30  1   
 31  13  31  1   
 32  13  32  1   
 33  13  33  1   
@<TRIPOS>SUBSTRUCTURE
  1 ****   4 GROUP 4 **** **** 0

# MOE 2024.06 (io_trps.svl 2023.06)
