@<TRIPOS>MOLECULE
NONAME
50 56 1 0 0 
SMALL
USER_CHARGES


@<TRIPOS>ATOM
  1 O        0.0220    -0.5720    -0.6890 O.2   1 <1>  -0.5700 
  2 C        0.7460    -1.3230    -0.0900 C.2   1 <1>   0.5690 
  3 N        0.4160    -2.5370     0.4980 N.am  1 <1>  -0.2370 
  4 C        2.1960    -1.0410     0.1790 C.3   1 <1>  -0.0190 
  5 C       -0.8560    -3.0860     0.4210 C.ar  1 <1>   0.4270 
  6 C        1.5230    -3.2730     0.9030 C.2   1 <1>   0.5690 
  7 C        3.4210     0.1010    -0.5190 C.3   1 <1>   0.0580 
  8 C        2.7260    -2.7500     0.1750 C.3   1 <1>  -0.0190 
  9 N       -1.0300    -4.0520    -0.4760 N.ar  1 <1>  -0.6200 
 10 C       -1.8680    -2.6160     1.2520 C.ar  1 <1>  -0.1500 
 11 O        1.5560    -4.1690     1.7050 O.2   1 <1>  -0.5700 
 12 C        3.9040    -0.8200     0.0550 C.2   1 <1>  -0.2880 
 13 C        5.1110    -0.2120    -1.1140 C.3   1 <1>   0.0000 
 14 C        4.4870    -2.7320     0.2310 C.3   1 <1>   0.0580 
 15 C       -2.2470    -4.5660    -0.5380 C.ar  1 <1>   0.1600 
 16 C       -3.1300    -3.1610     1.1750 C.ar  1 <1>  -0.1500 
 17 C        4.4670    -1.5600     1.0250 C.2   1 <1>  -0.2880 
 18 C        6.4150     0.0690    -0.2600 C.3   1 <1>   0.0530 
 19 C        5.6000    -1.9690    -0.9160 C.3   1 <1>   0.0000 
 20 C       -3.3140    -4.1660     0.2490 C.ar  1 <1>  -0.1500 
 21 C        7.7090     0.8440    -0.3410 C.2   1 <1>   0.5770 
 22 C        7.0000    -1.2990    -0.7640 C.3   1 <1>   0.0530 
 23 O        7.7910     2.0060    -0.6410 O.2   1 <1>  -0.5700 
 24 N        8.7290     0.0020     0.0430 N.am  1 <1>  -0.2370 
 25 C        8.2650    -1.2930     0.0490 C.2   1 <1>   0.5770 
 26 C       10.0670     0.3640     0.1040 C.ar  1 <1>   0.4270 
 27 O        8.7250    -2.2510     0.6160 O.2   1 <1>  -0.5700 
 28 N       10.8690    -0.1600    -0.8170 N.ar  1 <1>  -0.6200 
 29 C       10.5050     1.2440     1.0900 C.ar  1 <1>  -0.1500 
 30 C       12.1410     0.1940    -0.7450 C.ar  1 <1>   0.1600 
 31 C       11.8310     1.6060     1.1510 C.ar  1 <1>  -0.1500 
 32 C       12.6670     1.0570     0.2010 C.ar  1 <1>  -0.1500 
 33 H        2.0720    -0.7170     1.2180 H     1 <1>   0.0800 
 34 H        2.9270     0.2980    -1.4680 H     1 <1>   0.0800 
 35 H        2.5490    -3.1610    -0.8060 H     1 <1>   0.0800 
 36 H       -1.6580    -1.8280     1.9510 H     1 <1>   0.1500 
 37 H        3.6050    -1.3560    -1.0720 H     1 <1>   0.1500 
 38 H        5.2490     0.1230    -2.1300 H     1 <1>   0.0000 
 39 H        4.9100    -3.5780     0.7460 H     1 <1>   0.0800 
 40 H       -2.4050    -5.3520    -1.2570 H     1 <1>   0.1500 
 41 H       -3.9340    -2.8200     1.8040 H     1 <1>   0.1500 
 42 H        4.8090    -1.4620     2.0440 H     1 <1>   0.1500 
 43 H        6.2010     0.0570     0.7920 H     1 <1>   0.0000 
 44 H        5.5430    -2.4860    -1.8590 H     1 <1>   0.0000 
 45 H       -4.2740    -4.6360     0.1360 H     1 <1>   0.1500 
 46 H        7.3430    -1.1830    -1.7820 H     1 <1>   0.0000 
 47 H        9.8010     1.6400     1.7980 H     1 <1>   0.1500 
 48 H       12.8030    -0.2270    -1.4830 H     1 <1>   0.1500 
 49 H       12.2000     2.2840     1.9020 H     1 <1>   0.1500 
 50 H       13.7150     1.2960     0.1910 H     1 <1>   0.1500 
@<TRIPOS>BOND
  1   1   2  2   
  2   2   3  am  
  3   2   4  1   
  4   3   5  1   
  5   3   6  am  
  6   4   7  1   
  7   4   8  1   
  8   4  33  1   
  9   5   9  ar  
 10   5  10  ar  
 11   6   8  1   
 12   6  11  2   
 13   7  12  1   
 14   7  13  1   
 15   7  34  1   
 16   8  14  1   
 17   8  35  1   
 18   9  15  ar  
 19  10  16  ar  
 20  10  36  1   
 21  12  17  2   
 22  12  37  1   
 23  13  18  1   
 24  13  19  1   
 25  13  38  1   
 26  14  17  1   
 27  14  19  1   
 28  14  39  1   
 29  15  20  ar  
 30  15  40  1   
 31  16  20  ar  
 32  16  41  1   
 33  17  42  1   
 34  18  21  1   
 35  18  22  1   
 36  18  43  1   
 37  19  22  1   
 38  19  44  1   
 39  20  45  1   
 40  21  23  2   
 41  21  24  am  
 42  22  25  1   
 43  22  46  1   
 44  24  25  am  
 45  24  26  1   
 46  25  27  2   
 47  26  28  ar  
 48  26  29  ar  
 49  28  30  ar  
 50  29  31  ar  
 51  29  47  1   
 52  30  32  ar  
 53  30  48  1   
 54  31  32  ar  
 55  31  49  1   
 56  32  50  1   
@<TRIPOS>SUBSTRUCTURE
  1 ****  12 GROUP 4 **** **** 0

# MOE 2024.06 (io_trps.svl 2023.06)
