@<TRIPOS>MOLECULE
NONAME
47 49 1 0 0 
SMALL
USER_CHARGES


@<TRIPOS>ATOM
  1 S       -0.5260     0.2490     0.2000 S.3   1 <1>  -0.2860 
  2 C        1.0410     1.1150     0.3180 C.2   1 <1>   0.2420 
  3 C       -1.6680     1.3290     1.1970 C.3   1 <1>   0.1310 
  4 N        1.1830     2.2350     0.9320 N.2   1 <1>  -0.3380 
  5 N        2.1660     0.6520    -0.2140 N.pl3 1 <1>   0.0480 
  6 C       -3.0910     0.7930     1.1990 C.2   1 <1>   0.5690 
  7 N        2.4720     2.5490     0.8170 N.2   1 <1>  -0.3380 
  8 C        3.0550     1.6050     0.1320 C.2   1 <1>   0.1330 
  9 C        2.3940    -0.6210    -0.9370 C.3   1 <1>   0.0960 
 10 O       -3.8290     1.1300     2.0930 O.2   1 <1>  -0.5700 
 11 N       -3.5010    -0.0340     0.2020 N.am  1 <1>  -0.7300 
 12 C        4.4570     1.5650    -0.1950 C.ar  1 <1>   0.0530 
 13 C        2.9080    -1.7000     0.0200 C.3   1 <1>  -0.2400 
 14 C       -4.8390    -0.6290     0.0750 C.3   1 <1>   0.2200 
 15 C        4.9030     1.6300    -1.5140 C.ar  1 <1>   0.1600 
 16 C        5.4200     1.4540     0.7960 C.ar  1 <1>  -0.1500 
 17 C       -4.7140    -2.1530     0.1780 C.3   1 <1>  -0.1600 
 18 C       -5.4430    -0.2090    -1.2680 C.3   1 <1>  -0.1600 
 19 N        6.1620     1.5550    -1.9100 N.ar  1 <1>  -0.6200 
 20 C        6.7400     1.3880     0.4080 C.ar  1 <1>  -0.1500 
 21 C       -6.0690    -2.8380    -0.0560 C.3   1 <1>  -0.1600 
 22 C       -6.7990    -0.8900    -1.5050 C.3   1 <1>  -0.1600 
 23 C        7.0540     1.4380    -0.9390 C.ar  1 <1>   0.1600 
 24 C       -6.6790    -2.4170    -1.4000 C.3   1 <1>  -0.1600 
 25 H       -1.6400     2.3120     0.7640 H     1 <1>   0.0800 
 26 H       -1.2800     1.3630     2.1980 H     1 <1>   0.0800 
 27 H        3.1080    -0.4590    -1.7240 H     1 <1>   0.0800 
 28 H        1.4700    -0.9410    -1.3870 H     1 <1>   0.0800 
 29 H       -2.8240    -0.3240    -0.5050 H     1 <1>   0.3700 
 30 H        3.8480    -1.4050     0.4530 H     1 <1>   0.0800 
 31 H        3.0580    -2.6200    -0.5170 H     1 <1>   0.0800 
 32 H        2.1940    -1.8780     0.8050 H     1 <1>   0.0800 
 33 H       -5.4720    -0.2730     0.8730 H     1 <1>   0.0800 
 34 H        4.1640     1.7510    -2.2870 H     1 <1>   0.1500 
 35 H        5.1340     1.4220     1.8340 H     1 <1>   0.1500 
 36 H       -4.3490    -2.4120     1.1560 H     1 <1>   0.0800 
 37 H       -4.0120    -2.5080    -0.5550 H     1 <1>   0.0800 
 38 H       -4.7730    -0.4780    -2.0650 H     1 <1>   0.0800 
 39 H       -5.5760     0.8590    -1.2780 H     1 <1>   0.0800 
 40 H        7.5220     1.3010     1.1410 H     1 <1>   0.1500 
 41 H       -6.7440    -2.5710     0.7400 H     1 <1>   0.0800 
 42 H       -5.9420    -3.9070    -0.0360 H     1 <1>   0.0800 
 43 H       -7.1730    -0.6230    -2.4780 H     1 <1>   0.0800 
 44 H       -7.5060    -0.5380    -0.7730 H     1 <1>   0.0800 
 45 H        8.0890     1.3830    -1.2330 H     1 <1>   0.1500 
 46 H       -7.6530    -2.8630    -1.5090 H     1 <1>   0.0800 
 47 H       -6.0600    -2.7810    -2.2020 H     1 <1>   0.0800 
@<TRIPOS>BOND
  1   1   2  1   
  2   1   3  1   
  3   2   4  2   
  4   2   5  1   
  5   3   6  1   
  6   3  25  1   
  7   3  26  1   
  8   4   7  1   
  9   5   8  1   
 10   5   9  1   
 11   6  10  2   
 12   6  11  am  
 13   7   8  2   
 14   8  12  1   
 15   9  13  1   
 16   9  27  1   
 17   9  28  1   
 18  11  14  1   
 19  11  29  1   
 20  12  15  ar  
 21  12  16  ar  
 22  13  30  1   
 23  13  31  1   
 24  13  32  1   
 25  14  17  1   
 26  14  18  1   
 27  14  33  1   
 28  15  19  ar  
 29  15  34  1   
 30  16  20  ar  
 31  16  35  1   
 32  17  21  1   
 33  17  36  1   
 34  17  37  1   
 35  18  22  1   
 36  18  38  1   
 37  18  39  1   
 38  19  23  ar  
 39  20  23  ar  
 40  20  40  1   
 41  21  24  1   
 42  21  41  1   
 43  21  42  1   
 44  22  24  1   
 45  22  43  1   
 46  22  44  1   
 47  23  45  1   
 48  24  46  1   
 49  24  47  1   
@<TRIPOS>SUBSTRUCTURE
  1 ****   1 GROUP 4 **** **** 0

# MOE 2024.06 (io_trps.svl 2023.06)
