@<TRIPOS>MOLECULE
NONAME
41 42 1 0 0 
SMALL
USER_CHARGES


@<TRIPOS>ATOM
  1 CL      -0.3870     0.2720    -0.2100 Cl    1 <1>  -0.1770 
  2 C        1.2190     0.8510    -0.5660 C.ar  1 <1>   0.1770 
  3 C        1.7130     2.0440    -0.0510 C.ar  1 <1>  -0.0090 
  4 C        1.9770     0.0580    -1.4070 C.ar  1 <1>  -0.1500 
  5 S        0.7670     3.1300     1.0520 S.o2  1 <1>   1.4470 
  6 C        2.9960     2.4150    -0.4390 C.ar  1 <1>  -0.1500 
  7 C        3.2510     0.4550    -1.7560 C.ar  1 <1>   0.1770 
  8 O        1.7220     3.9040     1.8150 O.2   1 <1>  -0.6500 
  9 O       -0.2730     2.4350     1.7760 O.2   1 <1>  -0.6500 
 10 N        0.0060     4.2100    -0.0200 N.am  1 <1>  -0.8490 
 11 C        3.8010     1.6470    -1.2830 C.ar  1 <1>   0.0860 
 12 CL       4.1400    -0.5970    -2.8290 Cl    1 <1>  -0.1770 
 13 C       -1.1800     3.6480    -0.6750 C.3   1 <1>   0.1160 
 14 C       -0.3420     5.4770     0.6320 C.3   1 <1>   0.1160 
 15 C        5.1290     2.1150    -1.6190 C.2   1 <1>   0.5440 
 16 O        5.3120     3.2940    -1.8410 O.2   1 <1>  -0.5700 
 17 N        6.2040     1.2740    -1.6410 N.am  1 <1>  -0.7300 
 18 C        7.6130     1.6930    -1.8940 C.3   1 <1>   0.1400 
 19 C        8.1560     2.5970    -0.7760 C.3   1 <1>   0.2000 
 20 O        9.5300     2.7340    -0.9210 O.3   1 <1>  -0.5600 
 21 C        7.9910     2.0530     0.6390 C.3   1 <1>  -0.1600 
 22 C       10.0820     3.1810     0.2730 C.3   1 <1>   0.1200 
 23 C        9.1770     2.6480     1.3820 C.3   1 <1>  -0.1600 
 24 H        1.5730    -0.8630    -1.7890 H     1 <1>   0.1500 
 25 H        3.3990     3.3470    -0.0710 H     1 <1>   0.1500 
 26 H       -0.9130     2.7730    -1.2410 H     1 <1>   0.0800 
 27 H       -1.6020     4.3680    -1.3560 H     1 <1>   0.0800 
 28 H       -1.9260     3.3780     0.0550 H     1 <1>   0.0800 
 29 H        0.5460     5.9550     1.0110 H     1 <1>   0.0800 
 30 H       -1.0200     5.3030     1.4520 H     1 <1>   0.0800 
 31 H       -0.8040     6.1450    -0.0750 H     1 <1>   0.0800 
 32 H        6.0520     0.2640    -1.5870 H     1 <1>   0.3700 
 33 H        7.6580     2.2270    -2.8270 H     1 <1>   0.0800 
 34 H        8.2310     0.8150    -1.9670 H     1 <1>   0.0800 
 35 H        7.7240     3.5820    -0.8540 H     1 <1>   0.0800 
 36 H        8.0590     0.9800     0.6270 H     1 <1>   0.0800 
 37 H        7.0470     2.3460     1.0620 H     1 <1>   0.0800 
 38 H       10.0850     4.2580     0.2570 H     1 <1>   0.0800 
 39 H       11.0890     2.8080     0.3500 H     1 <1>   0.0800 
 40 H        9.6860     1.9030     1.9680 H     1 <1>   0.0800 
 41 H        8.8740     3.4550     2.0250 H     1 <1>   0.0800 
@<TRIPOS>BOND
  1   1   2  1   
  2   2   3  ar  
  3   2   4  ar  
  4   3   5  1   
  5   3   6  ar  
  6   4   7  ar  
  7   4  24  1   
  8   5   8  2   
  9   5   9  2   
 10   5  10  am  
 11   6  11  ar  
 12   6  25  1   
 13   7  11  ar  
 14   7  12  1   
 15  10  13  1   
 16  10  14  1   
 17  11  15  1   
 18  13  26  1   
 19  13  27  1   
 20  13  28  1   
 21  14  29  1   
 22  14  30  1   
 23  14  31  1   
 24  15  16  2   
 25  15  17  am  
 26  17  18  1   
 27  17  32  1   
 28  18  19  1   
 29  18  33  1   
 30  18  34  1   
 31  19  20  1   
 32  19  21  1   
 33  19  35  1   
 34  20  22  1   
 35  21  23  1   
 36  21  36  1   
 37  21  37  1   
 38  22  23  1   
 39  22  38  1   
 40  22  39  1   
 41  23  40  1   
 42  23  41  1   
@<TRIPOS>SUBSTRUCTURE
  1 ****   6 GROUP 4 **** **** 0

# MOE 2024.06 (io_trps.svl 2023.06)
