@<TRIPOS>MOLECULE
NONAME
38 40 1 0 0 
SMALL
USER_CHARGES


@<TRIPOS>ATOM
  1 O        5.7520    -0.8110    -1.4940 O.2   1 <1>  -0.5700 
  2 C        5.6520    -1.8110    -0.8290 C.2   1 <1>   0.4230 
  3 C        4.4010    -2.3930    -0.3810 C.ar  1 <1>   0.0860 
  4 C        6.9700    -2.4640    -0.4440 C.3   1 <1>  -0.0990 
  5 C        3.1370    -1.8260    -0.6950 C.ar  1 <1>   0.1000 
  6 C        4.4170    -3.5540     0.3870 C.ar  1 <1>   0.2170 
  7 C        6.8520    -3.9800    -0.2250 C.3   1 <1>   0.0000 
  8 N        3.0480    -0.7090    -1.4360 N.pl3 1 <1>  -0.9000 
  9 C        1.9390    -2.4490    -0.2200 C.ar  1 <1>   0.0000 
 10 N        3.2830    -4.1210     0.8260 N.ar  1 <1>  -0.1790 
 11 C        5.7210    -4.2440     0.7820 C.3   1 <1>  -0.0170 
 12 C        6.5670    -4.6940    -1.5610 C.3   1 <1>  -0.2400 
 13 C        8.1780    -4.5200     0.3330 C.3   1 <1>  -0.2400 
 14 C        2.0350    -3.6160     0.5540 C.ar  1 <1>   0.3610 
 15 C        0.6450    -1.9580    -0.4820 C.ar  1 <1>  -0.1500 
 16 C        0.8830    -4.2500     1.0350 C.ar  1 <1>  -0.1500 
 17 C       -0.4820    -2.5840    -0.0080 C.ar  1 <1>  -0.1430 
 18 C       -0.3600    -3.7410     0.7580 C.ar  1 <1>  -0.1500 
 19 C       -1.8700    -2.0390    -0.3000 C.3   1 <1>  -0.0970 
 20 H        7.3250    -1.9850     0.4510 H     1 <1>   0.0800 
 21 H        7.6930    -2.2660    -1.2170 H     1 <1>   0.0800 
 22 H        2.1890    -0.2250    -1.7150 H     1 <1>   0.4000 
 23 H        3.9060    -0.2400    -1.7900 H     1 <1>   0.4000 
 24 H        3.3130    -4.9730     1.3930 H     1 <1>   0.4570 
 25 H        5.5760    -5.3080     0.8640 H     1 <1>   0.0800 
 26 H        6.0160    -3.8810     1.7520 H     1 <1>   0.0800 
 27 H        5.6550    -4.3560    -2.0210 H     1 <1>   0.0800 
 28 H        6.4980    -5.7590    -1.4190 H     1 <1>   0.0800 
 29 H        7.3680    -4.5100    -2.2580 H     1 <1>   0.0800 
 30 H        8.4280    -4.0470     1.2670 H     1 <1>   0.0800 
 31 H        8.9820    -4.3320    -0.3580 H     1 <1>   0.0800 
 32 H        8.1230    -5.5820     0.4970 H     1 <1>   0.0800 
 33 H        0.5330    -1.0660    -1.0720 H     1 <1>   0.1500 
 34 H        0.9590    -5.1440     1.6270 H     1 <1>   0.1500 
 35 H       -1.2500    -4.2260     1.1270 H     1 <1>   0.1500 
 36 H       -1.8190    -1.1480    -0.8990 H     1 <1>   0.0800 
 37 H       -2.3750    -1.8020     0.6190 H     1 <1>   0.0800 
 38 H       -2.4490    -2.7730    -0.8330 H     1 <1>   0.0800 
@<TRIPOS>BOND
  1   1   2  2   
  2   2   3  1   
  3   2   4  1   
  4   3   5  ar  
  5   3   6  ar  
  6   4   7  1   
  7   4  20  1   
  8   4  21  1   
  9   5   8  1   
 10   5   9  ar  
 11   6  10  ar  
 12   6  11  1   
 13   7  11  1   
 14   7  12  1   
 15   7  13  1   
 16   8  22  1   
 17   8  23  1   
 18   9  14  ar  
 19   9  15  ar  
 20  10  14  ar  
 21  10  24  1   
 22  11  25  1   
 23  11  26  1   
 24  12  27  1   
 25  12  28  1   
 26  12  29  1   
 27  13  30  1   
 28  13  31  1   
 29  13  32  1   
 30  14  16  ar  
 31  15  17  ar  
 32  15  33  1   
 33  16  18  ar  
 34  16  34  1   
 35  17  18  ar  
 36  17  19  1   
 37  18  35  1   
 38  19  36  1   
 39  19  37  1   
 40  19  38  1   
@<TRIPOS>SUBSTRUCTURE
  1 ****   3 GROUP 4 **** **** 0

# MOE 2024.06 (io_trps.svl 2023.06)
