@<TRIPOS>MOLECULE
NONAME
41 42 1 0 0 
SMALL
USER_CHARGES


@<TRIPOS>ATOM
  1 O        0.6320    -1.6590    -0.3900 O.3   1 <1>  -0.3630 
  2 C       -0.6880    -1.5930    -0.0630 C.ar  1 <1>   0.0830 
  3 C        1.6120    -0.9260     0.3050 C.3   1 <1>   0.1200 
  4 C       -1.5850    -2.3780    -0.7890 C.ar  1 <1>  -0.1440 
  5 C       -1.1540    -0.7790     0.9660 C.ar  1 <1>  -0.1500 
  6 C        2.9710    -1.2510    -0.3160 C.3   1 <1>  -0.1600 
  7 C       -2.9380    -2.3520    -0.4610 C.ar  1 <1>  -0.1440 
  8 C       -1.0790    -3.2660    -1.9280 C.3   1 <1>  -0.0960 
  9 C       -2.4990    -0.7450     1.2810 C.ar  1 <1>  -0.1430 
 10 C        4.1000    -0.4870     0.3890 C.3   1 <1>  -0.1600 
 11 C       -3.3810    -1.5350     0.5670 C.ar  1 <1>  -0.1500 
 12 C       -3.9650    -3.2030    -1.1970 C.3   1 <1>  -0.0970 
 13 C       -3.0090     0.1420     2.4030 C.3   1 <1>  -0.0970 
 14 C        5.4620    -0.8140    -0.2350 C.3   1 <1>   0.0960 
 15 N        6.5320    -0.0670     0.4530 N.pl3 1 <1>   0.0480 
 16 C        7.0420     1.1410     0.1270 C.2   1 <1>   0.0360 
 17 C        7.2080    -0.4360     1.5560 C.2   1 <1>  -0.3020 
 18 N        7.9720     1.5550     0.9260 N.2   1 <1>  -0.5650 
 19 C        8.0790     0.5610     1.8280 C.2   1 <1>   0.0770 
 20 H        1.5830    -1.2190     1.3400 H     1 <1>   0.0800 
 21 H        1.3860     0.1220     0.2040 H     1 <1>   0.0800 
 22 H       -0.4840    -0.1650     1.5350 H     1 <1>   0.1500 
 23 H        2.9480    -0.9840    -1.3590 H     1 <1>   0.0800 
 24 H        3.1440    -2.3100    -0.2340 H     1 <1>   0.0800 
 25 H       -0.1530    -2.9010    -2.3320 H     1 <1>   0.0800 
 26 H       -1.7840    -3.2960    -2.7370 H     1 <1>   0.0800 
 27 H       -0.9210    -4.2640    -1.5620 H     1 <1>   0.0800 
 28 H        4.1150    -0.7550     1.4320 H     1 <1>   0.0800 
 29 H        3.9180     0.5710     0.3100 H     1 <1>   0.0800 
 30 H       -4.4270    -1.5110     0.8180 H     1 <1>   0.1500 
 31 H       -3.6350    -4.2250    -1.2430 H     1 <1>   0.0800 
 32 H       -4.1010    -2.8300    -2.1950 H     1 <1>   0.0800 
 33 H       -4.9150    -3.1830    -0.6940 H     1 <1>   0.0800 
 34 H       -2.3460     0.9740     2.5610 H     1 <1>   0.0800 
 35 H       -3.0780    -0.4260     3.3120 H     1 <1>   0.0800 
 36 H       -3.9830     0.5280     2.1600 H     1 <1>   0.0800 
 37 H        5.4690    -0.5460    -1.2770 H     1 <1>   0.0800 
 38 H        5.6690    -1.8660    -0.1510 H     1 <1>   0.0800 
 39 H        6.6920     1.6970    -0.7250 H     1 <1>   0.1500 
 40 H        7.0410    -1.3610     2.0760 H     1 <1>   0.1500 
 41 H        8.7870     0.6180     2.6370 H     1 <1>   0.1500 
@<TRIPOS>BOND
  1   1   2  1   
  2   1   3  1   
  3   2   4  ar  
  4   2   5  ar  
  5   3   6  1   
  6   3  20  1   
  7   3  21  1   
  8   4   7  ar  
  9   4   8  1   
 10   5   9  ar  
 11   5  22  1   
 12   6  10  1   
 13   6  23  1   
 14   6  24  1   
 15   7  11  ar  
 16   7  12  1   
 17   8  25  1   
 18   8  26  1   
 19   8  27  1   
 20   9  11  ar  
 21   9  13  1   
 22  10  14  1   
 23  10  28  1   
 24  10  29  1   
 25  11  30  1   
 26  12  31  1   
 27  12  32  1   
 28  12  33  1   
 29  13  34  1   
 30  13  35  1   
 31  13  36  1   
 32  14  15  1   
 33  14  37  1   
 34  14  38  1   
 35  15  16  1   
 36  15  17  1   
 37  16  18  2   
 38  16  39  1   
 39  17  19  2   
 40  17  40  1   
 41  18  19  1   
 42  19  41  1   
@<TRIPOS>SUBSTRUCTURE
  1 ****   3 GROUP 4 **** **** 0

# MOE 2024.06 (io_trps.svl 2023.06)
