@<TRIPOS>MOLECULE
NONAME
51 55 1 0 0 
SMALL
USER_CHARGES


@<TRIPOS>ATOM
  1 CL       1.1820    -0.3470    -2.5920 Cl    1 <1>  -0.1770 
  2 C        2.3530    -0.7400    -1.3590 C.ar  1 <1>   0.1770 
  3 C        3.4700     0.0560    -1.2090 C.ar  1 <1>  -0.1500 
  4 C        2.1410    -1.8450    -0.5540 C.ar  1 <1>  -0.1500 
  5 C        4.4070    -0.2480    -0.2320 C.ar  1 <1>   0.1000 
  6 C        3.0730    -2.1540     0.4230 C.ar  1 <1>  -0.1500 
  7 N        5.5290     0.5570    -0.0860 N.pl3 1 <1>  -0.8380 
  8 C        4.1960    -1.3600     0.5800 C.ar  1 <1>  -0.1500 
  9 C        6.8280    -0.0220    -0.5340 C.3   1 <1>   0.2090 
 10 C        5.6060     1.3830     1.1530 C.3   1 <1>   0.2090 
 11 C        7.9080     1.0750    -0.6310 C.3   1 <1>   0.3430 
 12 C        6.7140     2.4510     1.0320 C.3   1 <1>   0.3430 
 13 N        8.0530     1.8690     0.6460 N.4   1 <1>  -0.9590 
 14 C        9.0980     2.9470     0.6650 C.3   1 <1>   0.4230 
 15 C        9.2100     3.8420    -0.5960 C.3   1 <1>  -0.0800 
 16 C       10.4960     2.4280     1.0630 C.3   1 <1>  -0.0800 
 17 C        9.9810     3.1800    -1.7660 C.3   1 <1>  -0.1600 
 18 C       10.0240     5.0830    -0.1640 C.3   1 <1>  -0.1600 
 19 C       11.2340     1.7450    -0.1110 C.3   1 <1>  -0.1600 
 20 C       11.3160     3.6640     1.4920 C.3   1 <1>  -0.1600 
 21 C       11.3720     2.7210    -1.2960 C.3   1 <1>  -0.0800 
 22 C       11.4310     4.6580     0.3170 C.3   1 <1>  -0.0800 
 23 C       12.1660     3.9590    -0.8400 C.3   1 <1>  -0.1600 
 24 H        3.6130     0.9080    -1.8450 H     1 <1>   0.1500 
 25 H        1.2620    -2.4480    -0.6940 H     1 <1>   0.1500 
 26 H        2.9200    -3.0120     1.0570 H     1 <1>   0.1500 
 27 H        4.9150    -1.6060     1.3390 H     1 <1>   0.1500 
 28 H        6.6950    -0.4770    -1.5020 H     1 <1>   0.0800 
 29 H        7.1410    -0.7890     0.1520 H     1 <1>   0.0800 
 30 H        5.7970     0.7480     2.0000 H     1 <1>   0.0800 
 31 H        4.6570     1.8680     1.3110 H     1 <1>   0.0800 
 32 H        7.6270     1.7380    -1.4320 H     1 <1>   0.0800 
 33 H        8.8430     0.6160    -0.8940 H     1 <1>   0.0800 
 34 H        6.7970     2.9700     1.9730 H     1 <1>   0.0800 
 35 H        6.4060     3.1670     0.2880 H     1 <1>   0.0800 
 36 H        8.3120     1.2010     1.3800 H     1 <1>   0.4500 
 37 H        8.8140     3.6120     1.4640 H     1 <1>   0.0800 
 38 H        8.2350     4.1620    -0.9190 H     1 <1>   0.0800 
 39 H       10.4230     1.7580     1.9010 H     1 <1>   0.0800 
 40 H        9.4530     2.3530    -2.1950 H     1 <1>   0.0800 
 41 H       10.1010     3.8980    -2.5620 H     1 <1>   0.0800 
 42 H        9.5160     5.6100     0.6260 H     1 <1>   0.0800 
 43 H       10.1190     5.7680    -0.9910 H     1 <1>   0.0800 
 44 H       10.7290     0.8510    -0.4200 H     1 <1>   0.0800 
 45 H       12.2170     1.4470     0.2130 H     1 <1>   0.0800 
 46 H       12.3020     3.3610     1.8060 H     1 <1>   0.0800 
 47 H       10.8510     4.1500     2.3330 H     1 <1>   0.0800 
 48 H       11.8940     2.2410    -2.1080 H     1 <1>   0.0800 
 49 H       11.9900     5.5260     0.6260 H     1 <1>   0.0800 
 50 H       12.2850     4.6430    -1.6640 H     1 <1>   0.0800 
 51 H       13.1530     3.6650    -0.5240 H     1 <1>   0.0800 
@<TRIPOS>BOND
  1   1   2  1   
  2   2   3  ar  
  3   2   4  ar  
  4   3   5  ar  
  5   3  24  1   
  6   4   6  ar  
  7   4  25  1   
  8   5   7  1   
  9   5   8  ar  
 10   6   8  ar  
 11   6  26  1   
 12   7   9  1   
 13   7  10  1   
 14   8  27  1   
 15   9  11  1   
 16   9  28  1   
 17   9  29  1   
 18  10  12  1   
 19  10  30  1   
 20  10  31  1   
 21  11  13  1   
 22  11  32  1   
 23  11  33  1   
 24  12  13  1   
 25  12  34  1   
 26  12  35  1   
 27  13  14  1   
 28  13  36  1   
 29  14  15  1   
 30  14  16  1   
 31  14  37  1   
 32  15  17  1   
 33  15  18  1   
 34  15  38  1   
 35  16  19  1   
 36  16  20  1   
 37  16  39  1   
 38  17  21  1   
 39  17  40  1   
 40  17  41  1   
 41  18  22  1   
 42  18  42  1   
 43  18  43  1   
 44  19  21  1   
 45  19  44  1   
 46  19  45  1   
 47  20  22  1   
 48  20  46  1   
 49  20  47  1   
 50  21  23  1   
 51  21  48  1   
 52  22  23  1   
 53  22  49  1   
 54  23  50  1   
 55  23  51  1   
@<TRIPOS>SUBSTRUCTURE
  1 ****  11 GROUP 4 **** **** 0

# MOE 2024.06 (io_trps.svl 2023.06)
