@<TRIPOS>MOLECULE
NONAME
37 37 1 0 0 
SMALL
USER_CHARGES


@<TRIPOS>ATOM
  1 CL       1.1450     0.5570    -0.7430 Cl    1 <1>  -0.1770 
  2 C        0.9030    -1.1280    -0.3290 C.ar  1 <1>   0.1770 
  3 C        1.9960    -1.9390    -0.0460 C.ar  1 <1>   0.0830 
  4 C       -0.3870    -1.6200    -0.2960 C.ar  1 <1>  -0.1500 
  5 O        3.2350    -1.3810    -0.1030 O.3   1 <1>  -0.3630 
  6 C        1.7690    -3.2750     0.2800 C.ar  1 <1>  -0.1500 
  7 C       -0.5980    -2.9490     0.0280 C.ar  1 <1>  -0.1500 
  8 C        4.4020    -2.1360     0.0970 C.3   1 <1>   0.1200 
  9 C        0.4760    -3.7770     0.3180 C.ar  1 <1>  -0.1440 
 10 C        5.5840    -1.1780    -0.0870 C.3   1 <1>   0.3430 
 11 C        0.2290    -5.2340     0.6710 C.3   1 <1>  -0.0960 
 12 N        6.9210    -1.8250     0.1410 N.4   1 <1>  -0.9590 
 13 C        7.9730    -0.7740     0.1910 C.3   1 <1>   0.3430 
 14 C        7.2290    -2.8600    -0.8850 C.3   1 <1>   0.3430 
 15 C        9.2260    -1.3340     0.8530 C.3   1 <1>  -0.2400 
 16 C        7.1720    -4.2290    -0.2220 C.3   1 <1>  -0.2400 
 17 H       -1.2130    -0.9700    -0.5210 H     1 <1>   0.1500 
 18 H        2.5800    -3.9390     0.5070 H     1 <1>   0.1500 
 19 H       -1.6030    -3.3350     0.0540 H     1 <1>   0.1500 
 20 H        4.4170    -2.9220    -0.6370 H     1 <1>   0.0800 
 21 H        4.3770    -2.5330     1.0960 H     1 <1>   0.0800 
 22 H        5.4590    -0.3660     0.6120 H     1 <1>   0.0800 
 23 H        5.5460    -0.7690    -1.0830 H     1 <1>   0.0800 
 24 H        1.0080    -5.6080     1.3110 H     1 <1>   0.0800 
 25 H        0.2000    -5.8270    -0.2250 H     1 <1>   0.0800 
 26 H       -0.7090    -5.3410     1.1870 H     1 <1>   0.0800 
 27 H        6.9130    -2.2830     1.0620 H     1 <1>   0.4500 
 28 H        7.6220     0.0660     0.7710 H     1 <1>   0.0800 
 29 H        8.2010    -0.4240    -0.8040 H     1 <1>   0.0800 
 30 H        8.2160    -2.7040    -1.2910 H     1 <1>   0.0800 
 31 H        6.5220    -2.8100    -1.6980 H     1 <1>   0.0800 
 32 H        9.0110    -1.6830     1.8480 H     1 <1>   0.0800 
 33 H        9.9610    -0.5520     0.9310 H     1 <1>   0.0800 
 34 H        9.6590    -2.1310     0.2750 H     1 <1>   0.0800 
 35 H        7.9050    -4.3040     0.5620 H     1 <1>   0.0800 
 36 H        7.3960    -4.9850    -0.9540 H     1 <1>   0.0800 
 37 H        6.1950    -4.4340     0.1750 H     1 <1>   0.0800 
@<TRIPOS>BOND
  1   1   2  1   
  2   2   3  ar  
  3   2   4  ar  
  4   3   5  1   
  5   3   6  ar  
  6   4   7  ar  
  7   4  17  1   
  8   5   8  1   
  9   6   9  ar  
 10   6  18  1   
 11   7   9  ar  
 12   7  19  1   
 13   8  10  1   
 14   8  20  1   
 15   8  21  1   
 16   9  11  1   
 17  10  12  1   
 18  10  22  1   
 19  10  23  1   
 20  11  24  1   
 21  11  25  1   
 22  11  26  1   
 23  12  13  1   
 24  12  14  1   
 25  12  27  1   
 26  13  15  1   
 27  13  28  1   
 28  13  29  1   
 29  14  16  1   
 30  14  30  1   
 31  14  31  1   
 32  15  32  1   
 33  15  33  1   
 34  15  34  1   
 35  16  35  1   
 36  16  36  1   
 37  16  37  1   
@<TRIPOS>SUBSTRUCTURE
  1 ****   8 GROUP 4 **** **** 0

# MOE 2024.06 (io_trps.svl 2023.06)
