@<TRIPOS>MOLECULE
NONAME
47 49 1 0 0 
SMALL
USER_CHARGES


@<TRIPOS>ATOM
  1 S       -0.1440    -0.3290     0.2790 S.3   1 <1>  -0.3710 
  2 C       -1.6560     0.6300     0.2670 C.2   1 <1>   0.6510 
  3 C        1.1700     0.9670     0.1990 C.3   1 <1>   0.2140 
  4 N       -1.4660     1.8920     0.2150 N.2   1 <1>  -0.6210 
  5 N       -2.8810    -0.0220     0.3150 N.am  1 <1>  -0.4200 
  6 C        2.5190     0.2650     0.1910 C.ar  1 <1>  -0.1440 
  7 C       -2.5470     2.7160     0.2040 C.2   1 <1>   0.0210 
  8 C       -4.0010     0.8140     0.3190 C.2   1 <1>   0.6160 
  9 C       -3.0930    -1.5120     0.3480 C.3   1 <1>   0.2200 
 10 C        3.1650    -0.0220     1.3840 C.ar  1 <1>  -0.1500 
 11 C        3.1120    -0.0970    -1.0080 C.ar  1 <1>  -0.1500 
 12 O       -2.3010     3.9250     0.1460 O.3   1 <1>  -0.8500 
 13 C       -3.8320     2.1950     0.2580 C.2   1 <1>  -0.1240 
 14 O       -5.1360     0.2980     0.3780 O.2   1 <1>  -0.5700 
 15 C       -2.5720    -2.1700     1.6380 C.3   1 <1>  -0.1600 
 16 C       -2.6080    -2.2220    -0.9290 C.3   1 <1>  -0.1600 
 17 C        4.3930    -0.6620     1.3770 C.ar  1 <1>  -0.1500 
 18 C        4.3400    -0.7360    -1.0170 C.ar  1 <1>  -0.1500 
 19 C       -5.0330     3.1370     0.2490 C.3   1 <1>  -0.0220 
 20 C       -2.9110    -3.6680     1.6590 C.3   1 <1>  -0.1600 
 21 C       -2.9480    -3.7200    -0.8790 C.3   1 <1>  -0.1600 
 22 C        4.9820    -1.0190     0.1770 C.ar  1 <1>  -0.1500 
 23 C       -5.5580     3.3330    -1.1760 C.3   1 <1>  -0.2400 
 24 C       -2.3940    -4.3720     0.3960 C.3   1 <1>  -0.1600 
 25 H        1.0490     1.6030     1.0580 H     1 <1>   0.0800 
 26 H        1.0060     1.5380    -0.6980 H     1 <1>   0.0800 
 27 H       -4.1490    -1.7040     0.3650 H     1 <1>   0.0800 
 28 H        2.7080     0.2500     2.3190 H     1 <1>   0.1500 
 29 H        2.6140     0.1170    -1.9380 H     1 <1>   0.1500 
 30 H       -3.0260    -1.6890     2.4870 H     1 <1>   0.0800 
 31 H       -1.5080    -2.0700     1.7240 H     1 <1>   0.0800 
 32 H       -1.5470    -2.1270    -1.0490 H     1 <1>   0.0800 
 33 H       -3.0860    -1.7760    -1.7840 H     1 <1>   0.0800 
 34 H        4.8880    -0.8820     2.3070 H     1 <1>   0.1500 
 35 H        4.7930    -1.0150    -1.9510 H     1 <1>   0.1500 
 36 H       -4.7380     4.0900     0.6520 H     1 <1>   0.0800 
 37 H       -5.8120     2.7450     0.8780 H     1 <1>   0.0800 
 38 H       -3.9790    -3.7910     1.7240 H     1 <1>   0.0800 
 39 H       -2.4740    -4.1220     2.5310 H     1 <1>   0.0800 
 40 H       -2.5350    -4.2100    -1.7440 H     1 <1>   0.0800 
 41 H       -4.0170    -3.8450    -0.9080 H     1 <1>   0.0800 
 42 H        5.9350    -1.5160     0.1710 H     1 <1>   0.1500 
 43 H       -4.7700     3.7340    -1.7890 H     1 <1>   0.0800 
 44 H       -6.3850     4.0180    -1.1760 H     1 <1>   0.0800 
 45 H       -5.8760     2.3910    -1.5860 H     1 <1>   0.0800 
 46 H       -2.6780    -5.4100     0.4210 H     1 <1>   0.0800 
 47 H       -1.3180    -4.3260     0.3800 H     1 <1>   0.0800 
@<TRIPOS>BOND
  1   1   2  1   
  2   1   3  1   
  3   2   4  2   
  4   2   5  1   
  5   3   6  1   
  6   3  25  1   
  7   3  26  1   
  8   4   7  1   
  9   5   8  am  
 10   5   9  1   
 11   6  10  ar  
 12   6  11  ar  
 13   7  12  1   
 14   7  13  2   
 15   8  13  1   
 16   8  14  2   
 17   9  15  1   
 18   9  16  1   
 19   9  27  1   
 20  10  17  ar  
 21  10  28  1   
 22  11  18  ar  
 23  11  29  1   
 24  13  19  1   
 25  15  20  1   
 26  15  30  1   
 27  15  31  1   
 28  16  21  1   
 29  16  32  1   
 30  16  33  1   
 31  17  22  ar  
 32  17  34  1   
 33  18  22  ar  
 34  18  35  1   
 35  19  23  1   
 36  19  36  1   
 37  19  37  1   
 38  20  24  1   
 39  20  38  1   
 40  20  39  1   
 41  21  24  1   
 42  21  40  1   
 43  21  41  1   
 44  22  42  1   
 45  23  43  1   
 46  23  44  1   
 47  23  45  1   
 48  24  46  1   
 49  24  47  1   
@<TRIPOS>SUBSTRUCTURE
  1 ****   2 GROUP 4 **** **** 0

# MOE 2024.06 (io_trps.svl 2023.06)
