@<TRIPOS>MOLECULE
NONAME
39 40 1 0 0 
SMALL
USER_CHARGES


@<TRIPOS>ATOM
  1 O       -0.3120     0.7420     1.3720 O.2   1 <1>  -0.5700 
  2 C       -1.2280     0.9890     0.6500 C.2   1 <1>   0.4480 
  3 C       -2.4860     0.1440     0.6790 C.3   1 <1>   0.0420 
  4 C       -1.1770     2.1740    -0.2920 C.3   1 <1>  -0.0380 
  5 C       -2.4710    -0.7800    -0.5170 C.2   1 <1>   0.6590 
  6 C       -3.7480     1.0280     0.7620 C.3   1 <1>   0.0630 
  7 C       -2.4630     2.9560    -0.1880 C.2   1 <1>   0.4480 
  8 O       -2.3660    -0.3600    -1.6410 O.2   1 <1>  -0.5700 
  9 O       -2.6050    -2.0720    -0.2570 O.3   1 <1>  -0.4300 
 10 C       -5.0240     0.1850     0.7220 C.ar  1 <1>  -0.1440 
 11 C       -3.7490     2.1610    -0.2820 C.3   1 <1>  -0.0990 
 12 O       -2.4710     4.1350    -0.0190 O.2   1 <1>  -0.5700 
 13 C       -2.6650    -3.0340    -1.2820 C.3   1 <1>   0.1200 
 14 C       -5.6490    -0.1440     1.9170 C.ar  1 <1>  -0.1500 
 15 C       -5.5770    -0.2750    -0.4680 C.ar  1 <1>  -0.1500 
 16 C       -2.9110    -4.3940    -0.6370 C.3   1 <1>  -0.2400 
 17 C       -6.7980    -0.9140     1.9230 C.ar  1 <1>  -0.1500 
 18 C       -6.7270    -1.0450    -0.4650 C.ar  1 <1>  -0.1500 
 19 C       -7.3460    -1.3700     0.7370 C.ar  1 <1>   0.0820 
 20 O       -8.4730    -2.1190     0.8300 O.3   1 <1>  -0.3630 
 21 C       -9.1210    -2.6180    -0.3190 C.3   1 <1>   0.0400 
 22 H       -2.4510    -0.4700     1.5610 H     1 <1>   0.0800 
 23 H       -1.0350     1.8410    -1.3020 H     1 <1>   0.0800 
 24 H       -0.3500     2.8080    -0.0270 H     1 <1>   0.0800 
 25 H       -3.7160     1.5160     1.7230 H     1 <1>   0.0800 
 26 H       -4.5840     2.8150    -0.1010 H     1 <1>   0.0800 
 27 H       -3.8390     1.7810    -1.2820 H     1 <1>   0.0800 
 28 H       -1.7310    -3.0210    -1.8190 H     1 <1>   0.0800 
 29 H       -3.4710    -2.7740    -1.9490 H     1 <1>   0.0800 
 30 H       -5.2490     0.1920     2.8580 H     1 <1>   0.1500 
 31 H       -5.1210    -0.0480    -1.4160 H     1 <1>   0.1500 
 32 H       -2.1070    -4.6370     0.0340 H     1 <1>   0.0800 
 33 H       -2.9650    -5.1530    -1.3960 H     1 <1>   0.0800 
 34 H       -3.8410    -4.3830    -0.0960 H     1 <1>   0.0800 
 35 H       -7.2800    -1.1680     2.8500 H     1 <1>   0.1500 
 36 H       -7.1230    -1.3830    -1.4030 H     1 <1>   0.1500 
 37 H       -9.9870    -3.1690     0.0000 H     1 <1>   0.0800 
 38 H       -8.4470    -3.2690    -0.8450 H     1 <1>   0.0800 
 39 H       -9.4220    -1.7900    -0.9360 H     1 <1>   0.0800 
@<TRIPOS>BOND
  1   1   2  2   
  2   2   3  1   
  3   2   4  1   
  4   3   5  1   
  5   3   6  1   
  6   3  22  1   
  7   4   7  1   
  8   4  23  1   
  9   4  24  1   
 10   5   8  2   
 11   5   9  1   
 12   6  10  1   
 13   6  11  1   
 14   6  25  1   
 15   7  11  1   
 16   7  12  2   
 17   9  13  1   
 18  10  14  ar  
 19  10  15  ar  
 20  11  26  1   
 21  11  27  1   
 22  13  16  1   
 23  13  28  1   
 24  13  29  1   
 25  14  17  ar  
 26  14  30  1   
 27  15  18  ar  
 28  15  31  1   
 29  16  32  1   
 30  16  33  1   
 31  16  34  1   
 32  17  19  ar  
 33  17  35  1   
 34  18  19  ar  
 35  18  36  1   
 36  19  20  1   
 37  20  21  1   
 38  21  37  1   
 39  21  38  1   
 40  21  39  1   
@<TRIPOS>SUBSTRUCTURE
  1 ****  10 GROUP 4 **** **** 0

# MOE 2024.06 (io_trps.svl 2023.06)
