@<TRIPOS>MOLECULE
NONAME
32 32 1 0 0 
SMALL
USER_CHARGES


@<TRIPOS>ATOM
  1 CL      -0.6590     0.1470     2.3620 Cl    1 <1>  -0.1770 
  2 C       -1.9300    -0.6390     1.4640 C.ar  1 <1>   0.1770 
  3 C       -2.1480    -0.2860     0.1460 C.ar  1 <1>  -0.1500 
  4 C       -2.7000    -1.6040     2.0830 C.ar  1 <1>  -0.1500 
  5 C       -3.1620    -0.9060    -0.5640 C.ar  1 <1>  -0.1500 
  6 C       -3.7130    -2.2240     1.3710 C.ar  1 <1>  -0.1500 
  7 C       -3.9540    -1.8710     0.0480 C.ar  1 <1>  -0.1430 
  8 C       -5.0780    -2.5340    -0.7260 C.3   1 <1>   0.4870 
  9 N       -6.3870    -2.0170    -0.2310 N.4   1 <1>  -0.9590 
 10 C       -7.4960    -2.8860    -0.7470 C.3   1 <1>   0.3430 
 11 C       -6.5940    -0.5730    -0.6020 C.3   1 <1>   0.3430 
 12 C       -8.8380    -2.6230    -0.0480 C.3   1 <1>   0.1200 
 13 C       -6.2330     0.3950     0.5350 C.3   1 <1>   0.1200 
 14 O       -9.7380    -3.5600    -0.5190 O.3   1 <1>  -0.6800 
 15 O       -6.6450     1.6570     0.1490 O.3   1 <1>  -0.6800 
 16 H       -1.5260     0.4650    -0.3120 H     1 <1>   0.1500 
 17 H       -2.4990    -1.8650     3.1080 H     1 <1>   0.1500 
 18 H       -3.3200    -0.6250    -1.5930 H     1 <1>   0.1500 
 19 H       -4.2990    -2.9840     1.8630 H     1 <1>   0.1500 
 20 H       -5.0200    -3.6000    -0.5780 H     1 <1>   0.0800 
 21 H       -4.9700    -2.3330    -1.7800 H     1 <1>   0.0800 
 22 H       -6.3610    -2.0910     0.7930 H     1 <1>   0.4500 
 23 H       -7.2420    -3.9210    -0.5860 H     1 <1>   0.0800 
 24 H       -7.6190    -2.7310    -1.8070 H     1 <1>   0.0800 
 25 H       -7.6310    -0.4080    -0.8450 H     1 <1>   0.0800 
 26 H       -6.0090    -0.3260    -1.4730 H     1 <1>   0.0800 
 27 H       -9.2240    -1.6460    -0.2820 H     1 <1>   0.0800 
 28 H       -8.7550    -2.7510     1.0170 H     1 <1>   0.0800 
 29 H       -5.1720     0.4310     0.7090 H     1 <1>   0.0800 
 30 H       -6.7530     0.1430     1.4420 H     1 <1>   0.0800 
 31 H      -10.6290    -3.4450    -0.1220 H     1 <1>   0.4000 
 32 H       -6.4030     2.3380     0.8140 H     1 <1>   0.4000 
@<TRIPOS>BOND
  1   1   2  1   
  2   2   3  ar  
  3   2   4  ar  
  4   3   5  ar  
  5   3  16  1   
  6   4   6  ar  
  7   4  17  1   
  8   5   7  ar  
  9   5  18  1   
 10   6   7  ar  
 11   6  19  1   
 12   7   8  1   
 13   8   9  1   
 14   8  20  1   
 15   8  21  1   
 16   9  10  1   
 17   9  11  1   
 18   9  22  1   
 19  10  12  1   
 20  10  23  1   
 21  10  24  1   
 22  11  13  1   
 23  11  25  1   
 24  11  26  1   
 25  12  14  1   
 26  12  27  1   
 27  12  28  1   
 28  13  15  1   
 29  13  29  1   
 30  13  30  1   
 31  14  31  1   
 32  15  32  1   
@<TRIPOS>SUBSTRUCTURE
  1 ****   7 GROUP 4 **** **** 0

# MOE 2024.06 (io_trps.svl 2023.06)
