@<TRIPOS>MOLECULE
NONAME
40 42 1 0 0 
SMALL
USER_CHARGES


@<TRIPOS>ATOM
  1 S        0.3290    -0.3470    -0.2480 S.3   1 <1>  -0.0800 
  2 C       -0.9940    -1.2390    -0.9740 C.2   1 <1>  -0.1100 
  3 C       -0.2760    -0.6760     1.3640 C.2   1 <1>  -0.1100 
  4 C       -1.8230    -1.7240    -0.0270 C.2   1 <1>  -0.1810 
  5 C       -1.4040    -1.4070     1.3100 C.2   1 <1>  -0.1500 
  6 C       -3.0760    -2.5310    -0.2950 C.3   1 <1>   0.5240 
  7 N       -4.1930    -1.5860    -0.5550 N.4   1 <1>  -0.9590 
  8 C       -4.5180    -0.7420     0.6580 C.3   1 <1>   0.3430 
  9 C       -5.4200    -2.3040    -1.0660 C.3   1 <1>   0.3430 
 10 C       -5.7050     0.2150     0.4210 C.3   1 <1>   0.2090 
 11 C       -6.6100    -1.3510    -1.3130 C.3   1 <1>   0.2090 
 12 N       -6.8870    -0.5300    -0.1000 N.pl3 1 <1>  -0.8380 
 13 C       -8.1000     0.1470    -0.0750 C.ar  1 <1>   0.1000 
 14 C       -9.0790    -0.2390     0.8290 C.ar  1 <1>  -0.1500 
 15 C       -8.3590     1.2070    -0.9340 C.ar  1 <1>  -0.1500 
 16 C      -10.3070     0.4110     0.8920 C.ar  1 <1>  -0.1430 
 17 C       -9.5740     1.8630    -0.8890 C.ar  1 <1>  -0.1500 
 18 C      -10.5420     1.4680     0.0170 C.ar  1 <1>  -0.1500 
 19 C      -11.3950    -0.0140     1.8900 C.3   1 <1>   1.1630 
 20 F      -11.9190     1.0210     2.5360 F     1 <1>  -0.3400 
 21 F      -10.9520    -0.8480     2.8250 F     1 <1>  -0.3400 
 22 F      -12.4070    -0.6290     1.2910 F     1 <1>  -0.3400 
 23 H       -0.9960    -1.2960    -2.0490 H     1 <1>   0.1500 
 24 H        0.2920    -0.2840     2.1910 H     1 <1>   0.1500 
 25 H       -1.9500    -1.7410     2.1760 H     1 <1>   0.1500 
 26 H       -3.2980    -3.1660     0.5470 H     1 <1>   0.0800 
 27 H       -2.9140    -3.1520    -1.1600 H     1 <1>   0.0800 
 28 H       -3.8630    -0.9410    -1.2840 H     1 <1>   0.4500 
 29 H       -3.6560    -0.1610     0.9430 H     1 <1>   0.0800 
 30 H       -4.7700    -1.3840     1.4850 H     1 <1>   0.0800 
 31 H       -5.7330    -3.0380    -0.3420 H     1 <1>   0.0800 
 32 H       -5.1910    -2.8210    -1.9830 H     1 <1>   0.0800 
 33 H       -5.4220     0.9840    -0.2770 H     1 <1>   0.0800 
 34 H       -5.9690     0.6930     1.3500 H     1 <1>   0.0800 
 35 H       -7.4860    -1.9290    -1.5560 H     1 <1>   0.0800 
 36 H       -6.3980    -0.7060    -2.1480 H     1 <1>   0.0800 
 37 H       -8.8590    -1.0630     1.4850 H     1 <1>   0.1500 
 38 H       -7.6120     1.5190    -1.6390 H     1 <1>   0.1500 
 39 H       -9.7700     2.6840    -1.5590 H     1 <1>   0.1500 
 40 H      -11.4850     1.9910     0.0390 H     1 <1>   0.1500 
@<TRIPOS>BOND
  1   1   2  1   
  2   1   3  1   
  3   2   4  2   
  4   2  23  1   
  5   3   5  2   
  6   3  24  1   
  7   4   5  1   
  8   4   6  1   
  9   5  25  1   
 10   6   7  1   
 11   6  26  1   
 12   6  27  1   
 13   7   8  1   
 14   7   9  1   
 15   7  28  1   
 16   8  10  1   
 17   8  29  1   
 18   8  30  1   
 19   9  11  1   
 20   9  31  1   
 21   9  32  1   
 22  10  12  1   
 23  10  33  1   
 24  10  34  1   
 25  11  12  1   
 26  11  35  1   
 27  11  36  1   
 28  12  13  1   
 29  13  14  ar  
 30  13  15  ar  
 31  14  16  ar  
 32  14  37  1   
 33  15  17  ar  
 34  15  38  1   
 35  16  18  ar  
 36  16  19  1   
 37  17  18  ar  
 38  17  39  1   
 39  18  40  1   
 40  19  20  1   
 41  19  21  1   
 42  19  22  1   
@<TRIPOS>SUBSTRUCTURE
  1 ****  12 GROUP 4 **** **** 0

# MOE 2024.06 (io_trps.svl 2023.06)
