@<TRIPOS>MOLECULE
NONAME
39 39 1 0 0 
SMALL
USER_CHARGES


@<TRIPOS>ATOM
  1 CL      -2.3810     0.5480     3.4420 Cl    1 <1>  -0.1770 
  2 C       -2.7320     1.1530     1.8420 C.ar  1 <1>   0.1770 
  3 C       -1.9140     2.0930     1.2390 C.ar  1 <1>   0.1770 
  4 C       -3.8530     0.6740     1.1870 C.ar  1 <1>  -0.1500 
  5 CL      -0.4990     2.7090     2.0570 Cl    1 <1>  -0.1770 
  6 C       -2.2110     2.5590    -0.0290 C.ar  1 <1>  -0.1500 
  7 C       -4.1670     1.1450    -0.0840 C.ar  1 <1>  -0.1440 
  8 C       -3.3350     2.0830    -0.6880 C.ar  1 <1>  -0.1500 
  9 C       -5.4030     0.6380    -0.8080 C.3   1 <1>   0.4870 
 10 N       -6.6200     1.2110    -0.1450 N.4   1 <1>  -0.9590 
 11 C       -7.8640     0.4700    -0.5830 C.3   1 <1>   0.3430 
 12 C       -6.6750     2.6880    -0.3700 C.3   1 <1>   0.3430 
 13 C       -9.1680     0.8560     0.1790 C.3   1 <1>   0.3430 
 14 C       -6.9650     3.3730     0.9590 C.3   1 <1>  -0.2400 
 15 N      -10.4060     0.1090    -0.2630 N.4   1 <1>  -0.9590 
 16 C      -11.6240     0.6930     0.3950 C.3   1 <1>   0.2630 
 17 C      -10.3620    -1.3650     0.0340 C.3   1 <1>   0.2630 
 18 H       -4.4520    -0.0660     1.6880 H     1 <1>   0.1500 
 19 H       -1.5620     3.2840    -0.4900 H     1 <1>   0.1500 
 20 H       -3.5410     2.4550    -1.6790 H     1 <1>   0.1500 
 21 H       -5.4180    -0.4390    -0.7540 H     1 <1>   0.0800 
 22 H       -5.3670     0.9250    -1.8470 H     1 <1>   0.0800 
 23 H       -6.4440     1.0800     0.8630 H     1 <1>   0.4500 
 24 H       -7.6980    -0.5860    -0.4470 H     1 <1>   0.0800 
 25 H       -8.0180     0.6480    -1.6350 H     1 <1>   0.0800 
 26 H       -7.4280     2.9400    -1.0990 H     1 <1>   0.0800 
 27 H       -5.7260     3.0490    -0.7370 H     1 <1>   0.0800 
 28 H       -9.3400     1.9100     0.0380 H     1 <1>   0.0800 
 29 H       -9.0180     0.6830     1.2320 H     1 <1>   0.0800 
 30 H       -7.9130     3.0830     1.3700 H     1 <1>   0.0800 
 31 H       -6.9880     4.4380     0.8040 H     1 <1>   0.0800 
 32 H       -6.1820     3.1700     1.6690 H     1 <1>   0.0800 
 33 H      -10.5510     0.2240    -1.2820 H     1 <1>   0.4500 
 34 H      -11.5640     0.5900     1.4670 H     1 <1>   0.0800 
 35 H      -12.5140     0.1850     0.0550 H     1 <1>   0.0800 
 36 H      -11.7210     1.7400     0.1540 H     1 <1>   0.0800 
 37 H      -10.2460    -1.5340     1.0930 H     1 <1>   0.0800 
 38 H       -9.5450    -1.8390    -0.4850 H     1 <1>   0.0800 
 39 H      -11.2790    -1.8360    -0.2840 H     1 <1>   0.0800 
@<TRIPOS>BOND
  1   1   2  1   
  2   2   3  ar  
  3   2   4  ar  
  4   3   5  1   
  5   3   6  ar  
  6   4   7  ar  
  7   4  18  1   
  8   6   8  ar  
  9   6  19  1   
 10   7   8  ar  
 11   7   9  1   
 12   8  20  1   
 13   9  10  1   
 14   9  21  1   
 15   9  22  1   
 16  10  11  1   
 17  10  12  1   
 18  10  23  1   
 19  11  13  1   
 20  11  24  1   
 21  11  25  1   
 22  12  14  1   
 23  12  26  1   
 24  12  27  1   
 25  13  15  1   
 26  13  28  1   
 27  13  29  1   
 28  14  30  1   
 29  14  31  1   
 30  14  32  1   
 31  15  16  1   
 32  15  17  1   
 33  15  33  1   
 34  16  34  1   
 35  16  35  1   
 36  16  36  1   
 37  17  37  1   
 38  17  38  1   
 39  17  39  1   
@<TRIPOS>SUBSTRUCTURE
  1 ****  10 GROUP 4 **** **** 0

# MOE 2024.06 (io_trps.svl 2023.06)
