@<TRIPOS>MOLECULE
NONAME
26 27 1 0 0 
SMALL
USER_CHARGES


@<TRIPOS>ATOM
  1 BR      -0.0580    -0.5160     1.8630 Br    1 <1>  -0.0580 
  2 C        1.5820    -0.7400     0.8950 C.2   1 <1>   0.0980 
  3 S        3.0340    -0.2290     1.7120 S.3   1 <1>  -0.0800 
  4 C        1.8180    -1.2320    -0.3320 C.2   1 <1>  -0.1500 
  5 C        4.0220    -0.7090     0.3190 C.2   1 <1>  -0.0450 
  6 C        3.2080    -1.2100    -0.6530 C.2   1 <1>  -0.1500 
  7 C        5.4490    -0.5250     0.3890 C.2   1 <1>   0.7150 
  8 O        5.9750     0.1650     1.2430 O.2   1 <1>  -0.5700 
  9 N        6.2930    -1.1820    -0.4780 N.am  1 <1>  -0.6600 
 10 C        7.6090    -0.5540    -0.8050 C.3   1 <1>   0.1400 
 11 C        6.3340    -2.6710    -0.4400 C.3   1 <1>   0.1400 
 12 C        8.6750    -1.0060     0.2120 C.3   1 <1>   0.3430 
 13 C        7.4140    -3.1450     0.5600 C.3   1 <1>   0.3430 
 14 N        8.7540    -2.5080     0.3010 N.4   1 <1>  -0.9060 
 15 H        1.0710    -1.6010    -1.0120 H     1 <1>   0.1500 
 16 H        3.5480    -1.5650    -1.6110 H     1 <1>   0.1500 
 17 H        7.5170     0.5190    -0.7700 H     1 <1>   0.0800 
 18 H        7.9030    -0.8250    -1.8040 H     1 <1>   0.0800 
 19 H        6.5450    -3.0520    -1.4240 H     1 <1>   0.0800 
 20 H        5.3770    -3.0610    -0.1360 H     1 <1>   0.0800 
 21 H        8.4100    -0.5980     1.1760 H     1 <1>   0.0800 
 22 H        9.6330    -0.5980    -0.0670 H     1 <1>   0.0800 
 23 H        7.5010    -4.2190     0.5100 H     1 <1>   0.0800 
 24 H        7.0850    -2.8890     1.5550 H     1 <1>   0.0800 
 25 H        9.4080    -2.7660     1.0520 H     1 <1>   0.4500 
 26 H        9.1440    -2.8760    -0.5760 H     1 <1>   0.4500 
@<TRIPOS>BOND
  1   1   2  1   
  2   2   3  1   
  3   2   4  2   
  4   3   5  1   
  5   4   6  1   
  6   4  15  1   
  7   5   6  2   
  8   5   7  1   
  9   6  16  1   
 10   7   8  2   
 11   7   9  am  
 12   9  10  1   
 13   9  11  1   
 14  10  12  1   
 15  10  17  1   
 16  10  18  1   
 17  11  13  1   
 18  11  19  1   
 19  11  20  1   
 20  12  14  1   
 21  12  21  1   
 22  12  22  1   
 23  13  14  1   
 24  13  23  1   
 25  13  24  1   
 26  14  25  1   
 27  14  26  1   
@<TRIPOS>SUBSTRUCTURE
  1 ****   7 GROUP 4 **** **** 0

# MOE 2024.06 (io_trps.svl 2023.06)
