@<TRIPOS>MOLECULE
NONAME
38 38 1 0 0 
SMALL
USER_CHARGES


@<TRIPOS>ATOM
  1 O       -1.8640    -3.5430     1.4940 O.2   1 <1>  -0.5700 
  2 C       -0.9060    -3.8320     0.8020 C.2   1 <1>   0.5440 
  3 N       -1.1280    -4.6870    -0.2430 N.am  1 <1>  -0.7300 
  4 C        0.4080    -3.2580     1.0480 C.ar  1 <1>   0.0860 
  5 C       -2.2950    -5.6070    -0.4010 C.3   1 <1>   0.1400 
  6 C        1.5720    -3.8280     0.5310 C.ar  1 <1>  -0.1500 
  7 C        0.5540    -2.1030     1.8190 C.ar  1 <1>  -0.1500 
  8 C       -3.5130    -4.9120    -1.0450 C.3   1 <1>   0.3430 
  9 C        2.8180    -3.2700     0.7490 C.ar  1 <1>   0.0830 
 10 C        1.7940    -1.5360     2.0490 C.ar  1 <1>  -0.1500 
 11 N       -4.0290    -3.8050    -0.1840 N.4   1 <1>  -0.9590 
 12 O        3.8720    -3.9100     0.1870 O.3   1 <1>  -0.3620 
 13 C        2.9310    -2.1140     1.5140 C.ar  1 <1>  -0.1500 
 14 C       -4.9620    -4.2840     0.8770 C.3   1 <1>   0.2630 
 15 C       -4.6080    -2.6820    -0.9740 C.3   1 <1>   0.2630 
 16 C        5.1920    -3.4520     0.3680 C.3   1 <1>   0.1200 
 17 C        6.1260    -4.4010    -0.3770 C.3   1 <1>  -0.2400 
 18 H       -0.3300    -4.8880    -0.8550 H     1 <1>   0.3700 
 19 H       -2.5710    -6.0040     0.5610 H     1 <1>   0.0800 
 20 H       -1.9980    -6.4360    -1.0200 H     1 <1>   0.0800 
 21 H        1.5300    -4.7290    -0.0510 H     1 <1>   0.1500 
 22 H       -0.3200    -1.6410     2.2460 H     1 <1>   0.1500 
 23 H       -4.2950    -5.6330    -1.2180 H     1 <1>   0.0800 
 24 H       -3.2070    -4.5190    -2.0000 H     1 <1>   0.0800 
 25 H        1.8760    -0.6440     2.6460 H     1 <1>   0.1500 
 26 H       -3.1850    -3.4510     0.3280 H     1 <1>   0.4500 
 27 H        3.8830    -1.6560     1.7040 H     1 <1>   0.1500 
 28 H       -5.8490    -4.7100     0.4370 H     1 <1>   0.0800 
 29 H       -5.2500    -3.4630     1.5140 H     1 <1>   0.0800 
 30 H       -4.4780    -5.0290     1.4870 H     1 <1>   0.0800 
 31 H       -5.4780    -3.0130    -1.5160 H     1 <1>   0.0800 
 32 H       -3.8810    -2.3080    -1.6770 H     1 <1>   0.0800 
 33 H       -4.8930    -1.8750    -0.3180 H     1 <1>   0.0800 
 34 H        5.4120    -3.4520     1.4220 H     1 <1>   0.0800 
 35 H        5.2660    -2.4550    -0.0300 H     1 <1>   0.0800 
 36 H        6.0330    -5.3970     0.0170 H     1 <1>   0.0800 
 37 H        7.1450    -4.0780    -0.2570 H     1 <1>   0.0800 
 38 H        5.8890    -4.4050    -1.4260 H     1 <1>   0.0800 
@<TRIPOS>BOND
  1   1   2  2   
  2   2   3  am  
  3   2   4  1   
  4   3   5  1   
  5   3  18  1   
  6   4   6  ar  
  7   4   7  ar  
  8   5   8  1   
  9   5  19  1   
 10   5  20  1   
 11   6   9  ar  
 12   6  21  1   
 13   7  10  ar  
 14   7  22  1   
 15   8  11  1   
 16   8  23  1   
 17   8  24  1   
 18   9  12  1   
 19   9  13  ar  
 20  10  13  ar  
 21  10  25  1   
 22  11  14  1   
 23  11  15  1   
 24  11  26  1   
 25  12  16  1   
 26  13  27  1   
 27  14  28  1   
 28  14  29  1   
 29  14  30  1   
 30  15  31  1   
 31  15  32  1   
 32  15  33  1   
 33  16  17  1   
 34  16  34  1   
 35  16  35  1   
 36  17  36  1   
 37  17  37  1   
 38  17  38  1   
@<TRIPOS>SUBSTRUCTURE
  1 ****   4 GROUP 4 **** **** 0

# MOE 2024.06 (io_trps.svl 2023.06)
