@<TRIPOS>MOLECULE
NONAME
35 35 1 0 0 
SMALL
USER_CHARGES


@<TRIPOS>ATOM
  1 CL      -0.7290     0.1610    -1.7230 Cl    1 <1>  -0.1770 
  2 C       -1.9110     1.0310    -0.7680 C.ar  1 <1>   0.1770 
  3 C       -1.5530     2.1950    -0.0970 C.ar  1 <1>   0.0830 
  4 C       -3.1940     0.5240    -0.7060 C.ar  1 <1>  -0.1500 
  5 O       -0.2670     2.6360    -0.2020 O.3   1 <1>  -0.3630 
  6 C       -2.5290     2.8520     0.6470 C.ar  1 <1>  -0.1500 
  7 C       -4.1690     1.1750     0.0390 C.ar  1 <1>   0.1170 
  8 C        0.1690     3.7890     0.4830 C.3   1 <1>   0.0400 
  9 C       -3.8170     2.3450     0.7080 C.ar  1 <1>  -0.1500 
 10 N       -5.4650     0.6340     0.0680 N.am  1 <1>  -0.5470 
 11 C       -6.4950     0.8100     0.9500 C.2   1 <1>   0.5690 
 12 O       -6.4170     1.4930     1.9420 O.2   1 <1>  -0.5700 
 13 C       -7.7930     0.0680     0.6810 C.3   1 <1>  -0.0990 
 14 C       -8.7830     0.7840    -0.2680 C.3   1 <1>   0.0000 
 15 C      -10.0490    -0.0760    -0.3950 C.3   1 <1>  -0.2400 
 16 C       -8.1840     0.9740    -1.6710 C.3   1 <1>  -0.2400 
 17 C       -9.1800     2.1560     0.2960 C.3   1 <1>  -0.2400 
 18 H       -3.4240    -0.3790    -1.2370 H     1 <1>   0.1500 
 19 H       -2.3120     3.7560     1.1840 H     1 <1>   0.1500 
 20 H        1.2120     3.9310     0.2630 H     1 <1>   0.0800 
 21 H        0.0370     3.6390     1.5400 H     1 <1>   0.0800 
 22 H       -0.3960     4.6360     0.1370 H     1 <1>   0.0800 
 23 H       -4.5540     2.8740     1.2840 H     1 <1>   0.1500 
 24 H       -5.6740    -0.0060    -0.6950 H     1 <1>   0.3700 
 25 H       -8.2740    -0.0880     1.6300 H     1 <1>   0.0800 
 26 H       -7.5560    -0.9040     0.2900 H     1 <1>   0.0800 
 27 H       -9.8140    -1.0440    -0.8020 H     1 <1>   0.0800 
 28 H      -10.7650     0.3970    -1.0430 H     1 <1>   0.0800 
 29 H      -10.5100    -0.2150     0.5670 H     1 <1>   0.0800 
 30 H       -7.8660     0.0320    -2.0810 H     1 <1>   0.0800 
 31 H       -7.3440     1.6450    -1.6450 H     1 <1>   0.0800 
 32 H       -8.9170     1.3980    -2.3350 H     1 <1>   0.0800 
 33 H       -9.5940     2.0540     1.2830 H     1 <1>   0.0800 
 34 H       -9.9150     2.6270    -0.3320 H     1 <1>   0.0800 
 35 H       -8.3270     2.8090     0.3580 H     1 <1>   0.0800 
@<TRIPOS>BOND
  1   1   2  1   
  2   2   3  ar  
  3   2   4  ar  
  4   3   5  1   
  5   3   6  ar  
  6   4   7  ar  
  7   4  18  1   
  8   5   8  1   
  9   6   9  ar  
 10   6  19  1   
 11   7   9  ar  
 12   7  10  1   
 13   8  20  1   
 14   8  21  1   
 15   8  22  1   
 16   9  23  1   
 17  10  11  am  
 18  10  24  1   
 19  11  12  2   
 20  11  13  1   
 21  13  14  1   
 22  13  25  1   
 23  13  26  1   
 24  14  15  1   
 25  14  16  1   
 26  14  17  1   
 27  15  27  1   
 28  15  28  1   
 29  15  29  1   
 30  16  30  1   
 31  16  31  1   
 32  16  32  1   
 33  17  33  1   
 34  17  34  1   
 35  17  35  1   
@<TRIPOS>SUBSTRUCTURE
  1 ****   7 GROUP 4 **** **** 0

# MOE 2024.06 (io_trps.svl 2023.06)
