@<TRIPOS>MOLECULE
NONAME
43 43 1 0 0 
SMALL
USER_CHARGES


@<TRIPOS>ATOM
  1 O        0.6410    -0.3500    -0.3480 O.3   1 <1>  -0.3630 
  2 C       -0.6430    -0.7890    -0.3150 C.ar  1 <1>   0.0830 
  3 C        1.7140    -1.2040    -0.0480 C.3   1 <1>   0.1200 
  4 C       -1.6240     0.1390    -0.6220 C.ar  1 <1>  -0.1500 
  5 C       -1.0100    -2.0930     0.0060 C.ar  1 <1>  -0.1500 
  6 C        2.9940    -0.3790    -0.1780 C.3   1 <1>  -0.1600 
  7 C       -2.9610    -0.2180    -0.6160 C.ar  1 <1>  -0.1440 
  8 C       -2.3460    -2.4580     0.0180 C.ar  1 <1>  -0.1430 
  9 C        4.2230    -1.2270     0.1430 C.3   1 <1>   0.3430 
 10 C       -3.3150    -1.5180    -0.2940 C.ar  1 <1>  -0.1500 
 11 C       -4.0360     0.7990    -0.9530 C.3   1 <1>  -0.0960 
 12 C       -2.7560    -3.8780     0.3660 C.3   1 <1>  -0.0970 
 13 N        5.4750    -0.4500    -0.0920 N.4   1 <1>  -0.9590 
 14 C        6.6460    -1.3670    -0.1350 C.3   1 <1>   0.3430 
 15 C        5.6580     0.6400     0.9070 C.3   1 <1>   0.3430 
 16 C        7.8320    -0.6650    -0.7860 C.3   1 <1>  -0.2400 
 17 C        5.6110     1.9760     0.1780 C.3   1 <1>  -0.2400 
 18 H        1.6990    -2.0210    -0.7500 H     1 <1>   0.0800 
 19 H        1.5820    -1.5680     0.9570 H     1 <1>   0.0800 
 20 H       -1.3290     1.1430    -0.8670 H     1 <1>   0.1500 
 21 H       -0.2750    -2.8350     0.2460 H     1 <1>   0.1500 
 22 H        2.9240     0.4500     0.5020 H     1 <1>   0.0800 
 23 H        3.0580    -0.0130    -1.1880 H     1 <1>   0.0800 
 24 H        4.2160    -2.0960    -0.4950 H     1 <1>   0.0800 
 25 H        4.1820    -1.5620     1.1680 H     1 <1>   0.0800 
 26 H       -4.3540    -1.7990    -0.2870 H     1 <1>   0.1500 
 27 H       -3.6090     1.6650    -1.4260 H     1 <1>   0.0800 
 28 H       -4.5380     1.1090    -0.0540 H     1 <1>   0.0800 
 29 H       -4.7570     0.3660    -1.6230 H     1 <1>   0.0800 
 30 H       -2.0100    -4.3510     0.9780 H     1 <1>   0.0800 
 31 H       -2.8810    -4.4510    -0.5350 H     1 <1>   0.0800 
 32 H       -3.6850    -3.8760     0.9070 H     1 <1>   0.0800 
 33 H        5.3990    -0.0060    -1.0170 H     1 <1>   0.4500 
 34 H        6.4010    -2.2410    -0.7180 H     1 <1>   0.0800 
 35 H        6.9050    -1.6900     0.8610 H     1 <1>   0.0800 
 36 H        6.6070     0.5360     1.4090 H     1 <1>   0.0800 
 37 H        4.8790     0.6040     1.6530 H     1 <1>   0.0800 
 38 H        7.5820    -0.3270    -1.7750 H     1 <1>   0.0800 
 39 H        8.6480    -1.3610    -0.8710 H     1 <1>   0.0800 
 40 H        8.1740     0.1640    -0.1930 H     1 <1>   0.0800 
 41 H        6.4010     2.0470    -0.5480 H     1 <1>   0.0800 
 42 H        4.6610     2.1200    -0.3050 H     1 <1>   0.0800 
 43 H        5.7430     2.7720     0.8890 H     1 <1>   0.0800 
@<TRIPOS>BOND
  1   1   2  1   
  2   1   3  1   
  3   2   4  ar  
  4   2   5  ar  
  5   3   6  1   
  6   3  18  1   
  7   3  19  1   
  8   4   7  ar  
  9   4  20  1   
 10   5   8  ar  
 11   5  21  1   
 12   6   9  1   
 13   6  22  1   
 14   6  23  1   
 15   7  10  ar  
 16   7  11  1   
 17   8  10  ar  
 18   8  12  1   
 19   9  13  1   
 20   9  24  1   
 21   9  25  1   
 22  10  26  1   
 23  11  27  1   
 24  11  28  1   
 25  11  29  1   
 26  12  30  1   
 27  12  31  1   
 28  12  32  1   
 29  13  14  1   
 30  13  15  1   
 31  13  33  1   
 32  14  16  1   
 33  14  34  1   
 34  14  35  1   
 35  15  17  1   
 36  15  36  1   
 37  15  37  1   
 38  16  38  1   
 39  16  39  1   
 40  16  40  1   
 41  17  41  1   
 42  17  42  1   
 43  17  43  1   
@<TRIPOS>SUBSTRUCTURE
  1 ****   3 GROUP 4 **** **** 0

# MOE 2024.06 (io_trps.svl 2023.06)
