@<TRIPOS>MOLECULE
NONAME
36 37 1 0 0 
SMALL
USER_CHARGES


@<TRIPOS>ATOM
  1 O        0.1330     0.3280     0.9640 O.2   1 <1>  -0.5700 
  2 C        0.8380     1.2710     0.6960 C.2   1 <1>   0.5770 
  3 N        2.0960     1.1010     0.2180 N.am  1 <1>  -0.7300 
  4 C        0.3210     2.6860     0.9200 C.3   1 <1>   0.0530 
  5 C        2.7560    -0.1940     0.0480 C.3   1 <1>   0.3640 
  6 C       -1.1740     2.9120     0.5600 C.3   1 <1>   0.0000 
  7 C        0.6570     3.7040    -0.2050 C.3   1 <1>   0.0000 
  8 C        4.2550     0.0140     0.2370 C.ar  1 <1>  -0.1440 
  9 C        2.4190    -0.7480    -1.3340 C.3   1 <1>  -0.2400 
 10 C       -0.7520     4.3060     0.0280 C.3   1 <1>   0.0000 
 11 C        4.8980    -0.5800     1.3140 C.ar  1 <1>  -0.1500 
 12 C        4.9980     0.7950    -0.6400 C.ar  1 <1>  -0.1500 
 13 C        6.2550    -0.4000     1.5080 C.ar  1 <1>  -0.1500 
 14 C        6.3570     0.9770    -0.4490 C.ar  1 <1>  -0.1500 
 15 C        6.9950     0.3770     0.6320 C.ar  1 <1>   0.0830 
 16 O        8.3200     0.5020     0.8930 O.3   1 <1>  -0.3630 
 17 C        9.1660     1.2550     0.0540 C.3   1 <1>   0.0400 
 18 H        2.7130     1.9000     0.0820 H     1 <1>   0.3700 
 19 H        0.5620     3.0710     1.8970 H     1 <1>   0.0000 
 20 H        2.3870    -0.8780     0.7960 H     1 <1>   0.0800 
 21 H       -1.8270     2.9510     1.4140 H     1 <1>   0.0000 
 22 H       -1.5260     2.2630    -0.2240 H     1 <1>   0.0000 
 23 H        0.7520     3.2490    -1.1770 H     1 <1>   0.0000 
 24 H        1.4630     4.3730     0.0390 H     1 <1>   0.0000 
 25 H        2.6940    -0.0580    -2.1090 H     1 <1>   0.0800 
 26 H        1.3640    -0.9470    -1.3950 H     1 <1>   0.0800 
 27 H        2.9470    -1.6710    -1.4890 H     1 <1>   0.0800 
 28 H       -0.7600     5.0630     0.7930 H     1 <1>   0.0000 
 29 H       -1.2570     4.5980    -0.8760 H     1 <1>   0.0000 
 30 H        4.3440    -1.1860     2.0110 H     1 <1>   0.1500 
 31 H        4.5220     1.2670    -1.4820 H     1 <1>   0.1500 
 32 H        6.7520    -0.8610     2.3420 H     1 <1>   0.1500 
 33 H        6.8990     1.5850    -1.1470 H     1 <1>   0.1500 
 34 H       10.1620     1.2060     0.4540 H     1 <1>   0.0800 
 35 H        8.8270     2.2760     0.0420 H     1 <1>   0.0800 
 36 H        9.1470     0.8290    -0.9340 H     1 <1>   0.0800 
@<TRIPOS>BOND
  1   1   2  2   
  2   2   3  am  
  3   2   4  1   
  4   3   5  1   
  5   3  18  1   
  6   4   6  1   
  7   4   7  1   
  8   4  19  1   
  9   5   8  1   
 10   5   9  1   
 11   5  20  1   
 12   6  10  1   
 13   6  21  1   
 14   6  22  1   
 15   7  10  1   
 16   7  23  1   
 17   7  24  1   
 18   8  11  ar  
 19   8  12  ar  
 20   9  25  1   
 21   9  26  1   
 22   9  27  1   
 23  10  28  1   
 24  10  29  1   
 25  11  13  ar  
 26  11  30  1   
 27  12  14  ar  
 28  12  31  1   
 29  13  15  ar  
 30  13  32  1   
 31  14  15  ar  
 32  14  33  1   
 33  15  16  1   
 34  16  17  1   
 35  17  34  1   
 36  17  35  1   
 37  17  36  1   
@<TRIPOS>SUBSTRUCTURE
  1 ****   8 GROUP 4 **** **** 0

# MOE 2024.06 (io_trps.svl 2023.06)
