@<TRIPOS>MOLECULE
NONAME
37 38 1 0 0 
SMALL
USER_CHARGES


@<TRIPOS>ATOM
  1 CL       0.6280     0.7760    -1.1940 Cl    1 <1>  -0.1770 
  2 C        1.9370    -0.2630    -0.6980 C.ar  1 <1>   0.1770 
  3 C        2.7240    -0.8690    -1.6590 C.ar  1 <1>  -0.1500 
  4 C        2.1700    -0.4660     0.6490 C.ar  1 <1>  -0.1500 
  5 C        3.7650    -1.6920    -1.2630 C.ar  1 <1>  -0.1500 
  6 C        3.2120    -1.2890     1.0420 C.ar  1 <1>  -0.1500 
  7 C        4.0170    -1.9020     0.0880 C.ar  1 <1>  -0.1430 
  8 C        5.1660    -2.7930     0.5230 C.3   1 <1>   0.4870 
  9 N        6.4480    -2.0860     0.2770 N.4   1 <1>  -0.9590 
 10 C        7.6660    -2.9300     0.5090 C.3   1 <1>   0.3430 
 11 C        6.5690    -0.7660     0.9810 C.3   1 <1>   0.3430 
 12 C        8.9710    -2.1390     0.2340 C.3   1 <1>   0.1100 
 13 C        7.8250    -0.0020     0.5000 C.3   1 <1>   0.1100 
 14 N        8.7060    -0.8190    -0.3820 N.3   1 <1>  -0.8100 
 15 C        9.9790    -0.0920    -0.6730 C.3   1 <1>   0.1710 
 16 C        9.7960     1.2870    -1.3220 C.2   1 <1>   0.5690 
 17 O        9.7520     2.2670    -0.6240 O.2   1 <1>  -0.5700 
 18 N        9.6620     1.4030    -2.6590 N.am  1 <1>  -0.8000 
 19 H        2.5160    -0.6960    -2.7000 H     1 <1>   0.1500 
 20 H        1.5370     0.0160     1.3740 H     1 <1>   0.1500 
 21 H        4.3680    -2.1640    -2.0210 H     1 <1>   0.1500 
 22 H        3.3800    -1.4440     2.0940 H     1 <1>   0.1500 
 23 H        5.1360    -3.7120    -0.0400 H     1 <1>   0.0800 
 24 H        5.0680    -3.0320     1.5700 H     1 <1>   0.0800 
 25 H        6.4970    -1.8220    -0.7180 H     1 <1>   0.4500 
 26 H        7.6400    -3.7890    -0.1420 H     1 <1>   0.0800 
 27 H        7.6820    -3.2900     1.5250 H     1 <1>   0.0800 
 28 H        6.6330    -0.9200     2.0450 H     1 <1>   0.0800 
 29 H        5.7000    -0.1570     0.7890 H     1 <1>   0.0800 
 30 H        9.6000    -2.7230    -0.4170 H     1 <1>   0.0800 
 31 H        9.5030    -2.0060     1.1620 H     1 <1>   0.0800 
 32 H        8.3760     0.3420     1.3590 H     1 <1>   0.0800 
 33 H        7.5000     0.8740    -0.0370 H     1 <1>   0.0800 
 34 H       10.5850    -0.6890    -1.3300 H     1 <1>   0.0800 
 35 H       10.5310     0.0490     0.2400 H     1 <1>   0.0800 
 36 H        9.5400     2.3310    -3.0690 H     1 <1>   0.3700 
 37 H        9.6370     0.6140    -3.3030 H     1 <1>   0.3700 
@<TRIPOS>BOND
  1   1   2  1   
  2   2   3  ar  
  3   2   4  ar  
  4   3   5  ar  
  5   3  19  1   
  6   4   6  ar  
  7   4  20  1   
  8   5   7  ar  
  9   5  21  1   
 10   6   7  ar  
 11   6  22  1   
 12   7   8  1   
 13   8   9  1   
 14   8  23  1   
 15   8  24  1   
 16   9  10  1   
 17   9  11  1   
 18   9  25  1   
 19  10  12  1   
 20  10  26  1   
 21  10  27  1   
 22  11  13  1   
 23  11  28  1   
 24  11  29  1   
 25  12  14  1   
 26  12  30  1   
 27  12  31  1   
 28  13  14  1   
 29  13  32  1   
 30  13  33  1   
 31  14  15  1   
 32  15  16  1   
 33  15  34  1   
 34  15  35  1   
 35  16  17  2   
 36  16  18  am  
 37  18  36  1   
 38  18  37  1   
@<TRIPOS>SUBSTRUCTURE
  1 ****  11 GROUP 4 **** **** 0

# MOE 2024.06 (io_trps.svl 2023.06)
