@<TRIPOS>MOLECULE
NONAME
24 24 1 0 0 
SMALL
USER_CHARGES


@<TRIPOS>ATOM
  1 N       -2.1480     1.0310    -0.0120 N.pl3 1 <1>  -0.4270 
  2 N       -1.2710     1.9210    -0.5480 N.2   1 <1>  -0.4920 
  3 C       -3.3290     1.6220     0.4370 C.2   1 <1>  -0.0380 
  4 C       -1.8210    -0.4060     0.0570 C.3   1 <1>   0.1290 
  5 C       -1.7860     3.0730    -0.4880 C.2   1 <1>   0.3280 
  6 C       -3.1810     3.1100     0.1430 C.3   1 <1>   0.1990 
  7 C       -4.3770     1.0090     1.0090 C.2   1 <1>  -0.3000 
  8 C       -1.1180     4.3400    -0.9860 C.3   1 <1>  -0.1790 
  9 C       -4.2590     3.5840    -0.8440 C.3   1 <1>  -0.2400 
 10 C       -3.2150     3.9310     1.4420 C.3   1 <1>  -0.2400 
 11 H       -0.8460    -0.5730    -0.3630 H     1 <1>   0.0800 
 12 H       -2.5500    -0.9650    -0.5010 H     1 <1>   0.0800 
 13 H       -1.8260    -0.7240     1.0830 H     1 <1>   0.0800 
 14 H       -5.2640     1.5210     1.3360 H     1 <1>   0.1500 
 15 H       -4.4250    -0.0470     1.1920 H     1 <1>   0.1500 
 16 H       -1.7120     4.7920    -1.7570 H     1 <1>   0.0800 
 17 H       -0.1510     4.1000    -1.3910 H     1 <1>   0.0800 
 18 H       -0.9900     5.0330    -0.1760 H     1 <1>   0.0800 
 19 H       -4.2150     2.9900    -1.7400 H     1 <1>   0.0800 
 20 H       -4.1100     4.6160    -1.1030 H     1 <1>   0.0800 
 21 H       -5.2360     3.4740    -0.4100 H     1 <1>   0.0800 
 22 H       -2.4540     3.5760     2.1140 H     1 <1>   0.0800 
 23 H       -4.1700     3.8280     1.9230 H     1 <1>   0.0800 
 24 H       -3.0410     4.9720     1.2380 H     1 <1>   0.0800 
@<TRIPOS>BOND
  1   1   2  1   
  2   1   3  1   
  3   1   4  1   
  4   2   5  2   
  5   3   6  1   
  6   3   7  2   
  7   4  11  1   
  8   4  12  1   
  9   4  13  1   
 10   5   6  1   
 11   5   8  1   
 12   6   9  1   
 13   6  10  1   
 14   7  14  1   
 15   7  15  1   
 16   8  16  1   
 17   8  17  1   
 18   8  18  1   
 19   9  19  1   
 20   9  20  1   
 21   9  21  1   
 22  10  22  1   
 23  10  23  1   
 24  10  24  1   
@<TRIPOS>SUBSTRUCTURE
  1 ****   6 GROUP 4 **** **** 0

# MOE 2024.06 (io_trps.svl 2023.06)
