@<TRIPOS>MOLECULE
NONAME
34 36 1 0 0 
SMALL
USER_CHARGES


@<TRIPOS>ATOM
  1 O        0.8410     2.6170    -0.3880 O.2   1 <1>  -0.5700 
  2 C       -0.1680     2.1150     0.0540 C.2   1 <1>   0.6900 
  3 N       -1.2730     1.9710    -0.7470 N.am  1 <1>  -0.3680 
  4 N       -0.2140     1.7690     1.3490 N.am  1 <1>  -0.8000 
  5 N       -2.4730     1.3050    -0.5230 N.2   1 <1>  -0.5120 
  6 C       -2.5290     0.0580    -0.2120 C.2   1 <1>   0.3640 
  7 C       -3.7860    -0.5880     0.1110 C.ar  1 <1>   0.0860 
  8 C       -1.2830    -0.8420    -0.1910 C.3   1 <1>  -0.1000 
  9 C       -4.9930    -0.0820    -0.3820 C.ar  1 <1>  -0.1500 
 10 C       -3.8630    -1.7280     0.9240 C.ar  1 <1>  -0.1500 
 11 C       -0.3790    -0.9640    -1.3860 C.3   1 <1>  -0.2000 
 12 C       -1.2430    -2.1160    -0.9900 C.3   1 <1>  -0.2000 
 13 C       -6.2040    -0.6790    -0.0920 C.ar  1 <1>   0.0830 
 14 C       -5.0710    -2.3310     1.2260 C.ar  1 <1>  -0.1500 
 15 O       -7.3390    -0.1530    -0.6190 O.3   1 <1>  -0.3630 
 16 C       -6.2480    -1.8080     0.7250 C.ar  1 <1>   0.0830 
 17 C       -8.5010    -0.9600    -0.5750 C.3   1 <1>   0.1200 
 18 O       -7.4230    -2.4030     1.0450 O.3   1 <1>  -0.3630 
 19 C       -8.6050    -1.6700     0.7820 C.3   1 <1>   0.1200 
 20 H       -1.2330     2.6050    -1.5480 H     1 <1>   0.3700 
 21 H       -1.1210     1.5990     1.7780 H     1 <1>   0.3700 
 22 H        0.5530     2.0480     1.9570 H     1 <1>   0.3700 
 23 H       -0.8170    -0.8610     0.7780 H     1 <1>   0.1000 
 24 H       -4.9890     0.7930    -1.0080 H     1 <1>   0.1500 
 25 H       -2.9670    -2.1530     1.3380 H     1 <1>   0.1500 
 26 H       -0.6270    -0.4130    -2.2770 H     1 <1>   0.1000 
 27 H        0.6820    -1.0100    -1.2140 H     1 <1>   0.1000 
 28 H       -0.7740    -2.9850    -0.5610 H     1 <1>   0.1000 
 29 H       -2.0740    -2.3670    -1.6260 H     1 <1>   0.1000 
 30 H       -5.1100    -3.2050     1.8520 H     1 <1>   0.1500 
 31 H       -9.3520    -0.3260    -0.7420 H     1 <1>   0.0800 
 32 H       -8.4370    -1.6820    -1.3700 H     1 <1>   0.0800 
 33 H       -9.4310    -2.3570     0.7930 H     1 <1>   0.0800 
 34 H       -8.7340    -0.9500     1.5710 H     1 <1>   0.0800 
@<TRIPOS>BOND
  1   1   2  2   
  2   2   3  am  
  3   2   4  am  
  4   3   5  1   
  5   3  20  1   
  6   4  21  1   
  7   4  22  1   
  8   5   6  2   
  9   6   7  1   
 10   6   8  1   
 11   7   9  ar  
 12   7  10  ar  
 13   8  11  1   
 14   8  12  1   
 15   8  23  1   
 16   9  13  ar  
 17   9  24  1   
 18  10  14  ar  
 19  10  25  1   
 20  11  12  1   
 21  11  26  1   
 22  11  27  1   
 23  12  28  1   
 24  12  29  1   
 25  13  15  1   
 26  13  16  ar  
 27  14  16  ar  
 28  14  30  1   
 29  15  17  1   
 30  16  18  1   
 31  17  19  1   
 32  17  31  1   
 33  17  32  1   
 34  18  19  1   
 35  19  33  1   
 36  19  34  1   
@<TRIPOS>SUBSTRUCTURE
  1 ****   7 GROUP 4 **** **** 0

# MOE 2024.06 (io_trps.svl 2023.06)
