@<TRIPOS>MOLECULE
NONAME
41 45 1 0 0 
SMALL
USER_CHARGES


@<TRIPOS>ATOM
  1 O        0.1490     0.1500     0.4910 O.2   1 <1>  -0.5700 
  2 C        0.1410    -1.0060     0.0860 C.2   1 <1>   0.7160 
  3 N       -1.0580    -1.6390    -0.1950 N.am  1 <1>  -0.4200 
  4 C        1.3180    -1.7660    -0.1210 C.2   1 <1>  -0.0860 
  5 C       -1.0400    -2.9450    -0.6360 C.2   1 <1>   0.4500 
  6 C       -2.3490    -0.9120    -0.0160 C.3   1 <1>   0.2200 
  7 C        1.2100    -3.0530    -0.5690 C.2   1 <1>  -0.0260 
  8 C        2.6980    -1.4910     0.0390 C.ar  1 <1>   0.2560 
  9 N        0.0160    -3.6580    -0.8300 N.2   1 <1>  -0.5760 
 10 C       -3.2110    -1.5650     1.0770 C.3   1 <1>  -0.1600 
 11 C       -3.1960    -0.9230    -1.2980 C.3   1 <1>  -0.1600 
 12 N        2.4490    -3.6130    -0.7040 N.pl3 1 <1>   0.0480 
 13 N        3.2960    -0.3960     0.4450 N.ar  1 <1>  -0.5660 
 14 C        3.3850    -2.6720    -0.3340 C.ar  1 <1>   0.1050 
 15 C       -4.6050    -1.7520     0.4750 C.3   1 <1>  -0.1600 
 16 C       -4.3780    -1.8550    -1.0290 C.3   1 <1>  -0.1600 
 17 C        2.7520    -4.9850    -1.1500 C.3   1 <1>   0.0160 
 18 C        4.6360    -0.5190     0.4680 C.ar  1 <1>   0.3100 
 19 N        4.6870    -2.8290    -0.3240 N.ar  1 <1>  -0.5670 
 20 C        5.3220    -1.7150     0.0910 C.ar  1 <1>   0.3100 
 21 C        5.4040     0.5860     0.8860 C.ar  1 <1>  -0.1500 
 22 C        6.7300    -1.7260     0.1560 C.ar  1 <1>  -0.1500 
 23 C        6.7690     0.5390     0.9370 C.ar  1 <1>  -0.1500 
 24 C        7.4420    -0.6330     0.5670 C.ar  1 <1>  -0.1500 
 25 H       -1.9960    -3.3970    -0.8280 H     1 <1>   0.0600 
 26 H       -2.1690     0.1150     0.2520 H     1 <1>   0.0800 
 27 H       -3.2580    -0.9360     1.9490 H     1 <1>   0.0800 
 28 H       -2.8160    -2.5220     1.3670 H     1 <1>   0.0800 
 29 H       -2.6390    -1.2110    -2.1720 H     1 <1>   0.0800 
 30 H       -3.5790     0.0710    -1.4550 H     1 <1>   0.0800 
 31 H       -5.2040    -0.8810     0.6830 H     1 <1>   0.0800 
 32 H       -5.1040    -2.6210     0.8690 H     1 <1>   0.0800 
 33 H       -4.1170    -2.8670    -1.2870 H     1 <1>   0.0800 
 34 H       -5.2520    -1.5690    -1.5880 H     1 <1>   0.0800 
 35 H        1.8710    -5.4320    -1.5730 H     1 <1>   0.0800 
 36 H        3.0820    -5.5640    -0.3080 H     1 <1>   0.0800 
 37 H        3.5290    -4.9520    -1.8910 H     1 <1>   0.0800 
 38 H        4.8700     1.4770     1.1660 H     1 <1>   0.1500 
 39 H        7.2280    -2.6340    -0.1320 H     1 <1>   0.1500 
 40 H        7.3420     1.3930     1.2580 H     1 <1>   0.1500 
 41 H        8.5180    -0.6560     0.6120 H     1 <1>   0.1500 
@<TRIPOS>BOND
  1   1   2  2   
  2   2   3  am  
  3   2   4  1   
  4   3   5  1   
  5   3   6  1   
  6   4   7  2   
  7   4   8  1   
  8   5   9  2   
  9   5  25  1   
 10   6  10  1   
 11   6  11  1   
 12   6  26  1   
 13   7   9  1   
 14   7  12  1   
 15   8  13  ar  
 16   8  14  ar  
 17  10  15  1   
 18  10  27  1   
 19  10  28  1   
 20  11  16  1   
 21  11  29  1   
 22  11  30  1   
 23  12  14  1   
 24  12  17  1   
 25  13  18  ar  
 26  14  19  ar  
 27  15  16  1   
 28  15  31  1   
 29  15  32  1   
 30  16  33  1   
 31  16  34  1   
 32  17  35  1   
 33  17  36  1   
 34  17  37  1   
 35  18  20  ar  
 36  18  21  ar  
 37  19  20  ar  
 38  20  22  ar  
 39  21  23  ar  
 40  21  38  1   
 41  22  24  ar  
 42  22  39  1   
 43  23  24  ar  
 44  23  40  1   
 45  24  41  1   
@<TRIPOS>SUBSTRUCTURE
  1 ****   4 GROUP 4 **** **** 0

# MOE 2024.06 (io_trps.svl 2023.06)
