@<TRIPOS>MOLECULE
NONAME
45 46 1 0 0 
SMALL
USER_CHARGES


@<TRIPOS>ATOM
  1 O       -1.3700    -1.1860    -1.5800 O.2   1 <1>  -0.5700 
  2 C       -0.6170    -1.4750    -0.6730 C.2   1 <1>   0.7160 
  3 N       -0.8560    -1.0530     0.6020 N.am  1 <1>  -0.7300 
  4 C        0.5370    -2.2940    -0.9130 C.2   1 <1>  -0.0860 
  5 C       -2.1400    -0.6040     1.1720 C.3   1 <1>   0.3640 
  6 C        0.5540    -3.5590    -1.4780 C.2   1 <1>   0.1080 
  7 C        1.8480    -2.0990    -0.6610 C.2   1 <1>  -0.0400 
  8 C       -3.1350    -1.7640     1.1640 C.ar  1 <1>  -0.1440 
  9 C       -2.6420     0.6810     0.5090 C.3   1 <1>  -0.2400 
 10 N        1.7500    -4.0130    -1.5220 N.2   1 <1>  -0.4100 
 11 C       -0.6630    -4.3260    -1.9690 C.3   1 <1>   0.0210 
 12 O        2.5800    -3.1260    -1.0210 O.3   1 <1>  -0.0190 
 13 C        2.5530    -0.8990    -0.0580 C.3   1 <1>  -0.0600 
 14 C       -3.8600    -2.1050     0.0300 C.ar  1 <1>  -0.1500 
 15 C       -3.3040    -2.5200     2.3140 C.ar  1 <1>  -0.1500 
 16 C       -1.4660    -4.9140    -0.8030 C.3   1 <1>  -0.2400 
 17 C       -4.7300    -3.1920     0.0180 C.ar  1 <1>   0.0830 
 18 C       -4.1810    -3.5890     2.3270 C.ar  1 <1>  -0.1500 
 19 O       -5.3830    -3.5550    -1.1250 O.3   1 <1>  -0.3620 
 20 C       -4.9050    -3.9330     1.1980 C.ar  1 <1>   0.0830 
 21 C       -4.9530    -3.1040    -2.3920 C.3   1 <1>   0.0400 
 22 O       -5.7370    -5.0020     1.3510 O.3   1 <1>  -0.3630 
 23 C       -6.9540    -5.0830     0.6420 C.3   1 <1>   0.0400 
 24 H       -0.2370    -1.4540     1.3040 H     1 <1>   0.3700 
 25 H       -1.9520    -0.3520     2.2030 H     1 <1>   0.0800 
 26 H       -2.8520     0.5400    -0.5330 H     1 <1>   0.0800 
 27 H       -1.9070     1.4580     0.6150 H     1 <1>   0.0800 
 28 H       -3.5470     1.0000     0.9920 H     1 <1>   0.0800 
 29 H       -0.3360    -5.1240    -2.6140 H     1 <1>   0.0800 
 30 H       -1.2880    -3.6720    -2.5500 H     1 <1>   0.0800 
 31 H        1.8530    -0.1110     0.1550 H     1 <1>   0.0800 
 32 H        3.2880    -0.5290    -0.7490 H     1 <1>   0.0800 
 33 H        3.0470    -1.1860     0.8520 H     1 <1>   0.0800 
 34 H       -3.7300    -1.5140    -0.8540 H     1 <1>   0.1500 
 35 H       -2.7560    -2.2870     3.2100 H     1 <1>   0.1500 
 36 H       -0.8540    -5.5970    -0.2410 H     1 <1>   0.0800 
 37 H       -2.3260    -5.4440    -1.1730 H     1 <1>   0.0800 
 38 H       -1.8050    -4.1350    -0.1450 H     1 <1>   0.0800 
 39 H       -4.3120    -4.1700     3.2220 H     1 <1>   0.1500 
 40 H       -5.4900    -3.6530    -3.1430 H     1 <1>   0.0800 
 41 H       -3.8970    -3.2850    -2.4890 H     1 <1>   0.0800 
 42 H       -5.1710    -2.0550    -2.4820 H     1 <1>   0.0800 
 43 H       -7.5980    -5.7700     1.1590 H     1 <1>   0.0800 
 44 H       -6.7540    -5.4490    -0.3490 H     1 <1>   0.0800 
 45 H       -7.4060    -4.1080     0.6050 H     1 <1>   0.0800 
@<TRIPOS>BOND
  1   1   2  2   
  2   2   3  am  
  3   2   4  1   
  4   3   5  1   
  5   3  24  1   
  6   4   6  1   
  7   4   7  2   
  8   5   8  1   
  9   5   9  1   
 10   5  25  1   
 11   6  10  2   
 12   6  11  1   
 13   7  12  1   
 14   7  13  1   
 15   8  14  ar  
 16   8  15  ar  
 17   9  26  1   
 18   9  27  1   
 19   9  28  1   
 20  10  12  1   
 21  11  16  1   
 22  11  29  1   
 23  11  30  1   
 24  13  31  1   
 25  13  32  1   
 26  13  33  1   
 27  14  17  ar  
 28  14  34  1   
 29  15  18  ar  
 30  15  35  1   
 31  16  36  1   
 32  16  37  1   
 33  16  38  1   
 34  17  19  1   
 35  17  20  ar  
 36  18  20  ar  
 37  18  39  1   
 38  19  21  1   
 39  20  22  1   
 40  21  40  1   
 41  21  41  1   
 42  21  42  1   
 43  22  23  1   
 44  23  43  1   
 45  23  44  1   
 46  23  45  1   
@<TRIPOS>SUBSTRUCTURE
  1 ****  14 GROUP 4 **** **** 0

# MOE 2024.06 (io_trps.svl 2023.06)
