@<TRIPOS>MOLECULE
NONAME
34 35 1 0 0 
SMALL
USER_CHARGES


@<TRIPOS>ATOM
  1 O        0.5150     0.2740    -0.5380 O.2   1 <1>  -0.5700 
  2 C        1.1570     1.1950    -0.0890 C.2   1 <1>   0.6340 
  3 O        2.3650     0.9620     0.4080 O.3   1 <1>  -0.4300 
  4 C        0.8030     2.5770     0.0470 C.ar  1 <1>   0.0860 
  5 C        2.9310     2.1490     0.9080 C.3   1 <1>   0.6240 
  6 C       -0.3170     3.3390    -0.2970 C.ar  1 <1>   0.0830 
  7 C        1.8730     3.1980     0.6540 C.ar  1 <1>  -0.1440 
  8 O        4.0610     2.4330     0.1540 O.3   1 <1>  -0.5600 
  9 O       -1.3970     2.7960    -0.9090 O.3   1 <1>  -0.3630 
 10 C       -0.3230     4.7130    -0.0300 C.ar  1 <1>   0.0830 
 11 C        1.8860     4.5500     0.9280 C.ar  1 <1>  -0.1500 
 12 C        5.1120     1.5390     0.3250 C.3   1 <1>   0.1200 
 13 C       -2.0960     1.7370    -0.2910 C.3   1 <1>   0.0400 
 14 O       -1.4320     5.4250    -0.3800 O.3   1 <1>  -0.3630 
 15 C        0.7790     5.3090     0.5830 C.ar  1 <1>  -0.1500 
 16 C        6.2960     2.0500    -0.4940 C.3   1 <1>  -0.1600 
 17 C       -1.4640     6.8330    -0.3180 C.3   1 <1>   0.0400 
 18 C        7.5090     1.1230    -0.3610 C.3   1 <1>  -0.2400 
 19 H        3.1820     2.0380     1.9490 H     1 <1>   0.0800 
 20 H        2.7420     5.0100     1.3920 H     1 <1>   0.1500 
 21 H        4.8060     0.5660    -0.0240 H     1 <1>   0.0800 
 22 H        5.3690     1.4910     1.3700 H     1 <1>   0.0800 
 23 H       -3.1470     1.9520    -0.3540 H     1 <1>   0.0800 
 24 H       -1.8000     1.6550     0.7400 H     1 <1>   0.0800 
 25 H       -1.8810     0.8270    -0.8220 H     1 <1>   0.0800 
 26 H        0.7970     6.3610     0.8000 H     1 <1>   0.1500 
 27 H        6.5630     3.0360    -0.1560 H     1 <1>   0.0800 
 28 H        6.0070     2.1080    -1.5300 H     1 <1>   0.0800 
 29 H       -2.4080     7.1610    -0.7160 H     1 <1>   0.0800 
 30 H       -0.6600     7.2270    -0.9130 H     1 <1>   0.0800 
 31 H       -1.3760     7.1400     0.7090 H     1 <1>   0.0800 
 32 H        7.8270     1.0620     0.6660 H     1 <1>   0.0800 
 33 H        8.3260     1.5030    -0.9490 H     1 <1>   0.0800 
 34 H        7.2680     0.1350    -0.7100 H     1 <1>   0.0800 
@<TRIPOS>BOND
  1   1   2  2   
  2   2   3  1   
  3   2   4  1   
  4   3   5  1   
  5   4   6  ar  
  6   4   7  ar  
  7   5   7  1   
  8   5   8  1   
  9   5  19  1   
 10   6   9  1   
 11   6  10  ar  
 12   7  11  ar  
 13   8  12  1   
 14   9  13  1   
 15  10  14  1   
 16  10  15  ar  
 17  11  15  ar  
 18  11  20  1   
 19  12  16  1   
 20  12  21  1   
 21  12  22  1   
 22  13  23  1   
 23  13  24  1   
 24  13  25  1   
 25  14  17  1   
 26  15  26  1   
 27  16  18  1   
 28  16  27  1   
 29  16  28  1   
 30  17  29  1   
 31  17  30  1   
 32  17  31  1   
 33  18  32  1   
 34  18  33  1   
 35  18  34  1   
@<TRIPOS>SUBSTRUCTURE
  1 ****   7 GROUP 4 **** **** 0

# MOE 2024.06 (io_trps.svl 2023.06)
