@<TRIPOS>MOLECULE
NONAME
43 44 1 0 0 
SMALL
USER_CHARGES


@<TRIPOS>ATOM
  1 F       -0.0970    -7.1180    -1.6980 F     1 <1>  -0.1900 
  2 C       -0.3850    -7.7260    -0.5760 C.ar  1 <1>   0.1900 
  3 C       -0.8500    -6.9830     0.4990 C.ar  1 <1>  -0.1440 
  4 C       -0.1870    -9.0920    -0.5100 C.ar  1 <1>  -0.1500 
  5 C       -1.1170    -7.6550     1.6830 C.ar  1 <1>  -0.1500 
  6 C       -1.0390    -5.4800     0.3990 C.3   1 <1>   0.2640 
  7 C       -0.4600    -9.7440     0.6800 C.ar  1 <1>  -0.1500 
  8 C       -0.9230    -9.0260     1.7710 C.ar  1 <1>  -0.1500 
  9 O        0.2450    -4.9100     0.5430 O.3   1 <1>  -0.3620 
 10 C        0.4970    -3.7090    -0.0390 C.ar  1 <1>   0.0830 
 11 C       -0.1990    -2.5570     0.3400 C.ar  1 <1>   0.0830 
 12 C        1.5030    -3.6490    -1.0020 C.ar  1 <1>  -0.1430 
 13 O       -1.1610    -2.6680     1.2990 O.3   1 <1>  -0.3630 
 14 C        0.1240    -1.3450    -0.2610 C.ar  1 <1>  -0.1500 
 15 C        1.8110    -2.4270    -1.5840 C.ar  1 <1>  -0.1500 
 16 C        2.2480    -4.8940    -1.4540 C.3   1 <1>   0.4860 
 17 C       -1.8520    -1.5380     1.7900 C.3   1 <1>   0.0400 
 18 C        1.1250    -1.2840    -1.2150 C.ar  1 <1>  -0.1500 
 19 N        2.7350    -5.6260    -0.2670 N.4   1 <1>  -0.9060 
 20 C        3.1050    -7.0370    -0.5590 C.3   1 <1>   0.3430 
 21 C        3.1810    -7.8750     0.7220 C.3   1 <1>   0.1200 
 22 O        3.5580    -9.1570     0.3640 O.3   1 <1>  -0.6800 
 23 H        0.1690    -9.6350    -1.3670 H     1 <1>   0.1500 
 24 H       -1.4790    -7.1170     2.5440 H     1 <1>   0.1500 
 25 H       -1.6710    -5.1100     1.1880 H     1 <1>   0.0800 
 26 H       -1.4490    -5.1980    -0.5560 H     1 <1>   0.0800 
 27 H       -0.3180   -10.8100     0.7570 H     1 <1>   0.1500 
 28 H       -1.1390    -9.5380     2.6940 H     1 <1>   0.1500 
 29 H       -0.3870    -0.4360    -0.0030 H     1 <1>   0.1500 
 30 H        2.5800    -2.3470    -2.3340 H     1 <1>   0.1500 
 31 H        3.0730    -4.6260    -2.0930 H     1 <1>   0.0800 
 32 H        1.5690    -5.5140    -2.0170 H     1 <1>   0.0800 
 33 H       -2.5330    -1.8680     2.5540 H     1 <1>   0.0800 
 34 H       -2.4010    -1.0840     0.9840 H     1 <1>   0.0800 
 35 H       -1.1410    -0.8480     2.2110 H     1 <1>   0.0800 
 36 H        1.3670    -0.3390    -1.6730 H     1 <1>   0.1500 
 37 H        1.9290    -5.6050     0.3820 H     1 <1>   0.4500 
 38 H        3.4870    -5.0980     0.1880 H     1 <1>   0.4500 
 39 H        4.0580    -7.0710    -1.0620 H     1 <1>   0.0800 
 40 H        2.3610    -7.4800    -1.2020 H     1 <1>   0.0800 
 41 H        2.2190    -7.9320     1.2040 H     1 <1>   0.0800 
 42 H        3.9220    -7.4870     1.4000 H     1 <1>   0.0800 
 43 H        3.5930    -9.7530     1.1430 H     1 <1>   0.4000 
@<TRIPOS>BOND
  1   1   2  1   
  2   2   3  ar  
  3   2   4  ar  
  4   3   5  ar  
  5   3   6  1   
  6   4   7  ar  
  7   4  23  1   
  8   5   8  ar  
  9   5  24  1   
 10   6   9  1   
 11   6  25  1   
 12   6  26  1   
 13   7   8  ar  
 14   7  27  1   
 15   8  28  1   
 16   9  10  1   
 17  10  11  ar  
 18  10  12  ar  
 19  11  13  1   
 20  11  14  ar  
 21  12  15  ar  
 22  12  16  1   
 23  13  17  1   
 24  14  18  ar  
 25  14  29  1   
 26  15  18  ar  
 27  15  30  1   
 28  16  19  1   
 29  16  31  1   
 30  16  32  1   
 31  17  33  1   
 32  17  34  1   
 33  17  35  1   
 34  18  36  1   
 35  19  20  1   
 36  19  37  1   
 37  19  38  1   
 38  20  21  1   
 39  20  39  1   
 40  20  40  1   
 41  21  22  1   
 42  21  41  1   
 43  21  42  1   
 44  22  43  1   
@<TRIPOS>SUBSTRUCTURE
  1 ****   9 GROUP 4 **** **** 0

# MOE 2024.06 (io_trps.svl 2023.06)
