@<TRIPOS>MOLECULE
NONAME
50 52 1 0 0 
SMALL
USER_CHARGES


@<TRIPOS>ATOM
  1 O       -9.4710     2.3440     0.3610 O.2   1 <1>  -0.5700 
  2 C      -10.3520     1.5360     0.5850 C.2   1 <1>   0.5440 
  3 N      -10.2120     0.7480     1.6960 N.am  1 <1>  -0.7300 
  4 C      -11.4810     1.3760    -0.3170 C.ar  1 <1>   0.0860 
  5 C       -9.3410     1.0270     2.8810 C.3   1 <1>   0.1400 
  6 C      -11.3690     1.7120    -1.6660 C.ar  1 <1>  -0.1500 
  7 C      -12.7120     0.8810     0.1210 C.ar  1 <1>  -0.1500 
  8 C       -7.8910     0.5390     2.6810 C.3   1 <1>   0.3430 
  9 C      -12.4240     1.5520    -2.5490 C.ar  1 <1>  -0.1440 
 10 C      -13.7700     0.7150    -0.7520 C.ar  1 <1>  -0.1500 
 11 N       -7.2610     1.2090     1.5100 N.4   1 <1>  -0.9590 
 12 C      -13.6260     1.0470    -2.0860 C.ar  1 <1>  -0.1500 
 13 C      -12.2770     1.9230    -4.0140 C.3   1 <1>  -0.0970 
 14 C       -6.2500     0.3580     0.7900 C.3   1 <1>   0.3430 
 15 C       -6.7110     2.5760     1.8280 C.3   1 <1>   0.3430 
 16 C       -5.6820     1.0590    -0.4610 C.3   1 <1>   0.2090 
 17 C       -6.1560     3.2810     0.5740 C.3   1 <1>   0.2090 
 18 N       -5.1580     2.4140    -0.1210 N.pl3 1 <1>  -0.8380 
 19 C       -4.4010     3.0290    -1.1120 C.ar  1 <1>   0.1000 
 20 C       -3.0250     3.1260    -0.9610 C.ar  1 <1>  -0.1500 
 21 C       -4.9880     3.5510    -2.2600 C.ar  1 <1>  -0.1500 
 22 C       -2.2480     3.7300    -1.9330 C.ar  1 <1>  -0.1500 
 23 C       -4.2150     4.1560    -3.2340 C.ar  1 <1>  -0.1500 
 24 C       -2.8430     4.2470    -3.0720 C.ar  1 <1>  -0.1500 
 25 H      -10.9230     0.0230     1.8410 H     1 <1>   0.3700 
 26 H       -9.7610     0.5350     3.7420 H     1 <1>   0.0800 
 27 H       -9.3420     2.0850     3.0820 H     1 <1>   0.0800 
 28 H      -10.4360     2.1080    -2.0260 H     1 <1>   0.1500 
 29 H      -12.8570     0.6300     1.1550 H     1 <1>   0.1500 
 30 H       -7.9140    -0.5270     2.5210 H     1 <1>   0.0800 
 31 H       -7.3110     0.7300     3.5690 H     1 <1>   0.0800 
 32 H      -14.7120     0.3310    -0.3980 H     1 <1>   0.1500 
 33 H       -8.0450     1.4020     0.8490 H     1 <1>   0.4500 
 34 H      -14.4540     0.9160    -2.7620 H     1 <1>   0.1500 
 35 H      -11.3730     2.4800    -4.1830 H     1 <1>   0.0800 
 36 H      -13.1100     2.5260    -4.3270 H     1 <1>   0.0800 
 37 H      -12.2500     1.0320    -4.6160 H     1 <1>   0.0800 
 38 H       -6.7020    -0.5740     0.4930 H     1 <1>   0.0800 
 39 H       -5.4300     0.1350     1.4520 H     1 <1>   0.0800 
 40 H       -5.9140     2.4900     2.5480 H     1 <1>   0.0800 
 41 H       -7.4870     3.1910     2.2520 H     1 <1>   0.0800 
 42 H       -6.4500     1.1470    -1.2100 H     1 <1>   0.0800 
 43 H       -4.8830     0.4660    -0.8740 H     1 <1>   0.0800 
 44 H       -5.6840     4.2050     0.8600 H     1 <1>   0.0800 
 45 H       -6.9670     3.5160    -0.0950 H     1 <1>   0.0800 
 46 H       -2.5690     2.7260    -0.0760 H     1 <1>   0.1500 
 47 H       -6.0510     3.4820    -2.3920 H     1 <1>   0.1500 
 48 H       -1.1820     3.8000    -1.8040 H     1 <1>   0.1500 
 49 H       -4.6780     4.5570    -4.1190 H     1 <1>   0.1500 
 50 H       -2.2400     4.7170    -3.8290 H     1 <1>   0.1500 
@<TRIPOS>BOND
  1   1   2  2   
  2   2   3  am  
  3   2   4  1   
  4   3   5  1   
  5   3  25  1   
  6   4   6  ar  
  7   4   7  ar  
  8   5   8  1   
  9   5  26  1   
 10   5  27  1   
 11   6   9  ar  
 12   6  28  1   
 13   7  10  ar  
 14   7  29  1   
 15   8  11  1   
 16   8  30  1   
 17   8  31  1   
 18   9  12  ar  
 19   9  13  1   
 20  10  12  ar  
 21  10  32  1   
 22  11  14  1   
 23  11  15  1   
 24  11  33  1   
 25  12  34  1   
 26  13  35  1   
 27  13  36  1   
 28  13  37  1   
 29  14  16  1   
 30  14  38  1   
 31  14  39  1   
 32  15  17  1   
 33  15  40  1   
 34  15  41  1   
 35  16  18  1   
 36  16  42  1   
 37  16  43  1   
 38  17  18  1   
 39  17  44  1   
 40  17  45  1   
 41  18  19  1   
 42  19  20  ar  
 43  19  21  ar  
 44  20  22  ar  
 45  20  46  1   
 46  21  23  ar  
 47  21  47  1   
 48  22  24  ar  
 49  22  48  1   
 50  23  24  ar  
 51  23  49  1   
 52  24  50  1   
@<TRIPOS>SUBSTRUCTURE
  1 ****   1 GROUP 4 **** **** 0

# MOE 2024.06 (io_trps.svl 2023.06)
