@<TRIPOS>MOLECULE
NONAME
52 54 1 0 0 
SMALL
USER_CHARGES


@<TRIPOS>ATOM
  1 S       -0.2960     0.0510     1.9950 S.o2  1 <1>   1.4470 
  2 O       -0.8490     1.3750     2.1870 O.2   1 <1>  -0.6500 
  3 O       -0.0180    -0.7760     3.1490 O.2   1 <1>  -0.6500 
  4 N       -1.4090    -0.8000     1.0450 N.am  1 <1>  -0.8490 
  5 C        1.1750     0.1230     0.9370 C.ar  1 <1>  -0.0090 
  6 C       -2.5770    -1.2130     1.8470 C.3   1 <1>   0.1960 
  7 C       -1.8640    -0.0150    -0.1210 C.3   1 <1>   0.1960 
  8 C        1.6620     1.3320     0.4540 C.ar  1 <1>  -0.1500 
  9 C        1.8430    -1.0380     0.5670 C.ar  1 <1>  -0.1500 
 10 C       -3.6120    -2.0180     1.0360 C.3   1 <1>   0.2090 
 11 C       -2.8520    -0.7920    -1.0120 C.3   1 <1>   0.2090 
 12 C        2.7730     1.3930    -0.3710 C.ar  1 <1>  -0.1440 
 13 C        2.9550    -0.9980    -0.2540 C.ar  1 <1>  -0.1500 
 14 N       -4.0030    -1.3380    -0.2350 N.pl3 1 <1>  -0.8380 
 15 C        3.4280     0.2200    -0.7310 C.ar  1 <1>   0.0830 
 16 C        3.2690     2.7420    -0.8740 C.3   1 <1>  -0.0970 
 17 C       -5.2050    -0.6300    -0.2660 C.ar  1 <1>   0.1000 
 18 O        4.5130     0.3240    -1.5420 O.3   1 <1>  -0.3630 
 19 C       -6.2860    -1.0910    -1.0180 C.ar  1 <1>  -0.1430 
 20 C       -5.3470     0.5530     0.4500 C.ar  1 <1>  -0.1500 
 21 C        5.2770    -0.8020    -1.9120 C.3   1 <1>   0.0400 
 22 C       -7.4700    -0.3730    -1.0410 C.ar  1 <1>  -0.1500 
 23 C       -6.1730    -2.3820    -1.8170 C.3   1 <1>  -0.0970 
 24 C       -6.5310     1.2650     0.4240 C.ar  1 <1>  -0.1500 
 25 C       -7.6020     0.8050    -0.3220 C.ar  1 <1>  -0.1430 
 26 C       -8.9040     1.5840    -0.3570 C.3   1 <1>  -0.0970 
 27 H       -3.0570    -0.3450     2.2650 H     1 <1>   0.0800 
 28 H       -2.2480    -1.8270     2.6690 H     1 <1>   0.0800 
 29 H       -1.0150     0.2620    -0.7220 H     1 <1>   0.0800 
 30 H       -2.3420     0.8930     0.2070 H     1 <1>   0.0800 
 31 H        1.1580     2.2420     0.7340 H     1 <1>   0.1500 
 32 H        1.4820    -1.9860     0.9320 H     1 <1>   0.1500 
 33 H       -4.4900    -2.1780     1.6370 H     1 <1>   0.0800 
 34 H       -3.1980    -2.9810     0.7980 H     1 <1>   0.0800 
 35 H       -2.3350    -1.6080    -1.4850 H     1 <1>   0.0800 
 36 H       -3.2220    -0.1430    -1.7870 H     1 <1>   0.0800 
 37 H        3.4360    -1.9230    -0.5100 H     1 <1>   0.1500 
 38 H        2.6600     3.5460    -0.5050 H     1 <1>   0.0800 
 39 H        3.2490     2.7590    -1.9490 H     1 <1>   0.0800 
 40 H        4.2820     2.9010    -0.5480 H     1 <1>   0.0800 
 41 H       -4.5250     0.9210     1.0310 H     1 <1>   0.1500 
 42 H        6.0880    -0.4650    -2.5320 H     1 <1>   0.0800 
 43 H        4.6530    -1.4810    -2.4650 H     1 <1>   0.0800 
 44 H        5.6660    -1.2680    -1.0240 H     1 <1>   0.0800 
 45 H       -8.3000    -0.7310    -1.6230 H     1 <1>   0.1500 
 46 H       -5.3870    -2.2890    -2.5430 H     1 <1>   0.0800 
 47 H       -7.0910    -2.6090    -2.3270 H     1 <1>   0.0800 
 48 H       -5.9350    -3.1950    -1.1550 H     1 <1>   0.0800 
 49 H       -6.6160     2.1780     0.9850 H     1 <1>   0.1500 
 50 H       -9.7350     0.9200    -0.5100 H     1 <1>   0.0800 
 51 H       -8.8760     2.2990    -1.1580 H     1 <1>   0.0800 
 52 H       -9.0540     2.1050     0.5720 H     1 <1>   0.0800 
@<TRIPOS>BOND
  1   1   2  2   
  2   1   3  2   
  3   1   4  am  
  4   1   5  1   
  5   4   6  1   
  6   4   7  1   
  7   5   8  ar  
  8   5   9  ar  
  9   6  10  1   
 10   6  27  1   
 11   6  28  1   
 12   7  11  1   
 13   7  29  1   
 14   7  30  1   
 15   8  12  ar  
 16   8  31  1   
 17   9  13  ar  
 18   9  32  1   
 19  10  14  1   
 20  10  33  1   
 21  10  34  1   
 22  11  14  1   
 23  11  35  1   
 24  11  36  1   
 25  12  15  ar  
 26  12  16  1   
 27  13  15  ar  
 28  13  37  1   
 29  14  17  1   
 30  15  18  1   
 31  16  38  1   
 32  16  39  1   
 33  16  40  1   
 34  17  19  ar  
 35  17  20  ar  
 36  18  21  1   
 37  19  22  ar  
 38  19  23  1   
 39  20  24  ar  
 40  20  41  1   
 41  21  42  1   
 42  21  43  1   
 43  21  44  1   
 44  22  25  ar  
 45  22  45  1   
 46  23  46  1   
 47  23  47  1   
 48  23  48  1   
 49  24  25  ar  
 50  24  49  1   
 51  25  26  1   
 52  26  50  1   
 53  26  51  1   
 54  26  52  1   
@<TRIPOS>SUBSTRUCTURE
  1 ****   7 GROUP 4 **** **** 0

# MOE 2024.06 (io_trps.svl 2023.06)
