@<TRIPOS>MOLECULE
NONAME
37 40 1 0 0 
SMALL
USER_CHARGES


@<TRIPOS>ATOM
  1 O       -0.8030     0.1180    -0.3980 O.2   1 <1>  -0.5700 
  2 C       -1.7440    -0.6310    -0.2270 C.2   1 <1>   0.7060 
  3 O       -2.9680    -0.1060    -0.0990 O.3   1 <1>  -0.2330 
  4 C       -1.6330    -2.0530    -0.1500 C.2   1 <1>  -0.1240 
  5 C       -4.0920    -0.8500     0.0950 C.ar  1 <1>   0.0820 
  6 C       -2.7020    -2.8340     0.0400 C.2   1 <1>  -0.1670 
  7 C       -0.3550    -2.8460    -0.2720 C.3   1 <1>  -0.0220 
  8 C       -3.9990    -2.2510     0.1700 C.ar  1 <1>   0.0280 
  9 C       -5.3200    -0.2030     0.2130 C.ar  1 <1>  -0.1440 
 10 C       -2.3420    -4.2990     0.0810 C.3   1 <1>  -0.0220 
 11 C       -0.8020    -4.2960     0.0040 C.3   1 <1>  -0.1600 
 12 C       -5.1670    -2.9860     0.3630 C.ar  1 <1>  -0.1500 
 13 C       -6.4720    -0.9630     0.3900 C.ar  1 <1>   0.0830 
 14 C       -5.3780     1.3230     0.1320 C.3   1 <1>  -0.0960 
 15 C       -6.3850    -2.3520     0.4740 C.ar  1 <1>  -0.1500 
 16 O       -7.6660    -0.3250     0.4970 O.3   1 <1>  -0.2330 
 17 C       -8.8550    -0.7220     0.0480 C.2   1 <1>   0.7200 
 18 O       -9.0340    -1.7320    -0.5830 O.2   1 <1>  -0.5700 
 19 C      -10.0070     0.2150     0.3860 C.3   1 <1>  -0.1000 
 20 C      -11.1200     0.4800    -0.5870 C.3   1 <1>  -0.2000 
 21 C      -10.1270     1.5580    -0.2760 C.3   1 <1>  -0.2000 
 22 H        0.3720    -2.5140     0.4490 H     1 <1>   0.0800 
 23 H        0.0460    -2.7440    -1.2650 H     1 <1>   0.0800 
 24 H       -2.7700    -4.8080    -0.7650 H     1 <1>   0.0800 
 25 H       -2.6830    -4.7550     0.9940 H     1 <1>   0.0800 
 26 H       -0.3960    -4.6200     0.9470 H     1 <1>   0.0800 
 27 H       -0.4540    -4.9580    -0.7690 H     1 <1>   0.0800 
 28 H       -5.1170    -4.0570     0.4240 H     1 <1>   0.1500 
 29 H       -5.3280     1.6320    -0.8960 H     1 <1>   0.0800 
 30 H       -4.5490     1.7600     0.6610 H     1 <1>   0.0800 
 31 H       -6.2790     1.7160     0.5670 H     1 <1>   0.0800 
 32 H       -7.2700    -2.9430     0.6280 H     1 <1>   0.1500 
 33 H      -10.2720     0.1480     1.4250 H     1 <1>   0.1000 
 34 H      -12.1240     0.5700    -0.2100 H     1 <1>   0.1000 
 35 H      -11.0840    -0.0010    -1.5510 H     1 <1>   0.1000 
 36 H       -9.4160     1.8330    -1.0370 H     1 <1>   0.1000 
 37 H      -10.4450     2.4000     0.3150 H     1 <1>   0.1000 
@<TRIPOS>BOND
  1   1   2  2   
  2   2   3  1   
  3   2   4  1   
  4   3   5  1   
  5   4   6  2   
  6   4   7  1   
  7   5   8  ar  
  8   5   9  ar  
  9   6   8  1   
 10   6  10  1   
 11   7  11  1   
 12   7  22  1   
 13   7  23  1   
 14   8  12  ar  
 15   9  13  ar  
 16   9  14  1   
 17  10  11  1   
 18  10  24  1   
 19  10  25  1   
 20  11  26  1   
 21  11  27  1   
 22  12  15  ar  
 23  12  28  1   
 24  13  15  ar  
 25  13  16  1   
 26  14  29  1   
 27  14  30  1   
 28  14  31  1   
 29  15  32  1   
 30  16  17  1   
 31  17  18  2   
 32  17  19  1   
 33  19  20  1   
 34  19  21  1   
 35  19  33  1   
 36  20  21  1   
 37  20  34  1   
 38  20  35  1   
 39  21  36  1   
 40  21  37  1   
@<TRIPOS>SUBSTRUCTURE
  1 ****   9 GROUP 4 **** **** 0

# MOE 2024.06 (io_trps.svl 2023.06)
