@<TRIPOS>MOLECULE
NONAME
52 56 1 0 0 
SMALL
USER_CHARGES


@<TRIPOS>ATOM
  1 O       -9.0320     2.2520     0.3190 O.2   1 <1>  -0.5700 
  2 C       -8.1020     1.5450     0.0230 C.2   1 <1>   0.6590 
  3 O       -8.2530     0.2930    -0.4030 O.3   1 <1>  -0.2330 
  4 C       -6.6340     1.9990     0.1420 C.3   1 <1>   0.0610 
  5 C       -9.3670    -0.4680    -0.5640 C.ar  1 <1>   0.0820 
  6 C       -5.8770     1.0840     1.1400 C.3   1 <1>  -0.1600 
  7 C       -6.5180     3.4610     0.6450 C.3   1 <1>  -0.1600 
  8 C       -5.9280     1.9060    -1.2360 C.3   1 <1>  -0.1600 
  9 C       -9.2210    -1.8580    -0.4400 C.ar  1 <1>   0.3100 
 10 C      -10.6100     0.0700    -0.8430 C.ar  1 <1>  -0.1500 
 11 C       -4.4000     1.5010     1.2590 C.3   1 <1>  -0.0800 
 12 C       -5.0430     3.8900     0.7620 C.3   1 <1>  -0.0800 
 13 C       -4.4500     2.3260    -1.1260 C.3   1 <1>  -0.0800 
 14 N      -10.2450    -2.7060    -0.5670 N.ar  1 <1>  -0.6200 
 15 C       -7.9160    -2.4100    -0.1500 C.ar  1 <1>   0.0000 
 16 C      -11.6580    -0.8140    -0.9750 C.ar  1 <1>  -0.1500 
 17 C       -4.3230     2.9570     1.7530 C.3   1 <1>  -0.1600 
 18 C       -3.7350     1.3980    -0.1260 C.3   1 <1>  -0.1600 
 19 C       -4.3730     3.7770    -0.6190 C.3   1 <1>  -0.1600 
 20 C      -11.4240    -2.1700    -0.8280 C.ar  1 <1>   0.1600 
 21 C       -7.6450    -3.0040     1.0810 C.ar  1 <1>  -0.1500 
 22 C       -6.8750    -2.3310    -1.0750 C.ar  1 <1>  -0.1500 
 23 C       -6.3810    -3.4720     1.3860 C.ar  1 <1>  -0.1500 
 24 C       -5.6080    -2.7970    -0.7770 C.ar  1 <1>  -0.1500 
 25 C       -5.3500    -3.3670     0.4660 C.ar  1 <1>   0.0820 
 26 O       -4.1380    -3.8340     0.8460 O.3   1 <1>  -0.3620 
 27 C       -3.0230    -3.7780    -0.0160 C.3   1 <1>   0.0400 
 28 H       -5.9250     0.0580     0.8170 H     1 <1>   0.0800 
 29 H       -6.3440     1.1390     2.1080 H     1 <1>   0.0800 
 30 H       -6.9960     3.5530     1.6060 H     1 <1>   0.0800 
 31 H       -7.0320     4.1210    -0.0330 H     1 <1>   0.0800 
 32 H       -5.9780     0.8980    -1.6100 H     1 <1>   0.0800 
 33 H       -6.4310     2.5410    -1.9440 H     1 <1>   0.0800 
 34 H      -10.7670     1.1280    -0.9580 H     1 <1>   0.1500 
 35 H       -3.8940     0.8530     1.9540 H     1 <1>   0.0800 
 36 H       -4.9860     4.9070     1.1130 H     1 <1>   0.0800 
 37 H       -3.9780     2.2530    -2.0910 H     1 <1>   0.0800 
 38 H      -12.6490    -0.4570    -1.1900 H     1 <1>   0.1500 
 39 H       -3.2930     3.2550     1.8500 H     1 <1>   0.0800 
 40 H       -4.7780     3.0370     2.7250 H     1 <1>   0.0800 
 41 H       -3.7780     0.3810    -0.4750 H     1 <1>   0.0800 
 42 H       -2.6970     1.6740    -0.0520 H     1 <1>   0.0800 
 43 H       -3.3430     4.0840    -0.5490 H     1 <1>   0.0800 
 44 H       -4.8620     4.4350    -1.3160 H     1 <1>   0.0800 
 45 H      -12.2530    -2.8500    -0.9320 H     1 <1>   0.1500 
 46 H       -8.4400    -3.0930     1.8010 H     1 <1>   0.1500 
 47 H       -7.0680    -1.8930    -2.0380 H     1 <1>   0.1500 
 48 H       -6.1830    -3.9240     2.3410 H     1 <1>   0.1500 
 49 H       -4.8370    -2.7090    -1.5190 H     1 <1>   0.1500 
 50 H       -2.1820    -4.2060     0.4990 H     1 <1>   0.0800 
 51 H       -2.8200    -2.7500    -0.2580 H     1 <1>   0.0800 
 52 H       -3.2390    -4.3490    -0.9020 H     1 <1>   0.0800 
@<TRIPOS>BOND
  1   1   2  2   
  2   2   3  1   
  3   2   4  1   
  4   3   5  1   
  5   4   6  1   
  6   4   7  1   
  7   4   8  1   
  8   5   9  ar  
  9   5  10  ar  
 10   6  11  1   
 11   6  28  1   
 12   6  29  1   
 13   7  12  1   
 14   7  30  1   
 15   7  31  1   
 16   8  13  1   
 17   8  32  1   
 18   8  33  1   
 19   9  14  ar  
 20   9  15  1   
 21  10  16  ar  
 22  10  34  1   
 23  11  17  1   
 24  11  18  1   
 25  11  35  1   
 26  12  17  1   
 27  12  19  1   
 28  12  36  1   
 29  13  18  1   
 30  13  19  1   
 31  13  37  1   
 32  14  20  ar  
 33  15  21  ar  
 34  15  22  ar  
 35  16  20  ar  
 36  16  38  1   
 37  17  39  1   
 38  17  40  1   
 39  18  41  1   
 40  18  42  1   
 41  19  43  1   
 42  19  44  1   
 43  20  45  1   
 44  21  23  ar  
 45  21  46  1   
 46  22  24  ar  
 47  22  47  1   
 48  23  25  ar  
 49  23  48  1   
 50  24  25  ar  
 51  24  49  1   
 52  25  26  1   
 53  26  27  1   
 54  27  50  1   
 55  27  51  1   
 56  27  52  1   
@<TRIPOS>SUBSTRUCTURE
  1 ****   3 GROUP 4 **** **** 0

# MOE 2024.06 (io_trps.svl 2023.06)
