@<TRIPOS>MOLECULE
NONAME
36 37 1 0 0 
SMALL
USER_CHARGES


@<TRIPOS>ATOM
  1 S       -0.0890     0.0140    -0.1150 S.3   1 <1>  -0.3310 
  2 C       -1.6600    -0.7570     0.3080 C.ar  1 <1>   0.1020 
  3 C        0.6700    -1.0070    -1.4540 C.3   1 <1>  -0.0100 
  4 C       -2.3780    -0.1850     1.3410 C.ar  1 <1>  -0.1500 
  5 C       -2.1430    -1.8700    -0.3600 C.ar  1 <1>  -0.1500 
  6 C       -3.5970    -0.7260     1.7110 C.ar  1 <1>  -0.1500 
  7 C       -3.3630    -2.4090     0.0120 C.ar  1 <1>  -0.1500 
  8 C       -4.0990    -1.8360     1.0430 C.ar  1 <1>  -0.1430 
  9 C       -5.4470    -2.4110     1.4330 C.3   1 <1>   0.4860 
 10 N       -6.4450    -2.0210     0.3980 N.4   1 <1>  -0.9590 
 11 C       -6.6280    -0.5360     0.3470 C.3   1 <1>   0.3430 
 12 C       -7.7320    -2.7550     0.5840 C.3   1 <1>   0.3430 
 13 C       -7.5740    -0.1670    -0.7920 C.3   1 <1>  -0.1600 
 14 C       -8.6920    -2.4170    -0.5530 C.3   1 <1>  -0.1600 
 15 C       -8.8980    -0.9070    -0.6360 C.3   1 <1>   0.2000 
 16 O       -9.6890    -0.6300    -1.7230 O.3   1 <1>  -0.6800 
 17 H        1.6230    -0.5700    -1.6930 H     1 <1>   0.0800 
 18 H        0.0160    -0.9810    -2.3060 H     1 <1>   0.0800 
 19 H        0.7950    -2.0080    -1.0800 H     1 <1>   0.0800 
 20 H       -1.9780     0.6750     1.8480 H     1 <1>   0.1500 
 21 H       -1.5840    -2.3210    -1.1580 H     1 <1>   0.1500 
 22 H       -4.1380    -0.2710     2.5230 H     1 <1>   0.1500 
 23 H       -3.7220    -3.2800    -0.5100 H     1 <1>   0.1500 
 24 H       -5.7420    -2.0380     2.4000 H     1 <1>   0.0800 
 25 H       -5.3690    -3.4850     1.4900 H     1 <1>   0.0800 
 26 H       -6.0390    -2.2970    -0.5050 H     1 <1>   0.4500 
 27 H       -5.6770    -0.0490     0.1900 H     1 <1>   0.0800 
 28 H       -7.0360    -0.1850     1.2820 H     1 <1>   0.0800 
 29 H       -8.1800    -2.4740     1.5240 H     1 <1>   0.0800 
 30 H       -7.5550    -3.8190     0.5980 H     1 <1>   0.0800 
 31 H       -7.1100    -0.4070    -1.7310 H     1 <1>   0.0800 
 32 H       -7.7540     0.8940    -0.7640 H     1 <1>   0.0800 
 33 H       -9.6380    -2.8940    -0.3650 H     1 <1>   0.0800 
 34 H       -8.2980    -2.7980    -1.4790 H     1 <1>   0.0800 
 35 H       -9.4240    -0.5540     0.2380 H     1 <1>   0.0800 
 36 H       -9.2740    -0.9080    -2.5620 H     1 <1>   0.4000 
@<TRIPOS>BOND
  1   1   2  1   
  2   1   3  1   
  3   2   4  ar  
  4   2   5  ar  
  5   3  17  1   
  6   3  18  1   
  7   3  19  1   
  8   4   6  ar  
  9   4  20  1   
 10   5   7  ar  
 11   5  21  1   
 12   6   8  ar  
 13   6  22  1   
 14   7   8  ar  
 15   7  23  1   
 16   8   9  1   
 17   9  10  1   
 18   9  24  1   
 19   9  25  1   
 20  10  11  1   
 21  10  12  1   
 22  10  26  1   
 23  11  13  1   
 24  11  27  1   
 25  11  28  1   
 26  12  14  1   
 27  12  29  1   
 28  12  30  1   
 29  13  15  1   
 30  13  31  1   
 31  13  32  1   
 32  14  15  1   
 33  14  33  1   
 34  14  34  1   
 35  15  16  1   
 36  15  35  1   
 37  16  36  1   
@<TRIPOS>SUBSTRUCTURE
  1 ****   8 GROUP 4 **** **** 0

# MOE 2024.06 (io_trps.svl 2023.06)
