@<TRIPOS>MOLECULE
NONAME
49 50 1 0 0 
SMALL
USER_CHARGES


@<TRIPOS>ATOM
  1 O        0.5820     0.6130    -0.9200 O.2   1 <1>  -0.5700 
  2 C        0.4010     1.6330    -0.3070 C.2   1 <1>   0.6590 
  3 O       -0.7550     1.9290     0.2640 O.3   1 <1>  -0.4300 
  4 C        1.5010     2.6680    -0.1510 C.3   1 <1>  -0.0190 
  5 C       -1.8590     1.0540     0.1980 C.3   1 <1>   0.1200 
  6 C        2.6540     2.3410    -1.1210 C.3   1 <1>   0.3430 
  7 C        1.9950     2.7790     1.3050 C.3   1 <1>  -0.1600 
  8 C       -3.0140     1.6930     0.9620 C.3   1 <1>  -0.2400 
  9 N        3.9960     2.7740    -0.6030 N.4   1 <1>  -0.9590 
 10 C        3.1070     3.8400     1.4360 C.3   1 <1>  -0.1600 
 11 C        3.9370     4.0520     0.1620 C.3   1 <1>   0.3430 
 12 C        5.0240     2.7910    -1.6790 C.3   1 <1>   0.4860 
 13 C        6.3840     2.9760    -1.0340 C.ar  1 <1>  -0.1430 
 14 C        6.9040     1.9750    -0.2280 C.ar  1 <1>  -0.1500 
 15 C        7.1100     4.1420    -1.2270 C.ar  1 <1>  -0.1500 
 16 C        8.1220     2.1210     0.4140 C.ar  1 <1>   0.0830 
 17 C        8.3420     4.3110    -0.6010 C.ar  1 <1>   0.0830 
 18 O        8.4740     1.0500     1.1810 O.3   1 <1>  -0.3630 
 19 C        8.8440     3.3080     0.2250 C.ar  1 <1>   0.0830 
 20 O        9.1020     5.4360    -0.7510 O.3   1 <1>  -0.3630 
 21 C        9.7380     0.9290     1.7940 C.3   1 <1>   0.0400 
 22 O       10.0350     3.5640     0.8130 O.3   1 <1>  -0.5330 
 23 C        8.8200     6.3970    -1.7460 C.3   1 <1>   0.0400 
 24 H        1.0790     3.6130    -0.4420 H     1 <1>   0.0800 
 25 H       -1.5780     0.1120     0.6390 H     1 <1>   0.0800 
 26 H       -2.1170     0.9050    -0.8380 H     1 <1>   0.0800 
 27 H        2.4480     2.8140    -2.0670 H     1 <1>   0.0800 
 28 H        2.6850     1.2760    -1.2930 H     1 <1>   0.0800 
 29 H        2.3750     1.8210     1.6200 H     1 <1>   0.0800 
 30 H        1.1760     3.0300     1.9600 H     1 <1>   0.0800 
 31 H       -2.7420     1.8440     1.9910 H     1 <1>   0.0800 
 32 H       -3.8710     1.0450     0.9280 H     1 <1>   0.0800 
 33 H       -3.2800     2.6350     0.5170 H     1 <1>   0.0800 
 34 H        4.3110     2.0680     0.0750 H     1 <1>   0.4500 
 35 H        3.7630     3.5680     2.2460 H     1 <1>   0.0800 
 36 H        2.6680     4.7870     1.7030 H     1 <1>   0.0800 
 37 H        3.4780     4.8140    -0.4460 H     1 <1>   0.0800 
 38 H        4.9270     4.3830     0.4340 H     1 <1>   0.0800 
 39 H        4.8290     3.5920    -2.3730 H     1 <1>   0.0800 
 40 H        5.0130     1.8570    -2.2180 H     1 <1>   0.0800 
 41 H        6.3750     1.0500    -0.0770 H     1 <1>   0.1500 
 42 H        6.7140     4.9160    -1.8590 H     1 <1>   0.1500 
 43 H        9.7960    -0.0370     2.2610 H     1 <1>   0.0800 
 44 H        9.8420     1.7010     2.5360 H     1 <1>   0.0800 
 45 H       10.5020     1.0180     1.0410 H     1 <1>   0.0800 
 46 H       10.3470     4.4480     0.5320 H     1 <1>   0.4500 
 47 H        9.6100     7.1260    -1.7390 H     1 <1>   0.0800 
 48 H        7.8850     6.8760    -1.5190 H     1 <1>   0.0800 
 49 H        8.7850     5.9100    -2.7050 H     1 <1>   0.0800 
@<TRIPOS>BOND
  1   1   2  2   
  2   2   3  1   
  3   2   4  1   
  4   3   5  1   
  5   4   6  1   
  6   4   7  1   
  7   4  24  1   
  8   5   8  1   
  9   5  25  1   
 10   5  26  1   
 11   6   9  1   
 12   6  27  1   
 13   6  28  1   
 14   7  10  1   
 15   7  29  1   
 16   7  30  1   
 17   8  31  1   
 18   8  32  1   
 19   8  33  1   
 20   9  11  1   
 21   9  12  1   
 22   9  34  1   
 23  10  11  1   
 24  10  35  1   
 25  10  36  1   
 26  11  37  1   
 27  11  38  1   
 28  12  13  1   
 29  12  39  1   
 30  12  40  1   
 31  13  14  ar  
 32  13  15  ar  
 33  14  16  ar  
 34  14  41  1   
 35  15  17  ar  
 36  15  42  1   
 37  16  18  1   
 38  16  19  ar  
 39  17  19  ar  
 40  17  20  1   
 41  18  21  1   
 42  19  22  1   
 43  20  23  1   
 44  21  43  1   
 45  21  44  1   
 46  21  45  1   
 47  22  46  1   
 48  23  47  1   
 49  23  48  1   
 50  23  49  1   
@<TRIPOS>SUBSTRUCTURE
  1 ****   9 GROUP 4 **** **** 0

# MOE 2024.06 (io_trps.svl 2023.06)
