@<TRIPOS>MOLECULE
NONAME
40 41 1 0 0 
SMALL
USER_CHARGES


@<TRIPOS>ATOM
  1 O       -0.0040     1.2550    -0.4030 O.2   1 <1>  -0.5700 
  2 C       -0.8430     2.1300    -0.4010 C.2   1 <1>   0.6160 
  3 N       -0.4160     3.3610    -0.7800 N.am  1 <1>  -0.7300 
  4 C       -2.1900     1.8380     0.0020 C.2   1 <1>  -0.1360 
  5 C       -0.8170     4.6460    -0.1880 C.3   1 <1>   0.2200 
  6 C       -3.3310     2.5250    -0.2470 C.2   1 <1>  -0.1780 
  7 C       -1.1970     5.6160    -1.3120 C.3   1 <1>  -0.1600 
  8 C        0.3490     5.1930     0.6400 C.3   1 <1>  -0.1600 
  9 C       -4.6790     2.2240     0.1710 C.ar  1 <1>   0.0280 
 10 C       -1.5330     7.0060    -0.7520 C.3   1 <1>  -0.1600 
 11 C        0.0210     6.5830     1.2070 C.3   1 <1>  -0.1600 
 12 C       -5.1970     0.9260     0.3240 C.ar  1 <1>   0.0820 
 13 C       -5.5310     3.2970     0.4330 C.ar  1 <1>  -0.1500 
 14 C       -0.3740     7.5590     0.0900 C.3   1 <1>  -0.1600 
 15 O       -4.3920    -0.1260     0.0300 O.3   1 <1>  -0.3630 
 16 C       -6.5110     0.7420     0.7480 C.ar  1 <1>  -0.1500 
 17 C       -6.8350     3.1080     0.8470 C.ar  1 <1>  -0.1500 
 18 C       -4.8230    -1.4670     0.0960 C.3   1 <1>   0.0400 
 19 C       -7.3260     1.8260     1.0090 C.ar  1 <1>  -0.1500 
 20 H        0.5390     3.3570    -1.1370 H     1 <1>   0.3700 
 21 H       -2.2390     0.9280     0.5690 H     1 <1>   0.1500 
 22 H       -1.6630     4.5030     0.4640 H     1 <1>   0.0800 
 23 H       -3.2640     3.4250    -0.8290 H     1 <1>   0.1500 
 24 H       -0.3750     5.7050    -2.0000 H     1 <1>   0.0800 
 25 H       -2.0470     5.2330    -1.8490 H     1 <1>   0.0800 
 26 H        0.5580     4.5180     1.4520 H     1 <1>   0.0800 
 27 H        1.2280     5.2670     0.0230 H     1 <1>   0.0800 
 28 H       -1.7420     7.6810    -1.5640 H     1 <1>   0.0800 
 29 H       -2.4180     6.9420    -0.1420 H     1 <1>   0.0800 
 30 H       -0.7900     6.4990     1.9110 H     1 <1>   0.0800 
 31 H        0.8760     6.9670     1.7360 H     1 <1>   0.0800 
 32 H       -5.1630     4.3000     0.3160 H     1 <1>   0.1500 
 33 H       -0.6600     8.5030     0.5210 H     1 <1>   0.0800 
 34 H        0.4760     7.7330    -0.5470 H     1 <1>   0.0800 
 35 H       -6.9220    -0.2400     0.8790 H     1 <1>   0.1500 
 36 H       -7.4680     3.9550     1.0460 H     1 <1>   0.1500 
 37 H       -5.1060    -1.6930     1.1090 H     1 <1>   0.0800 
 38 H       -4.0030    -2.0950    -0.2030 H     1 <1>   0.0800 
 39 H       -5.6500    -1.6010    -0.5780 H     1 <1>   0.0800 
 40 H       -8.3410     1.6760     1.3350 H     1 <1>   0.1500 
@<TRIPOS>BOND
  1   1   2  2   
  2   2   3  am  
  3   2   4  1   
  4   3   5  1   
  5   3  20  1   
  6   4   6  2   
  7   4  21  1   
  8   5   7  1   
  9   5   8  1   
 10   5  22  1   
 11   6   9  1   
 12   6  23  1   
 13   7  10  1   
 14   7  24  1   
 15   7  25  1   
 16   8  11  1   
 17   8  26  1   
 18   8  27  1   
 19   9  12  ar  
 20   9  13  ar  
 21  10  14  1   
 22  10  28  1   
 23  10  29  1   
 24  11  14  1   
 25  11  30  1   
 26  11  31  1   
 27  12  15  1   
 28  12  16  ar  
 29  13  17  ar  
 30  13  32  1   
 31  14  33  1   
 32  14  34  1   
 33  15  18  1   
 34  16  19  ar  
 35  16  35  1   
 36  17  19  ar  
 37  17  36  1   
 38  18  37  1   
 39  18  38  1   
 40  18  39  1   
 41  19  40  1   
@<TRIPOS>SUBSTRUCTURE
  1 ****   6 GROUP 4 **** **** 0

# MOE 2024.06 (io_trps.svl 2023.06)
