@<TRIPOS>MOLECULE
NONAME
40 42 1 0 0 
SMALL
USER_CHARGES


@<TRIPOS>ATOM
  1 S       -0.4450    -0.1500    -0.4680 S.3   1 <1>  -0.0800 
  2 C        0.2450     1.4540    -0.3050 C.2   1 <1>   0.1240 
  3 C       -1.9280     0.4090     0.3020 C.2   1 <1>  -0.1400 
  4 N        1.4850     1.8220    -0.7100 N.pl3 1 <1>  -0.5340 
  5 C       -0.6000     2.3290     0.2840 C.2   1 <1>  -0.0860 
  6 C       -1.8540     1.7070     0.6230 C.2   1 <1>  -0.1810 
  7 C       -3.1100    -0.5070     0.5410 C.3   1 <1>   0.3000 
  8 C        1.8880     3.1040    -0.5170 C.2   1 <1>   0.5500 
  9 C       -0.1020     3.6600     0.4510 C.2   1 <1>   0.8670 
 10 C       -3.0420     2.3690     1.2950 C.3   1 <1>   0.0210 
 11 O       -4.0470     0.1440     1.3680 O.3   1 <1>  -0.5600 
 12 N        1.1460     4.0130     0.0370 N.2   1 <1>  -0.6610 
 13 N        3.1370     3.4030    -0.9330 N.pl3 1 <1>  -0.8190 
 14 O       -0.7980     4.5240     0.9770 O.2   1 <1>  -0.5700 
 15 C       -4.3240     1.5050     1.1350 C.3   1 <1>   0.2800 
 16 C        3.7660     4.7390    -0.8410 C.3   1 <1>   0.2090 
 17 C       -4.9520     1.6540    -0.2600 C.3   1 <1>  -0.2400 
 18 C       -5.3600     1.8960     2.1900 C.3   1 <1>  -0.2400 
 19 C        4.6300     4.7930     0.4170 C.3   1 <1>  -0.1600 
 20 C        5.2370     6.1830     0.5900 C.3   1 <1>   0.1200 
 21 O        6.0490     6.1630     1.7060 O.3   1 <1>  -0.6800 
 22 H        2.1020     1.1560    -1.1650 H     1 <1>   0.4000 
 23 H       -2.7980    -1.4040     1.0450 H     1 <1>   0.0800 
 24 H       -3.5870    -0.7680    -0.3870 H     1 <1>   0.0800 
 25 H       -3.2120     3.3430     0.8720 H     1 <1>   0.0800 
 26 H       -2.8150     2.5030     2.3370 H     1 <1>   0.0800 
 27 H        3.7530     2.6610    -1.2610 H     1 <1>   0.4000 
 28 H        3.0060     5.5030    -0.7990 H     1 <1>   0.0800 
 29 H        4.3670     4.9120    -1.7170 H     1 <1>   0.0800 
 30 H       -5.7860     0.9840    -0.3670 H     1 <1>   0.0800 
 31 H       -5.3060     2.6590    -0.3960 H     1 <1>   0.0800 
 32 H       -4.2330     1.4570    -1.0340 H     1 <1>   0.0800 
 33 H       -6.2470     1.3000     2.0790 H     1 <1>   0.0800 
 34 H       -5.6270     2.9320     2.0870 H     1 <1>   0.0800 
 35 H       -4.9600     1.7430     3.1770 H     1 <1>   0.0800 
 36 H        5.4190     4.0670     0.3370 H     1 <1>   0.0800 
 37 H        4.0130     4.5670     1.2690 H     1 <1>   0.0800 
 38 H        4.4750     6.9310     0.7360 H     1 <1>   0.0800 
 39 H        5.8480     6.4500    -0.2560 H     1 <1>   0.0800 
 40 H        5.5290     5.9430     2.5040 H     1 <1>   0.4000 
@<TRIPOS>BOND
  1   1   2  1   
  2   1   3  1   
  3   2   4  1   
  4   2   5  2   
  5   3   6  2   
  6   3   7  1   
  7   4   8  1   
  8   4  22  1   
  9   5   6  1   
 10   5   9  1   
 11   6  10  1   
 12   7  11  1   
 13   7  23  1   
 14   7  24  1   
 15   8  12  2   
 16   8  13  1   
 17   9  12  1   
 18   9  14  2   
 19  10  15  1   
 20  10  25  1   
 21  10  26  1   
 22  11  15  1   
 23  13  16  1   
 24  13  27  1   
 25  15  17  1   
 26  15  18  1   
 27  16  19  1   
 28  16  28  1   
 29  16  29  1   
 30  17  30  1   
 31  17  31  1   
 32  17  32  1   
 33  18  33  1   
 34  18  34  1   
 35  18  35  1   
 36  19  20  1   
 37  19  36  1   
 38  19  37  1   
 39  20  21  1   
 40  20  38  1   
 41  20  39  1   
 42  21  40  1   
@<TRIPOS>SUBSTRUCTURE
  1 ****   5 GROUP 4 **** **** 0

# MOE 2024.06 (io_trps.svl 2023.06)
