@<TRIPOS>MOLECULE
NONAME
29 29 1 0 0 
SMALL
USER_CHARGES


@<TRIPOS>ATOM
  1 S        0.1960    -0.0880     0.0000 S.o2  1 <1>   1.4970 
  2 O        1.0410     1.1500     0.0000 O.2   1 <1>  -0.6500 
  3 O       -0.5380    -1.0890     0.0000 O.2   1 <1>  -0.6500 
  4 N       -1.2950     0.9440     0.0000 N.2   1 <1>  -0.3950 
  5 C        1.1560    -0.9230     0.0000 C.ar  1 <1>  -0.0090 
  6 N       -3.1080    -0.3990     0.0000 N.pl3 1 <1>   0.7410 
  7 C        2.5500    -0.4150     0.0000 C.ar  1 <1>  -0.1500 
  8 C        0.9260    -2.3940     0.0000 C.ar  1 <1>  -0.1500 
  9 O       -1.5290     0.7700     0.0000 O.2   1 <1>  -0.6330 
 10 C       -4.5220     0.3940     0.0000 C.3   1 <1>   0.3390 
 11 C        3.6870    -1.3070     0.0000 C.ar  1 <1>  -0.1500 
 12 C        2.0450    -3.3100     0.0000 C.ar  1 <1>  -0.1500 
 13 N       -5.7260     0.8670     0.0000 N.pl3 1 <1>   0.8000 
 14 C       -4.0580     1.8940     0.0000 C.3   1 <1>  -0.2400 
 15 C       -4.5300    -1.1480     0.0000 C.3   1 <1>  -0.2400 
 16 C        3.4530    -2.7760     0.0000 C.ar  1 <1>  -0.1500 
 17 O       -6.6880     0.1010     0.0000 O.2   1 <1>  -0.5200 
 18 O       -6.0400     2.1090     0.0000 O.2   1 <1>  -0.5200 
 19 H        2.7390     0.6550     0.0000 H     1 <1>   0.1500 
 20 H       -0.0940    -2.7830     0.0000 H     1 <1>   0.1500 
 21 H        4.6960    -0.9080     0.0000 H     1 <1>   0.1500 
 22 H        1.8660    -4.3810     0.0000 H     1 <1>   0.1500 
 23 H       -3.0280     3.2640     0.0000 H     1 <1>   0.0800 
 24 H       -4.5270     2.3800     0.9140 H     1 <1>   0.0800 
 25 H       -4.5270     2.3800    -0.9140 H     1 <1>   0.0800 
 26 H       -5.3490    -2.8990     0.0000 H     1 <1>   0.0800 
 27 H       -5.0080    -1.5000    -0.8910 H     1 <1>   0.0800 
 28 H       -5.0080    -1.5000     0.8910 H     1 <1>   0.0800 
 29 H        4.2970    -3.4600     0.0000 H     1 <1>   0.1500 
@<TRIPOS>BOND
  1   1   2  2   
  2   1   3  2   
  3   1   4  1   
  4   1   5  1   
  5   4   6  2   
  6   5   7  ar  
  7   5   8  ar  
  8   6   9  2   
  9   6  10  1   
 10   7  11  ar  
 11   7  19  1   
 12   8  12  ar  
 13   8  20  1   
 14  10  13  1   
 15  10  14  1   
 16  10  15  1   
 17  11  16  ar  
 18  11  21  1   
 19  12  16  ar  
 20  12  22  1   
 21  13  17  2   
 22  13  18  2   
 23  14  23  1   
 24  14  24  1   
 25  14  25  1   
 26  15  26  1   
 27  15  27  1   
 28  15  28  1   
 29  16  29  1   
@<TRIPOS>SUBSTRUCTURE
  1 ****   3 GROUP 4 **** **** 0

# MOE 2024.06 (io_trps.svl 2023.06)
