@<TRIPOS>MOLECULE
NONAME
45 47 1 0 0 
SMALL
USER_CHARGES


@<TRIPOS>ATOM
  1 O       -3.6840    -0.9830     1.0380 O.3   1 <1>  -0.3630 
  2 C       -4.7620    -1.0590     0.1930 C.ar  1 <1>   0.0820 
  3 C       -3.6130     0.0240     2.0270 C.3   1 <1>   0.0400 
  4 C       -4.7820    -2.0700    -0.7870 C.ar  1 <1>   0.1000 
  5 C       -5.8310    -0.1690     0.2780 C.ar  1 <1>  -0.1500 
  6 N       -3.7640    -3.0180    -0.9620 N.pl3 1 <1>  -0.8380 
  7 C       -5.8690    -2.1500    -1.6440 C.ar  1 <1>  -0.1500 
  8 C       -6.9050    -0.2710    -0.5900 C.ar  1 <1>  -0.1500 
  9 C       -2.4860    -2.5310    -1.5640 C.3   1 <1>   0.2090 
 10 C       -3.6590    -4.0910     0.0700 C.3   1 <1>   0.2090 
 11 C       -6.9240    -1.2620    -1.5520 C.ar  1 <1>  -0.1500 
 12 C       -1.3810    -2.3170    -0.5100 C.3   1 <1>   0.3430 
 13 C       -2.5200    -3.8310     1.0790 C.3   1 <1>   0.3430 
 14 N       -1.2120    -3.5020     0.4100 N.4   1 <1>  -0.9590 
 15 C       -0.1300    -3.2730     1.4010 C.3   1 <1>   0.4860 
 16 C        1.1850    -3.1360     0.6580 C.ar  1 <1>  -0.1430 
 17 C        1.7880    -4.2540     0.0950 C.ar  1 <1>  -0.1500 
 18 C        1.7940    -1.8930     0.5330 C.ar  1 <1>  -0.1500 
 19 C        2.9790    -4.1270    -0.5970 C.ar  1 <1>  -0.1500 
 20 C        2.9870    -1.7650    -0.1570 C.ar  1 <1>  -0.1500 
 21 C        3.5730    -2.8850    -0.7220 C.ar  1 <1>   0.0820 
 22 O        4.7280    -2.7830    -1.3950 O.3   1 <1>  -0.5330 
 23 H       -2.6930    -0.0930     2.5690 H     1 <1>   0.0800 
 24 H       -4.4470    -0.0850     2.7000 H     1 <1>   0.0800 
 25 H       -3.6320     0.9880     1.5480 H     1 <1>   0.0800 
 26 H       -5.8600     0.6160     1.0080 H     1 <1>   0.1500 
 27 H       -5.8830    -2.9210    -2.3930 H     1 <1>   0.1500 
 28 H       -7.7260     0.4220    -0.5170 H     1 <1>   0.1500 
 29 H       -2.6660    -1.6020    -2.0780 H     1 <1>   0.0800 
 30 H       -2.1520    -3.2440    -2.2980 H     1 <1>   0.0800 
 31 H       -3.4970    -5.0330    -0.4240 H     1 <1>   0.0800 
 32 H       -4.5920    -4.1630     0.6030 H     1 <1>   0.0800 
 33 H       -7.7580    -1.3430    -2.2290 H     1 <1>   0.1500 
 34 H       -1.6350    -1.4450     0.0680 H     1 <1>   0.0800 
 35 H       -0.4540    -2.1130    -1.0200 H     1 <1>   0.0800 
 36 H       -2.4070    -4.7000     1.7040 H     1 <1>   0.0800 
 37 H       -2.8180    -3.0100     1.7100 H     1 <1>   0.0800 
 38 H       -0.9330    -4.2950    -0.1780 H     1 <1>   0.4500 
 39 H       -0.0670    -4.1060     2.0820 H     1 <1>   0.0800 
 40 H       -0.3290    -2.3790     1.9690 H     1 <1>   0.0800 
 41 H        1.3490    -5.2330     0.1880 H     1 <1>   0.1500 
 42 H        1.3520    -1.0140     0.9710 H     1 <1>   0.1500 
 43 H        3.4580    -4.9840    -1.0390 H     1 <1>   0.1500 
 44 H        3.4560    -0.8020    -0.2510 H     1 <1>   0.1500 
 45 H        5.1000    -1.8830    -1.4060 H     1 <1>   0.4500 
@<TRIPOS>BOND
  1   1   2  1   
  2   1   3  1   
  3   2   4  ar  
  4   2   5  ar  
  5   3  23  1   
  6   3  24  1   
  7   3  25  1   
  8   4   6  1   
  9   4   7  ar  
 10   5   8  ar  
 11   5  26  1   
 12   6   9  1   
 13   6  10  1   
 14   7  11  ar  
 15   7  27  1   
 16   8  11  ar  
 17   8  28  1   
 18   9  12  1   
 19   9  29  1   
 20   9  30  1   
 21  10  13  1   
 22  10  31  1   
 23  10  32  1   
 24  11  33  1   
 25  12  14  1   
 26  12  34  1   
 27  12  35  1   
 28  13  14  1   
 29  13  36  1   
 30  13  37  1   
 31  14  15  1   
 32  14  38  1   
 33  15  16  1   
 34  15  39  1   
 35  15  40  1   
 36  16  17  ar  
 37  16  18  ar  
 38  17  19  ar  
 39  17  41  1   
 40  18  20  ar  
 41  18  42  1   
 42  19  21  ar  
 43  19  43  1   
 44  20  21  ar  
 45  20  44  1   
 46  21  22  1   
 47  22  45  1   
@<TRIPOS>SUBSTRUCTURE
  1 ****  12 GROUP 4 **** **** 0

# MOE 2024.06 (io_trps.svl 2023.06)
