@<TRIPOS>MOLECULE
NONAME
43 44 1 0 0 
SMALL
USER_CHARGES


@<TRIPOS>ATOM
  1 O       -0.8130    -1.0930    -0.2720 O.2   1 <1>  -0.5700 
  2 C       -0.2780    -2.0080    -0.8640 C.2   1 <1>   0.6900 
  3 N        1.0710    -2.1850    -0.8800 N.am  1 <1>  -0.5470 
  4 N       -1.0480    -2.9110    -1.5240 N.am  1 <1>  -0.7300 
  5 C        2.1010    -1.3810    -0.3710 C.ar  1 <1>   0.1170 
  6 C       -2.5270    -2.8150    -1.6710 C.3   1 <1>   0.1400 
  7 C        3.3010    -1.9810    -0.0080 C.ar  1 <1>  -0.1500 
  8 C        1.9840    -0.0010    -0.2340 C.ar  1 <1>  -0.1500 
  9 C       -3.2360    -2.7850    -0.2970 C.3   1 <1>   0.3430 
 10 C        4.3590    -1.2350     0.4860 C.ar  1 <1>  -0.1440 
 11 C        3.0340     0.7520     0.2580 C.ar  1 <1>  -0.1500 
 12 N       -4.2510    -1.6860    -0.1680 N.4   1 <1>  -0.9590 
 13 C        4.2200     0.1360     0.6180 C.ar  1 <1>  -0.1500 
 14 C        5.6640    -1.9000     0.8830 C.3   1 <1>  -0.0970 
 15 C       -3.5810    -0.3460    -0.1310 C.3   1 <1>   0.3430 
 16 C       -5.0780    -1.8910     1.0550 C.3   1 <1>   0.3430 
 17 C       -4.6360     0.7610    -0.0900 C.3   1 <1>  -0.1600 
 18 C       -6.1750    -0.8260     1.1220 C.3   1 <1>  -0.1600 
 19 C       -5.5890     0.5920     1.1000 C.3   1 <1>  -0.1600 
 20 H        1.3770    -3.0890    -1.2210 H     1 <1>   0.3700 
 21 H       -0.5770    -3.5260    -2.1920 H     1 <1>   0.3700 
 22 H       -2.8760    -3.6680    -2.2270 H     1 <1>   0.0800 
 23 H       -2.7550    -1.9290    -2.2370 H     1 <1>   0.0800 
 24 H        3.4090    -3.0450    -0.1090 H     1 <1>   0.1500 
 25 H        1.0730     0.4920    -0.5160 H     1 <1>   0.1500 
 26 H       -2.4910    -2.6660     0.4740 H     1 <1>   0.0800 
 27 H       -3.7170    -3.7370    -0.1450 H     1 <1>   0.0800 
 28 H        2.9300     1.8180     0.3610 H     1 <1>   0.1500 
 29 H       -4.8830    -1.6960    -0.9770 H     1 <1>   0.4500 
 30 H        5.0330     0.7290     0.9990 H     1 <1>   0.1500 
 31 H        5.5600    -2.9700     0.9110 H     1 <1>   0.0800 
 32 H        5.9660    -1.5630     1.8590 H     1 <1>   0.0800 
 33 H        6.4320    -1.6470     0.1750 H     1 <1>   0.0800 
 34 H       -2.9550    -0.2140    -0.9990 H     1 <1>   0.0800 
 35 H       -2.9480    -0.2790     0.7400 H     1 <1>   0.0800 
 36 H       -4.4540    -1.8190     1.9320 H     1 <1>   0.0800 
 37 H       -5.5300    -2.8700     1.0380 H     1 <1>   0.0800 
 38 H       -5.1910     0.7610    -1.0120 H     1 <1>   0.0800 
 39 H       -4.1380     1.7120    -0.0150 H     1 <1>   0.0800 
 40 H       -6.7410    -0.9610     2.0280 H     1 <1>   0.0800 
 41 H       -6.8540    -0.9570     0.2970 H     1 <1>   0.0800 
 42 H       -6.3830     1.3180     1.0400 H     1 <1>   0.0800 
 43 H       -5.0500     0.7710     2.0160 H     1 <1>   0.0800 
@<TRIPOS>BOND
  1   1   2  2   
  2   2   3  am  
  3   2   4  am  
  4   3   5  1   
  5   3  20  1   
  6   4   6  1   
  7   4  21  1   
  8   5   7  ar  
  9   5   8  ar  
 10   6   9  1   
 11   6  22  1   
 12   6  23  1   
 13   7  10  ar  
 14   7  24  1   
 15   8  11  ar  
 16   8  25  1   
 17   9  12  1   
 18   9  26  1   
 19   9  27  1   
 20  10  13  ar  
 21  10  14  1   
 22  11  13  ar  
 23  11  28  1   
 24  12  15  1   
 25  12  16  1   
 26  12  29  1   
 27  13  30  1   
 28  14  31  1   
 29  14  32  1   
 30  14  33  1   
 31  15  17  1   
 32  15  34  1   
 33  15  35  1   
 34  16  18  1   
 35  16  36  1   
 36  16  37  1   
 37  17  19  1   
 38  17  38  1   
 39  17  39  1   
 40  18  19  1   
 41  18  40  1   
 42  18  41  1   
 43  19  42  1   
 44  19  43  1   
@<TRIPOS>SUBSTRUCTURE
  1 ****   1 GROUP 4 **** **** 0

# MOE 2024.06 (io_trps.svl 2023.06)
