@<TRIPOS>MOLECULE
NONAME
54 56 1 0 0 
SMALL
USER_CHARGES


@<TRIPOS>ATOM
  1 O       -4.9130    -1.9250     0.9670 O.2   1 <1>  -0.5700 
  2 C       -5.5430    -1.8250    -0.0570 C.2   1 <1>   0.5690 
  3 N       -5.2050    -0.9020    -0.9940 N.am  1 <1>  -0.7300 
  4 C       -6.6950    -2.7720    -0.3300 C.3   1 <1>  -0.0990 
  5 C       -4.2750     0.2500    -0.8000 C.3   1 <1>   0.1400 
  6 C       -8.0810    -2.2610     0.1250 C.3   1 <1>   0.0000 
  7 C       -2.7890    -0.1600    -0.8740 C.3   1 <1>   0.3430 
  8 C       -9.1400    -3.3440    -0.1950 C.3   1 <1>  -0.1600 
  9 C       -8.1070    -1.9930     1.6490 C.3   1 <1>  -0.1600 
 10 C       -8.4830    -0.9590    -0.6100 C.3   1 <1>  -0.1600 
 11 N       -2.3910    -1.0400     0.2700 N.4   1 <1>  -0.9590 
 12 C      -10.5440    -2.8910     0.2460 C.3   1 <1>  -0.0800 
 13 C       -9.5060    -1.5310     2.0990 C.3   1 <1>  -0.0800 
 14 C       -9.8840    -0.4940    -0.1700 C.3   1 <1>  -0.0800 
 15 C       -1.9790    -0.2440     1.4540 C.3   1 <1>   0.3430 
 16 C       -1.3950    -2.0720    -0.1170 C.3   1 <1>   0.3430 
 17 C      -10.5350    -2.6260     1.7620 C.3   1 <1>  -0.1600 
 18 C      -10.9110    -1.5930    -0.4960 C.3   1 <1>  -0.1600 
 19 C       -9.8790    -0.2390     1.3490 C.3   1 <1>  -0.1600 
 20 C       -2.0380    -1.1040     2.7120 C.3   1 <1>  -0.2400 
 21 C       -2.0870    -3.1600    -0.9290 C.3   1 <1>  -0.2400 
 22 H       -5.8030    -0.8440    -1.8250 H     1 <1>   0.3700 
 23 H       -6.4830    -3.6970     0.1760 H     1 <1>   0.0800 
 24 H       -6.7220    -2.9880    -1.3820 H     1 <1>   0.0800 
 25 H       -4.4770     0.7160     0.1500 H     1 <1>   0.0800 
 26 H       -4.4710     0.9790    -1.5670 H     1 <1>   0.0800 
 27 H       -2.1720     0.7230    -0.8790 H     1 <1>   0.0800 
 28 H       -2.6320    -0.6730    -1.8080 H     1 <1>   0.0800 
 29 H       -8.8910    -4.2610     0.3110 H     1 <1>   0.0800 
 30 H       -9.1510    -3.5490    -1.2510 H     1 <1>   0.0800 
 31 H       -7.8370    -2.8870     2.1830 H     1 <1>   0.0800 
 32 H       -7.3910    -1.2330     1.9080 H     1 <1>   0.0800 
 33 H       -8.4810    -1.1200    -1.6740 H     1 <1>   0.0800 
 34 H       -7.7820    -0.1740    -0.3900 H     1 <1>   0.0800 
 35 H       -3.2600    -1.5430     0.5550 H     1 <1>   0.4500 
 36 H      -11.2640    -3.6580     0.0160 H     1 <1>   0.0800 
 37 H       -9.5050    -1.3480     3.1600 H     1 <1>   0.0800 
 38 H      -10.1480     0.4130    -0.6890 H     1 <1>   0.0800 
 39 H       -2.6540     0.5880     1.5810 H     1 <1>   0.0800 
 40 H       -0.9830     0.1450     1.3160 H     1 <1>   0.0800 
 41 H       -0.9700    -2.5220     0.7640 H     1 <1>   0.0800 
 42 H       -0.5960    -1.6260    -0.6870 H     1 <1>   0.0800 
 43 H      -10.2880    -3.5310     2.2900 H     1 <1>   0.0800 
 44 H      -11.5140    -2.3170     2.0840 H     1 <1>   0.0800 
 45 H      -10.9320    -1.7720    -1.5560 H     1 <1>   0.0800 
 46 H      -11.8950    -1.2720    -0.2000 H     1 <1>   0.0800 
 47 H       -9.1730     0.5370     1.5870 H     1 <1>   0.0800 
 48 H      -10.8510     0.0970     1.6650 H     1 <1>   0.0800 
 49 H       -3.0230    -1.5170     2.8440 H     1 <1>   0.0800 
 50 H       -1.8210    -0.4910     3.5680 H     1 <1>   0.0800 
 51 H       -1.3150    -1.8970     2.6870 H     1 <1>   0.0800 
 52 H       -2.8800    -3.6080    -0.3560 H     1 <1>   0.0800 
 53 H       -1.3750    -3.9300    -1.1670 H     1 <1>   0.0800 
 54 H       -2.4820    -2.7780    -1.8530 H     1 <1>   0.0800 
@<TRIPOS>BOND
  1   1   2  2   
  2   2   3  am  
  3   2   4  1   
  4   3   5  1   
  5   3  22  1   
  6   4   6  1   
  7   4  23  1   
  8   4  24  1   
  9   5   7  1   
 10   5  25  1   
 11   5  26  1   
 12   6   8  1   
 13   6   9  1   
 14   6  10  1   
 15   7  11  1   
 16   7  27  1   
 17   7  28  1   
 18   8  12  1   
 19   8  29  1   
 20   8  30  1   
 21   9  13  1   
 22   9  31  1   
 23   9  32  1   
 24  10  14  1   
 25  10  33  1   
 26  10  34  1   
 27  11  15  1   
 28  11  16  1   
 29  11  35  1   
 30  12  17  1   
 31  12  18  1   
 32  12  36  1   
 33  13  17  1   
 34  13  19  1   
 35  13  37  1   
 36  14  18  1   
 37  14  19  1   
 38  14  38  1   
 39  15  20  1   
 40  15  39  1   
 41  15  40  1   
 42  16  21  1   
 43  16  41  1   
 44  16  42  1   
 45  17  43  1   
 46  17  44  1   
 47  18  45  1   
 48  18  46  1   
 49  19  47  1   
 50  19  48  1   
 51  20  49  1   
 52  20  50  1   
 53  20  51  1   
 54  21  52  1   
 55  21  53  1   
 56  21  54  1   
@<TRIPOS>SUBSTRUCTURE
  1 ****   2 GROUP 4 **** **** 0

# MOE 2024.06 (io_trps.svl 2023.06)
