@<TRIPOS>MOLECULE
NONAME
44 45 1 0 0 
SMALL
USER_CHARGES


@<TRIPOS>ATOM
  1 O        0.2500    -0.3670     0.5050 O.3   1 <1>  -0.1650 
  2 C        0.2030    -1.6940     0.3090 C.ar  1 <1>   0.7020 
  3 C        1.3900     0.3490     0.4180 C.ar  1 <1>   0.3920 
  4 N       -0.9760    -2.1600     0.0160 N.ar  1 <1>  -0.6200 
  5 N        1.3070    -2.3840     0.4150 N.ar  1 <1>  -0.6200 
  6 N        1.6250     1.1950     1.4200 N.ar  1 <1>  -0.3100 
  7 C        2.2330     0.2190    -0.6710 C.ar  1 <1>  -0.1500 
  8 C       -1.0040    -3.4550    -0.1830 C.ar  1 <1>   0.7200 
  9 C        1.1570    -3.6670     0.2010 C.ar  1 <1>   0.7200 
 10 N        2.7130     1.9340     1.4060 N.ar  1 <1>  -0.3100 
 11 C        3.3700     0.9920    -0.6850 C.ar  1 <1>  -0.1500 
 12 N        0.0300    -4.2510    -0.1090 N.ar  1 <1>  -0.6200 
 13 N       -2.2220    -4.0170    -0.5030 N.pl3 1 <1>  -0.8380 
 14 N        2.2840    -4.4540     0.3030 N.pl3 1 <1>  -0.8380 
 15 C        3.5730     1.8410     0.3910 C.ar  1 <1>   0.3930 
 16 C       -3.5110    -3.2880    -0.3240 C.3   1 <1>   0.1290 
 17 C       -2.3450    -5.4130    -1.0080 C.3   1 <1>   0.1290 
 18 C        3.5140    -4.0010     1.0150 C.3   1 <1>   0.1290 
 19 C        2.3120    -5.8640    -0.1810 C.3   1 <1>   0.1290 
 20 O        4.6610     2.6410     0.4970 O.3   1 <1>  -0.3620 
 21 C        5.8120     2.5210    -0.3120 C.3   1 <1>   0.1200 
 22 C        6.6210     1.2910     0.1160 C.3   1 <1>  -0.1600 
 23 C        7.9000     1.1530    -0.7160 C.3   1 <1>  -0.2400 
 24 H        2.0080    -0.4620    -1.4710 H     1 <1>   0.1500 
 25 H        4.0550     0.9220    -1.5060 H     1 <1>   0.1500 
 26 H       -3.4240    -2.5440     0.4490 H     1 <1>   0.0800 
 27 H       -4.2880    -3.9760    -0.0410 H     1 <1>   0.0800 
 28 H       -3.7820    -2.8050    -1.2460 H     1 <1>   0.0800 
 29 H       -1.4520    -5.7090    -1.5320 H     1 <1>   0.0800 
 30 H       -3.1750    -5.4880    -1.6900 H     1 <1>   0.0800 
 31 H       -2.5030    -6.0830    -0.1810 H     1 <1>   0.0800 
 32 H        3.2850    -3.2140     1.7130 H     1 <1>   0.0800 
 33 H        4.2300    -3.6370     0.3000 H     1 <1>   0.0800 
 34 H        3.9450    -4.8200     1.5640 H     1 <1>   0.0800 
 35 H        1.6300    -5.9960    -1.0030 H     1 <1>   0.0800 
 36 H        2.0260    -6.5250     0.6190 H     1 <1>   0.0800 
 37 H        3.3010    -6.1190    -0.5180 H     1 <1>   0.0800 
 38 H        6.3960     3.4120    -0.1580 H     1 <1>   0.0800 
 39 H        5.5210     2.4830    -1.3460 H     1 <1>   0.0800 
 40 H        6.0330     0.3980     0.0000 H     1 <1>   0.0800 
 41 H        6.8860     1.3910     1.1550 H     1 <1>   0.0800 
 42 H        7.6640     1.0340    -1.7590 H     1 <1>   0.0800 
 43 H        8.4580     0.2910    -0.3930 H     1 <1>   0.0800 
 44 H        8.5230     2.0230    -0.5980 H     1 <1>   0.0800 
@<TRIPOS>BOND
  1   1   2  1   
  2   1   3  1   
  3   2   4  ar  
  4   2   5  ar  
  5   3   6  ar  
  6   3   7  ar  
  7   4   8  ar  
  8   5   9  ar  
  9   6  10  ar  
 10   7  11  ar  
 11   7  24  1   
 12   8  12  ar  
 13   8  13  1   
 14   9  12  ar  
 15   9  14  1   
 16  10  15  ar  
 17  11  15  ar  
 18  11  25  1   
 19  13  16  1   
 20  13  17  1   
 21  14  18  1   
 22  14  19  1   
 23  15  20  1   
 24  16  26  1   
 25  16  27  1   
 26  16  28  1   
 27  17  29  1   
 28  17  30  1   
 29  17  31  1   
 30  18  32  1   
 31  18  33  1   
 32  18  34  1   
 33  19  35  1   
 34  19  36  1   
 35  19  37  1   
 36  20  21  1   
 37  21  22  1   
 38  21  38  1   
 39  21  39  1   
 40  22  23  1   
 41  22  40  1   
 42  22  41  1   
 43  23  42  1   
 44  23  43  1   
 45  23  44  1   
@<TRIPOS>SUBSTRUCTURE
  1 ****   5 GROUP 4 **** **** 0

# MOE 2024.06 (io_trps.svl 2023.06)
