@<TRIPOS>MOLECULE
NONAME
38 39 1 0 0 
SMALL
USER_CHARGES


@<TRIPOS>ATOM
  1 O      -11.1930     0.6710     0.6240 O.3   1 <1>  -0.3630 
  2 C      -12.3520     0.1520     0.1600 C.ar  1 <1>   0.0830 
  3 C      -10.0390     0.3260    -0.1010 C.3   1 <1>   0.1200 
  4 C      -13.0940     0.8600    -0.7840 C.ar  1 <1>  -0.1440 
  5 C      -12.7960    -1.0790     0.6380 C.ar  1 <1>  -0.1440 
  6 C       -8.8450     1.0240     0.5510 C.3   1 <1>  -0.1600 
  7 C      -14.2670     0.3060    -1.2710 C.ar  1 <1>  -0.1500 
  8 C      -12.6480     2.2270    -1.2840 C.3   1 <1>  -0.0960 
  9 C      -13.9710    -1.6130     0.1370 C.ar  1 <1>  -0.1500 
 10 C      -12.0210    -1.8440     1.7020 C.3   1 <1>  -0.0970 
 11 C       -7.5420     0.7070    -0.1950 C.3   1 <1>  -0.1600 
 12 C      -14.7020    -0.9260    -0.8160 C.ar  1 <1>  -0.1500 
 13 C       -6.3450     1.4110     0.4570 C.3   1 <1>   0.0960 
 14 N       -5.1060     1.1050    -0.2820 N.pl3 1 <1>   0.0480 
 15 C       -4.5520     1.8070    -1.2960 C.2   1 <1>   0.0360 
 16 C       -4.2820     0.0580    -0.1030 C.2   1 <1>  -0.3020 
 17 N       -3.4610     1.2910    -1.7610 N.2   1 <1>  -0.5650 
 18 C       -3.2880     0.1880    -1.0100 C.2   1 <1>   0.0770 
 19 H      -10.1680     0.6490    -1.1190 H     1 <1>   0.0800 
 20 H       -9.9270    -0.7430    -0.0740 H     1 <1>   0.0800 
 21 H       -8.7670     0.6940     1.5730 H     1 <1>   0.0800 
 22 H       -9.0180     2.0860     0.5430 H     1 <1>   0.0800 
 23 H      -14.8500     0.8320    -2.0060 H     1 <1>   0.1500 
 24 H      -11.8850     2.1120    -2.0310 H     1 <1>   0.0800 
 25 H      -12.2570     2.8090    -0.4690 H     1 <1>   0.0800 
 26 H      -13.4750     2.7630    -1.7120 H     1 <1>   0.0800 
 27 H      -14.3270    -2.5660     0.4870 H     1 <1>   0.1500 
 28 H      -11.6530    -1.1660     2.4510 H     1 <1>   0.0800 
 29 H      -11.1890    -2.3540     1.2530 H     1 <1>   0.0800 
 30 H      -12.6510    -2.5680     2.1860 H     1 <1>   0.0800 
 31 H       -7.6290     1.0320    -1.2190 H     1 <1>   0.0800 
 32 H       -7.3750    -0.3570    -0.1870 H     1 <1>   0.0800 
 33 H      -15.6130    -1.3480    -1.2010 H     1 <1>   0.1500 
 34 H       -6.2280     1.0810     1.4740 H     1 <1>   0.0800 
 35 H       -6.4940     2.4760     0.4570 H     1 <1>   0.0800 
 36 H       -4.9950     2.7130    -1.6720 H     1 <1>   0.1500 
 37 H       -4.4390    -0.7040     0.6380 H     1 <1>   0.1500 
 38 H       -2.4450    -0.4650    -1.1640 H     1 <1>   0.1500 
@<TRIPOS>BOND
  1   1   2  1   
  2   1   3  1   
  3   2   4  ar  
  4   2   5  ar  
  5   3   6  1   
  6   3  19  1   
  7   3  20  1   
  8   4   7  ar  
  9   4   8  1   
 10   5   9  ar  
 11   5  10  1   
 12   6  11  1   
 13   6  21  1   
 14   6  22  1   
 15   7  12  ar  
 16   7  23  1   
 17   8  24  1   
 18   8  25  1   
 19   8  26  1   
 20   9  12  ar  
 21   9  27  1   
 22  10  28  1   
 23  10  29  1   
 24  10  30  1   
 25  11  13  1   
 26  11  31  1   
 27  11  32  1   
 28  12  33  1   
 29  13  14  1   
 30  13  34  1   
 31  13  35  1   
 32  14  15  1   
 33  14  16  1   
 34  15  17  2   
 35  15  36  1   
 36  16  18  2   
 37  16  37  1   
 38  17  18  1   
 39  18  38  1   
@<TRIPOS>SUBSTRUCTURE
  1 ****   3 GROUP 4 **** **** 0

# MOE 2024.06 (io_trps.svl 2023.06)
