@<TRIPOS>MOLECULE
NONAME
48 50 1 0 0 
SMALL
USER_CHARGES


@<TRIPOS>ATOM
  1 O       -0.8190     2.9390    -2.1010 O.2   1 <1>  -0.5700 
  2 C       -0.1300     2.3710    -1.2860 C.2   1 <1>   0.5690 
  3 N       -0.6080     1.5530    -0.3070 N.am  1 <1>  -0.5470 
  4 C        1.3900     2.5560    -1.3340 C.3   1 <1>   0.1710 
  5 C       -1.8760     1.0480     0.0240 C.ar  1 <1>   0.1170 
  6 N        2.1500     1.5130    -0.5770 N.3   1 <1>  -0.8100 
  7 C       -1.9480    -0.0480     0.8900 C.ar  1 <1>   0.0830 
  8 C       -3.0540     1.5950    -0.4690 C.ar  1 <1>  -0.1500 
  9 C        3.5230     1.9570    -0.2960 C.3   1 <1>   0.1100 
 10 C        2.1530     0.2270    -1.3010 C.3   1 <1>   0.1100 
 11 O       -0.7630    -0.5580     1.3510 O.3   1 <1>  -0.3630 
 12 C       -3.1860    -0.5740     1.2460 C.ar  1 <1>  -0.1500 
 13 C       -4.2870     1.0730    -0.1170 C.ar  1 <1>   0.0830 
 14 C        4.2030     0.9490     0.6310 C.3   1 <1>  -0.1600 
 15 C        2.7680    -0.8520    -0.4120 C.3   1 <1>  -0.1600 
 16 C       -0.7280    -1.6920     2.1890 C.3   1 <1>   0.0400 
 17 C       -4.3510    -0.0170     0.7450 C.ar  1 <1>  -0.1500 
 18 O       -5.3820     1.6770    -0.6500 O.3   1 <1>  -0.3630 
 19 C        4.1740    -0.4500     0.0120 C.3   1 <1>   0.5600 
 20 C       -6.6830     1.2110    -0.3710 C.3   1 <1>   0.0400 
 21 O        4.6700    -1.3910     0.9020 O.3   1 <1>  -0.5600 
 22 O        5.0180    -0.5060    -1.0930 O.3   1 <1>  -0.5600 
 23 C        6.0290    -1.5280     0.6980 C.3   1 <1>   0.1200 
 24 C        6.2560    -0.9800    -0.6980 C.3   1 <1>   0.1200 
 25 H        0.1570     1.1170     0.2250 H     1 <1>   0.3700 
 26 H        1.5970     3.5230    -0.9120 H     1 <1>   0.0800 
 27 H        1.7080     2.5690    -2.3610 H     1 <1>   0.0800 
 28 H       -3.0220     2.4380    -1.1330 H     1 <1>   0.1500 
 29 H        3.5030     2.9190     0.1870 H     1 <1>   0.0800 
 30 H        4.0780     2.0450    -1.2160 H     1 <1>   0.0800 
 31 H        2.7190     0.3170    -2.2140 H     1 <1>   0.0800 
 32 H        1.1470    -0.0640    -1.5550 H     1 <1>   0.0800 
 33 H       -3.2670    -1.4130     1.9090 H     1 <1>   0.1500 
 34 H        3.6690     0.9300     1.5630 H     1 <1>   0.0800 
 35 H        5.2130     1.2530     0.8230 H     1 <1>   0.0800 
 36 H        2.8060    -1.7870    -0.9380 H     1 <1>   0.0800 
 37 H        2.1530    -0.9720     0.4600 H     1 <1>   0.0800 
 38 H        0.3010    -1.9170     2.4030 H     1 <1>   0.0800 
 39 H       -1.1830    -2.5210     1.6750 H     1 <1>   0.0800 
 40 H       -1.2500    -1.4680     3.1030 H     1 <1>   0.0800 
 41 H       -5.2920    -0.4430     1.0360 H     1 <1>   0.1500 
 42 H       -7.3810     1.8320    -0.9030 H     1 <1>   0.0800 
 43 H       -6.8610     1.2850     0.6870 H     1 <1>   0.0800 
 44 H       -6.7690     0.1930    -0.7080 H     1 <1>   0.0800 
 45 H        6.2950    -2.5670     0.7760 H     1 <1>   0.0800 
 46 H        6.5530    -0.9510     1.4390 H     1 <1>   0.0800 
 47 H        6.9620    -0.1690    -0.6970 H     1 <1>   0.0800 
 48 H        6.5680    -1.7470    -1.3840 H     1 <1>   0.0800 
@<TRIPOS>BOND
  1   1   2  2   
  2   2   3  am  
  3   2   4  1   
  4   3   5  1   
  5   3  25  1   
  6   4   6  1   
  7   4  26  1   
  8   4  27  1   
  9   5   7  ar  
 10   5   8  ar  
 11   6   9  1   
 12   6  10  1   
 13   7  11  1   
 14   7  12  ar  
 15   8  13  ar  
 16   8  28  1   
 17   9  14  1   
 18   9  29  1   
 19   9  30  1   
 20  10  15  1   
 21  10  31  1   
 22  10  32  1   
 23  11  16  1   
 24  12  17  ar  
 25  12  33  1   
 26  13  17  ar  
 27  13  18  1   
 28  14  19  1   
 29  14  34  1   
 30  14  35  1   
 31  15  19  1   
 32  15  36  1   
 33  15  37  1   
 34  16  38  1   
 35  16  39  1   
 36  16  40  1   
 37  17  41  1   
 38  18  20  1   
 39  19  21  1   
 40  19  22  1   
 41  20  42  1   
 42  20  43  1   
 43  20  44  1   
 44  21  23  1   
 45  22  24  1   
 46  23  24  1   
 47  23  45  1   
 48  23  46  1   
 49  24  47  1   
 50  24  48  1   
@<TRIPOS>SUBSTRUCTURE
  1 ****   3 GROUP 4 **** **** 0

# MOE 2024.06 (io_trps.svl 2023.06)
