@<TRIPOS>MOLECULE
NONAME
50 51 1 0 0 
SMALL
USER_CHARGES


@<TRIPOS>ATOM
  1 O        0.0190     0.7220     0.9420 O.2   1 <1>  -0.5700 
  2 C       -0.1240     1.8750     0.5800 C.2   1 <1>   0.7800 
  3 O        0.9310     2.5660     0.1450 O.3   1 <1>  -0.4300 
  4 N       -1.3390     2.5040     0.5910 N.am  1 <1>  -0.6600 
  5 C        2.2130     1.9820     0.1120 C.3   1 <1>   0.1200 
  6 C       -1.5590     3.8930     0.0840 C.3   1 <1>   0.1400 
  7 C       -2.5850     1.8120     1.0330 C.3   1 <1>   0.1400 
  8 C        3.1920     3.0190    -0.4300 C.3   1 <1>  -0.2400 
  9 C       -2.6100     3.8960    -1.0360 C.3   1 <1>   0.1400 
 10 C       -3.6490     1.8280    -0.0780 C.3   1 <1>   0.1400 
 11 N       -3.8680     3.2180    -0.5900 N.am  1 <1>  -0.6600 
 12 C       -5.0410     3.9210    -0.4050 C.2   1 <1>   0.5440 
 13 O       -4.9970     5.1370    -0.3940 O.2   1 <1>  -0.5700 
 14 C       -6.3140     3.2530    -0.2110 C.ar  1 <1>   0.0860 
 15 C       -7.1630     3.6190     0.8330 C.ar  1 <1>  -0.1500 
 16 C       -6.7430     2.2300    -1.0590 C.ar  1 <1>  -0.1500 
 17 C       -8.3730     2.9820     1.0330 C.ar  1 <1>  -0.1500 
 18 C       -7.9530     1.5880    -0.8670 C.ar  1 <1>  -0.1500 
 19 C       -8.7780     1.9610     0.1900 C.ar  1 <1>   0.0820 
 20 O       -9.9740     1.3890     0.4520 O.3   1 <1>  -0.3630 
 21 C      -10.5220     0.3900    -0.3820 C.3   1 <1>   0.1200 
 22 C      -11.9050    -0.0170     0.1510 C.3   1 <1>  -0.0800 
 23 C      -12.4800    -1.1630    -0.6920 C.3   1 <1>  -0.2400 
 24 C      -12.8850     1.1650     0.1530 C.3   1 <1>  -0.2400 
 25 H        2.1760     1.1140    -0.5260 H     1 <1>   0.0800 
 26 H        2.4780     1.6850     1.1130 H     1 <1>   0.0800 
 27 H       -0.6440     4.3170    -0.2900 H     1 <1>   0.0800 
 28 H       -1.9050     4.5140     0.8920 H     1 <1>   0.0800 
 29 H       -2.9730     2.3130     1.9020 H     1 <1>   0.0800 
 30 H       -2.3740     0.7930     1.3070 H     1 <1>   0.0800 
 31 H        2.9070     3.3130    -1.4250 H     1 <1>   0.0800 
 32 H        4.1810     2.6000    -0.4660 H     1 <1>   0.0800 
 33 H        3.2080     3.8830     0.2110 H     1 <1>   0.0800 
 34 H       -2.2160     3.3790    -1.8920 H     1 <1>   0.0800 
 35 H       -2.8110     4.9110    -1.3330 H     1 <1>   0.0800 
 36 H       -4.5610     1.4160     0.3150 H     1 <1>   0.0800 
 37 H       -3.3220     1.2000    -0.8880 H     1 <1>   0.0800 
 38 H       -6.8620     4.4180     1.4890 H     1 <1>   0.1500 
 39 H       -6.1130     1.9430    -1.8830 H     1 <1>   0.1500 
 40 H       -9.0160     3.2750     1.8440 H     1 <1>   0.1500 
 41 H       -8.2380     0.8060    -1.5450 H     1 <1>   0.1500 
 42 H       -9.8550    -0.4540    -0.3760 H     1 <1>   0.0800 
 43 H      -10.6050     0.7880    -1.3780 H     1 <1>   0.0800 
 44 H      -11.7830    -0.3720     1.1600 H     1 <1>   0.0800 
 45 H      -12.6180    -0.8520    -1.7130 H     1 <1>   0.0800 
 46 H      -13.4320    -1.4730    -0.2980 H     1 <1>   0.0800 
 47 H      -11.8180    -2.0100    -0.6750 H     1 <1>   0.0800 
 48 H      -13.0170     1.5520    -0.8420 H     1 <1>   0.0800 
 49 H      -12.5140     1.9570     0.7810 H     1 <1>   0.0800 
 50 H      -13.8430     0.8580     0.5340 H     1 <1>   0.0800 
@<TRIPOS>BOND
  1   1   2  2   
  2   2   3  1   
  3   2   4  am  
  4   3   5  1   
  5   4   6  1   
  6   4   7  1   
  7   5   8  1   
  8   5  25  1   
  9   5  26  1   
 10   6   9  1   
 11   6  27  1   
 12   6  28  1   
 13   7  10  1   
 14   7  29  1   
 15   7  30  1   
 16   8  31  1   
 17   8  32  1   
 18   8  33  1   
 19   9  11  1   
 20   9  34  1   
 21   9  35  1   
 22  10  11  1   
 23  10  36  1   
 24  10  37  1   
 25  11  12  am  
 26  12  13  2   
 27  12  14  1   
 28  14  15  ar  
 29  14  16  ar  
 30  15  17  ar  
 31  15  38  1   
 32  16  18  ar  
 33  16  39  1   
 34  17  19  ar  
 35  17  40  1   
 36  18  19  ar  
 37  18  41  1   
 38  19  20  1   
 39  20  21  1   
 40  21  22  1   
 41  21  42  1   
 42  21  43  1   
 43  22  23  1   
 44  22  24  1   
 45  22  44  1   
 46  23  45  1   
 47  23  46  1   
 48  23  47  1   
 49  24  48  1   
 50  24  49  1   
 51  24  50  1   
@<TRIPOS>SUBSTRUCTURE
  1 ****  10 GROUP 4 **** **** 0

# MOE 2024.06 (io_trps.svl 2023.06)
