@<TRIPOS>MOLECULE
NONAME
45 48 1 0 0 
SMALL
USER_CHARGES


@<TRIPOS>ATOM
  1 O       -0.0490     0.6050    -1.5950 O.2   1 <1>  -0.5700 
  2 C        0.6910     1.4290    -1.1160 C.2   1 <1>   0.5690 
  3 N        0.3430     2.6010    -0.5090 N.am  1 <1>  -0.4770 
  4 C        2.1810     1.2330    -1.1120 C.3   1 <1>  -0.0990 
  5 C       -0.9470     3.1230    -0.2780 C.ar  1 <1>   0.1170 
  6 C        1.5500     3.3170    -0.0460 C.3   1 <1>   0.1400 
  7 C        2.6570     2.2500    -0.0650 C.3   1 <1>  -0.0190 
  8 C       -1.1830     4.4940    -0.3380 C.ar  1 <1>  -0.1500 
  9 C       -2.0160     2.2870     0.0290 C.ar  1 <1>  -0.1500 
 10 C        4.0540     2.8000    -0.3450 C.2   1 <1>   0.5690 
 11 C       -2.4400     5.0170    -0.0910 C.ar  1 <1>  -0.1500 
 12 C       -3.2750     2.8030     0.2770 C.ar  1 <1>  -0.1500 
 13 O        4.1240     3.8470    -0.9420 O.2   1 <1>  -0.5700 
 14 N        5.1720     2.1010     0.0720 N.am  1 <1>  -0.4770 
 15 C       -3.4980     4.1690     0.2220 C.ar  1 <1>   0.0830 
 16 C        6.5240     2.4500    -0.0810 C.ar  1 <1>   0.1170 
 17 C        5.1080     0.7750     0.7580 C.3   1 <1>   0.1400 
 18 O       -4.7620     4.5950     0.4810 O.3   1 <1>  -0.3630 
 19 C        7.3600     1.4730     0.4170 C.ar  1 <1>  -0.1430 
 20 C        7.0840     3.5940    -0.6380 C.ar  1 <1>  -0.1500 
 21 C        6.5610     0.3260     0.9730 C.3   1 <1>  -0.0170 
 22 C       -5.0960     5.9630     0.4080 C.3   1 <1>   0.0400 
 23 C        8.7360     1.5990     0.3770 C.ar  1 <1>  -0.1500 
 24 C        8.4610     3.7350    -0.6860 C.ar  1 <1>  -0.1500 
 25 C        9.2870     2.7410    -0.1810 C.ar  1 <1>  -0.1500 
 26 H        2.5620     1.4700    -2.0890 H     1 <1>   0.0800 
 27 H        2.4340     0.2230    -0.8490 H     1 <1>   0.0800 
 28 H        1.4050     3.7170     0.9420 H     1 <1>   0.0800 
 29 H        1.7550     4.1180    -0.7360 H     1 <1>   0.0800 
 30 H        2.6420     1.7880     0.9040 H     1 <1>   0.0800 
 31 H       -0.3810     5.1620    -0.5880 H     1 <1>   0.1500 
 32 H       -1.8640     1.2240     0.0750 H     1 <1>   0.1500 
 33 H       -2.5760     6.0800    -0.1480 H     1 <1>   0.1500 
 34 H       -4.0940     2.1480     0.5130 H     1 <1>   0.1500 
 35 H        4.5890     0.0640     0.1400 H     1 <1>   0.0800 
 36 H        4.6110     0.8770     1.7060 H     1 <1>   0.0800 
 37 H        6.4600     4.3730    -1.0340 H     1 <1>   0.1500 
 38 H        6.7670    -0.5800     0.4330 H     1 <1>   0.0800 
 39 H        6.7690     0.1820     2.0180 H     1 <1>   0.0800 
 40 H       -6.1420     6.0630     0.6340 H     1 <1>   0.0800 
 41 H       -4.9020     6.3170    -0.5890 H     1 <1>   0.0800 
 42 H       -4.5130     6.5030     1.1320 H     1 <1>   0.0800 
 43 H        9.3710     0.8250     0.7710 H     1 <1>   0.1500 
 44 H        8.8930     4.6210    -1.1180 H     1 <1>   0.1500 
 45 H       10.3560     2.8580    -0.2220 H     1 <1>   0.1500 
@<TRIPOS>BOND
  1   1   2  2   
  2   2   3  am  
  3   2   4  1   
  4   3   5  1   
  5   3   6  1   
  6   4   7  1   
  7   4  26  1   
  8   4  27  1   
  9   5   8  ar  
 10   5   9  ar  
 11   6   7  1   
 12   6  28  1   
 13   6  29  1   
 14   7  10  1   
 15   7  30  1   
 16   8  11  ar  
 17   8  31  1   
 18   9  12  ar  
 19   9  32  1   
 20  10  13  2   
 21  10  14  am  
 22  11  15  ar  
 23  11  33  1   
 24  12  15  ar  
 25  12  34  1   
 26  14  16  1   
 27  14  17  1   
 28  15  18  1   
 29  16  19  ar  
 30  16  20  ar  
 31  17  21  1   
 32  17  35  1   
 33  17  36  1   
 34  18  22  1   
 35  19  21  1   
 36  19  23  ar  
 37  20  24  ar  
 38  20  37  1   
 39  21  38  1   
 40  21  39  1   
 41  22  40  1   
 42  22  41  1   
 43  22  42  1   
 44  23  25  ar  
 45  23  43  1   
 46  24  25  ar  
 47  24  44  1   
 48  25  45  1   
@<TRIPOS>SUBSTRUCTURE
  1 ****   7 GROUP 4 **** **** 0

# MOE 2024.06 (io_trps.svl 2023.06)
