@<TRIPOS>MOLECULE
NONAME
42 43 1 0 0 
SMALL
USER_CHARGES


@<TRIPOS>ATOM
  1 S        0.4530    -0.1190    -1.9210 S.3   1 <1>  -0.0800 
  2 C        0.9700    -1.0390    -0.5200 C.2   1 <1>  -0.1400 
  3 C       -0.7370    -1.3140    -2.3300 C.2   1 <1>  -0.1100 
  4 C        0.2480    -2.1800    -0.4020 C.2   1 <1>  -0.1810 
  5 C        2.1070    -0.3510     0.2190 C.3   1 <1>  -0.0600 
  6 C       -0.7520    -2.3380    -1.4450 C.2   1 <1>  -0.0860 
  7 C        0.3470    -3.2980     0.6470 C.3   1 <1>   0.0210 
  8 C       -1.6920    -3.4400    -1.5420 C.2   1 <1>   0.7160 
  9 C        1.2400    -3.0490     1.8620 C.3   1 <1>  -0.2400 
 10 O       -1.3330    -4.5970    -1.4520 O.2   1 <1>  -0.5700 
 11 N       -3.0420    -3.1980    -1.6940 N.am  1 <1>  -0.6600 
 12 C       -3.9810    -4.3000    -2.0580 C.3   1 <1>   0.1400 
 13 C       -3.7080    -2.0170    -1.0690 C.3   1 <1>   0.1400 
 14 C       -4.7600    -4.7540    -0.8110 C.3   1 <1>   0.3430 
 15 C       -4.5250    -2.4590     0.1630 C.3   1 <1>   0.3430 
 16 N       -5.4650    -3.6010    -0.1420 N.4   1 <1>  -0.9590 
 17 C       -6.1970    -4.0550     1.0600 C.3   1 <1>   0.4810 
 18 C       -7.2190    -2.9910     1.3850 C.2   1 <1>  -0.2880 
 19 C       -8.5300    -3.0810     1.1350 C.2   1 <1>  -0.3000 
 20 H       -1.3280    -1.1350    -3.2110 H     1 <1>   0.1500 
 21 H        1.7730     0.6060     0.5800 H     1 <1>   0.0800 
 22 H        2.9270    -0.1910    -0.4580 H     1 <1>   0.0800 
 23 H        2.4730    -0.9120     1.0510 H     1 <1>   0.0800 
 24 H        0.6950    -4.1910     0.1560 H     1 <1>   0.0800 
 25 H       -0.6410    -3.5010     1.0170 H     1 <1>   0.0800 
 26 H        2.2720    -3.0260     1.5650 H     1 <1>   0.0800 
 27 H        1.1200    -3.8510     2.5690 H     1 <1>   0.0800 
 28 H        0.9710    -2.1270     2.3460 H     1 <1>   0.0800 
 29 H       -3.4400    -5.1370    -2.4690 H     1 <1>   0.0800 
 30 H       -4.6620    -3.9560    -2.8160 H     1 <1>   0.0800 
 31 H       -4.3540    -1.5470    -1.7910 H     1 <1>   0.0800 
 32 H       -2.9810    -1.2860    -0.7590 H     1 <1>   0.0800 
 33 H       -4.0600    -5.2040    -0.1250 H     1 <1>   0.0800 
 34 H       -5.4740    -5.5080    -1.0990 H     1 <1>   0.0800 
 35 H       -5.0820    -1.6140     0.5330 H     1 <1>   0.0800 
 36 H       -3.8340    -2.7590     0.9330 H     1 <1>   0.0800 
 37 H       -6.1870    -3.2480    -0.7840 H     1 <1>   0.4500 
 38 H       -5.5270    -4.2160     1.8900 H     1 <1>   0.0800 
 39 H       -6.7110    -4.9790     0.8470 H     1 <1>   0.0800 
 40 H       -6.7920    -2.1240     1.8600 H     1 <1>   0.1500 
 41 H       -9.2410    -2.3090     1.3830 H     1 <1>   0.1500 
 42 H       -9.0190    -3.9230     0.6710 H     1 <1>   0.1500 
@<TRIPOS>BOND
  1   1   2  1   
  2   1   3  1   
  3   2   4  2   
  4   2   5  1   
  5   3   6  2   
  6   3  20  1   
  7   4   6  1   
  8   4   7  1   
  9   5  21  1   
 10   5  22  1   
 11   5  23  1   
 12   6   8  1   
 13   7   9  1   
 14   7  24  1   
 15   7  25  1   
 16   8  10  2   
 17   8  11  am  
 18   9  26  1   
 19   9  27  1   
 20   9  28  1   
 21  11  12  1   
 22  11  13  1   
 23  12  14  1   
 24  12  29  1   
 25  12  30  1   
 26  13  15  1   
 27  13  31  1   
 28  13  32  1   
 29  14  16  1   
 30  14  33  1   
 31  14  34  1   
 32  15  16  1   
 33  15  35  1   
 34  15  36  1   
 35  16  17  1   
 36  16  37  1   
 37  17  18  1   
 38  17  38  1   
 39  17  39  1   
 40  18  19  2   
 41  18  40  1   
 42  19  41  1   
 43  19  42  1   
@<TRIPOS>SUBSTRUCTURE
  1 ****  11 GROUP 4 **** **** 0

# MOE 2024.06 (io_trps.svl 2023.06)
