@<TRIPOS>MOLECULE
NONAME
40 42 1 0 0 
SMALL
USER_CHARGES


@<TRIPOS>ATOM
  1 S       -0.0080    -0.3450    -0.5320 S.3   1 <1>  -0.0800 
  2 C        0.4790     1.3100    -0.2140 C.2   1 <1>   0.1040 
  3 C       -1.7060     0.0930    -0.5640 C.2   1 <1>  -0.1400 
  4 N        1.8260     1.6340    -0.1260 N.am  1 <1>  -0.4940 
  5 C       -0.6170     2.1240    -0.1360 C.2   1 <1>  -0.0860 
  6 C       -1.8600     1.4100    -0.3390 C.2   1 <1>  -0.1810 
  7 C       -2.6920    -1.0250    -0.8360 C.3   1 <1>   0.0200 
  8 C        2.9580     0.8760     0.0420 C.2   1 <1>   0.7150 
  9 C       -0.5160     3.5320     0.1260 C.2   1 <1>   0.7160 
 10 C       -3.2250     2.0930    -0.3120 C.3   1 <1>   0.0210 
 11 C       -3.7970    -1.0900     0.2240 C.3   1 <1>  -0.1600 
 12 O        2.8800    -0.2760     0.4160 O.2   1 <1>  -0.5700 
 13 C        4.2260     1.5080    -0.1910 C.2   1 <1>  -0.2370 
 14 O       -1.0430     4.3790    -0.5650 O.2   1 <1>  -0.5700 
 15 N        0.2080     3.9830     1.1730 N.am  1 <1>  -0.8000 
 16 C       -4.2050     1.4240     0.6630 C.3   1 <1>  -0.1600 
 17 C       -4.7850     0.0860     0.1740 C.3   1 <1>  -0.1600 
 18 N        5.4420     0.9610     0.0930 N.pl3 1 <1>   0.3140 
 19 C        4.5070     2.7340    -0.7210 C.2   1 <1>  -0.1500 
 20 N        6.4520     1.7840    -0.2210 N.2   1 <1>  -0.7070 
 21 C        5.7350    -0.3620     0.6730 C.3   1 <1>   0.0160 
 22 C        5.8830     2.8420    -0.7110 C.2   1 <1>   0.1390 
 23 H        2.0360     2.6270    -0.2020 H     1 <1>   0.3700 
 24 H       -2.1640    -1.9630    -0.8370 H     1 <1>   0.0800 
 25 H       -3.1200    -0.8910    -1.8130 H     1 <1>   0.0800 
 26 H       -3.6370     2.0990    -1.3050 H     1 <1>   0.0800 
 27 H       -3.1250     3.1170    -0.0080 H     1 <1>   0.0800 
 28 H       -3.3500    -1.1510     1.2020 H     1 <1>   0.0800 
 29 H       -4.3510    -1.9990     0.0680 H     1 <1>   0.0800 
 30 H        0.1430     4.9750     1.4010 H     1 <1>   0.3700 
 31 H        0.4650     3.3560     1.9360 H     1 <1>   0.3700 
 32 H       -5.0280     2.1020     0.8100 H     1 <1>   0.0800 
 33 H       -3.7280     1.2920     1.6180 H     1 <1>   0.0800 
 34 H       -5.6160    -0.1610     0.8120 H     1 <1>   0.0800 
 35 H       -5.1750     0.1970    -0.8230 H     1 <1>   0.0800 
 36 H        3.8340     3.4880    -1.0880 H     1 <1>   0.1500 
 37 H        5.3630    -1.1260     0.0170 H     1 <1>   0.0800 
 38 H        5.2580    -0.4430     1.6320 H     1 <1>   0.0800 
 39 H        6.7970    -0.4730     0.7890 H     1 <1>   0.0800 
 40 H        6.4380     3.6960    -1.0640 H     1 <1>   0.1500 
@<TRIPOS>BOND
  1   1   2  1   
  2   1   3  1   
  3   2   4  1   
  4   2   5  2   
  5   3   6  2   
  6   3   7  1   
  7   4   8  am  
  8   4  23  1   
  9   5   6  1   
 10   5   9  1   
 11   6  10  1   
 12   7  11  1   
 13   7  24  1   
 14   7  25  1   
 15   8  12  2   
 16   8  13  1   
 17   9  14  2   
 18   9  15  am  
 19  10  16  1   
 20  10  26  1   
 21  10  27  1   
 22  11  17  1   
 23  11  28  1   
 24  11  29  1   
 25  13  18  1   
 26  13  19  2   
 27  15  30  1   
 28  15  31  1   
 29  16  17  1   
 30  16  32  1   
 31  16  33  1   
 32  17  34  1   
 33  17  35  1   
 34  18  20  1   
 35  18  21  1   
 36  19  22  1   
 37  19  36  1   
 38  20  22  2   
 39  21  37  1   
 40  21  38  1   
 41  21  39  1   
 42  22  40  1   
@<TRIPOS>SUBSTRUCTURE
  1 ****   2 GROUP 4 **** **** 0

# MOE 2024.06 (io_trps.svl 2023.06)
