@<TRIPOS>MOLECULE
NONAME
37 39 1 0 0 
SMALL
USER_CHARGES


@<TRIPOS>ATOM
  1 O        0.2470     2.4760    -2.0790 O.2   1 <1>  -0.5700 
  2 C        0.1520     2.8500    -0.9260 C.2   1 <1>   0.5440 
  3 N        1.2960     3.1310    -0.2330 N.am  1 <1>  -0.7300 
  4 C       -1.1460     2.9760    -0.2890 C.ar  1 <1>   0.0860 
  5 C        2.6700     3.0110    -0.7570 C.3   1 <1>   0.2200 
  6 C       -2.2250     2.1910    -0.6990 C.ar  1 <1>  -0.1500 
  7 C       -1.3750     3.8770     0.7550 C.ar  1 <1>  -0.1500 
  8 C        3.4610     1.8660    -0.0910 C.3   1 <1>  -0.0800 
  9 C        3.5030     4.2540    -0.4060 C.3   1 <1>  -0.1600 
 10 C       -3.4630     2.2890    -0.0930 C.ar  1 <1>  -0.1500 
 11 C       -2.6110     3.9810     1.3680 C.ar  1 <1>  -0.1500 
 12 C        4.8900     2.3380    -0.3190 C.3   1 <1>  -0.1600 
 13 C        3.3830     1.9510     1.4470 C.3   1 <1>  -0.1600 
 14 C        4.6910     3.6730     0.3810 C.3   1 <1>  -0.0800 
 15 C       -3.6680     3.1810     0.9470 C.ar  1 <1>   0.0830 
 16 C        4.1880     3.2240     1.7630 C.3   1 <1>  -0.1600 
 17 O       -4.9050     3.2160     1.4900 O.3   1 <1>  -0.3630 
 18 C       -5.2320     4.0990     2.5410 C.3   1 <1>   0.0400 
 19 H        1.2470     3.2990     0.7690 H     1 <1>   0.3700 
 20 H        2.6540     2.8730    -1.8260 H     1 <1>   0.0800 
 21 H       -2.0820     1.4950    -1.5090 H     1 <1>   0.1500 
 22 H       -0.5750     4.5140     1.0860 H     1 <1>   0.1500 
 23 H        3.2380     0.8960    -0.5000 H     1 <1>   0.0800 
 24 H        2.9530     4.9800     0.1660 H     1 <1>   0.0800 
 25 H        3.8560     4.7130    -1.3120 H     1 <1>   0.0800 
 26 H       -4.2820     1.6740    -0.4230 H     1 <1>   0.1500 
 27 H       -2.7360     4.6880     2.1660 H     1 <1>   0.1500 
 28 H        5.1340     2.4450    -1.3630 H     1 <1>   0.0800 
 29 H        5.6210     1.7150     0.1690 H     1 <1>   0.0800 
 30 H        3.8690     1.0940     1.8820 H     1 <1>   0.0800 
 31 H        2.3760     1.9930     1.8210 H     1 <1>   0.0800 
 32 H        5.5560     4.3130     0.4120 H     1 <1>   0.0800 
 33 H        5.0190     2.9870     2.4050 H     1 <1>   0.0800 
 34 H        3.5830     3.9790     2.2350 H     1 <1>   0.0800 
 35 H       -6.2650     3.9450     2.7970 H     1 <1>   0.0800 
 36 H       -5.0850     5.1100     2.2060 H     1 <1>   0.0800 
 37 H       -4.6080     3.8780     3.3890 H     1 <1>   0.0800 
@<TRIPOS>BOND
  1   1   2  2   
  2   2   3  am  
  3   2   4  1   
  4   3   5  1   
  5   3  19  1   
  6   4   6  ar  
  7   4   7  ar  
  8   5   8  1   
  9   5   9  1   
 10   5  20  1   
 11   6  10  ar  
 12   6  21  1   
 13   7  11  ar  
 14   7  22  1   
 15   8  12  1   
 16   8  13  1   
 17   8  23  1   
 18   9  14  1   
 19   9  24  1   
 20   9  25  1   
 21  10  15  ar  
 22  10  26  1   
 23  11  15  ar  
 24  11  27  1   
 25  12  14  1   
 26  12  28  1   
 27  12  29  1   
 28  13  16  1   
 29  13  30  1   
 30  13  31  1   
 31  14  16  1   
 32  14  32  1   
 33  15  17  1   
 34  16  33  1   
 35  16  34  1   
 36  17  18  1   
 37  18  35  1   
 38  18  36  1   
 39  18  37  1   
@<TRIPOS>SUBSTRUCTURE
  1 ****   3 GROUP 4 **** **** 0

# MOE 2024.06 (io_trps.svl 2023.06)
