@<TRIPOS>MOLECULE
NONAME
46 48 1 0 0 
SMALL
USER_CHARGES


@<TRIPOS>ATOM
  1 F        0.5550    -0.1050    -0.4490 F     1 <1>  -0.1900 
  2 C        1.7770    -0.5430    -0.2930 C.ar  1 <1>   0.1900 
  3 C        2.3640    -0.4540     0.9540 C.ar  1 <1>  -0.1500 
  4 C        2.4390    -1.0780    -1.3810 C.ar  1 <1>  -0.1500 
  5 C        3.6580    -0.9190     1.1120 C.ar  1 <1>  -0.1500 
  6 C        3.7330    -1.5380    -1.2070 C.ar  1 <1>  -0.1500 
  7 C        4.3580    -1.4690     0.0390 C.ar  1 <1>   0.1170 
  8 N        5.6710    -1.9140     0.2530 N.am  1 <1>  -0.5470 
  9 C        6.4270    -2.8390    -0.4230 C.2   1 <1>   0.5690 
 10 O        5.9990    -3.4940    -1.3430 O.2   1 <1>  -0.5700 
 11 C        7.8610    -3.0990     0.0620 C.3   1 <1>   0.1710 
 12 N        8.9000    -2.1180    -0.3690 N.3   1 <1>  -0.8100 
 13 C        8.6920    -0.7490     0.1540 C.3   1 <1>   0.1100 
 14 C       10.2500    -2.6140    -0.0230 C.3   1 <1>   0.1100 
 15 C        9.7800     0.2290    -0.3270 C.3   1 <1>   0.1400 
 16 C       11.3590    -1.6730    -0.5210 C.3   1 <1>   0.1400 
 17 N       11.1440    -0.2890    -0.0060 N.am  1 <1>  -0.6600 
 18 C       12.1400     0.4160     0.6320 C.2   1 <1>   0.5690 
 19 O       13.2200    -0.0980     0.8330 O.2   1 <1>  -0.5700 
 20 C       11.9000     1.8660     1.1340 C.3   1 <1>   0.2610 
 21 O       11.5480     2.7250     0.0820 O.3   1 <1>  -0.5600 
 22 C       13.1140     2.5670     1.7470 C.3   1 <1>  -0.1600 
 23 C       12.6980     3.2170    -0.5290 C.3   1 <1>   0.1200 
 24 C       13.7810     3.2230     0.5470 C.3   1 <1>  -0.1600 
 25 H        1.8150    -0.0310     1.7760 H     1 <1>   0.1500 
 26 H        1.9520    -1.1320    -2.3380 H     1 <1>   0.1500 
 27 H        4.1230    -0.8590     2.0780 H     1 <1>   0.1500 
 28 H        4.2580    -1.9510    -2.0500 H     1 <1>   0.1500 
 29 H        6.1330    -1.4970     1.0570 H     1 <1>   0.3700 
 30 H        8.1370    -4.0680    -0.3140 H     1 <1>   0.0800 
 31 H        7.8550    -3.1640     1.1350 H     1 <1>   0.0800 
 32 H        8.6880    -0.7640     1.2300 H     1 <1>   0.0800 
 33 H        7.7450    -0.3730    -0.1890 H     1 <1>   0.0800 
 34 H       10.4000    -3.5810    -0.4720 H     1 <1>   0.0800 
 35 H       10.3410    -2.7230     1.0440 H     1 <1>   0.0800 
 36 H        9.6100     1.1870     0.1280 H     1 <1>   0.0800 
 37 H        9.6960     0.3530    -1.3920 H     1 <1>   0.0800 
 38 H       11.3500    -1.6540    -1.5970 H     1 <1>   0.0800 
 39 H       12.3140    -2.0540    -0.2050 H     1 <1>   0.0800 
 40 H       11.0880     1.8510     1.8380 H     1 <1>   0.0800 
 41 H       13.7680     1.8940     2.2730 H     1 <1>   0.0800 
 42 H       12.7680     3.3200     2.4320 H     1 <1>   0.0800 
 43 H       12.4920     4.2040    -0.9080 H     1 <1>   0.0800 
 44 H       12.9580     2.5560    -1.3390 H     1 <1>   0.0800 
 45 H       14.6230     2.6420     0.2120 H     1 <1>   0.0800 
 46 H       14.1080     4.2230     0.7700 H     1 <1>   0.0800 
@<TRIPOS>BOND
  1   1   2  1   
  2   2   3  ar  
  3   2   4  ar  
  4   3   5  ar  
  5   3  25  1   
  6   4   6  ar  
  7   4  26  1   
  8   5   7  ar  
  9   5  27  1   
 10   6   7  ar  
 11   6  28  1   
 12   7   8  1   
 13   8   9  am  
 14   8  29  1   
 15   9  10  2   
 16   9  11  1   
 17  11  12  1   
 18  11  30  1   
 19  11  31  1   
 20  12  13  1   
 21  12  14  1   
 22  13  15  1   
 23  13  32  1   
 24  13  33  1   
 25  14  16  1   
 26  14  34  1   
 27  14  35  1   
 28  15  17  1   
 29  15  36  1   
 30  15  37  1   
 31  16  17  1   
 32  16  38  1   
 33  16  39  1   
 34  17  18  am  
 35  18  19  2   
 36  18  20  1   
 37  20  21  1   
 38  20  22  1   
 39  20  40  1   
 40  21  23  1   
 41  22  24  1   
 42  22  41  1   
 43  22  42  1   
 44  23  24  1   
 45  23  43  1   
 46  23  44  1   
 47  24  45  1   
 48  24  46  1   
@<TRIPOS>SUBSTRUCTURE
  1 ****  13 GROUP 4 **** **** 0

# MOE 2024.06 (io_trps.svl 2023.06)
