@<TRIPOS>MOLECULE
NONAME
49 52 1 0 0 
SMALL
USER_CHARGES


@<TRIPOS>ATOM
  1 S       -0.0150    -0.4220    -0.4190 S.3   1 <1>  -0.0800 
  2 C        1.0140     0.8280     0.2940 C.2   1 <1>   0.4420 
  3 C       -1.4310     0.4750     0.0780 C.ar  1 <1>   0.0400 
  4 N        0.3720     1.7920     0.8350 N.2   1 <1>  -0.5650 
  5 N        2.3810     0.7280     0.2450 N.am  1 <1>  -0.4940 
  6 C       -1.0000     1.6170     0.7270 C.ar  1 <1>   0.2270 
  7 C       -2.7600     0.1510    -0.1150 C.ar  1 <1>  -0.1500 
  8 C        3.2400    -0.1460    -0.3510 C.2   1 <1>   0.5690 
  9 C       -1.9630     2.4900     1.2150 C.ar  1 <1>  -0.1500 
 10 C       -3.7130     1.0370     0.3790 C.ar  1 <1>   0.0830 
 11 O        2.9000    -1.1020    -1.0020 O.2   1 <1>  -0.5700 
 12 C        4.7300     0.1440    -0.1630 C.3   1 <1>   0.1710 
 13 C       -3.3060     2.1960     1.0390 C.ar  1 <1>  -0.1500 
 14 O       -5.0500     0.8430     0.2600 O.3   1 <1>  -0.3630 
 15 N        5.0150     1.5650     0.1950 N.3   1 <1>  -0.8100 
 16 C       -5.5680    -0.2960    -0.3910 C.3   1 <1>   0.0400 
 17 C        4.8890     2.4500    -0.9950 C.3   1 <1>   0.1100 
 18 C        6.3810     1.7020     0.7580 C.3   1 <1>   0.1100 
 19 C        5.1740     3.9250    -0.6550 C.3   1 <1>   0.2090 
 20 C        6.7120     3.1570     1.1410 C.3   1 <1>   0.2090 
 21 N        6.5190     4.0650    -0.0270 N.pl3 1 <1>  -0.8380 
 22 C        7.1990     5.2930    -0.0330 C.ar  1 <1>   0.1000 
 23 C        8.5910     5.3870    -0.1530 C.ar  1 <1>   0.1900 
 24 C        6.5040     6.4950     0.0860 C.ar  1 <1>  -0.1500 
 25 F        9.3090     4.2930    -0.2680 F     1 <1>  -0.1900 
 26 C        9.2670     6.5910    -0.1610 C.ar  1 <1>  -0.1500 
 27 C        7.1650     7.7130     0.0790 C.ar  1 <1>  -0.1500 
 28 C        8.5450     7.7660    -0.0450 C.ar  1 <1>  -0.1500 
 29 H        2.8760     1.4970     0.7030 H     1 <1>   0.3700 
 30 H       -3.0130    -0.7550    -0.6300 H     1 <1>   0.1500 
 31 H       -1.6500     3.3830     1.7230 H     1 <1>   0.1500 
 32 H        5.2570    -0.1250    -1.0620 H     1 <1>   0.0800 
 33 H        5.0770    -0.4990     0.6270 H     1 <1>   0.0800 
 34 H       -4.0600     2.8660     1.4130 H     1 <1>   0.1500 
 35 H       -6.6410    -0.2360    -0.3640 H     1 <1>   0.0800 
 36 H       -5.2390    -1.1770     0.1320 H     1 <1>   0.0800 
 37 H       -5.2280    -0.3010    -1.4110 H     1 <1>   0.0800 
 38 H        3.8960     2.3780    -1.4030 H     1 <1>   0.0800 
 39 H        5.5840     2.1380    -1.7570 H     1 <1>   0.0800 
 40 H        7.1090     1.3640     0.0410 H     1 <1>   0.0800 
 41 H        6.4690     1.0890     1.6380 H     1 <1>   0.0800 
 42 H        4.4190     4.2860     0.0210 H     1 <1>   0.0800 
 43 H        5.1380     4.5140    -1.5550 H     1 <1>   0.0800 
 44 H        7.7300     3.2150     1.4830 H     1 <1>   0.0800 
 45 H        6.0690     3.4700     1.9450 H     1 <1>   0.0800 
 46 H        5.4370     6.4790     0.1930 H     1 <1>   0.1500 
 47 H       10.3370     6.6050    -0.2580 H     1 <1>   0.1500 
 48 H        6.6030     8.6260     0.1720 H     1 <1>   0.1500 
 49 H        9.0520     8.7160    -0.0500 H     1 <1>   0.1500 
@<TRIPOS>BOND
  1   1   2  1   
  2   1   3  1   
  3   2   4  2   
  4   2   5  1   
  5   3   6  ar  
  6   3   7  ar  
  7   4   6  1   
  8   5   8  am  
  9   5  29  1   
 10   6   9  ar  
 11   7  10  ar  
 12   7  30  1   
 13   8  11  2   
 14   8  12  1   
 15   9  13  ar  
 16   9  31  1   
 17  10  13  ar  
 18  10  14  1   
 19  12  15  1   
 20  12  32  1   
 21  12  33  1   
 22  13  34  1   
 23  14  16  1   
 24  15  17  1   
 25  15  18  1   
 26  16  35  1   
 27  16  36  1   
 28  16  37  1   
 29  17  19  1   
 30  17  38  1   
 31  17  39  1   
 32  18  20  1   
 33  18  40  1   
 34  18  41  1   
 35  19  21  1   
 36  19  42  1   
 37  19  43  1   
 38  20  21  1   
 39  20  44  1   
 40  20  45  1   
 41  21  22  1   
 42  22  23  ar  
 43  22  24  ar  
 44  23  25  1   
 45  23  26  ar  
 46  24  27  ar  
 47  24  46  1   
 48  26  28  ar  
 49  26  47  1   
 50  27  28  ar  
 51  27  48  1   
 52  28  49  1   
@<TRIPOS>SUBSTRUCTURE
  1 ****   5 GROUP 4 **** **** 0

# MOE 2024.06 (io_trps.svl 2023.06)
