@<TRIPOS>MOLECULE
NONAME
52 53 1 0 0 
SMALL
USER_CHARGES


@<TRIPOS>ATOM
  1 O        0.5070    -5.3910    -0.6240 O.3   1 <1>  -0.3630 
  2 C        1.5590    -6.1860    -0.3000 C.ar  1 <1>   0.0830 
  3 C       -0.4900    -5.1790     0.3440 C.3   1 <1>   0.1200 
  4 C        1.4160    -7.5180     0.1120 C.ar  1 <1>   0.0820 
  5 C        2.8190    -5.6270    -0.4120 C.ar  1 <1>  -0.1500 
  6 C       -1.8330    -5.4880    -0.3150 C.3   1 <1>  -0.1600 
  7 O        0.1650    -8.0690     0.1710 O.3   1 <1>  -0.3630 
  8 C        2.5580    -8.2460     0.4380 C.ar  1 <1>  -0.1500 
  9 C        3.9440    -6.3660    -0.0930 C.ar  1 <1>  -0.1500 
 10 C       -2.9490    -5.4860     0.7240 C.3   1 <1>   0.3430 
 11 C        0.0020    -9.4710     0.1830 C.3   1 <1>   0.0400 
 12 C        3.8200    -7.6760     0.3400 C.ar  1 <1>  -0.1430 
 13 N       -4.2600    -5.7520     0.0710 N.4   1 <1>  -0.9590 
 14 C        5.0670    -8.4720     0.6970 C.3   1 <1>   0.1220 
 15 C       -5.4000    -5.4300     0.9740 C.3   1 <1>   0.3430 
 16 C       -4.3610    -7.1510    -0.4660 C.3   1 <1>   0.3430 
 17 C        5.8870    -8.7620    -0.5490 C.2   1 <1>  -0.2880 
 18 C       -6.6980    -5.3500     0.1490 C.3   1 <1>  -0.0800 
 19 C       -5.8190    -7.5680    -0.7200 C.3   1 <1>  -0.1600 
 20 C        7.1650    -8.4150    -0.7310 C.2   1 <1>  -0.3000 
 21 C       -6.7320    -6.3680    -1.0130 C.3   1 <1>  -0.1600 
 22 C       -6.9280    -3.9280    -0.3870 C.3   1 <1>  -0.2400 
 23 H       -0.4290    -4.1510     0.6560 H     1 <1>   0.0800 
 24 H       -0.3070    -5.8160     1.1930 H     1 <1>   0.0800 
 25 H        2.9180    -4.6110    -0.7490 H     1 <1>   0.1500 
 26 H       -1.7590    -6.4560    -0.7770 H     1 <1>   0.0800 
 27 H       -2.0240    -4.7440    -1.0680 H     1 <1>   0.0800 
 28 H        2.4840    -9.2620     0.7730 H     1 <1>   0.1500 
 29 H        4.9190    -5.9200    -0.1860 H     1 <1>   0.1500 
 30 H       -2.9740    -4.5230     1.2080 H     1 <1>   0.0800 
 31 H       -2.7510    -6.2360     1.4740 H     1 <1>   0.0800 
 32 H       -1.0420    -9.6920     0.0580 H     1 <1>   0.0800 
 33 H        0.3440    -9.8560     1.1280 H     1 <1>   0.0800 
 34 H        0.5640    -9.8960    -0.6310 H     1 <1>   0.0800 
 35 H       -4.3540    -5.1170    -0.7320 H     1 <1>   0.4500 
 36 H        4.7950    -9.4020     1.1630 H     1 <1>   0.0800 
 37 H        5.6550    -7.9130     1.4030 H     1 <1>   0.0800 
 38 H       -5.2350    -4.4910     1.4780 H     1 <1>   0.0800 
 39 H       -5.4940    -6.2040     1.7190 H     1 <1>   0.0800 
 40 H       -3.9150    -7.8470     0.2270 H     1 <1>   0.0800 
 41 H       -3.8100    -7.2100    -1.3920 H     1 <1>   0.0800 
 42 H        5.3180    -9.2890    -1.2970 H     1 <1>   0.1500 
 43 H       -7.5090    -5.5760     0.8220 H     1 <1>   0.0800 
 44 H       -6.1880    -8.0930     0.1440 H     1 <1>   0.0800 
 45 H       -5.8480    -8.2610    -1.5430 H     1 <1>   0.0800 
 46 H        7.7210    -8.6320    -1.6270 H     1 <1>   0.1500 
 47 H        7.7620    -7.8880    -0.0080 H     1 <1>   0.1500 
 48 H       -6.4020    -5.9040    -1.9280 H     1 <1>   0.0800 
 49 H       -7.7440    -6.7030    -1.1730 H     1 <1>   0.0800 
 50 H       -6.1410    -3.6280    -1.0570 H     1 <1>   0.0800 
 51 H       -6.9770    -3.2220     0.4240 H     1 <1>   0.0800 
 52 H       -7.8620    -3.8810    -0.9210 H     1 <1>   0.0800 
@<TRIPOS>BOND
  1   1   2  1   
  2   1   3  1   
  3   2   4  ar  
  4   2   5  ar  
  5   3   6  1   
  6   3  23  1   
  7   3  24  1   
  8   4   7  1   
  9   4   8  ar  
 10   5   9  ar  
 11   5  25  1   
 12   6  10  1   
 13   6  26  1   
 14   6  27  1   
 15   7  11  1   
 16   8  12  ar  
 17   8  28  1   
 18   9  12  ar  
 19   9  29  1   
 20  10  13  1   
 21  10  30  1   
 22  10  31  1   
 23  11  32  1   
 24  11  33  1   
 25  11  34  1   
 26  12  14  1   
 27  13  15  1   
 28  13  16  1   
 29  13  35  1   
 30  14  17  1   
 31  14  36  1   
 32  14  37  1   
 33  15  18  1   
 34  15  38  1   
 35  15  39  1   
 36  16  19  1   
 37  16  40  1   
 38  16  41  1   
 39  17  20  2   
 40  17  42  1   
 41  18  21  1   
 42  18  22  1   
 43  18  43  1   
 44  19  21  1   
 45  19  44  1   
 46  19  45  1   
 47  20  46  1   
 48  20  47  1   
 49  21  48  1   
 50  21  49  1   
 51  22  50  1   
 52  22  51  1   
 53  22  52  1   
@<TRIPOS>SUBSTRUCTURE
  1 ****   7 GROUP 4 **** **** 0

# MOE 2024.06 (io_trps.svl 2023.06)
