@<TRIPOS>MOLECULE
NONAME
43 45 1 0 0 
SMALL
USER_CHARGES


@<TRIPOS>ATOM
  1 O        2.5580    -0.6410    -3.1340 O.2   1 <1>  -0.5700 
  2 C        2.1140    -1.2340    -2.1860 C.2   1 <1>   0.6590 
  3 O        2.7500    -1.2270    -1.0160 O.3   1 <1>  -0.4300 
  4 C        0.8210    -2.0320    -2.2730 C.3   1 <1>   0.1810 
  5 C        3.9320    -0.4870    -0.8110 C.3   1 <1>   0.2000 
  6 O        0.0770    -1.9270    -1.0690 O.3   1 <1>  -0.3630 
  7 C        5.1590    -1.3620    -1.3180 C.3   1 <1>  -0.0800 
  8 C        4.0340    -0.1900     0.7430 C.3   1 <1>   0.3430 
  9 C       -1.1040    -2.5830    -0.9220 C.ar  1 <1>   0.0820 
 10 C        5.1400    -2.6940    -0.4400 C.3   1 <1>  -0.1600 
 11 C        6.4580    -0.5910    -0.8250 C.3   1 <1>  -0.1600 
 12 N        5.2350    -0.9520     1.2000 N.4   1 <1>  -0.9590 
 13 C       -1.7540    -2.4300     0.2930 C.ar  1 <1>  -0.1500 
 14 C       -1.6770    -3.3820    -1.9090 C.ar  1 <1>  -0.1500 
 15 C        5.1120    -2.4220     1.1220 C.3   1 <1>   0.3430 
 16 C        6.5160    -0.3760     0.7430 C.3   1 <1>   0.3430 
 17 C       -2.9600    -3.0650     0.5340 C.ar  1 <1>  -0.1500 
 18 C       -2.8830    -4.0170    -1.6660 C.ar  1 <1>  -0.1500 
 19 C       -3.5310    -3.8660    -0.4510 C.ar  1 <1>   0.0820 
 20 O       -4.7090    -4.5270    -0.3020 O.3   1 <1>  -0.3620 
 21 C       -5.4440    -4.4420     0.8990 C.3   1 <1>   0.0400 
 22 H        1.0520    -3.0680    -2.4390 H     1 <1>   0.0800 
 23 H        0.2190    -1.6530    -3.0790 H     1 <1>   0.0800 
 24 H        3.8510     0.4430    -1.3530 H     1 <1>   0.0800 
 25 H        5.1490    -1.5330    -2.3830 H     1 <1>   0.0800 
 26 H        3.1450    -0.5240     1.2540 H     1 <1>   0.0800 
 27 H        4.1760     0.8640     0.9190 H     1 <1>   0.0800 
 28 H        6.0070    -3.2890    -0.6720 H     1 <1>   0.0800 
 29 H        4.2870    -3.2990    -0.7010 H     1 <1>   0.0800 
 30 H        6.5160     0.3690    -1.3110 H     1 <1>   0.0800 
 31 H        7.3380    -1.1340    -1.1290 H     1 <1>   0.0800 
 32 H        5.2360    -1.1410     0.2720 H     1 <1>   0.4500 
 33 H       -1.3110    -1.8100     1.0510 H     1 <1>   0.1500 
 34 H       -1.2120    -3.5260    -2.8650 H     1 <1>   0.1500 
 35 H        5.9360    -2.9070     1.6230 H     1 <1>   0.0800 
 36 H        4.1800    -2.7480     1.5590 H     1 <1>   0.0800 
 37 H        6.5810     0.6710     0.9970 H     1 <1>   0.0800 
 38 H        7.3480    -0.9040     1.1810 H     1 <1>   0.0800 
 39 H       -3.4350    -2.9250     1.4850 H     1 <1>   0.1500 
 40 H       -3.3340    -4.6360    -2.4210 H     1 <1>   0.1500 
 41 H       -6.3300    -5.0410     0.7900 H     1 <1>   0.0800 
 42 H       -5.7160    -3.4160     1.0700 H     1 <1>   0.0800 
 43 H       -4.8420    -4.8230     1.7040 H     1 <1>   0.0800 
@<TRIPOS>BOND
  1   1   2  2   
  2   2   3  1   
  3   2   4  1   
  4   3   5  1   
  5   4   6  1   
  6   4  22  1   
  7   4  23  1   
  8   5   7  1   
  9   5   8  1   
 10   5  24  1   
 11   6   9  1   
 12   7  10  1   
 13   7  11  1   
 14   7  25  1   
 15   8  12  1   
 16   8  26  1   
 17   8  27  1   
 18   9  13  ar  
 19   9  14  ar  
 20  10  15  1   
 21  10  28  1   
 22  10  29  1   
 23  11  16  1   
 24  11  30  1   
 25  11  31  1   
 26  12  15  1   
 27  12  16  1   
 28  12  32  1   
 29  13  17  ar  
 30  13  33  1   
 31  14  18  ar  
 32  14  34  1   
 33  15  35  1   
 34  15  36  1   
 35  16  37  1   
 36  16  38  1   
 37  17  19  ar  
 38  17  39  1   
 39  18  19  ar  
 40  18  40  1   
 41  19  20  1   
 42  20  21  1   
 43  21  41  1   
 44  21  42  1   
 45  21  43  1   
@<TRIPOS>SUBSTRUCTURE
  1 ****   6 GROUP 4 **** **** 0

# MOE 2024.06 (io_trps.svl 2023.06)
