@<TRIPOS>MOLECULE
NONAME
47 49 1 0 0 
SMALL
USER_CHARGES


@<TRIPOS>ATOM
  1 O       -0.7680    -0.4220    -1.7590 O.3   1 <1>  -0.5320 
  2 C       -1.8270    -0.8140    -1.0380 C.ar  1 <1>   0.0830 
  3 C       -2.3810     0.0690    -0.1290 C.ar  1 <1>  -0.1500 
  4 C       -2.3550    -2.0840    -1.1960 C.ar  1 <1>  -0.1500 
  5 C       -3.4760    -0.3150     0.6240 C.ar  1 <1>  -0.1500 
  6 C       -3.4520    -2.4670    -0.4430 C.ar  1 <1>  -0.1500 
  7 C       -4.0220    -1.5830     0.4650 C.ar  1 <1>  -0.1430 
  8 C       -5.2360    -1.9910     1.2770 C.3   1 <1>   0.4860 
  9 N       -6.4340    -1.9480     0.3960 N.4   1 <1>  -0.9590 
 10 C       -6.6880    -0.5570    -0.1400 C.3   1 <1>   0.3430 
 11 C       -7.6580    -2.4930     1.0870 C.3   1 <1>   0.3430 
 12 C       -7.9300    -0.4800    -1.0530 C.3   1 <1>   0.2090 
 13 C       -8.9040    -2.4850     0.1770 C.3   1 <1>   0.2090 
 14 N       -9.1170    -1.1450    -0.4380 N.pl3 1 <1>  -0.8380 
 15 C      -10.1380    -0.3560     0.0940 C.ar  1 <1>   0.1000 
 16 C      -11.4530    -0.4460    -0.3780 C.ar  1 <1>  -0.1430 
 17 C       -9.8500     0.5230     1.1330 C.ar  1 <1>  -0.1500 
 18 C      -12.4530     0.3230     0.2110 C.ar  1 <1>  -0.1430 
 19 C      -11.7870    -1.3890    -1.5370 C.3   1 <1>  -0.0970 
 20 C      -10.8400     1.2940     1.7050 C.ar  1 <1>  -0.1500 
 21 C      -12.1380     1.1900     1.2460 C.ar  1 <1>  -0.1500 
 22 C      -13.9060     0.2500    -0.2410 C.3   1 <1>  -0.0970 
 23 H       -0.4120    -1.1130    -2.3460 H     1 <1>   0.4500 
 24 H       -1.9470     1.0480    -0.0180 H     1 <1>   0.1500 
 25 H       -1.9140    -2.7700    -1.8970 H     1 <1>   0.1500 
 26 H       -3.8870     0.3860     1.3310 H     1 <1>   0.1500 
 27 H       -3.8450    -3.4610    -0.5730 H     1 <1>   0.1500 
 28 H       -5.3620    -1.3210     2.1120 H     1 <1>   0.0800 
 29 H       -5.0890    -2.9890     1.6580 H     1 <1>   0.0800 
 30 H       -6.2320    -2.5390    -0.4190 H     1 <1>   0.4500 
 31 H       -5.8300    -0.2140    -0.6960 H     1 <1>   0.0800 
 32 H       -6.8360     0.1220     0.6820 H     1 <1>   0.0800 
 33 H       -7.8800    -1.8930     1.9540 H     1 <1>   0.0800 
 34 H       -7.4780    -3.5010     1.4190 H     1 <1>   0.0800 
 35 H       -7.7160    -0.9510    -1.9970 H     1 <1>   0.0800 
 36 H       -8.1630     0.5530    -1.2560 H     1 <1>   0.0800 
 37 H       -9.7710    -2.7530     0.7570 H     1 <1>   0.0800 
 38 H       -8.7950    -3.2170    -0.6030 H     1 <1>   0.0800 
 39 H       -8.8490     0.6060     1.5040 H     1 <1>   0.1500 
 40 H      -10.9290    -1.5710    -2.1550 H     1 <1>   0.0800 
 41 H      -12.5430    -0.9670    -2.1720 H     1 <1>   0.0800 
 42 H      -12.1400    -2.3270    -1.1490 H     1 <1>   0.0800 
 43 H      -10.6100     1.9730     2.5070 H     1 <1>   0.1500 
 44 H      -12.9040     1.7930     1.7010 H     1 <1>   0.1500 
 45 H      -14.2300    -0.7740    -0.2930 H     1 <1>   0.0800 
 46 H      -14.0110     0.7040    -1.2100 H     1 <1>   0.0800 
 47 H      -14.5510     0.7670     0.4460 H     1 <1>   0.0800 
@<TRIPOS>BOND
  1   1   2  1   
  2   1  23  1   
  3   2   3  ar  
  4   2   4  ar  
  5   3   5  ar  
  6   3  24  1   
  7   4   6  ar  
  8   4  25  1   
  9   5   7  ar  
 10   5  26  1   
 11   6   7  ar  
 12   6  27  1   
 13   7   8  1   
 14   8   9  1   
 15   8  28  1   
 16   8  29  1   
 17   9  10  1   
 18   9  11  1   
 19   9  30  1   
 20  10  12  1   
 21  10  31  1   
 22  10  32  1   
 23  11  13  1   
 24  11  33  1   
 25  11  34  1   
 26  12  14  1   
 27  12  35  1   
 28  12  36  1   
 29  13  14  1   
 30  13  37  1   
 31  13  38  1   
 32  14  15  1   
 33  15  16  ar  
 34  15  17  ar  
 35  16  18  ar  
 36  16  19  1   
 37  17  20  ar  
 38  17  39  1   
 39  18  21  ar  
 40  18  22  1   
 41  19  40  1   
 42  19  41  1   
 43  19  42  1   
 44  20  21  ar  
 45  20  43  1   
 46  21  44  1   
 47  22  45  1   
 48  22  46  1   
 49  22  47  1   
@<TRIPOS>SUBSTRUCTURE
  1 ****  10 GROUP 4 **** **** 0

# MOE 2024.06 (io_trps.svl 2023.06)
