@<TRIPOS>MOLECULE
NONAME
32 33 1 0 0 
SMALL
USER_CHARGES


@<TRIPOS>ATOM
  1 BR      -2.7670     1.5900     3.8730 Br    1 <1>  -0.1110 
  2 C       -3.0450     1.6250     1.9690 C.ar  1 <1>   0.1110 
  3 C       -4.2980     1.3260     1.4760 C.ar  1 <1>  -0.1500 
  4 C       -1.9810     1.9500     1.1500 C.ar  1 <1>  -0.1500 
  5 C       -4.5150     1.3490     0.1030 C.ar  1 <1>   0.1170 
  6 C       -2.1920     1.9710    -0.2180 C.ar  1 <1>  -0.1500 
  7 N       -5.7970     1.0400    -0.3740 N.am  1 <1>  -0.5470 
  8 C       -3.4450     1.6730    -0.7310 C.ar  1 <1>  -0.1500 
  9 C       -6.3870     1.1230    -1.6030 C.2   1 <1>   0.5690 
 10 O       -5.8430     1.5320    -2.6000 O.2   1 <1>  -0.5700 
 11 C       -7.8430     0.6590    -1.6840 C.3   1 <1>   0.1710 
 12 N       -8.5650     0.7200    -0.3770 N.3   1 <1>  -0.8100 
 13 C       -9.8050    -0.0800    -0.4270 C.3   1 <1>   0.1100 
 14 C       -8.9070     2.1170    -0.0240 C.3   1 <1>   0.1100 
 15 C      -10.5960     0.0410     0.8890 C.3   1 <1>   0.1200 
 16 C       -9.7250     2.1770     1.2790 C.3   1 <1>   0.1200 
 17 O      -10.8710     1.3820     1.1720 O.3   1 <1>  -0.5600 
 18 H       -5.0930     1.0800     2.1540 H     1 <1>   0.1500 
 19 H       -1.0180     2.1770     1.5700 H     1 <1>   0.1500 
 20 H       -1.3840     2.2190    -0.8850 H     1 <1>   0.1500 
 21 H       -6.4790     0.7320     0.3270 H     1 <1>   0.3700 
 22 H       -3.5820     1.6940    -1.7960 H     1 <1>   0.1500 
 23 H       -7.8260    -0.3570    -2.0340 H     1 <1>   0.0800 
 24 H       -8.3580     1.2520    -2.4200 H     1 <1>   0.0800 
 25 H       -9.5590    -1.1150    -0.5930 H     1 <1>   0.0800 
 26 H      -10.4300     0.2520    -1.2390 H     1 <1>   0.0800 
 27 H       -9.4850     2.5680    -0.8140 H     1 <1>   0.0800 
 28 H       -8.0080     2.6960     0.1010 H     1 <1>   0.0800 
 29 H      -10.0360    -0.3780     1.7070 H     1 <1>   0.0800 
 30 H      -11.5360    -0.4770     0.8090 H     1 <1>   0.0800 
 31 H      -10.0420     3.1860     1.4750 H     1 <1>   0.0800 
 32 H       -9.1390     1.8280     2.1110 H     1 <1>   0.0800 
@<TRIPOS>BOND
  1   1   2  1   
  2   2   3  ar  
  3   2   4  ar  
  4   3   5  ar  
  5   3  18  1   
  6   4   6  ar  
  7   4  19  1   
  8   5   7  1   
  9   5   8  ar  
 10   6   8  ar  
 11   6  20  1   
 12   7   9  am  
 13   7  21  1   
 14   8  22  1   
 15   9  10  2   
 16   9  11  1   
 17  11  12  1   
 18  11  23  1   
 19  11  24  1   
 20  12  13  1   
 21  12  14  1   
 22  13  15  1   
 23  13  25  1   
 24  13  26  1   
 25  14  16  1   
 26  14  27  1   
 27  14  28  1   
 28  15  17  1   
 29  15  29  1   
 30  15  30  1   
 31  16  17  1   
 32  16  31  1   
 33  16  32  1   
@<TRIPOS>SUBSTRUCTURE
  1 ****   7 GROUP 4 **** **** 0

# MOE 2024.06 (io_trps.svl 2023.06)
