@<TRIPOS>MOLECULE
NONAME
26 26 1 0 0 
SMALL
USER_CHARGES


@<TRIPOS>ATOM
  1 CL       0.5350    -0.3330    -2.1950 Cl    1 <1>  -0.1770 
  2 C        1.7870    -0.9700    -1.1610 C.ar  1 <1>   0.1770 
  3 C        3.0430    -0.3990    -1.1870 C.ar  1 <1>  -0.1500 
  4 C        1.4980    -2.0360    -0.3320 C.ar  1 <1>  -0.1500 
  5 C        4.0630    -0.8840    -0.3680 C.ar  1 <1>   0.0860 
  6 C        2.4960    -2.5390     0.4840 C.ar  1 <1>  -0.1500 
  7 C        5.3820    -0.2750    -0.3890 C.2   1 <1>   0.5440 
  8 C        3.7580    -1.9700     0.4610 C.ar  1 <1>  -0.1500 
  9 O        5.7900     0.2820    -1.3890 O.2   1 <1>  -0.5700 
 10 N        6.1890    -0.3060     0.7140 N.am  1 <1>  -0.7300 
 11 C        7.5160     0.3530     0.8110 C.3   1 <1>   0.1400 
 12 C        8.5600    -0.4310     0.0160 C.3   1 <1>   0.0700 
 13 S       10.1910     0.2800     0.3700 S.3   1 <1>  -0.4600 
 14 C       11.2750    -0.5810    -0.8000 C.3   1 <1>  -0.0100 
 15 H        3.2360     0.4280    -1.8470 H     1 <1>   0.1500 
 16 H        0.5100    -2.4630    -0.3310 H     1 <1>   0.1500 
 17 H        2.2890    -3.3740     1.1320 H     1 <1>   0.1500 
 18 H        4.5240    -2.3840     1.0920 H     1 <1>   0.1500 
 19 H        5.8130    -0.6640     1.5930 H     1 <1>   0.3700 
 20 H        7.8120     0.4050     1.8450 H     1 <1>   0.0800 
 21 H        7.4490     1.3540     0.4210 H     1 <1>   0.0800 
 22 H        8.3870    -0.3410    -1.0420 H     1 <1>   0.0800 
 23 H        8.5910    -1.4630     0.3130 H     1 <1>   0.0800 
 24 H       12.2740    -0.2120    -0.6520 H     1 <1>   0.0800 
 25 H       10.9300    -0.3620    -1.7940 H     1 <1>   0.0800 
 26 H       11.2200    -1.6340    -0.5920 H     1 <1>   0.0800 
@<TRIPOS>BOND
  1   1   2  1   
  2   2   3  ar  
  3   2   4  ar  
  4   3   5  ar  
  5   3  15  1   
  6   4   6  ar  
  7   4  16  1   
  8   5   7  1   
  9   5   8  ar  
 10   6   8  ar  
 11   6  17  1   
 12   7   9  2   
 13   7  10  am  
 14   8  18  1   
 15  10  11  1   
 16  10  19  1   
 17  11  12  1   
 18  11  20  1   
 19  11  21  1   
 20  12  13  1   
 21  12  22  1   
 22  12  23  1   
 23  13  14  1   
 24  14  24  1   
 25  14  25  1   
 26  14  26  1   
@<TRIPOS>SUBSTRUCTURE
  1 ****   7 GROUP 4 **** **** 0

# MOE 2024.06 (io_trps.svl 2023.06)
