@<TRIPOS>MOLECULE
NONAME
43 46 1 0 0 
SMALL
USER_CHARGES


@<TRIPOS>ATOM
  1 O        1.2090    -0.9720     2.4680 O.2   1 <1>  -0.5700 
  2 C        1.0050    -2.0420     1.9090 C.2   1 <1>   0.6160 
  3 N        1.8540    -2.4740     0.8970 N.am  1 <1>  -0.4690 
  4 C       -0.0880    -2.8680     2.2790 C.2   1 <1>  -0.1360 
  5 C        1.6570    -3.7220     0.3020 C.2   1 <1>  -0.0290 
  6 C        2.8320    -1.4790     0.3520 C.3   1 <1>   0.1400 
  7 C       -0.2990    -4.0670     1.6790 C.2   1 <1>  -0.1500 
  8 C        0.6000    -4.4970     0.6740 C.2   1 <1>  -0.1500 
  9 C        2.6450    -4.2250    -0.7550 C.3   1 <1>   0.0580 
 10 C        3.9640    -2.1770    -0.4080 C.3   1 <1>  -0.0800 
 11 C        3.7010    -5.1160    -0.0640 C.3   1 <1>   0.3430 
 12 C        3.3110    -3.0570    -1.4870 C.3   1 <1>  -0.1600 
 13 C        4.7970    -2.9570     0.6350 C.3   1 <1>   0.3430 
 14 N        4.9850    -4.4120     0.3050 N.4   1 <1>  -0.9590 
 15 C        6.0640    -4.6290    -0.7020 C.3   1 <1>   0.4860 
 16 C        7.3780    -4.1470    -0.1200 C.ar  1 <1>  -0.1440 
 17 C        7.9260    -2.9460    -0.5520 C.ar  1 <1>  -0.1500 
 18 C        8.0390    -4.8950     0.8470 C.ar  1 <1>  -0.1500 
 19 C        9.1150    -2.4900    -0.0110 C.ar  1 <1>  -0.1500 
 20 C        9.2290    -4.4410     1.3870 C.ar  1 <1>  -0.1500 
 21 C        9.7600    -3.2360     0.9580 C.ar  1 <1>   0.0820 
 22 O       10.9100    -2.7770     1.4710 O.3   1 <1>  -0.5330 
 23 H       -0.7320    -2.4890     3.0500 H     1 <1>   0.1500 
 24 H        3.2430    -0.8890     1.1550 H     1 <1>   0.0800 
 25 H        2.3030    -0.8100    -0.3050 H     1 <1>   0.0800 
 26 H       -1.1290    -4.7000     1.9460 H     1 <1>   0.1500 
 27 H        0.4090    -5.4580     0.2270 H     1 <1>   0.1500 
 28 H        2.1030    -4.8290    -1.4630 H     1 <1>   0.0800 
 29 H        4.5800    -1.4230    -0.8660 H     1 <1>   0.0800 
 30 H        3.9290    -5.9470    -0.7110 H     1 <1>   0.0800 
 31 H        3.2520    -5.5230     0.8280 H     1 <1>   0.0800 
 32 H        2.5680    -2.4940    -2.0290 H     1 <1>   0.0800 
 33 H        4.0300    -3.4090    -2.2030 H     1 <1>   0.0800 
 34 H        4.2850    -2.8950     1.5830 H     1 <1>   0.0800 
 35 H        5.7530    -2.4760     0.7670 H     1 <1>   0.0800 
 36 H        5.3440    -4.8460     1.1660 H     1 <1>   0.4500 
 37 H        5.8500    -4.0910    -1.6100 H     1 <1>   0.0800 
 38 H        6.1470    -5.6770    -0.9380 H     1 <1>   0.0800 
 39 H        7.4440    -2.3520    -1.3100 H     1 <1>   0.1500 
 40 H        7.6440    -5.8380     1.1870 H     1 <1>   0.1500 
 41 H        9.5520    -1.5610    -0.3340 H     1 <1>   0.1500 
 42 H        9.7390    -5.0220     2.1350 H     1 <1>   0.1500 
 43 H       11.3220    -3.3780     2.1180 H     1 <1>   0.4500 
@<TRIPOS>BOND
  1   1   2  2   
  2   2   3  am  
  3   2   4  1   
  4   3   5  1   
  5   3   6  1   
  6   4   7  2   
  7   4  23  1   
  8   5   8  2   
  9   5   9  1   
 10   6  10  1   
 11   6  24  1   
 12   6  25  1   
 13   7   8  1   
 14   7  26  1   
 15   8  27  1   
 16   9  11  1   
 17   9  12  1   
 18   9  28  1   
 19  10  12  1   
 20  10  13  1   
 21  10  29  1   
 22  11  14  1   
 23  11  30  1   
 24  11  31  1   
 25  12  32  1   
 26  12  33  1   
 27  13  14  1   
 28  13  34  1   
 29  13  35  1   
 30  14  15  1   
 31  14  36  1   
 32  15  16  1   
 33  15  37  1   
 34  15  38  1   
 35  16  17  ar  
 36  16  18  ar  
 37  17  19  ar  
 38  17  39  1   
 39  18  20  ar  
 40  18  40  1   
 41  19  21  ar  
 42  19  41  1   
 43  20  21  ar  
 44  20  42  1   
 45  21  22  1   
 46  22  43  1   
@<TRIPOS>SUBSTRUCTURE
  1 ****  13 GROUP 4 **** **** 0

# MOE 2024.06 (io_trps.svl 2023.06)
