@<TRIPOS>MOLECULE
NONAME
47 51 1 0 0 
SMALL
USER_CHARGES


@<TRIPOS>ATOM
  1 S       -0.2830    -0.6490    -1.1370 S.3   1 <1>  -0.0800 
  2 C        1.0280    -1.3630    -0.2610 C.2   1 <1>   0.4420 
  3 C       -1.3480    -1.2610     0.0900 C.2   1 <1>   0.1980 
  4 N        0.6350    -1.9530     0.8080 N.2   1 <1>  -0.3380 
  5 N        2.2900    -1.2000    -0.7820 N.am  1 <1>  -0.4940 
  6 N       -0.7170    -1.8940     0.9980 N.2   1 <1>  -0.3380 
  7 C       -2.8530    -0.9940    -0.0410 C.3   1 <1>   0.1800 
  8 C        3.4720    -1.7360    -0.3830 C.2   1 <1>   0.6900 
  9 C       -3.6210    -1.6220     1.1490 C.3   1 <1>  -0.1600 
 10 C       -3.4050    -1.6100    -1.3490 C.3   1 <1>  -0.1600 
 11 C       -3.1390     0.5270    -0.0480 C.3   1 <1>  -0.1600 
 12 O        4.4710    -1.0730    -0.5430 O.2   1 <1>  -0.5700 
 13 N        3.6020    -2.9770     0.1590 N.am  1 <1>  -0.5470 
 14 C       -5.1340    -1.3620     1.0310 C.3   1 <1>  -0.0800 
 15 C       -4.9170    -1.3460    -1.4820 C.3   1 <1>  -0.0800 
 16 C       -4.6500     0.7990    -0.1770 C.3   1 <1>  -0.0800 
 17 C        2.7930    -4.1140     0.0510 C.ar  1 <1>   0.1170 
 18 C       -5.6490    -1.9760    -0.2830 C.3   1 <1>  -0.1600 
 19 C       -5.3840     0.1570     1.0150 C.3   1 <1>  -0.1600 
 20 C       -5.1670     0.1740    -1.4860 C.3   1 <1>  -0.1600 
 21 C        2.6750    -4.9760     1.1340 C.ar  1 <1>  -0.1500 
 22 C        2.1130    -4.4200    -1.1230 C.ar  1 <1>  -0.1500 
 23 C        1.8930    -6.1140     1.0500 C.ar  1 <1>  -0.1500 
 24 C        1.3280    -5.5550    -1.2110 C.ar  1 <1>  -0.1500 
 25 C        1.2170    -6.4050    -0.1230 C.ar  1 <1>  -0.1500 
 26 H        2.4210    -0.4100    -1.4050 H     1 <1>   0.3700 
 27 H       -3.2570    -1.2090     2.0740 H     1 <1>   0.0800 
 28 H       -3.4400    -2.6830     1.1770 H     1 <1>   0.0800 
 29 H       -3.2210    -2.6700    -1.3520 H     1 <1>   0.0800 
 30 H       -2.9010    -1.1890    -2.2000 H     1 <1>   0.0800 
 31 H       -2.6280     0.9970    -0.8690 H     1 <1>   0.0800 
 32 H       -2.7680     0.9670     0.8610 H     1 <1>   0.0800 
 33 H        4.5070    -3.1090     0.6050 H     1 <1>   0.3700 
 34 H       -5.6470    -1.8070     1.8670 H     1 <1>   0.0800 
 35 H       -5.2840    -1.7780    -2.3990 H     1 <1>   0.0800 
 36 H       -4.8310     1.8610    -0.1850 H     1 <1>   0.0800 
 37 H       -6.7080    -1.8070    -0.3730 H     1 <1>   0.0800 
 38 H       -5.4900    -3.0410    -0.2760 H     1 <1>   0.0800 
 39 H       -5.0380     0.5940     1.9360 H     1 <1>   0.0800 
 40 H       -6.4400     0.3510     0.9400 H     1 <1>   0.0800 
 41 H       -6.2200     0.3680    -1.5900 H     1 <1>   0.0800 
 42 H       -4.6700     0.6240    -2.3280 H     1 <1>   0.0800 
 43 H        3.1900    -4.7500     2.0490 H     1 <1>   0.1500 
 44 H        2.2000    -3.7690    -1.9730 H     1 <1>   0.1500 
 45 H        1.8050    -6.7710     1.8970 H     1 <1>   0.1500 
 46 H        0.8040    -5.7800    -2.1230 H     1 <1>   0.1500 
 47 H        0.6060    -7.2880    -0.1880 H     1 <1>   0.1500 
@<TRIPOS>BOND
  1   1   2  1   
  2   1   3  1   
  3   2   4  2   
  4   2   5  1   
  5   3   6  2   
  6   3   7  1   
  7   4   6  1   
  8   5   8  am  
  9   5  26  1   
 10   7   9  1   
 11   7  10  1   
 12   7  11  1   
 13   8  12  2   
 14   8  13  am  
 15   9  14  1   
 16   9  27  1   
 17   9  28  1   
 18  10  15  1   
 19  10  29  1   
 20  10  30  1   
 21  11  16  1   
 22  11  31  1   
 23  11  32  1   
 24  13  17  1   
 25  13  33  1   
 26  14  18  1   
 27  14  19  1   
 28  14  34  1   
 29  15  18  1   
 30  15  20  1   
 31  15  35  1   
 32  16  19  1   
 33  16  20  1   
 34  16  36  1   
 35  17  21  ar  
 36  17  22  ar  
 37  18  37  1   
 38  18  38  1   
 39  19  39  1   
 40  19  40  1   
 41  20  41  1   
 42  20  42  1   
 43  21  23  ar  
 44  21  43  1   
 45  22  24  ar  
 46  22  44  1   
 47  23  25  ar  
 48  23  45  1   
 49  24  25  ar  
 50  24  46  1   
 51  25  47  1   
@<TRIPOS>SUBSTRUCTURE
  1 ****   3 GROUP 4 **** **** 0

# MOE 2024.06 (io_trps.svl 2023.06)
