@<TRIPOS>MOLECULE
NONAME
24 23 1 0 0 
SMALL
USER_CHARGES


@<TRIPOS>ATOM
  1 F        1.3850    -0.0500     1.5980 F     1 <1>  -0.3400 
  2 C        1.4820     0.2820     0.3110 C.3   1 <1>   1.0200 
  3 F        0.6740    -0.5670    -0.3260 F     1 <1>  -0.3400 
  4 F        0.8950     1.4730     0.1940 F     1 <1>  -0.3400 
  5 C        2.9290     0.2610    -0.2490 C.3   1 <1>   0.7410 
  6 F        3.5140    -0.9320    -0.0570 F     1 <1>  -0.3400 
  7 F        2.9220     0.3840    -1.5900 F     1 <1>  -0.3400 
  8 C        3.8070     1.3750     0.3560 C.2   1 <1>   0.5690 
  9 O        3.6660     1.6860     1.5170 O.2   1 <1>  -0.5700 
 10 N        4.7530     2.0120    -0.4100 N.am  1 <1>  -0.7300 
 11 C        5.6770     3.0670     0.0610 C.3   1 <1>   0.1400 
 12 C        7.1130     2.6400    -0.2400 C.3   1 <1>  -0.1600 
 13 C        8.1160     3.7000     0.2320 C.3   1 <1>  -0.1600 
 14 C        9.5540     3.2690    -0.0690 C.3   1 <1>  -0.2400 
 15 H        4.8680     1.7420    -1.3920 H     1 <1>   0.3700 
 16 H        5.5550     3.2220     1.1210 H     1 <1>   0.0800 
 17 H        5.4500     3.9910    -0.4440 H     1 <1>   0.0800 
 18 H        7.2280     2.4900    -1.2990 H     1 <1>   0.0800 
 19 H        7.3160     1.7110     0.2660 H     1 <1>   0.0800 
 20 H        8.0090     3.8530     1.2930 H     1 <1>   0.0800 
 21 H        7.9160     4.6360    -0.2620 H     1 <1>   0.0800 
 22 H        9.7840     2.3460     0.4330 H     1 <1>   0.0800 
 23 H       10.2420     4.0230     0.2710 H     1 <1>   0.0800 
 24 H        9.6940     3.1320    -1.1270 H     1 <1>   0.0800 
@<TRIPOS>BOND
  1   1   2  1   
  2   2   3  1   
  3   2   4  1   
  4   2   5  1   
  5   5   6  1   
  6   5   7  1   
  7   5   8  1   
  8   8   9  2   
  9   8  10  am  
 10  10  11  1   
 11  10  15  1   
 12  11  12  1   
 13  11  16  1   
 14  11  17  1   
 15  12  13  1   
 16  12  18  1   
 17  12  19  1   
 18  13  14  1   
 19  13  20  1   
 20  13  21  1   
 21  14  22  1   
 22  14  23  1   
 23  14  24  1   
@<TRIPOS>SUBSTRUCTURE
  1 ****   8 GROUP 4 **** **** 0

# MOE 2024.06 (io_trps.svl 2023.06)
