@<TRIPOS>MOLECULE
NONAME
48 50 1 0 0 
SMALL
USER_CHARGES


@<TRIPOS>ATOM
  1 CL      -4.7770     0.7520    -2.6990 Cl    1 <1>  -0.1770 
  2 C       -3.4490     1.4610    -1.8030 C.ar  1 <1>   0.1770 
  3 C       -3.2250     1.0960    -0.4800 C.ar  1 <1>   0.0820 
  4 C       -2.6500     2.3940    -2.4370 C.ar  1 <1>  -0.1500 
  5 O       -4.0420     0.1760     0.0910 O.3   1 <1>  -0.3630 
  6 C       -2.1700     1.6870     0.2090 C.ar  1 <1>  -0.1500 
  7 C       -1.6050     2.9780    -1.7410 C.ar  1 <1>  -0.1500 
  8 C       -4.3720     0.2790     1.4690 C.3   1 <1>   0.1810 
  9 C       -1.3680     2.6240    -0.4220 C.ar  1 <1>  -0.1500 
 10 C       -5.5200    -0.6570     1.8450 C.2   1 <1>   0.5690 
 11 O       -5.3250    -1.4040     2.7770 O.2   1 <1>  -0.5700 
 12 N       -6.7270    -0.6390     1.1850 N.am  1 <1>  -0.6600 
 13 C       -7.0850     0.2710     0.0490 C.3   1 <1>   0.1400 
 14 C       -7.8060    -1.6260     1.5050 C.3   1 <1>   0.1400 
 15 C       -8.4510     0.9560     0.2530 C.3   1 <1>   0.2090 
 16 C       -9.1530    -0.9330     1.7680 C.3   1 <1>   0.2090 
 17 N       -9.5260     0.0080     0.6720 N.pl3 1 <1>  -0.8380 
 18 C      -10.4450    -0.4300    -0.2830 C.ar  1 <1>   0.1000 
 19 C      -11.7950    -0.0680    -0.2110 C.ar  1 <1>  -0.1430 
 20 C      -10.0170    -1.2490    -1.3210 C.ar  1 <1>  -0.1500 
 21 C      -12.6910    -0.5370    -1.1690 C.ar  1 <1>  -0.1430 
 22 C      -12.2390     0.8390     0.9370 C.3   1 <1>  -0.0970 
 23 C      -10.9030    -1.7070    -2.2740 C.ar  1 <1>  -0.1500 
 24 C      -12.2360    -1.3510    -2.1960 C.ar  1 <1>  -0.1500 
 25 C      -14.1740    -0.1920    -1.1380 C.3   1 <1>  -0.0970 
 26 H       -2.8460     2.6570    -3.4610 H     1 <1>   0.1500 
 27 H       -1.9560     1.4200     1.2280 H     1 <1>   0.1500 
 28 H       -0.9750     3.7060    -2.2250 H     1 <1>   0.1500 
 29 H       -4.6540     1.2930     1.6800 H     1 <1>   0.0800 
 30 H       -3.5040     0.0150     2.0430 H     1 <1>   0.0800 
 31 H       -0.5510     3.0790     0.1130 H     1 <1>   0.1500 
 32 H       -7.1110    -0.3020    -0.8600 H     1 <1>   0.0800 
 33 H       -6.3450     1.0390    -0.0790 H     1 <1>   0.0800 
 34 H       -7.5430    -2.2110     2.3680 H     1 <1>   0.0800 
 35 H       -7.9180    -2.3020     0.6760 H     1 <1>   0.0800 
 36 H       -8.7430     1.4430    -0.6610 H     1 <1>   0.0800 
 37 H       -8.3520     1.7150     1.0080 H     1 <1>   0.0800 
 38 H       -9.0930    -0.3860     2.6930 H     1 <1>   0.0800 
 39 H       -9.9220    -1.6780     1.8750 H     1 <1>   0.0800 
 40 H       -8.9840    -1.5300    -1.3770 H     1 <1>   0.1500 
 41 H      -12.2270     0.2820     1.8560 H     1 <1>   0.0800 
 42 H      -13.2200     1.2460     0.7940 H     1 <1>   0.0800 
 43 H      -11.5580     1.6650     1.0320 H     1 <1>   0.0800 
 44 H      -10.5590    -2.3390    -3.0730 H     1 <1>   0.1500 
 45 H      -12.9170    -1.7160    -2.9440 H     1 <1>   0.1500 
 46 H      -14.3080     0.8620    -1.3010 H     1 <1>   0.0800 
 47 H      -14.5950    -0.4610    -0.1860 H     1 <1>   0.0800 
 48 H      -14.7120    -0.7230    -1.9020 H     1 <1>   0.0800 
@<TRIPOS>BOND
  1   1   2  1   
  2   2   3  ar  
  3   2   4  ar  
  4   3   5  1   
  5   3   6  ar  
  6   4   7  ar  
  7   4  26  1   
  8   5   8  1   
  9   6   9  ar  
 10   6  27  1   
 11   7   9  ar  
 12   7  28  1   
 13   8  10  1   
 14   8  29  1   
 15   8  30  1   
 16   9  31  1   
 17  10  11  2   
 18  10  12  am  
 19  12  13  1   
 20  12  14  1   
 21  13  15  1   
 22  13  32  1   
 23  13  33  1   
 24  14  16  1   
 25  14  34  1   
 26  14  35  1   
 27  15  17  1   
 28  15  36  1   
 29  15  37  1   
 30  16  17  1   
 31  16  38  1   
 32  16  39  1   
 33  17  18  1   
 34  18  19  ar  
 35  18  20  ar  
 36  19  21  ar  
 37  19  22  1   
 38  20  23  ar  
 39  20  40  1   
 40  21  24  ar  
 41  21  25  1   
 42  22  41  1   
 43  22  42  1   
 44  22  43  1   
 45  23  24  ar  
 46  23  44  1   
 47  24  45  1   
 48  25  46  1   
 49  25  47  1   
 50  25  48  1   
@<TRIPOS>SUBSTRUCTURE
  1 ****  13 GROUP 4 **** **** 0

# MOE 2024.06 (io_trps.svl 2023.06)
