@<TRIPOS>MOLECULE
NONAME
42 43 1 0 0 
SMALL
USER_CHARGES


@<TRIPOS>ATOM
  1 O        0.1350     0.3830     0.2640 O.2   1 <1>  -0.5700 
  2 C        0.6380    -0.6870     0.5420 C.2   1 <1>   0.6900 
  3 N       -0.0900    -1.8300     0.6860 N.am  1 <1>  -0.5470 
  4 N        1.9770    -0.7730     0.7080 N.am  1 <1>  -0.7300 
  5 C       -1.4740    -2.0550     0.6580 C.ar  1 <1>   0.1170 
  6 C        2.8950     0.3620     0.5280 C.3   1 <1>   0.2840 
  7 C       -1.9380    -3.3330     0.3710 C.ar  1 <1>  -0.1500 
  8 C       -2.4110    -1.0630     0.9230 C.ar  1 <1>  -0.1500 
  9 C        4.2850    -0.1920     0.2880 C.ar  1 <1>  -0.1430 
 10 C       -3.2920    -3.6120     0.3440 C.ar  1 <1>  -0.1500 
 11 C       -3.7660    -1.3390     0.8950 C.ar  1 <1>  -0.1500 
 12 C        4.6270    -0.6870    -0.9620 C.ar  1 <1>   0.1600 
 13 C        5.2270    -0.2220     1.2970 C.ar  1 <1>  -0.1500 
 14 C       -4.2230    -2.6170     0.6050 C.ar  1 <1>  -0.1430 
 15 N        5.8060    -1.1990    -1.2770 N.ar  1 <1>  -0.6200 
 16 C        6.4620    -0.7490     0.9840 C.ar  1 <1>  -0.1500 
 17 C       -5.7170    -2.9360     0.5680 C.3   1 <1>   0.0630 
 18 C        6.6950    -1.2160    -0.2980 C.ar  1 <1>   0.1600 
 19 C       -6.4000    -2.1400    -0.5590 C.3   1 <1>  -0.1600 
 20 C       -6.3490    -2.6760     1.9420 C.3   1 <1>  -0.2400 
 21 C       -7.8610    -2.5440    -0.8000 C.3   1 <1>  -0.2400 
 22 H        0.4750    -2.6700     0.7340 H     1 <1>   0.3700 
 23 H        2.4120    -1.6330     1.0320 H     1 <1>   0.3700 
 24 H        2.8790     0.9780     1.4100 H     1 <1>   0.0800 
 25 H        2.5790     0.9600    -0.3110 H     1 <1>   0.0800 
 26 H       -1.2370    -4.1190     0.1630 H     1 <1>   0.1500 
 27 H       -2.0860    -0.0650     1.1550 H     1 <1>   0.1500 
 28 H       -3.6200    -4.6110     0.1160 H     1 <1>   0.1500 
 29 H       -4.4640    -0.5480     1.1020 H     1 <1>   0.1500 
 30 H        3.8870    -0.6640    -1.7460 H     1 <1>   0.1500 
 31 H        5.0140     0.1480     2.2860 H     1 <1>   0.1500 
 32 H        7.2390    -0.7990     1.7250 H     1 <1>   0.1500 
 33 H       -5.8330    -3.9840     0.3490 H     1 <1>   0.0800 
 34 H        7.6640    -1.6250    -0.5300 H     1 <1>   0.1500 
 35 H       -5.8470    -2.3010    -1.4700 H     1 <1>   0.0800 
 36 H       -6.3560    -1.0870    -0.3400 H     1 <1>   0.0800 
 37 H       -6.3570    -1.6240     2.1650 H     1 <1>   0.0800 
 38 H       -5.7830    -3.1820     2.7030 H     1 <1>   0.0800 
 39 H       -7.3580    -3.0440     1.9730 H     1 <1>   0.0800 
 40 H       -7.9330    -3.6000    -0.9950 H     1 <1>   0.0800 
 41 H       -8.2490    -2.0140    -1.6510 H     1 <1>   0.0800 
 42 H       -8.4720    -2.3040     0.0520 H     1 <1>   0.0800 
@<TRIPOS>BOND
  1   1   2  2   
  2   2   3  am  
  3   2   4  am  
  4   3   5  1   
  5   3  22  1   
  6   4   6  1   
  7   4  23  1   
  8   5   7  ar  
  9   5   8  ar  
 10   6   9  1   
 11   6  24  1   
 12   6  25  1   
 13   7  10  ar  
 14   7  26  1   
 15   8  11  ar  
 16   8  27  1   
 17   9  12  ar  
 18   9  13  ar  
 19  10  14  ar  
 20  10  28  1   
 21  11  14  ar  
 22  11  29  1   
 23  12  15  ar  
 24  12  30  1   
 25  13  16  ar  
 26  13  31  1   
 27  14  17  1   
 28  15  18  ar  
 29  16  18  ar  
 30  16  32  1   
 31  17  19  1   
 32  17  20  1   
 33  17  33  1   
 34  18  34  1   
 35  19  21  1   
 36  19  35  1   
 37  19  36  1   
 38  20  37  1   
 39  20  38  1   
 40  20  39  1   
 41  21  40  1   
 42  21  41  1   
 43  21  42  1   
@<TRIPOS>SUBSTRUCTURE
  1 ****   3 GROUP 4 **** **** 0

# MOE 2024.06 (io_trps.svl 2023.06)
