@<TRIPOS>MOLECULE
NONAME
54 57 1 0 0 
SMALL
USER_CHARGES


@<TRIPOS>ATOM
  1 O       -0.1680    -0.4180     0.8750 O.2   1 <1>  -0.5700 
  2 C       -0.1140    -1.6120     0.6930 C.2   1 <1>   0.5690 
  3 N        1.0650    -2.2990     0.8010 N.am  1 <1>  -0.6600 
  4 C       -1.3990    -2.3490     0.3440 C.3   1 <1>  -0.0990 
  5 C        2.3440    -1.5650     1.0300 C.3   1 <1>   0.2840 
  6 C        1.2180    -3.7780     0.7180 C.3   1 <1>   0.1400 
  7 C       -2.6040    -1.4180     0.0960 C.3   1 <1>  -0.0990 
  8 C        3.5280    -2.1830     0.2830 C.ar  1 <1>  -0.1440 
  9 C        2.1000    -4.1250    -0.4810 C.3   1 <1>  -0.0160 
 10 C       -3.8900    -2.1530    -0.2540 C.2   1 <1>   0.5690 
 11 C        3.4240    -3.3800    -0.4190 C.ar  1 <1>  -0.1440 
 12 C        4.7480    -1.5220     0.3180 C.ar  1 <1>  -0.1500 
 13 O       -3.8360    -3.3410    -0.4770 O.2   1 <1>  -0.5700 
 14 N       -5.0740    -1.4680    -0.3100 N.am  1 <1>  -0.6600 
 15 C        4.5310    -3.8960    -1.0740 C.ar  1 <1>  -0.1500 
 16 C        5.8510    -2.0410    -0.3360 C.ar  1 <1>  -0.1500 
 17 C       -6.3560    -2.2020    -0.5760 C.3   1 <1>   0.1400 
 18 C       -5.2120     0.0100    -0.0870 C.3   1 <1>   0.1400 
 19 C        5.7420    -3.2300    -1.0330 C.ar  1 <1>  -0.1500 
 20 C       -7.5820    -1.4700    -0.0040 C.3   1 <1>   0.2090 
 21 C       -6.4060     0.6120    -0.8510 C.3   1 <1>   0.2090 
 22 N       -7.6980    -0.0690    -0.5260 N.pl3 1 <1>  -0.8380 
 23 C       -8.7560     0.7140    -0.0960 C.ar  1 <1>   0.4100 
 24 N       -9.2590     0.4550     1.1050 N.ar  1 <1>  -0.6200 
 25 C       -9.2400     1.7290    -0.9190 C.ar  1 <1>  -0.1500 
 26 C      -10.2590     1.2270     1.4950 C.ar  1 <1>   0.1600 
 27 C      -10.2800     2.5260    -0.5020 C.ar  1 <1>  -0.1500 
 28 C      -10.7990     2.2590     0.7490 C.ar  1 <1>  -0.1500 
 29 H       -1.6390    -3.0180     1.1490 H     1 <1>   0.0800 
 30 H       -1.2260    -2.9300    -0.5430 H     1 <1>   0.0800 
 31 H        2.5550    -1.5650     2.0840 H     1 <1>   0.0800 
 32 H        2.2390    -0.5410     0.7130 H     1 <1>   0.0800 
 33 H        0.2690    -4.2720     0.6260 H     1 <1>   0.0800 
 34 H        1.6900    -4.1290     1.6200 H     1 <1>   0.0800 
 35 H       -2.3650    -0.7500    -0.7110 H     1 <1>   0.0800 
 36 H       -2.7740    -0.8340     0.9820 H     1 <1>   0.0800 
 37 H        1.5860    -3.8630    -1.3890 H     1 <1>   0.0800 
 38 H        2.2760    -5.1850    -0.4890 H     1 <1>   0.0800 
 39 H        4.8440    -0.5950     0.8560 H     1 <1>   0.1500 
 40 H        4.4540    -4.8190    -1.6220 H     1 <1>   0.1500 
 41 H        6.7910    -1.5210    -0.3030 H     1 <1>   0.1500 
 42 H       -6.3060    -3.1850    -0.1430 H     1 <1>   0.0800 
 43 H       -6.4810    -2.3150    -1.6380 H     1 <1>   0.0800 
 44 H       -4.3180     0.5180    -0.4020 H     1 <1>   0.0800 
 45 H       -5.3490     0.1940     0.9640 H     1 <1>   0.0800 
 46 H        6.5980    -3.6360    -1.5440 H     1 <1>   0.1500 
 47 H       -7.5030    -1.4500     1.0700 H     1 <1>   0.0800 
 48 H       -8.4760    -2.0120    -0.2580 H     1 <1>   0.0800 
 49 H       -6.2240     0.5270    -1.9080 H     1 <1>   0.0800 
 50 H       -6.4780     1.6590    -0.6090 H     1 <1>   0.0800 
 51 H       -8.7940     1.8710    -1.8840 H     1 <1>   0.1500 
 52 H      -10.6730     1.0250     2.4680 H     1 <1>   0.1500 
 53 H      -10.6730     3.3160    -1.1180 H     1 <1>   0.1500 
 54 H      -11.6130     2.8420     1.1390 H     1 <1>   0.1500 
@<TRIPOS>BOND
  1   1   2  2   
  2   2   3  am  
  3   2   4  1   
  4   3   5  1   
  5   3   6  1   
  6   4   7  1   
  7   4  29  1   
  8   4  30  1   
  9   5   8  1   
 10   5  31  1   
 11   5  32  1   
 12   6   9  1   
 13   6  33  1   
 14   6  34  1   
 15   7  10  1   
 16   7  35  1   
 17   7  36  1   
 18   8  11  ar  
 19   8  12  ar  
 20   9  11  1   
 21   9  37  1   
 22   9  38  1   
 23  10  13  2   
 24  10  14  am  
 25  11  15  ar  
 26  12  16  ar  
 27  12  39  1   
 28  14  17  1   
 29  14  18  1   
 30  15  19  ar  
 31  15  40  1   
 32  16  19  ar  
 33  16  41  1   
 34  17  20  1   
 35  17  42  1   
 36  17  43  1   
 37  18  21  1   
 38  18  44  1   
 39  18  45  1   
 40  19  46  1   
 41  20  22  1   
 42  20  47  1   
 43  20  48  1   
 44  21  22  1   
 45  21  49  1   
 46  21  50  1   
 47  22  23  1   
 48  23  24  ar  
 49  23  25  ar  
 50  24  26  ar  
 51  25  27  ar  
 52  25  51  1   
 53  26  28  ar  
 54  26  52  1   
 55  27  28  ar  
 56  27  53  1   
 57  28  54  1   
@<TRIPOS>SUBSTRUCTURE
  1 ****   7 GROUP 4 **** **** 0

# MOE 2024.06 (io_trps.svl 2023.06)
