@<TRIPOS>MOLECULE
NONAME
34 36 1 0 0 
SMALL
USER_CHARGES


@<TRIPOS>ATOM
  1 S       -0.6220     0.1250     1.8020 S.o2  1 <1>   1.5010 
  2 O       -0.5440     0.6850     3.1320 O.2   1 <1>  -0.6500 
  3 O       -0.8500    -1.2890     1.6110 O.2   1 <1>  -0.6500 
  4 N       -1.8870     0.9920     0.9950 N.am  1 <1>  -0.6930 
  5 C        0.8150     0.6580     0.8660 C.2   1 <1>  -0.0630 
  6 C       -2.2830     0.7790    -0.3140 C.ar  1 <1>   0.1990 
  7 C       -2.0760     2.4180     1.3490 C.3   1 <1>   0.1960 
  8 C        1.9180     1.2870     1.4270 C.2   1 <1>   0.1390 
  9 C        1.1200     0.5950    -0.4540 C.2   1 <1>  -0.3020 
 10 C       -2.7270     1.9450    -0.9000 C.ar  1 <1>  -0.1440 
 11 C       -2.2750    -0.3980    -1.0510 C.ar  1 <1>  -0.1500 
 12 C       -2.6630     3.0810     0.0920 C.3   1 <1>  -0.0160 
 13 N        2.8220     1.5970     0.5490 N.2   1 <1>  -0.7070 
 14 N        2.3260     1.1650    -0.6220 N.pl3 1 <1>   0.3140 
 15 C       -3.1500     1.9770    -2.2140 C.ar  1 <1>  -0.1500 
 16 C       -2.6960    -0.3800    -2.3700 C.ar  1 <1>  -0.1500 
 17 C        3.0570     1.3290    -1.8960 C.3   1 <1>   0.0960 
 18 C       -3.1300     0.8030    -2.9520 C.ar  1 <1>  -0.1500 
 19 C        2.4180     2.4210    -2.7640 C.3   1 <1>  -0.2400 
 20 H       -1.1320     2.8680     1.6060 H     1 <1>   0.0800 
 21 H       -2.7520     2.4970     2.1830 H     1 <1>   0.0800 
 22 H        2.0170     1.5010     2.4800 H     1 <1>   0.1500 
 23 H        0.5450     0.1850    -1.2650 H     1 <1>   0.1500 
 24 H       -1.9510    -1.3190    -0.6010 H     1 <1>   0.1500 
 25 H       -2.0220     3.8680    -0.2610 H     1 <1>   0.0800 
 26 H       -3.6450     3.4710     0.2910 H     1 <1>   0.0800 
 27 H       -3.4920     2.8950    -2.6600 H     1 <1>   0.1500 
 28 H       -2.6910    -1.2900    -2.9460 H     1 <1>   0.1500 
 29 H        3.0520     0.3890    -2.4140 H     1 <1>   0.0800 
 30 H        4.0750     1.5900    -1.6670 H     1 <1>   0.0800 
 31 H       -3.4580     0.8080    -3.9770 H     1 <1>   0.1500 
 32 H        1.4040     2.1620    -3.0120 H     1 <1>   0.0800 
 33 H        2.9760     2.5330    -3.6760 H     1 <1>   0.0800 
 34 H        2.4290     3.3610    -2.2400 H     1 <1>   0.0800 
@<TRIPOS>BOND
  1   1   2  2   
  2   1   3  2   
  3   1   4  am  
  4   1   5  1   
  5   4   6  1   
  6   4   7  1   
  7   5   8  1   
  8   5   9  2   
  9   6  10  ar  
 10   6  11  ar  
 11   7  12  1   
 12   7  20  1   
 13   7  21  1   
 14   8  13  2   
 15   8  22  1   
 16   9  14  1   
 17   9  23  1   
 18  10  12  1   
 19  10  15  ar  
 20  11  16  ar  
 21  11  24  1   
 22  12  25  1   
 23  12  26  1   
 24  13  14  1   
 25  14  17  1   
 26  15  18  ar  
 27  15  27  1   
 28  16  18  ar  
 29  16  28  1   
 30  17  19  1   
 31  17  29  1   
 32  17  30  1   
 33  18  31  1   
 34  19  32  1   
 35  19  33  1   
 36  19  34  1   
@<TRIPOS>SUBSTRUCTURE
  1 ****   9 GROUP 4 **** **** 0

# MOE 2024.06 (io_trps.svl 2023.06)
