@<TRIPOS>MOLECULE
NONAME
33 34 1 0 0 
SMALL
USER_CHARGES


@<TRIPOS>ATOM
  1 O        2.9970     2.9450    -2.4120 O.3   1 <1>  -0.5600 
  2 C        1.9580     2.1680    -1.8620 C.3   1 <1>   0.3440 
  3 C        2.7930     4.3240    -2.3410 C.3   1 <1>   0.1200 
  4 C        1.5870     2.6600    -0.4580 C.ar  1 <1>  -0.1440 
  5 C        2.5140     0.7280    -1.8070 C.3   1 <1>   0.3430 
  6 C        2.9280     4.7570    -0.8800 C.3   1 <1>  -0.0170 
  7 C        2.0800     3.8700     0.0170 C.ar  1 <1>  -0.1440 
  8 C        0.7630     1.8970     0.3610 C.ar  1 <1>  -0.1500 
  9 N        3.9330     0.7260    -1.3060 N.4   1 <1>  -0.9060 
 10 C        1.7910     4.2800     1.3080 C.ar  1 <1>  -0.1500 
 11 C        0.4750     2.3120     1.6480 C.ar  1 <1>  -0.1500 
 12 C        4.0400     0.8060     0.1850 C.3   1 <1>   0.3430 
 13 C        0.9950     3.5000     2.1250 C.ar  1 <1>  -0.1500 
 14 C        5.4860     0.9860     0.6390 C.3   1 <1>   0.0400 
 15 C        5.4940     1.0400     2.1200 C.1   1 <1>   0.3570 
 16 N        5.4450     1.0650     3.2530 N.1   1 <1>  -0.5570 
 17 H        1.1010     2.2240    -2.5120 H     1 <1>   0.0800 
 18 H        1.8140     4.5560    -2.7270 H     1 <1>   0.0800 
 19 H        3.5360     4.8100    -2.9510 H     1 <1>   0.0800 
 20 H        2.4890     0.3320    -2.8080 H     1 <1>   0.0800 
 21 H        1.8890     0.1050    -1.1900 H     1 <1>   0.0800 
 22 H        2.6120     5.7810    -0.7870 H     1 <1>   0.0800 
 23 H        3.9590     4.7010    -0.5800 H     1 <1>   0.0800 
 24 H        0.3270     0.9750     0.0170 H     1 <1>   0.1500 
 25 H        4.3250     1.5920    -1.7240 H     1 <1>   0.4500 
 26 H        4.4500    -0.0740    -1.6900 H     1 <1>   0.4500 
 27 H        2.1770     5.2130     1.6840 H     1 <1>   0.1500 
 28 H       -0.1600     1.7160     2.2830 H     1 <1>   0.1500 
 29 H        3.6360    -0.0910     0.6280 H     1 <1>   0.0800 
 30 H        3.4660     1.6410     0.5540 H     1 <1>   0.0800 
 31 H        0.7730     3.8220     3.1280 H     1 <1>   0.1500 
 32 H        5.8910     1.9060     0.2610 H     1 <1>   0.0800 
 33 H        6.0940     0.1590     0.3230 H     1 <1>   0.0800 
@<TRIPOS>BOND
  1   1   2  1   
  2   1   3  1   
  3   2   4  1   
  4   2   5  1   
  5   2  17  1   
  6   3   6  1   
  7   3  18  1   
  8   3  19  1   
  9   4   7  ar  
 10   4   8  ar  
 11   5   9  1   
 12   5  20  1   
 13   5  21  1   
 14   6   7  1   
 15   6  22  1   
 16   6  23  1   
 17   7  10  ar  
 18   8  11  ar  
 19   8  24  1   
 20   9  12  1   
 21   9  25  1   
 22   9  26  1   
 23  10  13  ar  
 24  10  27  1   
 25  11  13  ar  
 26  11  28  1   
 27  12  14  1   
 28  12  29  1   
 29  12  30  1   
 30  13  31  1   
 31  14  15  1   
 32  14  32  1   
 33  14  33  1   
 34  15  16  3   
@<TRIPOS>SUBSTRUCTURE
  1 ****   4 GROUP 4 **** **** 0

# MOE 2024.06 (io_trps.svl 2023.06)
