@<TRIPOS>MOLECULE
NONAME
29 29 1 0 0 
SMALL
USER_CHARGES


@<TRIPOS>ATOM
  1 CL      -0.1950    -0.7470    -0.1450 Cl    1 <1>  -0.1770 
  2 C        1.4780    -1.2320    -0.0160 C.ar  1 <1>   0.1770 
  3 C        1.7830    -2.5510     0.2610 C.ar  1 <1>  -0.1500 
  4 C        2.4750    -0.2920    -0.1910 C.ar  1 <1>  -0.1500 
  5 C        3.1100    -2.9320     0.3620 C.ar  1 <1>  -0.1500 
  6 C        3.7990    -0.6820    -0.0870 C.ar  1 <1>  -0.1500 
  7 C        4.1360    -2.0070     0.1880 C.ar  1 <1>   0.1170 
  8 N        5.4610    -2.4520     0.3080 N.am  1 <1>  -0.5470 
  9 C        6.6500    -1.8980    -0.0510 C.2   1 <1>   0.7800 
 10 O        6.7790    -0.8230    -0.6000 O.2   1 <1>  -0.5700 
 11 O        7.7180    -2.6360     0.2370 O.3   1 <1>  -0.4300 
 12 C        9.0170    -2.1870    -0.0890 C.3   1 <1>   0.1200 
 13 C       10.0400    -3.2440     0.3390 C.3   1 <1>  -0.1600 
 14 C        9.8370    -4.5880    -0.3760 C.3   1 <1>  -0.1600 
 15 C       10.9100    -5.5990     0.0370 C.3   1 <1>  -0.2400 
 16 H        0.9890    -3.2650     0.3940 H     1 <1>   0.1500 
 17 H        2.2160     0.7290    -0.4050 H     1 <1>   0.1500 
 18 H        3.3470    -3.9580     0.5760 H     1 <1>   0.1500 
 19 H        4.5680     0.0580    -0.2200 H     1 <1>   0.1500 
 20 H        5.5860    -3.3770     0.7080 H     1 <1>   0.3700 
 21 H        9.1910    -1.2570     0.4250 H     1 <1>   0.0800 
 22 H        9.0620    -2.0200    -1.1530 H     1 <1>   0.0800 
 23 H        9.9780    -3.3780     1.4050 H     1 <1>   0.0800 
 24 H       11.0230    -2.8700     0.1150 H     1 <1>   0.0800 
 25 H        9.8790    -4.4400    -1.4420 H     1 <1>   0.0800 
 26 H        8.8670    -4.9860    -0.1340 H     1 <1>   0.0800 
 27 H       11.8900    -5.2350    -0.2190 H     1 <1>   0.0800 
 28 H       10.7500    -6.5330    -0.4720 H     1 <1>   0.0800 
 29 H       10.8720    -5.7760     1.0970 H     1 <1>   0.0800 
@<TRIPOS>BOND
  1   1   2  1   
  2   2   3  ar  
  3   2   4  ar  
  4   3   5  ar  
  5   3  16  1   
  6   4   6  ar  
  7   4  17  1   
  8   5   7  ar  
  9   5  18  1   
 10   6   7  ar  
 11   6  19  1   
 12   7   8  1   
 13   8   9  am  
 14   8  20  1   
 15   9  10  2   
 16   9  11  1   
 17  11  12  1   
 18  12  13  1   
 19  12  21  1   
 20  12  22  1   
 21  13  14  1   
 22  13  23  1   
 23  13  24  1   
 24  14  15  1   
 25  14  25  1   
 26  14  26  1   
 27  15  27  1   
 28  15  28  1   
 29  15  29  1   
@<TRIPOS>SUBSTRUCTURE
  1 ****   8 GROUP 4 **** **** 0

# MOE 2024.06 (io_trps.svl 2023.06)
