@<TRIPOS>MOLECULE
NONAME
39 40 1 0 0 
SMALL
USER_CHARGES


@<TRIPOS>ATOM
  1 CL      -0.6060    -2.6130    -1.7280 Cl    1 <1>  -0.1770 
  2 C       -2.1630    -2.6260    -0.9410 C.ar  1 <1>   0.1770 
  3 C       -3.2870    -2.9710    -1.6670 C.ar  1 <1>  -0.1500 
  4 C       -2.2480    -2.2900     0.3970 C.ar  1 <1>  -0.1500 
  5 C       -4.5200    -2.9800    -1.0370 C.ar  1 <1>  -0.1500 
  6 C       -3.4850    -2.3010     1.0210 C.ar  1 <1>  -0.1500 
  7 C       -4.6250    -2.6460     0.3070 C.ar  1 <1>  -0.1430 
  8 C       -5.9880    -2.6650     0.9890 C.3   1 <1>   0.2540 
  9 N       -6.9750    -1.8480     0.2500 N.3   1 <1>  -0.8100 
 10 C       -8.3570    -2.0220     0.8040 C.3   1 <1>   0.2510 
 11 C       -6.5730    -0.4300     0.2310 C.3   1 <1>   0.1100 
 12 C       -8.8260    -3.4870     0.9420 C.2   1 <1>   0.6590 
 13 C       -9.3580    -1.2220    -0.0510 C.3   1 <1>  -0.1600 
 14 C       -7.5320     0.3860    -0.6380 C.3   1 <1>  -0.1600 
 15 O       -8.9820    -3.9890     2.0290 O.2   1 <1>  -0.5700 
 16 O       -9.0220    -4.1730    -0.1830 O.3   1 <1>  -0.4300 
 17 C       -8.9770     0.2590    -0.1470 C.3   1 <1>  -0.1600 
 18 C       -9.3640    -5.5400    -0.1990 C.3   1 <1>   0.1200 
 19 C       -8.0830    -6.3660    -0.1110 C.3   1 <1>  -0.2400 
 20 H       -3.1980    -3.2270    -2.7070 H     1 <1>   0.1500 
 21 H       -1.3580    -2.0260     0.9380 H     1 <1>   0.1500 
 22 H       -5.4080    -3.2400    -1.5890 H     1 <1>   0.1500 
 23 H       -3.5540    -2.0410     2.0630 H     1 <1>   0.1500 
 24 H       -5.9070    -2.3080     2.0010 H     1 <1>   0.0800 
 25 H       -6.3100    -3.6910     1.0240 H     1 <1>   0.0800 
 26 H       -8.3690    -1.6070     1.7970 H     1 <1>   0.0800 
 27 H       -5.5820    -0.3330    -0.1790 H     1 <1>   0.0800 
 28 H       -6.5630    -0.0380     1.2340 H     1 <1>   0.0800 
 29 H      -10.3420    -1.3100     0.3750 H     1 <1>   0.0800 
 30 H       -9.3890    -1.6480    -1.0390 H     1 <1>   0.0800 
 31 H       -7.4590     0.0360    -1.6530 H     1 <1>   0.0800 
 32 H       -7.2340     1.4190    -0.6240 H     1 <1>   0.0800 
 33 H       -9.0680     0.7190     0.8230 H     1 <1>   0.0800 
 34 H       -9.6410     0.7670    -0.8240 H     1 <1>   0.0800 
 35 H       -9.8750    -5.7360    -1.1260 H     1 <1>   0.0800 
 36 H      -10.0290    -5.7510     0.6220 H     1 <1>   0.0800 
 37 H       -7.4230    -6.1170    -0.9230 H     1 <1>   0.0800 
 38 H       -8.3220    -7.4120    -0.1720 H     1 <1>   0.0800 
 39 H       -7.5870    -6.1860     0.8260 H     1 <1>   0.0800 
@<TRIPOS>BOND
  1   1   2  1   
  2   2   3  ar  
  3   2   4  ar  
  4   3   5  ar  
  5   3  20  1   
  6   4   6  ar  
  7   4  21  1   
  8   5   7  ar  
  9   5  22  1   
 10   6   7  ar  
 11   6  23  1   
 12   7   8  1   
 13   8   9  1   
 14   8  24  1   
 15   8  25  1   
 16   9  10  1   
 17   9  11  1   
 18  10  12  1   
 19  10  13  1   
 20  10  26  1   
 21  11  14  1   
 22  11  27  1   
 23  11  28  1   
 24  12  15  2   
 25  12  16  1   
 26  13  17  1   
 27  13  29  1   
 28  13  30  1   
 29  14  17  1   
 30  14  31  1   
 31  14  32  1   
 32  16  18  1   
 33  17  33  1   
 34  17  34  1   
 35  18  19  1   
 36  18  35  1   
 37  18  36  1   
 38  19  37  1   
 39  19  38  1   
 40  19  39  1   
@<TRIPOS>SUBSTRUCTURE
  1 ****   8 GROUP 4 **** **** 0

# MOE 2024.06 (io_trps.svl 2023.06)
