@<TRIPOS>MOLECULE
NONAME
41 41 1 0 0 
SMALL
USER_CHARGES


@<TRIPOS>ATOM
  1 O       -0.2290     3.6560     1.7320 O.2   1 <1>  -0.5700 
  2 C       -0.3590     3.4310     0.5480 C.2   1 <1>   0.5690 
  3 N        0.7350     3.2690    -0.2800 N.am  1 <1>  -0.6600 
  4 C       -1.7890     3.4530     0.0150 C.3   1 <1>   0.0440 
  5 C        0.8740     2.2050    -1.3210 C.3   1 <1>   0.2200 
  6 C        2.0120     4.0050    -0.0310 C.3   1 <1>   0.2200 
  7 C       -2.5750     2.1420     0.1430 C.ar  1 <1>  -0.1440 
  8 C        0.1640     2.5830    -2.6180 C.3   1 <1>  -0.2400 
  9 C        0.4510     0.8330    -0.7980 C.3   1 <1>  -0.2400 
 10 C        2.8210     3.3170     1.0690 C.3   1 <1>  -0.2400 
 11 C        1.7640     5.4830     0.2790 C.3   1 <1>  -0.2400 
 12 C       -3.3890     1.6780    -0.8900 C.ar  1 <1>   0.0820 
 13 C       -2.4850     1.4060     1.3170 C.ar  1 <1>  -0.1500 
 14 O       -3.4820     2.4290    -2.0200 O.3   1 <1>  -0.3630 
 15 C       -4.0800     0.4760    -0.7370 C.ar  1 <1>  -0.1500 
 16 C       -3.1750     0.2160     1.4620 C.ar  1 <1>  -0.1500 
 17 C       -4.3050     2.0540    -3.1020 C.3   1 <1>   0.0400 
 18 C       -3.9700    -0.2500     0.4340 C.ar  1 <1>  -0.1500 
 19 H       -1.7620     3.8060    -0.9940 H     1 <1>   0.0800 
 20 H       -2.3240     4.1980     0.5720 H     1 <1>   0.0800 
 21 H        1.9200     2.1120    -1.5590 H     1 <1>   0.0800 
 22 H        2.5970     3.9840    -0.9350 H     1 <1>   0.0800 
 23 H       -0.8980     2.4680    -2.5290 H     1 <1>   0.0800 
 24 H        0.4940     1.9330    -3.4080 H     1 <1>   0.0800 
 25 H        0.3980     3.5960    -2.8910 H     1 <1>   0.0800 
 26 H       -0.6140     0.7430    -0.7410 H     1 <1>   0.0800 
 27 H        0.8780     0.6570     0.1730 H     1 <1>   0.0800 
 28 H        0.8030     0.0710    -1.4680 H     1 <1>   0.0800 
 29 H        2.3010     3.3620     2.0080 H     1 <1>   0.0800 
 30 H        3.7700     3.8070     1.1850 H     1 <1>   0.0800 
 31 H        2.9980     2.2880     0.8140 H     1 <1>   0.0800 
 32 H        1.2950     5.6090     1.2380 H     1 <1>   0.0800 
 33 H        1.1450     5.9210    -0.4830 H     1 <1>   0.0800 
 34 H        2.7000     6.0100     0.2990 H     1 <1>   0.0800 
 35 H       -1.8740     1.7550     2.1320 H     1 <1>   0.1500 
 36 H       -4.7080     0.0900    -1.5160 H     1 <1>   0.1500 
 37 H       -3.0900    -0.3430     2.3780 H     1 <1>   0.1500 
 38 H       -4.2200     2.8080    -3.8630 H     1 <1>   0.0800 
 39 H       -5.3240     1.9930    -2.7600 H     1 <1>   0.0800 
 40 H       -3.9680     1.1070    -3.4850 H     1 <1>   0.0800 
 41 H       -4.5050    -1.1770     0.5470 H     1 <1>   0.1500 
@<TRIPOS>BOND
  1   1   2  2   
  2   2   3  am  
  3   2   4  1   
  4   3   5  1   
  5   3   6  1   
  6   4   7  1   
  7   4  19  1   
  8   4  20  1   
  9   5   8  1   
 10   5   9  1   
 11   5  21  1   
 12   6  10  1   
 13   6  11  1   
 14   6  22  1   
 15   7  12  ar  
 16   7  13  ar  
 17   8  23  1   
 18   8  24  1   
 19   8  25  1   
 20   9  26  1   
 21   9  27  1   
 22   9  28  1   
 23  10  29  1   
 24  10  30  1   
 25  10  31  1   
 26  11  32  1   
 27  11  33  1   
 28  11  34  1   
 29  12  14  1   
 30  12  15  ar  
 31  13  16  ar  
 32  13  35  1   
 33  14  17  1   
 34  15  18  ar  
 35  15  36  1   
 36  16  18  ar  
 37  16  37  1   
 38  17  38  1   
 39  17  39  1   
 40  17  40  1   
 41  18  41  1   
@<TRIPOS>SUBSTRUCTURE
  1 ****   4 GROUP 4 **** **** 0

# MOE 2024.06 (io_trps.svl 2023.06)
