@<TRIPOS>MOLECULE
NONAME
35 36 1 0 0 
SMALL
USER_CHARGES


@<TRIPOS>ATOM
  1 F        4.4780     0.0180    -1.4760 F     1 <1>  -0.1900 
  2 C        4.0630    -1.0120    -0.7820 C.ar  1 <1>   0.1900 
  3 C        4.7520    -1.4680     0.3470 C.ar  1 <1>   0.0820 
  4 C        2.9030    -1.6180    -1.2280 C.ar  1 <1>  -0.1500 
  5 O        5.8960    -0.9550     0.8800 O.3   1 <1>  -0.3630 
  6 C        4.2280    -2.5660     1.0120 C.ar  1 <1>  -0.1500 
  7 C        2.3910    -2.7100    -0.5420 C.ar  1 <1>  -0.1430 
  8 C        6.5920     0.1290     0.3050 C.3   1 <1>   0.0400 
  9 C        3.0650    -3.1810     0.5770 C.ar  1 <1>  -0.1500 
 10 C        1.1080    -3.3830    -1.0040 C.3   1 <1>  -0.0160 
 11 C       -0.0760    -2.9880    -0.1070 C.3   1 <1>   0.4230 
 12 N       -1.2820    -3.7670    -0.4920 N.4   1 <1>  -0.9060 
 13 C       -0.4040    -1.4880    -0.1910 C.3   1 <1>  -0.1600 
 14 C       -2.4510    -3.5010     0.3900 C.3   1 <1>   0.3430 
 15 C       -1.6290    -1.1190     0.6560 C.3   1 <1>  -0.1600 
 16 C       -2.8220    -2.0190     0.3090 C.3   1 <1>  -0.1600 
 17 H        2.4180    -1.2250    -2.1040 H     1 <1>   0.1500 
 18 H        4.7450    -2.9370     1.8800 H     1 <1>   0.1500 
 19 H        7.4670     0.3180     0.9010 H     1 <1>   0.0800 
 20 H        5.9550     0.9960     0.3090 H     1 <1>   0.0800 
 21 H        6.8830    -0.1320    -0.6970 H     1 <1>   0.0800 
 22 H        2.7010    -4.0340     1.1230 H     1 <1>   0.1500 
 23 H        1.2570    -4.4470    -0.9630 H     1 <1>   0.0800 
 24 H        0.9070    -3.1110    -2.0250 H     1 <1>   0.0800 
 25 H        0.1820    -3.2220     0.9140 H     1 <1>   0.0800 
 26 H       -1.0640    -4.7700    -0.4820 H     1 <1>   0.4500 
 27 H       -1.5370    -3.5150    -1.4530 H     1 <1>   0.4500 
 28 H       -0.5720    -1.2070    -1.2170 H     1 <1>   0.0800 
 29 H        0.4380    -0.9170     0.1620 H     1 <1>   0.0800 
 30 H       -2.2050    -3.7540     1.4100 H     1 <1>   0.0800 
 31 H       -3.2940    -4.1020     0.0850 H     1 <1>   0.0800 
 32 H       -1.8900    -0.0860     0.4900 H     1 <1>   0.0800 
 33 H       -1.3880    -1.2280     1.7010 H     1 <1>   0.0800 
 34 H       -3.6280    -1.8200     0.9950 H     1 <1>   0.0800 
 35 H       -3.1810    -1.7910    -0.6800 H     1 <1>   0.0800 
@<TRIPOS>BOND
  1   1   2  1   
  2   2   3  ar  
  3   2   4  ar  
  4   3   5  1   
  5   3   6  ar  
  6   4   7  ar  
  7   4  17  1   
  8   5   8  1   
  9   6   9  ar  
 10   6  18  1   
 11   7   9  ar  
 12   7  10  1   
 13   8  19  1   
 14   8  20  1   
 15   8  21  1   
 16   9  22  1   
 17  10  11  1   
 18  10  23  1   
 19  10  24  1   
 20  11  12  1   
 21  11  13  1   
 22  11  25  1   
 23  12  14  1   
 24  12  26  1   
 25  12  27  1   
 26  13  15  1   
 27  13  28  1   
 28  13  29  1   
 29  14  16  1   
 30  14  30  1   
 31  14  31  1   
 32  15  16  1   
 33  15  32  1   
 34  15  33  1   
 35  16  34  1   
 36  16  35  1   
@<TRIPOS>SUBSTRUCTURE
  1 ****   7 GROUP 4 **** **** 0

# MOE 2024.06 (io_trps.svl 2023.06)
