@<TRIPOS>MOLECULE
NONAME
55 57 1 0 0 
SMALL
USER_CHARGES


@<TRIPOS>ATOM
  1 O        0.2290     1.3640    -0.6070 O.2   1 <1>  -0.5700 
  2 C        0.1470     2.5650    -0.5090 C.2   1 <1>   0.5690 
  3 N        1.2000     3.3550    -0.9160 N.am  1 <1>  -0.6600 
  4 C       -1.1400     3.1670     0.0800 C.3   1 <1>  -0.0190 
  5 C        1.4200     4.7880    -0.5530 C.3   1 <1>   0.1400 
  6 C        2.3290     2.7580    -1.6990 C.3   1 <1>   0.1400 
  7 C       -2.0630     2.1040     0.7180 C.3   1 <1>  -0.1600 
  8 C       -1.9310     3.9470    -0.9910 C.3   1 <1>  -0.1600 
  9 C        2.7730     4.9610     0.1730 C.3   1 <1>   0.3430 
 10 C        3.6580     2.9240    -0.9440 C.3   1 <1>   0.3430 
 11 C       -3.3530     2.7160     1.2680 C.3   1 <1>   0.1400 
 12 C       -3.2240     4.5450    -0.4270 C.3   1 <1>   0.1400 
 13 N        3.9290     4.3690    -0.5950 N.4   1 <1>  -0.9590 
 14 N       -4.0440     3.4670     0.1860 N.am  1 <1>  -0.6600 
 15 C        5.2000     4.5340     0.1790 C.3   1 <1>   0.3430 
 16 C       -5.3180     3.2140    -0.2610 C.2   1 <1>   0.5690 
 17 C        6.4390     4.2190    -0.6630 C.3   1 <1>  -0.0170 
 18 O       -5.8410     3.8760    -1.1240 O.2   1 <1>  -0.5700 
 19 C       -6.1290     2.0790     0.3200 C.3   1 <1>  -0.1790 
 20 C        7.6700     4.5230     0.1660 C.ar  1 <1>  -0.1440 
 21 C        8.2050     3.5560     1.0050 C.ar  1 <1>  -0.1500 
 22 C        8.2660     5.7740     0.1030 C.ar  1 <1>  -0.1500 
 23 C        9.3180     3.8390     1.7760 C.ar  1 <1>  -0.1500 
 24 C        9.3800     6.0560     0.8750 C.ar  1 <1>  -0.1500 
 25 C        9.9050     5.0900     1.7130 C.ar  1 <1>  -0.1500 
 26 H       -0.8640     3.8420     0.8680 H     1 <1>   0.0800 
 27 H        0.6370     5.1520     0.0860 H     1 <1>   0.0800 
 28 H        1.4100     5.3860    -1.4490 H     1 <1>   0.0800 
 29 H        2.3890     3.2390    -2.6590 H     1 <1>   0.0800 
 30 H        2.1610     1.7100    -1.8810 H     1 <1>   0.0800 
 31 H       -1.5410     1.6020     1.5140 H     1 <1>   0.0800 
 32 H       -2.3240     1.3600    -0.0160 H     1 <1>   0.0800 
 33 H       -2.1870     3.2860    -1.8020 H     1 <1>   0.0800 
 34 H       -1.3330     4.7400    -1.3990 H     1 <1>   0.0800 
 35 H        2.7010     4.4820     1.1360 H     1 <1>   0.0800 
 36 H        2.9480     6.0110     0.3440 H     1 <1>   0.0800 
 37 H        4.4550     2.5350    -1.5560 H     1 <1>   0.0800 
 38 H        3.6120     2.3320    -0.0440 H     1 <1>   0.0800 
 39 H       -3.1240     3.3940     2.0720 H     1 <1>   0.0800 
 40 H       -3.9750     1.9350     1.6650 H     1 <1>   0.0800 
 41 H       -3.7670     5.0340    -1.2190 H     1 <1>   0.0800 
 42 H       -3.0000     5.2840     0.3230 H     1 <1>   0.0800 
 43 H        4.0160     4.8940    -1.4760 H     1 <1>   0.4500 
 44 H        5.1910     3.8960     1.0480 H     1 <1>   0.0800 
 45 H        5.2830     5.5530     0.5230 H     1 <1>   0.0800 
 46 H        6.4520     4.8230    -1.5530 H     1 <1>   0.0800 
 47 H        6.4580     3.1820    -0.9480 H     1 <1>   0.0800 
 48 H       -6.2930     2.2460     1.3670 H     1 <1>   0.0800 
 49 H       -5.6130     1.1500     0.1700 H     1 <1>   0.0800 
 50 H       -7.0820     2.0260    -0.1740 H     1 <1>   0.0800 
 51 H        7.7690     2.5740     1.0670 H     1 <1>   0.1500 
 52 H        7.8790     6.5410    -0.5450 H     1 <1>   0.1500 
 53 H        9.7330     3.0870     2.4260 H     1 <1>   0.1500 
 54 H        9.8420     7.0280     0.8230 H     1 <1>   0.1500 
 55 H       10.7720     5.3100     2.3120 H     1 <1>   0.1500 
@<TRIPOS>BOND
  1   1   2  2   
  2   2   3  am  
  3   2   4  1   
  4   3   5  1   
  5   3   6  1   
  6   4   7  1   
  7   4   8  1   
  8   4  26  1   
  9   5   9  1   
 10   5  27  1   
 11   5  28  1   
 12   6  10  1   
 13   6  29  1   
 14   6  30  1   
 15   7  11  1   
 16   7  31  1   
 17   7  32  1   
 18   8  12  1   
 19   8  33  1   
 20   8  34  1   
 21   9  13  1   
 22   9  35  1   
 23   9  36  1   
 24  10  13  1   
 25  10  37  1   
 26  10  38  1   
 27  11  14  1   
 28  11  39  1   
 29  11  40  1   
 30  12  14  1   
 31  12  41  1   
 32  12  42  1   
 33  13  15  1   
 34  13  43  1   
 35  14  16  am  
 36  15  17  1   
 37  15  44  1   
 38  15  45  1   
 39  16  18  2   
 40  16  19  1   
 41  17  20  1   
 42  17  46  1   
 43  17  47  1   
 44  19  48  1   
 45  19  49  1   
 46  19  50  1   
 47  20  21  ar  
 48  20  22  ar  
 49  21  23  ar  
 50  21  51  1   
 51  22  24  ar  
 52  22  52  1   
 53  23  25  ar  
 54  23  53  1   
 55  24  25  ar  
 56  24  54  1   
 57  25  55  1   
@<TRIPOS>SUBSTRUCTURE
  1 ****   3 GROUP 4 **** **** 0

# MOE 2024.06 (io_trps.svl 2023.06)
