@<TRIPOS>MOLECULE
NONAME
40 42 1 0 0 
SMALL
USER_CHARGES


@<TRIPOS>ATOM
  1 CL       0.1060    -0.2100     0.4360 Cl    1 <1>  -0.1770 
  2 C        1.6360    -1.0400     0.2770 C.ar  1 <1>   0.1770 
  3 C        1.9910    -1.5810    -0.9450 C.ar  1 <1>  -0.1500 
  4 C        2.4680    -1.1450     1.3760 C.ar  1 <1>  -0.1500 
  5 C        3.2030    -2.2370    -1.0650 C.ar  1 <1>  -0.1500 
  6 C        3.6790    -1.8030     1.2470 C.ar  1 <1>  -0.1500 
  7 C        4.0580    -2.3550     0.0250 C.ar  1 <1>   0.1000 
  8 N        5.2680    -3.0210    -0.1250 N.pl3 1 <1>  -0.8380 
  9 C        5.3710    -4.3580     0.5270 C.3   1 <1>   0.2090 
 10 C        6.5010    -2.1860    -0.0290 C.3   1 <1>   0.2090 
 11 C        6.6070    -5.1240     0.0070 C.3   1 <1>   0.3430 
 12 C        7.7290    -2.9680    -0.5440 C.3   1 <1>   0.3430 
 13 N        7.8800    -4.3200     0.1200 N.4   1 <1>  -0.9590 
 14 C        9.0520    -5.0650    -0.4140 C.3   1 <1>   0.4860 
 15 C       10.3090    -4.2800    -0.0930 C.ar  1 <1>  -0.1430 
 16 C       10.7950    -4.2350     1.2080 C.ar  1 <1>  -0.1500 
 17 C       10.9850    -3.5920    -1.0960 C.ar  1 <1>  -0.1500 
 18 C       11.9310    -3.4940     1.4710 C.ar  1 <1>   0.1900 
 19 C       12.1260    -2.8570    -0.8090 C.ar  1 <1>  -0.1500 
 20 F       12.3750    -3.4480     2.6960 F     1 <1>  -0.1900 
 21 C       12.6080    -2.8010     0.4870 C.ar  1 <1>  -0.1500 
 22 H        1.3260    -1.4860    -1.7850 H     1 <1>   0.1500 
 23 H        2.1660    -0.7150     2.3140 H     1 <1>   0.1500 
 24 H        3.4960    -2.6620    -2.0080 H     1 <1>   0.1500 
 25 H        4.3300    -1.8880     2.0960 H     1 <1>   0.1500 
 26 H        4.4810    -4.9250     0.3100 H     1 <1>   0.0800 
 27 H        5.4340    -4.2370     1.5940 H     1 <1>   0.0800 
 28 H        6.6590    -1.8850     0.9920 H     1 <1>   0.0800 
 29 H        6.3720    -1.2950    -0.6200 H     1 <1>   0.0800 
 30 H        6.4290    -5.3730    -1.0260 H     1 <1>   0.0800 
 31 H        6.7030    -6.0460     0.5580 H     1 <1>   0.0800 
 32 H        8.6130    -2.3740    -0.3770 H     1 <1>   0.0800 
 33 H        7.6160    -3.0990    -1.6070 H     1 <1>   0.0800 
 34 H        8.0640    -4.1410     1.1140 H     1 <1>   0.4500 
 35 H        8.9590    -5.1940    -1.4810 H     1 <1>   0.0800 
 36 H        9.1150    -6.0390     0.0440 H     1 <1>   0.0800 
 37 H       10.3220    -4.7600     2.0190 H     1 <1>   0.1500 
 38 H       10.6380    -3.6210    -2.1160 H     1 <1>   0.1500 
 39 H       12.6440    -2.3290    -1.5940 H     1 <1>   0.1500 
 40 H       13.4910    -2.2370     0.7330 H     1 <1>   0.1500 
@<TRIPOS>BOND
  1   1   2  1   
  2   2   3  ar  
  3   2   4  ar  
  4   3   5  ar  
  5   3  22  1   
  6   4   6  ar  
  7   4  23  1   
  8   5   7  ar  
  9   5  24  1   
 10   6   7  ar  
 11   6  25  1   
 12   7   8  1   
 13   8   9  1   
 14   8  10  1   
 15   9  11  1   
 16   9  26  1   
 17   9  27  1   
 18  10  12  1   
 19  10  28  1   
 20  10  29  1   
 21  11  13  1   
 22  11  30  1   
 23  11  31  1   
 24  12  13  1   
 25  12  32  1   
 26  12  33  1   
 27  13  14  1   
 28  13  34  1   
 29  14  15  1   
 30  14  35  1   
 31  14  36  1   
 32  15  16  ar  
 33  15  17  ar  
 34  16  18  ar  
 35  16  37  1   
 36  17  19  ar  
 37  17  38  1   
 38  18  20  1   
 39  18  21  ar  
 40  19  21  ar  
 41  19  39  1   
 42  21  40  1   
@<TRIPOS>SUBSTRUCTURE
  1 ****  10 GROUP 4 **** **** 0

# MOE 2024.06 (io_trps.svl 2023.06)
