@<TRIPOS>MOLECULE
NONAME
33 33 1 0 0 
SMALL
USER_CHARGES


@<TRIPOS>ATOM
  1 O       -0.0260     0.2110    -0.7230 O.2   1 <1>  -0.5700 
  2 C       -0.0210     1.3710    -0.3590 C.2   1 <1>   0.5440 
  3 N       -1.2090     1.9350     0.0060 N.am  1 <1>  -0.7300 
  4 C        1.2170     2.1290    -0.2950 C.ar  1 <1>   0.0860 
  5 C       -2.5080     1.2530    -0.0340 C.3   1 <1>   0.2780 
  6 C        2.4470     1.4810    -0.1580 C.ar  1 <1>  -0.1500 
  7 C        1.2390     3.5240    -0.3670 C.ar  1 <1>  -0.1500 
  8 C       -3.5680     2.3200    -0.1990 C.2   1 <1>  -0.2880 
  9 C        3.6370     2.1800    -0.0840 C.ar  1 <1>  -0.1500 
 10 C        2.4240     4.2310    -0.2930 C.ar  1 <1>  -0.1500 
 11 C       -4.5100     2.6240     0.7000 C.2   1 <1>  -0.3000 
 12 C        3.6320     3.5700    -0.1490 C.ar  1 <1>   0.0820 
 13 O        4.7460     4.3340    -0.0820 O.3   1 <1>  -0.3630 
 14 C        6.0280     3.7650     0.0490 C.3   1 <1>   0.1200 
 15 C        7.0530     4.8990     0.0860 C.3   1 <1>  -0.1600 
 16 C        8.4800     4.3590     0.2270 C.3   1 <1>  -0.2400 
 17 H       -1.2310     2.8550     0.4440 H     1 <1>   0.3700 
 18 H       -2.6530     0.7100     0.8840 H     1 <1>   0.0800 
 19 H       -2.5400     0.5580    -0.8580 H     1 <1>   0.0800 
 20 H        2.4600     0.4050    -0.1100 H     1 <1>   0.1500 
 21 H        0.3190     4.0660    -0.4920 H     1 <1>   0.1500 
 22 H       -3.4850     2.8260    -1.1460 H     1 <1>   0.1500 
 23 H        4.5530     1.6300     0.0230 H     1 <1>   0.1500 
 24 H        2.4250     5.3060    -0.3490 H     1 <1>   0.1500 
 25 H       -5.2540     3.3880     0.5550 H     1 <1>   0.1500 
 26 H       -4.6200     2.1360     1.6540 H     1 <1>   0.1500 
 27 H        6.2030     3.1230    -0.7970 H     1 <1>   0.0800 
 28 H        6.0570     3.1970     0.9620 H     1 <1>   0.0800 
 29 H        6.8340     5.5450     0.9180 H     1 <1>   0.0800 
 30 H        6.9790     5.4720    -0.8230 H     1 <1>   0.0800 
 31 H        8.5820     3.7960     1.1390 H     1 <1>   0.0800 
 32 H        9.1800     5.1750     0.2510 H     1 <1>   0.0800 
 33 H        8.7270     3.7220    -0.6040 H     1 <1>   0.0800 
@<TRIPOS>BOND
  1   1   2  2   
  2   2   3  am  
  3   2   4  1   
  4   3   5  1   
  5   3  17  1   
  6   4   6  ar  
  7   4   7  ar  
  8   5   8  1   
  9   5  18  1   
 10   5  19  1   
 11   6   9  ar  
 12   6  20  1   
 13   7  10  ar  
 14   7  21  1   
 15   8  11  2   
 16   8  22  1   
 17   9  12  ar  
 18   9  23  1   
 19  10  12  ar  
 20  10  24  1   
 21  11  25  1   
 22  11  26  1   
 23  12  13  1   
 24  13  14  1   
 25  14  15  1   
 26  14  27  1   
 27  14  28  1   
 28  15  16  1   
 29  15  29  1   
 30  15  30  1   
 31  16  31  1   
 32  16  32  1   
 33  16  33  1   
@<TRIPOS>SUBSTRUCTURE
  1 ****   4 GROUP 4 **** **** 0

# MOE 2024.06 (io_trps.svl 2023.06)
