@<TRIPOS>MOLECULE
NONAME
44 45 1 0 0 
SMALL
USER_CHARGES


@<TRIPOS>ATOM
  1 O       -7.2950     2.0060     0.1970 O.3   1 <1>  -0.6800 
  2 C       -7.2250     0.8260    -0.5570 C.3   1 <1>   0.2000 
  3 C       -8.4560    -0.0530    -0.2130 C.3   1 <1>   0.3430 
  4 C       -5.8990     0.0540    -0.2940 C.3   1 <1>   0.3430 
  5 N       -9.6860     0.7710     0.0150 N.4   1 <1>  -0.9590 
  6 N       -4.6510     0.8970    -0.2710 N.4   1 <1>  -0.9590 
  7 C      -10.6670     0.0820     0.9070 C.3   1 <1>   0.3430 
  8 C      -10.3280     1.2400    -1.2510 C.3   1 <1>   0.3430 
  9 C       -3.4540     0.0860    -0.6590 C.3   1 <1>   0.3430 
 10 C       -4.4260     1.5340     1.0690 C.3   1 <1>   0.3430 
 11 C      -11.7960     1.0480     1.2750 C.3   1 <1>  -0.1600 
 12 C      -11.4480     2.2290    -0.9240 C.3   1 <1>  -0.1600 
 13 C       -2.2320     0.9990    -0.7820 C.3   1 <1>  -0.1600 
 14 C       -3.2330     2.4870     0.9920 C.3   1 <1>  -0.1600 
 15 C      -12.4840     1.6200     0.0290 C.3   1 <1>  -0.1600 
 16 C       -1.9640     1.7670     0.5180 C.3   1 <1>  -0.1600 
 17 H       -6.8940     2.7730    -0.2700 H     1 <1>   0.4000 
 18 H       -7.2770     1.1000    -1.5970 H     1 <1>   0.0800 
 19 H       -8.2350    -0.5960     0.6910 H     1 <1>   0.0800 
 20 H       -8.6310    -0.7780    -0.9920 H     1 <1>   0.0800 
 21 H       -5.8000    -0.6960    -1.0620 H     1 <1>   0.0800 
 22 H       -5.9810    -0.4710     0.6440 H     1 <1>   0.0800 
 23 H       -9.3610     1.6180     0.5150 H     1 <1>   0.4500 
 24 H       -4.7150     1.6570    -0.9600 H     1 <1>   0.4500 
 25 H      -10.1800    -0.2530     1.8090 H     1 <1>   0.0800 
 26 H      -11.0810    -0.7760     0.4030 H     1 <1>   0.0800 
 27 H      -10.7400     0.3990    -1.7860 H     1 <1>   0.0800 
 28 H       -9.6020     1.7250    -1.8820 H     1 <1>   0.0800 
 29 H       -3.6250    -0.4050    -1.6040 H     1 <1>   0.0800 
 30 H       -3.2620    -0.6680     0.0870 H     1 <1>   0.0800 
 31 H       -4.2280     0.7740     1.8070 H     1 <1>   0.0800 
 32 H       -5.2990     2.0840     1.3810 H     1 <1>   0.0800 
 33 H      -11.4010     1.8480     1.8760 H     1 <1>   0.0800 
 34 H      -12.5230     0.5270     1.8730 H     1 <1>   0.0800 
 35 H      -11.9370     2.5230    -1.8370 H     1 <1>   0.0800 
 36 H      -11.0260     3.1180    -0.4870 H     1 <1>   0.0800 
 37 H       -2.3780     1.6900    -1.5950 H     1 <1>   0.0800 
 38 H       -1.3700     0.4010    -1.0230 H     1 <1>   0.0800 
 39 H       -3.0560     2.9080     1.9670 H     1 <1>   0.0800 
 40 H       -3.4630     3.3030     0.3290 H     1 <1>   0.0800 
 41 H      -13.2000     2.3710     0.3200 H     1 <1>   0.0800 
 42 H      -13.0220     0.8360    -0.4770 H     1 <1>   0.0800 
 43 H       -1.1720     2.4820     0.3650 H     1 <1>   0.0800 
 44 H       -1.6370     1.0780     1.2800 H     1 <1>   0.0800 
@<TRIPOS>BOND
  1   1   2  1   
  2   1  17  1   
  3   2   3  1   
  4   2   4  1   
  5   2  18  1   
  6   3   5  1   
  7   3  19  1   
  8   3  20  1   
  9   4   6  1   
 10   4  21  1   
 11   4  22  1   
 12   5   7  1   
 13   5   8  1   
 14   5  23  1   
 15   6   9  1   
 16   6  10  1   
 17   6  24  1   
 18   7  11  1   
 19   7  25  1   
 20   7  26  1   
 21   8  12  1   
 22   8  27  1   
 23   8  28  1   
 24   9  13  1   
 25   9  29  1   
 26   9  30  1   
 27  10  14  1   
 28  10  31  1   
 29  10  32  1   
 30  11  15  1   
 31  11  33  1   
 32  11  34  1   
 33  12  15  1   
 34  12  35  1   
 35  12  36  1   
 36  13  16  1   
 37  13  37  1   
 38  13  38  1   
 39  14  16  1   
 40  14  39  1   
 41  14  40  1   
 42  15  41  1   
 43  15  42  1   
 44  16  43  1   
 45  16  44  1   
@<TRIPOS>SUBSTRUCTURE
  1 ****   2 GROUP 4 **** **** 0

# MOE 2024.06 (io_trps.svl 2023.06)
