@<TRIPOS>MOLECULE
NONAME
51 53 1 0 0 
SMALL
USER_CHARGES


@<TRIPOS>ATOM
  1 O        0.4680    -0.2360    -0.7800 O.2   1 <1>  -0.5700 
  2 C        0.1880    -1.3640    -0.4230 C.2   1 <1>   0.5440 
  3 N       -1.1210    -1.7640    -0.3570 N.am  1 <1>  -0.5470 
  4 C        1.2320    -2.2970    -0.0410 C.ar  1 <1>   0.0860 
  5 C       -2.3600    -1.1930    -0.6770 C.ar  1 <1>   0.1170 
  6 C        2.4620    -1.8340     0.4260 C.ar  1 <1>  -0.1500 
  7 C        1.0480    -3.6800    -0.1210 C.ar  1 <1>  -0.1500 
  8 C       -3.4820    -2.0090    -0.4650 C.ar  1 <1>   0.1000 
  9 C       -2.5270     0.0910    -1.1750 C.ar  1 <1>  -0.1500 
 10 C        3.4710    -2.7040     0.8210 C.ar  1 <1>   0.0830 
 11 C        2.0370    -4.5710     0.2740 C.ar  1 <1>   0.0830 
 12 N       -3.3150    -3.3170     0.0350 N.pl3 1 <1>  -0.8380 
 13 C       -4.7440    -1.5050    -0.7520 C.ar  1 <1>  -0.1500 
 14 C       -3.7920     0.5770    -1.4590 C.ar  1 <1>  -0.1500 
 15 O        4.6790    -2.2660     1.2820 O.3   1 <1>  -0.3620 
 16 C        3.2520    -4.0800     0.7490 C.ar  1 <1>   0.0830 
 17 O        1.8710    -5.9240     0.2080 O.3   1 <1>  -0.3620 
 18 C       -3.6710    -3.5420     1.4710 C.3   1 <1>   0.2090 
 19 C       -3.6860    -4.4520    -0.8690 C.3   1 <1>   0.2090 
 20 C       -4.9020    -0.2220    -1.2470 C.ar  1 <1>  -0.1500 
 21 C        4.9450    -0.8940     1.4720 C.3   1 <1>   0.0400 
 22 O        4.2100    -4.9480     1.1620 O.3   1 <1>  -0.3630 
 23 C        0.6040    -6.5080    -0.0030 C.3   1 <1>   0.0400 
 24 C       -5.0550    -4.1970     1.6390 C.3   1 <1>   0.1200 
 25 C       -5.0620    -5.0590    -0.5330 C.3   1 <1>   0.1200 
 26 C        5.2040    -5.2570     0.2160 C.3   1 <1>   0.0400 
 27 O       -5.1730    -5.3350     0.8340 O.3   1 <1>  -0.5600 
 28 H       -1.2910    -2.7010     0.0170 H     1 <1>   0.3700 
 29 H        2.6030    -0.7710     0.4710 H     1 <1>   0.1500 
 30 H        0.1200    -4.0490    -0.5110 H     1 <1>   0.1500 
 31 H       -1.6730     0.7210    -1.3430 H     1 <1>   0.1500 
 32 H       -5.6100    -2.1160    -0.5870 H     1 <1>   0.1500 
 33 H       -3.9090     1.5750    -1.8450 H     1 <1>   0.1500 
 34 H       -3.6560    -2.6030     1.9980 H     1 <1>   0.0800 
 35 H       -2.9290    -4.1800     1.9190 H     1 <1>   0.0800 
 36 H       -2.9400    -5.2210    -0.7830 H     1 <1>   0.0800 
 37 H       -3.6880    -4.1120    -1.8910 H     1 <1>   0.0800 
 38 H       -5.8850     0.1560    -1.4660 H     1 <1>   0.1500 
 39 H        5.9380    -0.8000     1.8730 H     1 <1>   0.0800 
 40 H        4.2310    -0.4930     2.1690 H     1 <1>   0.0800 
 41 H        4.8850    -0.3910     0.5240 H     1 <1>   0.0800 
 42 H        0.7080    -7.5730     0.1040 H     1 <1>   0.0800 
 43 H        0.2720    -6.2730    -0.9980 H     1 <1>   0.0800 
 44 H       -0.0820    -6.1330     0.7360 H     1 <1>   0.0800 
 45 H       -5.8350    -3.5040     1.3770 H     1 <1>   0.0800 
 46 H       -5.1960    -4.5010     2.6610 H     1 <1>   0.0800 
 47 H       -5.1950    -5.9830    -1.0660 H     1 <1>   0.0800 
 48 H       -5.8530    -4.3870    -0.8150 H     1 <1>   0.0800 
 49 H        5.8870    -5.9550     0.6630 H     1 <1>   0.0800 
 50 H        5.7210    -4.3530    -0.0540 H     1 <1>   0.0800 
 51 H        4.7340    -5.6960    -0.6470 H     1 <1>   0.0800 
@<TRIPOS>BOND
  1   1   2  2   
  2   2   3  am  
  3   2   4  1   
  4   3   5  1   
  5   3  28  1   
  6   4   6  ar  
  7   4   7  ar  
  8   5   8  ar  
  9   5   9  ar  
 10   6  10  ar  
 11   6  29  1   
 12   7  11  ar  
 13   7  30  1   
 14   8  12  1   
 15   8  13  ar  
 16   9  14  ar  
 17   9  31  1   
 18  10  15  1   
 19  10  16  ar  
 20  11  16  ar  
 21  11  17  1   
 22  12  18  1   
 23  12  19  1   
 24  13  20  ar  
 25  13  32  1   
 26  14  20  ar  
 27  14  33  1   
 28  15  21  1   
 29  16  22  1   
 30  17  23  1   
 31  18  24  1   
 32  18  34  1   
 33  18  35  1   
 34  19  25  1   
 35  19  36  1   
 36  19  37  1   
 37  20  38  1   
 38  21  39  1   
 39  21  40  1   
 40  21  41  1   
 41  22  26  1   
 42  23  42  1   
 43  23  43  1   
 44  23  44  1   
 45  24  27  1   
 46  24  45  1   
 47  24  46  1   
 48  25  27  1   
 49  25  47  1   
 50  25  48  1   
 51  26  49  1   
 52  26  50  1   
 53  26  51  1   
@<TRIPOS>SUBSTRUCTURE
  1 ****   3 GROUP 4 **** **** 0

# MOE 2024.06 (io_trps.svl 2023.06)
