@<TRIPOS>MOLECULE
NONAME
49 51 1 0 0 
SMALL
USER_CHARGES


@<TRIPOS>ATOM
  1 F       -0.2790    -0.8850     2.1540 F     1 <1>  -0.3400 
  2 C       -0.4080    -2.0080     1.4550 C.3   1 <1>   1.1640 
  3 F       -0.6000    -2.9770     2.3410 F     1 <1>  -0.3400 
  4 F       -1.5450    -1.8930     0.7780 F     1 <1>  -0.3400 
  5 C        0.7910    -2.2950     0.5380 C.ar  1 <1>  -0.1440 
  6 C        1.9790    -1.5790     0.6440 C.ar  1 <1>  -0.1500 
  7 C        0.7040    -3.2960    -0.4250 C.ar  1 <1>  -0.1500 
  8 C        3.0600    -1.8430    -0.1850 C.ar  1 <1>   0.1000 
  9 C        1.7750    -3.5690    -1.2580 C.ar  1 <1>  -0.1500 
 10 N        4.2250    -1.1000    -0.0450 N.pl3 1 <1>  -0.8380 
 11 C        2.9450    -2.8460    -1.1390 C.ar  1 <1>  -0.1500 
 12 C        4.5300    -0.1360    -1.1380 C.3   1 <1>   0.2090 
 13 C        5.4170    -1.8260     0.4760 C.3   1 <1>   0.2090 
 14 C        5.6520     0.8370    -0.7160 C.3   1 <1>   0.3430 
 15 C        6.5280    -0.8350     0.8820 C.3   1 <1>   0.3430 
 16 N        6.9030     0.1360    -0.2210 N.4   1 <1>  -0.9590 
 17 C        7.9750     1.0960     0.1950 C.3   1 <1>   0.4230 
 18 C        8.3340     2.0350    -0.9740 C.3   1 <1>  -0.1600 
 19 C        9.2290     0.3280     0.6570 C.3   1 <1>  -0.1600 
 20 C        9.5020     2.9700    -0.6290 C.3   1 <1>  -0.1600 
 21 C       10.3940     1.2690     0.9960 C.3   1 <1>  -0.1600 
 22 C       10.7410     2.1840    -0.1850 C.3   1 <1>  -0.0800 
 23 C       11.8730     3.1430     0.1970 C.3   1 <1>  -0.2400 
 24 H        2.0890    -0.8000     1.3770 H     1 <1>   0.1500 
 25 H       -0.2030    -3.8700    -0.5300 H     1 <1>   0.1500 
 26 H        1.6920    -4.3470    -1.9990 H     1 <1>   0.1500 
 27 H        3.7720    -3.0630    -1.7890 H     1 <1>   0.1500 
 28 H        3.6400     0.4250    -1.3710 H     1 <1>   0.0800 
 29 H        4.8230    -0.6710    -2.0250 H     1 <1>   0.0800 
 30 H        5.7860    -2.5060    -0.2720 H     1 <1>   0.0800 
 31 H        5.1260    -2.4070     1.3360 H     1 <1>   0.0800 
 32 H        5.2650     1.4700     0.0650 H     1 <1>   0.0800 
 33 H        5.8860     1.4610    -1.5600 H     1 <1>   0.0800 
 34 H        7.3900    -1.4070     1.1810 H     1 <1>   0.0800 
 35 H        6.1850    -0.2840     1.7420 H     1 <1>   0.0800 
 36 H        7.2800    -0.4130    -1.0030 H     1 <1>   0.4500 
 37 H        7.6210     1.6960     1.0180 H     1 <1>   0.0800 
 38 H        7.4990     2.6610    -1.2290 H     1 <1>   0.0800 
 39 H        8.6070     1.4530    -1.8370 H     1 <1>   0.0800 
 40 H        9.5500    -0.3450    -0.1200 H     1 <1>   0.0800 
 41 H        9.0210    -0.2420     1.5440 H     1 <1>   0.0800 
 42 H        9.2040     3.6450     0.1560 H     1 <1>   0.0800 
 43 H        9.7480     3.5670    -1.4930 H     1 <1>   0.0800 
 44 H       11.2600     0.6840     1.2600 H     1 <1>   0.0800 
 45 H       10.1350     1.8700     1.8520 H     1 <1>   0.0800 
 46 H       11.0820     1.5770    -1.0080 H     1 <1>   0.0800 
 47 H       11.5830     3.7750     1.0180 H     1 <1>   0.0800 
 48 H       12.1330     3.7680    -0.6390 H     1 <1>   0.0800 
 49 H       12.7510     2.5910     0.4860 H     1 <1>   0.0800 
@<TRIPOS>BOND
  1   1   2  1   
  2   2   3  1   
  3   2   4  1   
  4   2   5  1   
  5   5   6  ar  
  6   5   7  ar  
  7   6   8  ar  
  8   6  24  1   
  9   7   9  ar  
 10   7  25  1   
 11   8  10  1   
 12   8  11  ar  
 13   9  11  ar  
 14   9  26  1   
 15  10  12  1   
 16  10  13  1   
 17  11  27  1   
 18  12  14  1   
 19  12  28  1   
 20  12  29  1   
 21  13  15  1   
 22  13  30  1   
 23  13  31  1   
 24  14  16  1   
 25  14  32  1   
 26  14  33  1   
 27  15  16  1   
 28  15  34  1   
 29  15  35  1   
 30  16  17  1   
 31  16  36  1   
 32  17  18  1   
 33  17  19  1   
 34  17  37  1   
 35  18  20  1   
 36  18  38  1   
 37  18  39  1   
 38  19  21  1   
 39  19  40  1   
 40  19  41  1   
 41  20  22  1   
 42  20  42  1   
 43  20  43  1   
 44  21  22  1   
 45  21  44  1   
 46  21  45  1   
 47  22  23  1   
 48  22  46  1   
 49  23  47  1   
 50  23  48  1   
 51  23  49  1   
@<TRIPOS>SUBSTRUCTURE
  1 ****  10 GROUP 4 **** **** 0

# MOE 2024.06 (io_trps.svl 2023.06)
