@<TRIPOS>MOLECULE
NONAME
44 45 1 0 0 
SMALL
USER_CHARGES


@<TRIPOS>ATOM
  1 S       -0.1310    -0.7680    -0.3860 S.3   1 <1>  -0.2860 
  2 C        1.5330    -0.2380     0.0360 C.2   1 <1>   0.2420 
  3 C       -0.8790    -1.1060     1.2850 C.3   1 <1>   0.1310 
  4 N        1.9500    -0.1120     1.2440 N.2   1 <1>  -0.3380 
  5 N        2.4510     0.0610    -0.8810 N.pl3 1 <1>   0.0480 
  6 C       -2.3450    -1.4970     1.1760 C.2   1 <1>   0.5690 
  7 N        3.2190     0.2910     1.1460 N.2   1 <1>  -0.3380 
  8 C        3.5040     0.3870    -0.1140 C.2   1 <1>   0.0060 
  9 C        2.3220     0.0180    -2.3520 C.3   1 <1>   0.0160 
 10 O       -2.8240    -2.1350     2.0810 O.2   1 <1>  -0.5700 
 11 N       -3.0460    -1.1060     0.0660 N.am  1 <1>  -0.5470 
 12 C        4.8540     0.8140    -0.6820 C.3   1 <1>   0.0200 
 13 C       -4.3900    -1.2740    -0.3030 C.ar  1 <1>   0.1170 
 14 C        5.9270     1.0280     0.3970 C.3   1 <1>  -0.1600 
 15 C       -5.3990    -1.5760     0.6080 C.ar  1 <1>  -0.1500 
 16 C       -4.7350    -1.1150    -1.6400 C.ar  1 <1>  -0.1500 
 17 C        7.2710     1.4440    -0.2160 C.3   1 <1>  -0.1600 
 18 C       -6.7140    -1.7230     0.1990 C.ar  1 <1>  -0.1430 
 19 C       -6.0460    -1.2570    -2.0570 C.ar  1 <1>  -0.1500 
 20 C        8.3270     1.6540     0.8720 C.3   1 <1>  -0.2400 
 21 C       -7.0350    -1.5610    -1.1380 C.ar  1 <1>  -0.1500 
 22 C       -7.7990    -2.0560     1.2070 C.3   1 <1>  -0.0970 
 23 H       -0.7750    -0.2110     1.8700 H     1 <1>   0.0800 
 24 H       -0.3110    -1.9000     1.7330 H     1 <1>   0.0800 
 25 H        2.4330    -0.9970    -2.6870 H     1 <1>   0.0800 
 26 H        3.0770     0.6330    -2.8060 H     1 <1>   0.0800 
 27 H        1.3520     0.3840    -2.6370 H     1 <1>   0.0800 
 28 H       -2.4670    -0.6590    -0.6450 H     1 <1>   0.3700 
 29 H        4.7220     1.7300    -1.2300 H     1 <1>   0.0800 
 30 H        5.1950     0.0570    -1.3650 H     1 <1>   0.0800 
 31 H        6.0520     0.1160     0.9550 H     1 <1>   0.0800 
 32 H        5.5920     1.7900     1.0810 H     1 <1>   0.0800 
 33 H       -5.1570    -1.6950     1.6470 H     1 <1>   0.1500 
 34 H       -3.9760    -0.8820    -2.3620 H     1 <1>   0.1500 
 35 H        7.1500     2.3600    -0.7700 H     1 <1>   0.0800 
 36 H        7.6130     0.6820    -0.8960 H     1 <1>   0.0800 
 37 H       -6.3000    -1.1320    -3.0950 H     1 <1>   0.1500 
 38 H        8.0170     2.4270     1.5540 H     1 <1>   0.0800 
 39 H        9.2630     1.9450     0.4280 H     1 <1>   0.0800 
 40 H        8.4800     0.7450     1.4280 H     1 <1>   0.0800 
 41 H       -8.0530    -1.6700    -1.4670 H     1 <1>   0.1500 
 42 H       -7.3740    -2.5020     2.0880 H     1 <1>   0.0800 
 43 H       -8.5030    -2.7480     0.7820 H     1 <1>   0.0800 
 44 H       -8.3200    -1.1590     1.4900 H     1 <1>   0.0800 
@<TRIPOS>BOND
  1   1   2  1   
  2   1   3  1   
  3   2   4  2   
  4   2   5  1   
  5   3   6  1   
  6   3  23  1   
  7   3  24  1   
  8   4   7  1   
  9   5   8  1   
 10   5   9  1   
 11   6  10  2   
 12   6  11  am  
 13   7   8  2   
 14   8  12  1   
 15   9  25  1   
 16   9  26  1   
 17   9  27  1   
 18  11  13  1   
 19  11  28  1   
 20  12  14  1   
 21  12  29  1   
 22  12  30  1   
 23  13  15  ar  
 24  13  16  ar  
 25  14  17  1   
 26  14  31  1   
 27  14  32  1   
 28  15  18  ar  
 29  15  33  1   
 30  16  19  ar  
 31  16  34  1   
 32  17  20  1   
 33  17  35  1   
 34  17  36  1   
 35  18  21  ar  
 36  18  22  1   
 37  19  21  ar  
 38  19  37  1   
 39  20  38  1   
 40  20  39  1   
 41  20  40  1   
 42  21  41  1   
 43  22  42  1   
 44  22  43  1   
 45  22  44  1   
@<TRIPOS>SUBSTRUCTURE
  1 ****   1 GROUP 4 **** **** 0

# MOE 2024.06 (io_trps.svl 2023.06)
