@<TRIPOS>MOLECULE
NONAME
46 47 1 0 0 
SMALL
USER_CHARGES


@<TRIPOS>ATOM
  1 O       -2.5870     4.2790     0.9710 O.3   1 <1>  -0.3630 
  2 C       -3.6710     3.6190     0.4700 C.ar  1 <1>   0.0820 
  3 C       -2.3850     5.6650     0.7950 C.3   1 <1>   0.0400 
  4 C       -3.8880     2.2750     0.8160 C.ar  1 <1>   0.0820 
  5 C       -4.5850     4.2560    -0.3670 C.ar  1 <1>  -0.1500 
  6 O       -3.0860     1.5120     1.6130 O.3   1 <1>  -0.3630 
  7 C       -5.0090     1.6180     0.3420 C.ar  1 <1>  -0.1500 
  8 C       -5.7060     3.5830    -0.8420 C.ar  1 <1>   0.0820 
  9 C       -1.6900     1.7140     1.6580 C.3   1 <1>   0.0400 
 10 C       -5.9190     2.2580    -0.4820 C.ar  1 <1>  -0.1440 
 11 O       -6.6410     4.1630    -1.6490 O.3   1 <1>  -0.3630 
 12 C       -7.1350     1.5150    -0.9830 C.3   1 <1>   0.4860 
 13 C       -6.4130     5.4320    -2.2320 C.3   1 <1>   0.0400 
 14 N       -8.3090     2.2020    -0.4240 N.4   1 <1>  -0.9060 
 15 C       -9.6120     1.7350    -0.9200 C.3   1 <1>   0.4860 
 16 C      -10.6460     2.6520    -0.3150 C.ar  1 <1>  -0.1430 
 17 C      -10.9850     3.8370    -0.9520 C.ar  1 <1>  -0.1500 
 18 C      -11.2560     2.3250     0.8870 C.ar  1 <1>  -0.1500 
 19 C      -11.9190     4.6870    -0.3880 C.ar  1 <1>  -0.1500 
 20 C      -12.1890     3.1790     1.4480 C.ar  1 <1>  -0.1500 
 21 C      -12.5250     4.3630     0.8140 C.ar  1 <1>  -0.1430 
 22 C      -13.5490     5.2980     1.4320 C.3   1 <1>  -0.0970 
 23 H       -1.5020     5.9440     1.3400 H     1 <1>   0.0800 
 24 H       -3.2350     6.1960     1.1860 H     1 <1>   0.0800 
 25 H       -2.2450     5.8700    -0.2510 H     1 <1>   0.0800 
 26 H       -4.4250     5.2780    -0.6420 H     1 <1>   0.1500 
 27 H       -5.1470     0.5910     0.6340 H     1 <1>   0.1500 
 28 H       -1.2340     0.8200     2.0440 H     1 <1>   0.0800 
 29 H       -1.4790     2.5390     2.3150 H     1 <1>   0.0800 
 30 H       -1.3280     1.9130     0.6650 H     1 <1>   0.0800 
 31 H       -7.1060     0.4860    -0.6620 H     1 <1>   0.0800 
 32 H       -7.1550     1.5510    -2.0600 H     1 <1>   0.0800 
 33 H       -7.2290     5.6520    -2.8970 H     1 <1>   0.0800 
 34 H       -5.4910     5.4050    -2.7870 H     1 <1>   0.0800 
 35 H       -6.3700     6.1750    -1.4540 H     1 <1>   0.0800 
 36 H       -8.1970     3.1970    -0.6710 H     1 <1>   0.4500 
 37 H       -8.2870     2.1780     0.6000 H     1 <1>   0.4500 
 38 H       -9.7940     0.7170    -0.6160 H     1 <1>   0.0800 
 39 H       -9.6530     1.7950    -1.9960 H     1 <1>   0.0800 
 40 H      -10.5340     4.1150    -1.8900 H     1 <1>   0.1500 
 41 H      -11.0190     1.4100     1.4030 H     1 <1>   0.1500 
 42 H      -12.1770     5.6060    -0.8870 H     1 <1>   0.1500 
 43 H      -12.6580     2.9190     2.3820 H     1 <1>   0.1500 
 44 H      -13.0580     6.0020     2.0790 H     1 <1>   0.0800 
 45 H      -14.2690     4.7430     2.0060 H     1 <1>   0.0800 
 46 H      -14.0760     5.8400     0.6660 H     1 <1>   0.0800 
@<TRIPOS>BOND
  1   1   2  1   
  2   1   3  1   
  3   2   4  ar  
  4   2   5  ar  
  5   3  23  1   
  6   3  24  1   
  7   3  25  1   
  8   4   6  1   
  9   4   7  ar  
 10   5   8  ar  
 11   5  26  1   
 12   6   9  1   
 13   7  10  ar  
 14   7  27  1   
 15   8  10  ar  
 16   8  11  1   
 17   9  28  1   
 18   9  29  1   
 19   9  30  1   
 20  10  12  1   
 21  11  13  1   
 22  12  14  1   
 23  12  31  1   
 24  12  32  1   
 25  13  33  1   
 26  13  34  1   
 27  13  35  1   
 28  14  15  1   
 29  14  36  1   
 30  14  37  1   
 31  15  16  1   
 32  15  38  1   
 33  15  39  1   
 34  16  17  ar  
 35  16  18  ar  
 36  17  19  ar  
 37  17  40  1   
 38  18  20  ar  
 39  18  41  1   
 40  19  21  ar  
 41  19  42  1   
 42  20  21  ar  
 43  20  43  1   
 44  21  22  1   
 45  22  44  1   
 46  22  45  1   
 47  22  46  1   
@<TRIPOS>SUBSTRUCTURE
  1 ****  14 GROUP 4 **** **** 0

# MOE 2024.06 (io_trps.svl 2023.06)
