@<TRIPOS>MOLECULE
NONAME
42 45 1 0 0 
SMALL
USER_CHARGES


@<TRIPOS>ATOM
  1 N       -1.7210     0.7390    -0.8780 N.pl3 1 <1>  -0.7040 
  2 C       -2.8020     0.1060    -0.4310 C.cat 1 <1>   1.0690 
  3 C       -1.9520     2.0920    -0.7090 C.2   1 <1>   0.1740 
  4 N       -3.7040     0.9720     0.0130 N.pl3 1 <1>  -0.6420 
  5 N       -3.2100    -1.1780    -0.3250 N.pl3 1 <1>  -0.5810 
  6 C       -3.1770     2.2400    -0.1590 C.2   1 <1>   0.1920 
  7 C       -0.9240     3.1290    -1.1160 C.3   1 <1>  -0.0810 
  8 C       -4.8060     0.2360     0.4180 C.ar  1 <1>   0.3800 
  9 C       -4.5030    -1.1040     0.1990 C.ar  1 <1>   0.3040 
 10 C       -2.5160    -2.4210    -0.7690 C.3   1 <1>   0.1590 
 11 C       -6.0290     0.6230     0.9470 C.ar  1 <1>  -0.1590 
 12 C       -5.4400    -2.0890     0.4970 C.ar  1 <1>  -0.1590 
 13 C       -2.1410    -3.3290     0.4250 C.3   1 <1>   0.3360 
 14 C       -6.9520    -0.3600     1.2490 C.ar  1 <1>  -0.1590 
 15 C       -6.6590    -1.7060     1.0240 C.ar  1 <1>  -0.1590 
 16 N       -1.4380    -4.5850     0.0110 N.4   1 <1>  -0.9610 
 17 C       -2.2570    -5.5320    -0.7920 C.3   1 <1>   0.3360 
 18 C       -0.9770    -5.3770     1.1800 C.3   1 <1>   0.3360 
 19 C       -1.5290    -6.8620    -0.6660 C.3   1 <1>  -0.1690 
 20 C       -0.6980    -6.7610     0.6140 C.3   1 <1>  -0.1690 
 21 H       -0.8890     0.3220    -1.2920 H     1 <1>   0.4440 
 22 H       -3.7090     3.1380     0.1180 H     1 <1>   0.1410 
 23 H       -0.7190     3.0560    -2.1690 H     1 <1>   0.0710 
 24 H       -0.0090     2.9800    -0.5710 H     1 <1>   0.0710 
 25 H       -1.2890     4.1190    -0.9070 H     1 <1>   0.0710 
 26 H       -1.6230    -2.1550    -1.3080 H     1 <1>   0.0710 
 27 H       -3.1700    -2.9540    -1.4380 H     1 <1>   0.0710 
 28 H       -6.2480     1.6630     1.1130 H     1 <1>   0.1410 
 29 H       -5.2320    -3.1280     0.3210 H     1 <1>   0.1410 
 30 H       -3.0360    -3.5920     0.9650 H     1 <1>   0.0710 
 31 H       -1.4980    -2.7760     1.0910 H     1 <1>   0.0710 
 32 H       -7.9130    -0.0910     1.6610 H     1 <1>   0.1410 
 33 H       -7.4050    -2.4480     1.2650 H     1 <1>   0.1410 
 34 H       -0.5910    -4.3780    -0.5370 H     1 <1>   0.4440 
 35 H       -2.3390    -5.2230    -1.8220 H     1 <1>   0.0710 
 36 H       -3.2410    -5.6220    -0.3600 H     1 <1>   0.0710 
 37 H       -1.7650    -5.4420     1.9130 H     1 <1>   0.0710 
 38 H       -0.0970    -4.9490     1.6350 H     1 <1>   0.0710 
 39 H       -0.8890    -7.0130    -1.5180 H     1 <1>   0.0710 
 40 H       -2.2350    -7.6740    -0.6210 H     1 <1>   0.0710 
 41 H       -0.9690    -7.5200     1.3280 H     1 <1>   0.0710 
 42 H        0.3500    -6.8620     0.3910 H     1 <1>   0.0710 
@<TRIPOS>BOND
  1   1   2  ar  
  2   1   3  1   
  3   1  21  1   
  4   2   4  ar  
  5   2   5  ar  
  6   3   6  2   
  7   3   7  1   
  8   4   6  1   
  9   4   8  1   
 10   5   9  1   
 11   5  10  1   
 12   6  22  1   
 13   7  23  1   
 14   7  24  1   
 15   7  25  1   
 16   8   9  ar  
 17   8  11  ar  
 18   9  12  ar  
 19  10  13  1   
 20  10  26  1   
 21  10  27  1   
 22  11  14  ar  
 23  11  28  1   
 24  12  15  ar  
 25  12  29  1   
 26  13  16  1   
 27  13  30  1   
 28  13  31  1   
 29  14  15  ar  
 30  14  32  1   
 31  15  33  1   
 32  16  17  1   
 33  16  18  1   
 34  16  34  1   
 35  17  19  1   
 36  17  35  1   
 37  17  36  1   
 38  18  20  1   
 39  18  37  1   
 40  18  38  1   
 41  19  20  1   
 42  19  39  1   
 43  19  40  1   
 44  20  41  1   
 45  20  42  1   
@<TRIPOS>SUBSTRUCTURE
  1 ****   5 GROUP 4 **** **** 0

# MOE 2024.06 (io_trps.svl 2023.06)
