@<TRIPOS>MOLECULE
NONAME
43 45 1 0 0 
SMALL
USER_CHARGES


@<TRIPOS>ATOM
  1 BR      -1.5540     1.9980     2.5900 Br    1 <1>  -0.1110 
  2 C       -0.8750     2.4940     0.8550 C.ar  1 <1>   0.1110 
  3 C       -1.6680     2.3130    -0.2690 C.ar  1 <1>  -0.1440 
  4 C        0.3970     3.0290     0.7890 C.ar  1 <1>  -0.1500 
  5 C       -1.1450     2.6820    -1.5020 C.ar  1 <1>  -0.1500 
  6 C       -3.0620     1.7310    -0.1590 C.3   1 <1>   0.4870 
  7 C        0.8990     3.3960    -0.4460 C.ar  1 <1>  -0.1500 
  8 C        0.1290     3.2220    -1.5860 C.ar  1 <1>  -0.1500 
  9 N       -3.9590     2.7360     0.4720 N.4   1 <1>  -0.9590 
 10 C       -5.3210     2.1660     0.7770 C.3   1 <1>   0.3430 
 11 C       -4.0690     4.0020    -0.3450 C.3   1 <1>   0.3430 
 12 C       -6.2470     3.1840     1.4740 C.3   1 <1>   0.2090 
 13 C       -4.9690     5.0630     0.3230 C.3   1 <1>   0.2090 
 14 N       -6.2770     4.4880     0.7500 N.pl3 1 <1>  -0.8380 
 15 C       -7.4000     4.7740    -0.0260 C.ar  1 <1>   0.1000 
 16 C       -8.3640     5.6790     0.4190 C.ar  1 <1>  -0.1430 
 17 C       -7.5740     4.1560    -1.2600 C.ar  1 <1>  -0.1500 
 18 C       -9.4720     5.9470    -0.3680 C.ar  1 <1>  -0.1500 
 19 C       -8.2130     6.3790     1.7630 C.3   1 <1>  -0.0970 
 20 C       -8.6810     4.4280    -2.0410 C.ar  1 <1>  -0.1500 
 21 C       -9.6330     5.3250    -1.5940 C.ar  1 <1>  -0.1500 
 22 H        0.9850     3.1540     1.6820 H     1 <1>   0.1500 
 23 H       -1.7130     2.5540    -2.4090 H     1 <1>   0.1500 
 24 H       -3.0250     0.8370     0.4430 H     1 <1>   0.0800 
 25 H       -3.4280     1.4670    -1.1380 H     1 <1>   0.0800 
 26 H        1.8890     3.8150    -0.5240 H     1 <1>   0.1500 
 27 H        0.5320     3.5060    -2.5450 H     1 <1>   0.1500 
 28 H       -3.5230     2.9970     1.3670 H     1 <1>   0.4500 
 29 H       -5.2240     1.2970     1.4080 H     1 <1>   0.0800 
 30 H       -5.7960     1.8580    -0.1390 H     1 <1>   0.0800 
 31 H       -4.4850     3.7730    -1.3110 H     1 <1>   0.0800 
 32 H       -3.0910     4.4270    -0.5000 H     1 <1>   0.0800 
 33 H       -5.9110     3.3520     2.4830 H     1 <1>   0.0800 
 34 H       -7.2450     2.7820     1.5280 H     1 <1>   0.0800 
 35 H       -5.1420     5.8710    -0.3680 H     1 <1>   0.0800 
 36 H       -4.4690     5.4740     1.1830 H     1 <1>   0.0800 
 37 H       -6.8430     3.4590    -1.6160 H     1 <1>   0.1500 
 38 H      -10.2200     6.6430    -0.0320 H     1 <1>   0.1500 
 39 H       -8.1830     5.6490     2.5510 H     1 <1>   0.0800 
 40 H       -9.0330     7.0490     1.9470 H     1 <1>   0.0800 
 41 H       -7.2990     6.9440     1.7780 H     1 <1>   0.0800 
 42 H       -8.8090     3.9460    -2.9940 H     1 <1>   0.1500 
 43 H      -10.4990     5.5410    -2.1970 H     1 <1>   0.1500 
@<TRIPOS>BOND
  1   1   2  1   
  2   2   3  ar  
  3   2   4  ar  
  4   3   5  ar  
  5   3   6  1   
  6   4   7  ar  
  7   4  22  1   
  8   5   8  ar  
  9   5  23  1   
 10   6   9  1   
 11   6  24  1   
 12   6  25  1   
 13   7   8  ar  
 14   7  26  1   
 15   8  27  1   
 16   9  10  1   
 17   9  11  1   
 18   9  28  1   
 19  10  12  1   
 20  10  29  1   
 21  10  30  1   
 22  11  13  1   
 23  11  31  1   
 24  11  32  1   
 25  12  14  1   
 26  12  33  1   
 27  12  34  1   
 28  13  14  1   
 29  13  35  1   
 30  13  36  1   
 31  14  15  1   
 32  15  16  ar  
 33  15  17  ar  
 34  16  18  ar  
 35  16  19  1   
 36  17  20  ar  
 37  17  37  1   
 38  18  21  ar  
 39  18  38  1   
 40  19  39  1   
 41  19  40  1   
 42  19  41  1   
 43  20  21  ar  
 44  20  42  1   
 45  21  43  1   
@<TRIPOS>SUBSTRUCTURE
  1 ****  11 GROUP 4 **** **** 0

# MOE 2024.06 (io_trps.svl 2023.06)
