@<TRIPOS>MOLECULE
NONAME
31 32 1 0 0 
SMALL
USER_CHARGES


@<TRIPOS>ATOM
  1 O        0.6230    -3.9610     2.0380 O.2   1 <1>  -0.5700 
  2 C        0.1100    -3.3710     1.1170 C.2   1 <1>   0.5690 
  3 N        0.7960    -2.4180     0.4340 N.am  1 <1>  -0.7300 
  4 C       -1.3310    -3.7080     0.7320 C.3   1 <1>   0.2610 
  5 C        2.2260    -2.0480     0.6660 C.3   1 <1>   0.2010 
  6 O       -1.7420    -2.9540    -0.4080 O.3   1 <1>  -0.3620 
  7 C       -2.2790    -3.4390     1.9090 C.3   1 <1>   0.1200 
  8 C        2.8910    -1.3850    -0.5400 C.2   1 <1>   0.6590 
  9 C       -3.0740    -2.8840    -0.6570 C.ar  1 <1>   0.0820 
 10 O       -3.6230    -3.6860     1.5370 O.3   1 <1>  -0.3630 
 11 O        2.2590    -1.0070    -1.4960 O.2   1 <1>  -0.5700 
 12 O        4.2100    -1.2420    -0.4680 O.3   1 <1>  -0.4300 
 13 C       -4.0110    -3.2610     0.3080 C.ar  1 <1>   0.0820 
 14 C       -3.4990    -2.4320    -1.8940 C.ar  1 <1>  -0.1500 
 15 C        4.9510    -0.6440    -1.5130 C.3   1 <1>   0.0400 
 16 C       -5.3620    -3.1990     0.0180 C.ar  1 <1>  -0.1500 
 17 C       -4.8540    -2.3670    -2.1770 C.ar  1 <1>  -0.1500 
 18 C       -5.7840    -2.7520    -1.2240 C.ar  1 <1>  -0.1500 
 19 H        0.3550    -1.9670    -0.3800 H     1 <1>   0.3700 
 20 H       -1.3780    -4.7480     0.4670 H     1 <1>   0.0800 
 21 H        2.7820    -2.9330     0.9220 H     1 <1>   0.0800 
 22 H        2.2780    -1.3700     1.4980 H     1 <1>   0.0800 
 23 H       -2.2010    -2.4140     2.2250 H     1 <1>   0.0800 
 24 H       -2.0410    -4.0810     2.7390 H     1 <1>   0.0800 
 25 H       -2.7720    -2.1370    -2.6290 H     1 <1>   0.1500 
 26 H        5.9900    -0.6380    -1.2350 H     1 <1>   0.0800 
 27 H        4.6000     0.3630    -1.6570 H     1 <1>   0.0800 
 28 H        4.8110    -1.2180    -2.4130 H     1 <1>   0.0800 
 29 H       -6.0760    -3.4980     0.7650 H     1 <1>   0.1500 
 30 H       -5.1850    -2.0180    -3.1400 H     1 <1>   0.1500 
 31 H       -6.8350    -2.7030    -1.4470 H     1 <1>   0.1500 
@<TRIPOS>BOND
  1   1   2  2   
  2   2   3  am  
  3   2   4  1   
  4   3   5  1   
  5   3  19  1   
  6   4   6  1   
  7   4   7  1   
  8   4  20  1   
  9   5   8  1   
 10   5  21  1   
 11   5  22  1   
 12   6   9  1   
 13   7  10  1   
 14   7  23  1   
 15   7  24  1   
 16   8  11  2   
 17   8  12  1   
 18   9  13  ar  
 19   9  14  ar  
 20  10  13  1   
 21  12  15  1   
 22  13  16  ar  
 23  14  17  ar  
 24  14  25  1   
 25  15  26  1   
 26  15  27  1   
 27  15  28  1   
 28  16  18  ar  
 29  16  29  1   
 30  17  18  ar  
 31  17  30  1   
 32  18  31  1   
@<TRIPOS>SUBSTRUCTURE
  1 ****   6 GROUP 4 **** **** 0

# MOE 2024.06 (io_trps.svl 2023.06)
