@<TRIPOS>MOLECULE
NONAME
41 42 1 0 0 
SMALL
USER_CHARGES


@<TRIPOS>ATOM
  1 S       -0.0110    -1.3410    -0.3490 S.o2  1 <1>   1.2570 
  2 O       -0.2140    -0.8590    -1.6990 O.2   1 <1>  -0.6500 
  3 O       -0.1010    -2.7660    -0.1100 O.2   1 <1>  -0.6500 
  4 C        1.5960    -0.7350     0.2560 C.2   1 <1>   0.1240 
  5 C       -1.1670    -0.5040     0.7320 C.3   1 <1>  -0.0550 
  6 N        1.7840     0.0550     1.2810 N.2   1 <1>  -0.5650 
  7 N        2.7650    -1.0830    -0.3470 N.pl3 1 <1>   0.0480 
  8 C       -2.6290    -0.8070     0.3870 C.3   1 <1>   0.0000 
  9 C        3.1130     0.2220     1.3440 C.2   1 <1>   0.0770 
 10 C        3.7330    -0.4590     0.3590 C.2   1 <1>  -0.3320 
 11 C        2.9500    -1.9710    -1.5260 C.3   1 <1>   0.0960 
 12 C       -3.6580    -0.2360     1.3990 C.3   1 <1>   0.0000 
 13 C       -3.1310    -2.2190     0.7900 C.3   1 <1>   0.0000 
 14 C        5.2160    -0.5430     0.0690 C.3   1 <1>   0.3000 
 15 C        3.1830    -3.4200    -1.0810 C.3   1 <1>  -0.1600 
 16 C       -4.4670    -1.5430     1.1910 C.3   1 <1>   0.0000 
 17 O        5.4270     0.1020    -1.1270 O.3   1 <1>  -0.6800 
 18 C        3.3740    -4.3410    -2.2920 C.3   1 <1>  -0.1600 
 19 C        3.6070    -5.7880    -1.8490 C.3   1 <1>  -0.2400 
 20 H       -1.0130     0.5550     0.6540 H     1 <1>   0.0800 
 21 H       -0.9730    -0.7880     1.7480 H     1 <1>   0.0800 
 22 H       -2.8890    -0.5570    -0.6280 H     1 <1>   0.0000 
 23 H        3.5620     0.8360     2.1090 H     1 <1>   0.1500 
 24 H        3.7930    -1.6240    -2.0960 H     1 <1>   0.0800 
 25 H        2.0850    -1.9140    -2.1600 H     1 <1>   0.0800 
 26 H       -4.1640     0.6480     1.0540 H     1 <1>   0.0000 
 27 H       -3.2690    -0.1490     2.3990 H     1 <1>   0.0000 
 28 H       -2.6080    -2.6320     1.6360 H     1 <1>   0.0000 
 29 H       -3.2190    -2.9020    -0.0370 H     1 <1>   0.0000 
 30 H        5.5530    -1.5610    -0.0230 H     1 <1>   0.0800 
 31 H        5.7900    -0.0410     0.8300 H     1 <1>   0.0800 
 32 H        2.3370    -3.7620    -0.5100 H     1 <1>   0.0800 
 33 H        4.0580    -3.4680    -0.4570 H     1 <1>   0.0800 
 34 H       -5.1610    -1.4760     0.3710 H     1 <1>   0.0000 
 35 H       -4.9010    -1.9360     2.0930 H     1 <1>   0.0000 
 36 H        4.9450     0.9510    -1.1120 H     1 <1>   0.4000 
 37 H        4.2180    -4.0090    -2.8740 H     1 <1>   0.0800 
 38 H        2.4980    -4.3020    -2.9180 H     1 <1>   0.0800 
 39 H        4.4900    -5.8590    -1.2380 H     1 <1>   0.0800 
 40 H        3.7350    -6.4200    -2.7100 H     1 <1>   0.0800 
 41 H        2.7640    -6.1480    -1.2840 H     1 <1>   0.0800 
@<TRIPOS>BOND
  1   1   2  2   
  2   1   3  2   
  3   1   4  1   
  4   1   5  1   
  5   4   6  2   
  6   4   7  1   
  7   5   8  1   
  8   5  20  1   
  9   5  21  1   
 10   6   9  1   
 11   7  10  1   
 12   7  11  1   
 13   8  12  1   
 14   8  13  1   
 15   8  22  1   
 16   9  10  2   
 17   9  23  1   
 18  10  14  1   
 19  11  15  1   
 20  11  24  1   
 21  11  25  1   
 22  12  16  1   
 23  12  26  1   
 24  12  27  1   
 25  13  16  1   
 26  13  28  1   
 27  13  29  1   
 28  14  17  1   
 29  14  30  1   
 30  14  31  1   
 31  15  18  1   
 32  15  32  1   
 33  15  33  1   
 34  16  34  1   
 35  16  35  1   
 36  17  36  1   
 37  18  19  1   
 38  18  37  1   
 39  18  38  1   
 40  19  39  1   
 41  19  40  1   
 42  19  41  1   
@<TRIPOS>SUBSTRUCTURE
  1 ****   4 GROUP 4 **** **** 0

# MOE 2024.06 (io_trps.svl 2023.06)
